data_PCOD8039945
_publ_section_title
;
Structure prediction by ZEFSAII (Michael W. Deem and Ramdas Pophale) SiO2 
 PCOD8039945
Probable space group: P -1
;
_chemical_formula_sum "Si O2"
_cell_formula_units_Z 16
_cell_length_a 12.125455
_cell_length_b 9.270962
_cell_length_c 21.303932
_cell_angle_alpha 113.904931
_cell_angle_beta 40.577988
_cell_angle_gamma 143.861906
_cell_volume 771.669270
_symmetry_space_group_name_H-M "P -1"
_symmetry_group_IT_number 2
_symmetry_cell_setting 'triclinic'
loop_
_space_group_symop_operation_xyz
x,y,z
-x,-y,-z
loop_
_atom_site_type_symbol
_atom_site_label
_atom_site_fract_x
_atom_site_fract_y
_atom_site_fract_z
Si Si1 0.300229 0.126318 0.697514
Si Si2 0.988250 0.120882 0.612060
Si Si3 0.237375 0.472087 0.107786
Si Si4 0.115662 0.492733 0.710622
Si Si5 0.667150 0.684256 0.062609
Si Si6 0.362844 0.903193 0.473390
Si Si7 0.500414 0.407097 0.352141
Si Si8 0.096855 0.222026 0.314684
O O1 0.409285 0.393459 0.705918
O O2 0.604410 0.249233 0.594929
O O3 0.035390 0.864862 0.814489
O O4 0.157071 0.007415 0.669269
O O5 0.967898 0.277774 0.679291
O O6 0.327149 0.360866 0.476343
O O7 0.721575 0.900930 0.635396
O O8 0.917277 0.934163 0.660734
O O9 0.529588 0.690020 0.068128
O O10 0.130854 0.569575 0.170923
O O11 0.325859 0.486685 0.001354
O O12 0.435139 0.821476 0.608154
O O13 0.190813 0.436003 0.726509
O O14 0.444588 0.513478 0.189249
O O15 0.000000 0.000000 0.000000
O O16 0.500000 0.000000 0.500000
O O17 0.009122 0.695940 0.591023
#
# Coordination Sequence:
#
# PCOD8039945 Si02
#       8
#     2   2   2   2   2   2   2   2
#     4   9  18  35  60  89 119 152 187 241 290 349
#     4  11  22  34  55  89 125 160 194 225 292 362
#     4   9  22  41  63  91 112 150 205 241 293 347
#     4  11  20  39  62  84 126 156 185 242 291 354
#     4  10  22  40  64  86 114 153 198 253 292 335
#     4   9  17  31  60  89 115 152 189 230 295 346
#     4  11  22  34  57  89 126 159 190 230 291 363
#     4  10  18  35  59  86 115 155 196 235 294 347
#
# _framework density 20.734272000000001
#
# number of rings (size 3 to 8) (size 9 to 14) (size 15 to 20)
#    0.000    2.000    2.500    2.625    1.750    1.000 
#    0.000    2.500    0.000    1.500    0.000    0.000 
#    0.000    0.000    0.000    0.000    0.000    0.000 
#
# Total GULP energy -198315.375011 kJ/mol
# GULP energy per Si atom -12394.710938 kJ/mol
# Density = 2.068708 g / cm^3
# Si number density = 20.734272 Si / 1000 Ang^3
#
#
#
# Elastic Constant Matrix: (Units=GPa)
#
#
# Indices 1 2 3 4 5 6 
#
# 1 48.0018 39.7676 35.0795 9.7685 -6.8141 -17.2082
# 2 39.7676 98.4828 45.2176 8.1864 -26.1930 -9.3628
# 3 35.0795 45.2176 123.6076 11.1640 -24.1938 -7.5111
# 4 9.7685 8.1864 11.1640 27.9529 -12.4967 -3.1265
# 5 -6.8141 -26.1930 -24.1938 -12.4967 24.5862 1.7124
# 6 -17.2082 -9.3628 -7.5111 -3.1265 1.7124 29.1062
#
#
#
# Elastic Compliance Matrix: (Units=1/GPa)
#
#
# Indices 1 2 3 4 5 6 
#
# 1 0.052651 -0.020556 -0.009913 -0.018510 -0.027975 0.021616
# 2 -0.020556 0.023655 0.001093 0.011189 0.026588 -0.004624
# 3 -0.009913 0.001093 0.012511 0.003533 0.012708 -0.002649
# 4 -0.018510 0.011189 0.003533 0.054241 0.038034 -0.002844
# 5 -0.027975 0.026588 0.012708 0.038034 0.093510 -0.006123
# 6 0.021616 -0.004624 -0.002649 -0.002844 -0.006123 0.045020
#
#
# Mechanical properties :
#
#
# Convention : Reuss Voigt Hill
#
# Bulk Modulus (GPa) = 33.26139 56.69128 44.97633
# Shear Modulus (GPa) = 14.27099 26.33090 20.30095
#
# Velocity S-wave (km/s) = 2.62636 3.56746 3.13245
# Velocity P-wave (km/s) = 5.02728 6.66110 5.90101
#
# Compressibility (1/GPa) = 0.03006489
#
# Stress axis : x y z
#
# Youngs Moduli (GPa) = 18.99287 42.27501 79.93019
#
# Poissons Ratio (x) = 0.86901 0.79234
# Poissons Ratio (y) = 0.39042 -0.08737
# Poissons Ratio (z) = 0.18828 -0.04621
#
# Static dielectric constant tensor:
#      x y z
#    x 5.240300 -0.509460 2.135770 
#    y -0.509460 3.893020 -0.447230 
#    z 2.135770 -0.447230 7.202100 
# 
# 
# High freq. dielectric constant tensor:
#      x y z
#    x 1.809580 0.000910 -0.004390 
#    y 0.000910 1.799000 0.009020 
#    z -0.004390 0.009020 1.799680 
# 
# From -- ./inp_files/285165.got.cif
#   From: 2010.06.25/outbox.cif.g09.slc.cpg/sg2_143_cif.got.tgz:285165.got - 2010.06.27 13:26:56.
