data_PCOD8039162
_publ_section_title
;
Structure prediction by ZEFSAII (Michael W. Deem and Ramdas Pophale) SiO2 
 PCOD8039162
Probable space group: P -1
;
_chemical_formula_sum "Si O2"
_cell_formula_units_Z 16
_cell_length_a 18.993749
_cell_length_b 21.974409
_cell_length_c 10.047012
_cell_angle_alpha 30.171397
_cell_angle_beta 150.304048
_cell_angle_gamma 154.270896
_cell_volume 833.734271
_symmetry_space_group_name_H-M "P -1"
_symmetry_group_IT_number 2
_symmetry_cell_setting 'triclinic'
loop_
_space_group_symop_operation_xyz
x,y,z
-x,-y,-z
loop_
_atom_site_type_symbol
_atom_site_label
_atom_site_fract_x
_atom_site_fract_y
_atom_site_fract_z
Si Si1 0.492011 0.825436 0.200417
Si Si2 0.739535 0.939268 0.146776
Si Si3 0.634257 0.845072 0.872625
Si Si4 0.703702 0.034241 0.390541
Si Si5 0.904173 0.780645 0.375536
Si Si6 0.928107 0.779000 0.720928
Si Si7 0.581843 0.478550 0.303395
Si Si8 0.404217 0.502756 0.206942
O O1 0.573327 0.847178 0.146988
O O2 0.408612 0.660692 0.435717
O O3 0.649218 0.949628 0.320342
O O4 0.334077 0.842111 0.903546
O O5 0.823557 0.850038 0.438436
O O6 0.673506 0.943540 0.883370
O O7 0.879788 0.112251 0.100182
O O8 0.589653 0.914656 0.548789
O O9 0.807314 0.859712 0.080133
O O10 0.468347 0.671088 0.959288
O O11 0.912708 0.116061 0.600570
O O12 0.947641 0.754915 0.643664
O O13 0.779943 0.625956 0.381368
O O14 0.809648 0.610862 0.909959
O O15 0.449972 0.437847 0.284493
O O16 0.500000 0.500000 0.000000
O O17 0.500000 0.500000 0.500000
#
# Coordination Sequence:
#
# PCOD8039162 Si02
#       8
#     2   2   2   2   2   2   2   2
#     4  11  22  39  58  80 117 158 192 222 283 353
#     4  10  19  33  57  86 109 144 193 235 279 335
#     4  10  21  35  59  86 113 142 190 247 280 326
#     4  11  24  39  55  81 120 160 185 229 287 341
#     4  10  20  37  59  85 115 148 189 237 289 329
#     4  10  18  32  59  87 109 144 188 240 283 332
#     4  11  22  35  59  91 113 143 188 242 283 334
#     4  11  17  34  55  84 111 140 181 232 294 326
#
# _framework density 19.190766
#
# number of rings (size 3 to 8) (size 9 to 14) (size 15 to 20)
#    0.000    1.500    6.250    1.875    0.000    2.000 
#    0.000    0.000    0.000    0.750    0.000    0.000 
#    0.000    0.000    0.000    0.000    0.000    0.000 
#
# Total GULP energy -198386.081918 kJ/mol
# GULP energy per Si atom -12399.130120 kJ/mol
# Density = 1.914709 g / cm^3
# Si number density = 19.190766 Si / 1000 Ang^3
#
#
#
# Elastic Constant Matrix: (Units=GPa)
#
#
# Indices 1 2 3 4 5 6 
#
# 1 81.4028 36.5461 36.7119 -5.3343 -17.4199 -8.2500
# 2 36.5461 122.8858 43.3244 -8.5040 -4.1116 2.4475
# 3 36.7119 43.3244 83.1855 -18.6948 -14.2580 -7.4618
# 4 -5.3343 -8.5040 -18.6948 22.3967 3.3637 -3.2291
# 5 -17.4199 -4.1116 -14.2580 3.3637 20.3063 -4.3882
# 6 -8.2500 2.4475 -7.4618 -3.2291 -4.3882 29.7084
#
#
#
# Elastic Compliance Matrix: (Units=1/GPa)
#
#
# Indices 1 2 3 4 5 6 
#
# 1 0.019719 -0.004370 -0.003393 -0.001075 0.015368 0.007137
# 2 -0.004370 0.011242 -0.005698 -0.001255 -0.006267 -0.004633
# 3 -0.003393 -0.005698 0.022637 0.015486 0.011109 0.008537
# 4 -0.001075 -0.001255 0.015486 0.057984 0.002327 0.010341
# 5 0.015368 -0.006267 0.011109 0.002327 0.072584 0.018548
# 6 0.007137 -0.004633 0.008537 0.010341 0.018548 0.042032
#
#
# Mechanical properties :
#
#
# Convention : Reuss Voigt Hill
#
# Bulk Modulus (GPa) = 37.49033 57.84878 47.66955
# Shear Modulus (GPa) = 19.08308 25.87507 22.47907
#
# Velocity S-wave (km/s) = 3.15681 3.67592 3.42621
# Velocity P-wave (km/s) = 5.73283 6.94449 6.36755
#
# Compressibility (1/GPa) = 0.02667354
#
# Stress axis : x y z
#
# Youngs Moduli (GPa) = 50.71326 88.95216 44.17613
#
# Poissons Ratio (x) = 0.38874 0.14991
# Poissons Ratio (y) = 0.22163 0.25173
# Poissons Ratio (z) = 0.17209 0.50687
#
# Static dielectric constant tensor:
#      x y z
#    x 3.482130 -0.117170 -0.196230 
#    y -0.117170 3.705990 -0.018260 
#    z -0.196230 -0.018260 3.166200 
# 
# 
# High freq. dielectric constant tensor:
#      x y z
#    x 1.750740 -0.005700 -0.023340 
#    y -0.005700 1.752900 -0.004660 
#    z -0.023340 -0.004660 1.708480 
# 
# From -- ./inp_files/338048.got.cif
#   From: 2010.06.25/outbox.cif.g09.slc.cpg/sg2_170_cif.got.tgz:338048.got - 2010.06.27 13:26:56.
