data_PCOD8039212
_publ_section_title
;
Structure prediction by ZEFSAII (Michael W. Deem and Ramdas Pophale) SiO2 
 PCOD8039212
Probable space group: P -1
;
_chemical_formula_sum "Si O2"
_cell_formula_units_Z 16
_cell_length_a 8.985046
_cell_length_b 11.967506
_cell_length_c 15.723918
_cell_angle_alpha 109.611769
_cell_angle_beta 116.628573
_cell_angle_gamma 35.857856
_cell_volume 884.129411
_symmetry_space_group_name_H-M "P -1"
_symmetry_group_IT_number 2
_symmetry_cell_setting 'triclinic'
loop_
_space_group_symop_operation_xyz
x,y,z
-x,-y,-z
loop_
_atom_site_type_symbol
_atom_site_label
_atom_site_fract_x
_atom_site_fract_y
_atom_site_fract_z
Si Si1 0.977731 0.726173 0.795706
Si Si2 0.054839 0.000555 0.610360
Si Si3 0.348742 0.310465 0.250953
Si Si4 0.112130 0.689702 0.251874
Si Si5 0.042667 0.106951 0.003532
Si Si6 0.691849 0.047511 0.130262
Si Si7 0.417595 0.644322 0.181865
Si Si8 0.110354 0.012251 0.272902
O O1 0.811045 0.698792 0.739525
O O2 0.290070 0.524969 0.824551
O O3 0.901703 0.845811 0.724149
O O4 0.907585 0.832405 0.891443
O O5 0.929966 0.199785 0.649766
O O6 0.901520 0.988921 0.627593
O O7 0.000000 0.000000 0.500000
O O8 0.373439 0.818429 0.662871
O O9 0.156717 0.532088 0.255610
O O10 0.404781 0.231050 0.148179
O O11 0.371829 0.582412 0.234939
O O12 0.844573 0.853348 0.167183
O O13 0.311272 0.971171 0.977399
O O14 0.783787 0.284150 0.926258
O O15 0.000000 0.000000 0.000000
O O16 0.860671 0.074560 0.191144
O O17 0.371618 0.804423 0.244899
#
# Coordination Sequence:
#
# PCOD8039212 Si02
#       8
#     2   2   2   2   2   2   2   2
#     4  12  20  31  52  79 106 138 173 213 263 295
#     4   9  19  38  62  79  95 130 174 211 253 315
#     4  10  21  33  52  78 108 137 161 213 272 305
#     4   8  17  35  54  75 102 132 173 206 252 311
#     4  10  18  33  52  76  99 140 190 217 238 286
#     4   8  17  35  51  70 104 142 180 215 241 293
#     4   9  18  32  53  72 101 138 180 216 239 295
#     4   8  17  34  54  76  99 136 174 209 252 303
#
# _framework density 18.096899000000001
#
# number of rings (size 3 to 8) (size 9 to 14) (size 15 to 20)
#    0.000    3.500    2.500    1.875    0.000    3.000 
#    0.000    3.125    0.000    3.750    0.000    0.000 
#    0.000    0.000    0.000    0.000    0.000    0.000 
#
# Total GULP energy -198234.691866 kJ/mol
# GULP energy per Si atom -12389.668242 kJ/mol
# Density = 1.805571 g / cm^3
# Si number density = 18.096899 Si / 1000 Ang^3
#
#
#
# Elastic Constant Matrix: (Units=GPa)
#
#
# Indices 1 2 3 4 5 6 
#
# 1 80.7539 50.6967 28.8676 -0.1851 -14.0970 29.1260
# 2 50.6967 90.0493 28.6909 5.8129 -9.0271 24.0870
# 3 28.8676 28.6909 93.7985 10.5386 -24.9505 6.7768
# 4 -0.1851 5.8129 10.5386 13.9757 -4.1025 -7.1900
# 5 -14.0970 -9.0271 -24.9505 -4.1025 20.8828 -0.4557
# 6 29.1260 24.0870 6.7768 -7.1900 -0.4557 26.3878
#
#
#
# Elastic Compliance Matrix: (Units=1/GPa)
#
#
# Indices 1 2 3 4 5 6 
#
# 1 0.029380 -0.007394 -0.000305 -0.005913 0.014522 -0.026962
# 2 -0.007394 0.020413 -0.001613 -0.015071 -0.001365 -0.014187
# 3 -0.000305 -0.001613 0.017498 -0.009861 0.017956 -0.005061
# 4 -0.005913 -0.015071 -0.009861 0.113105 0.001102 0.053654
# 5 0.014522 -0.001365 0.017956 0.001102 0.078382 -0.017740
# 6 -0.026962 -0.014187 -0.005061 0.053654 -0.017740 0.096219
#
#
# Mechanical properties :
#
#
# Convention : Reuss Voigt Hill
#
# Bulk Modulus (GPa) = 20.54791 53.45689 37.00240
# Shear Modulus (GPa) = 12.82563 22.67236 17.74900
#
# Velocity S-wave (km/s) = 2.66507 3.54338 3.13513
# Velocity P-wave (km/s) = 4.56609 6.80765 5.79626
#
# Compressibility (1/GPa) = 0.04866675
#
# Stress axis : x y z
#
# Youngs Moduli (GPa) = 34.03630 48.98907 57.14843
#
# Poissons Ratio (x) = 0.36223 0.01744
# Poissons Ratio (y) = 0.25167 0.09218
# Poissons Ratio (z) = 0.01039 0.07902
#
# Static dielectric constant tensor:
#      x y z
#    x 3.343930 -0.055700 -0.347490 
#    y -0.055700 3.405280 0.196510 
#    z -0.347490 0.196510 3.162500 
# 
# 
# High freq. dielectric constant tensor:
#      x y z
#    x 1.692060 -0.000770 -0.029940 
#    y -0.000770 1.702410 0.012090 
#    z -0.029940 0.012090 1.661840 
# 
# From -- ./inp_files/557992.got.cif
#   From: 2010.06.25/outbox.cif.g09.slc.cpg/sg2_279_cif.got.tgz:557992.got - 2010.06.27 13:26:56.
