data_PCOD8039106
_publ_section_title
;
Structure prediction by ZEFSAII (Michael W. Deem and Ramdas Pophale) SiO2 
 PCOD8039106
Probable space group: P -1
;
_chemical_formula_sum "Si O2"
_cell_formula_units_Z 16
_cell_length_a 12.991383
_cell_length_b 14.084743
_cell_length_c 10.963999
_cell_angle_alpha 59.309587
_cell_angle_beta 33.556927
_cell_angle_gamma 78.577074
_cell_volume 837.555327
_symmetry_space_group_name_H-M "P -1"
_symmetry_group_IT_number 2
_symmetry_cell_setting 'triclinic'
loop_
_space_group_symop_operation_xyz
x,y,z
-x,-y,-z
loop_
_atom_site_type_symbol
_atom_site_label
_atom_site_fract_x
_atom_site_fract_y
_atom_site_fract_z
Si Si1 0.148467 0.682802 0.259043
Si Si2 0.932285 0.399587 0.884509
Si Si3 0.618623 0.403703 0.734012
Si Si4 0.785002 0.585836 0.871545
Si Si5 0.738991 0.049505 0.096407
Si Si6 0.745914 0.122587 0.311494
Si Si7 0.988473 0.021649 0.295992
Si Si8 0.767766 0.803279 0.849739
O O1 0.101987 0.629938 0.204737
O O2 0.309568 0.642493 0.187245
O O3 0.924849 0.621811 0.588267
O O4 0.257411 0.833375 0.054713
O O5 0.804099 0.474879 0.997377
O O6 0.181847 0.489123 0.605851
O O7 0.849587 0.272947 0.126613
O O8 0.459945 0.458421 0.894338
O O9 0.488387 0.282201 0.853654
O O10 0.870804 0.709980 0.791955
O O11 0.505393 0.932663 0.392998
O O12 0.806421 0.085445 0.146554
O O13 0.906259 0.013369 0.896441
O O14 0.832954 0.070916 0.366482
O O15 0.174748 0.130835 0.119548
O O16 0.849295 0.902703 0.594504
#
# Coordination Sequence:
#
# PCOD8039106 Si02
#       8
#     2   2   2   2   2   2   2   2
#     4  10  18  32  56  86 109 141 181 233 280 325
#     4  10  21  34  54  81 116 143 186 223 271 333
#     4   9  18  34  53  79 113 144 175 229 272 325
#     4   9  18  35  53  80 113 140 178 229 273 325
#     4  10  20  38  59  82 115 142 185 232 278 322
#     4  10  23  37  57  86 110 150 185 224 273 340
#     4  11  20  41  58  83 112 146 183 235 274 327
#     4   9  21  37  60  84 109 142 191 227 277 328
#
# _framework density 19.103214999999999
#
# number of rings (size 3 to 8) (size 9 to 14) (size 15 to 20)
#    0.750    1.500    1.250    2.625    0.000    3.000 
#    4.500    5.625    0.000    0.000    0.000    0.000 
#    0.000    0.000    0.000    0.000    0.000    0.000 
#
# Total GULP energy -198323.752559 kJ/mol
# GULP energy per Si atom -12395.234535 kJ/mol
# Density = 1.905973 g / cm^3
# Si number density = 19.103215 Si / 1000 Ang^3
#
#
#
# Elastic Constant Matrix: (Units=GPa)
#
#
# Indices 1 2 3 4 5 6 
#
# 1 68.6673 34.9987 31.0488 -4.6828 -11.8273 -11.8194
# 2 34.9987 102.7806 38.2894 -19.1230 -2.7547 -21.9772
# 3 31.0488 38.2894 77.6313 -19.5097 -17.7413 -15.2609
# 4 -4.6828 -19.1230 -19.5097 34.5046 -0.2541 -6.9390
# 5 -11.8273 -2.7547 -17.7413 -0.2541 29.3103 -0.0092
# 6 -11.8194 -21.9772 -15.2609 -6.9390 -0.0092 24.9840
#
#
#
# Elastic Compliance Matrix: (Units=1/GPa)
#
#
# Indices 1 2 3 4 5 6 
#
# 1 0.020256 -0.005132 -0.004840 -0.002512 0.004741 0.001416
# 2 -0.005132 0.017155 -0.000621 0.011571 -0.000729 0.015497
# 3 -0.004840 -0.000621 0.026357 0.017660 0.014101 0.018174
# 4 -0.002512 0.011571 0.017660 0.052005 0.011225 0.034225
# 5 0.004741 -0.000729 0.014101 0.011225 0.044599 0.013348
# 6 0.001416 0.015497 0.018174 0.034225 0.013348 0.074939
#
#
# Mechanical properties :
#
#
# Convention : Reuss Voigt Hill
#
# Bulk Modulus (GPa) = 23.48397 50.86146 37.17272
# Shear Modulus (GPa) = 18.47128 27.40927 22.94027
#
# Velocity S-wave (km/s) = 3.11291 3.79198 3.46910
# Velocity P-wave (km/s) = 5.02396 6.77160 5.96216
#
# Compressibility (1/GPa) = 0.04258224
#
# Stress axis : x y z
#
# Youngs Moduli (GPa) = 49.36793 58.29049 37.94097
#
# Poissons Ratio (x) = 0.29916 0.18363
# Poissons Ratio (y) = 0.25336 0.02356
# Poissons Ratio (z) = 0.23893 0.03620
#
# Static dielectric constant tensor:
#      x y z
#    x 3.252590 -0.130580 -0.040610 
#    y -0.130580 3.655010 -0.290270 
#    z -0.040610 -0.290270 3.487820 
# 
# 
# High freq. dielectric constant tensor:
#      x y z
#    x 1.723610 -0.010770 -0.008950 
#    y -0.010770 1.747180 -0.017200 
#    z -0.008950 -0.017200 1.739470 
# 
# From -- ./inp_files/453693.got.cif
#   From: 2010.06.25/outbox.cif.g09.slc.cpg/sg2_227_cif.got.tgz:453693.got - 2010.06.27 13:26:56.
