data_PCOD8039228
_publ_section_title
;
Structure prediction by ZEFSAII (Michael W. Deem and Ramdas Pophale) SiO2 
 PCOD8039228
Probable space group: P -1
;
_chemical_formula_sum "Si O2"
_cell_formula_units_Z 14
_cell_length_a 8.945724
_cell_length_b 15.873823
_cell_length_c 15.069370
_cell_angle_alpha 142.352853
_cell_angle_beta 121.046020
_cell_angle_gamma 87.436684
_cell_volume 805.305776
_symmetry_space_group_name_H-M "P -1"
_symmetry_group_IT_number 2
_symmetry_cell_setting 'triclinic'
loop_
_space_group_symop_operation_xyz
x,y,z
-x,-y,-z
loop_
_atom_site_type_symbol
_atom_site_label
_atom_site_fract_x
_atom_site_fract_y
_atom_site_fract_z
Si Si1 0.220081 0.818651 0.753254
Si Si2 0.277181 0.507705 0.878816
Si Si3 0.348086 0.211157 0.352143
Si Si4 0.868681 0.464730 0.648448
Si Si5 0.989205 0.218159 0.163457
Si Si6 0.802248 0.819111 0.349846
Si Si7 0.164434 0.218181 0.480389
O O1 0.184691 0.659505 0.555915
O O2 0.097105 0.734274 0.741489
O O3 0.102355 0.887067 0.725178
O O4 0.500000 0.000000 0.000000
O O5 0.197289 0.349561 0.797411
O O6 0.298802 0.435778 0.731570
O O7 0.074397 0.514139 0.816351
O O8 0.532570 0.720943 0.157752
O O9 0.632669 0.357449 0.545841
O O10 0.233145 0.270510 0.308044
O O11 0.314394 0.220028 0.453715
O O12 0.227313 0.002055 0.112748
O O13 0.957134 0.660540 0.804298
O O14 0.859237 0.891560 0.530528
O O15 0.000000 0.000000 0.500000
#
# Coordination Sequence:
#
# PCOD8039228 Si02
#       7
#     2   2   2   2   2   2   2
#     4  10  18  33  53  78 107 139 177 219 250 296
#     4   8  19  35  55  81 100 124 182 225 251 310
#     4  10  20  36  49  74 117 141 170 214 258 310
#     4  11  20  34  55  78 104 144 178 213 260 301
#     4  10  21  34  51  75 110 148 178 206 251 315
#     4   9  17  36  60  78  99 132 173 221 272 304
#     4   8  18  35  52  76 107 136 168 219 261 306
#
# _framework density 17.384701
#
# number of rings (size 3 to 8) (size 9 to 14) (size 15 to 20)
#    0.857    1.714    1.429    0.857    0.000    2.286 
#    2.571    0.714    0.000    1.714    0.000    0.000 
#    0.000    0.000    0.000    0.000    0.000    0.000 
#
# Total GULP energy -173514.867518 kJ/mol
# GULP energy per Si atom -12393.919108 kJ/mol
# Density = 1.734513 g / cm^3
# Si number density = 17.384701 Si / 1000 Ang^3
#
#
#
# Elastic Constant Matrix: (Units=GPa)
#
#
# Indices 1 2 3 4 5 6 
#
# 1 100.2067 54.2872 38.8172 -2.7347 23.1781 4.6640
# 2 54.2872 112.1754 53.6709 0.2209 25.3026 3.2056
# 3 38.8172 53.6709 77.7954 -4.8092 34.6147 -1.9783
# 4 -2.7347 0.2209 -4.8092 28.0839 -1.1862 -0.0123
# 5 23.1781 25.3026 34.6147 -1.1862 30.4551 -4.0056
# 6 4.6640 3.2056 -1.9783 -0.0123 -4.0056 24.6391
#
#
#
# Elastic Compliance Matrix: (Units=1/GPa)
#
#
# Indices 1 2 3 4 5 6 
#
# 1 0.014795 -0.005154 -0.001153 0.001027 -0.006049 -0.003205
# 2 -0.005154 0.015383 -0.008368 -0.002042 0.000358 -0.001640
# 3 -0.001153 -0.008368 0.032236 0.004259 -0.028746 -0.000776
# 4 0.001027 -0.002042 0.004259 0.036347 -0.002508 0.000024
# 5 -0.006049 0.000358 -0.028746 -0.002508 0.071076 0.010344
# 6 -0.003205 -0.001640 -0.000776 0.000024 0.010344 0.043025
#
#
# Mechanical properties :
#
#
# Convention : Reuss Voigt Hill
#
# Bulk Modulus (GPa) = 30.24475 64.85870 47.55172
# Shear Modulus (GPa) = 19.74461 26.19576 22.97019
#
# Velocity S-wave (km/s) = 3.37374 3.88600 3.63890
# Velocity P-wave (km/s) = 5.71063 7.58443 6.71323
#
# Compressibility (1/GPa) = 0.03306359
#
# Stress axis : x y z
#
# Youngs Moduli (GPa) = 67.59235 65.00711 31.02083
#
# Poissons Ratio (x) = 0.33507 0.03576
# Poissons Ratio (y) = 0.34840 0.25958
# Poissons Ratio (z) = 0.07791 0.54398
#
# Static dielectric constant tensor:
#      x y z
#    x 3.149630 -0.057410 0.008640 
#    y -0.057410 3.160740 -0.189930 
#    z 0.008640 -0.189930 3.125780 
# 
# 
# High freq. dielectric constant tensor:
#      x y z
#    x 1.660930 -0.004150 0.008310 
#    y -0.004150 1.661900 -0.013650 
#    z 0.008310 -0.013650 1.663830 
# 
# From -- ./inp_files/135162.got.cif
#   From: 2010.06.25/outbox.cif.g09.slc.cpg/sg2_68_cif.got.tgz:135162.got - 2010.06.27 13:26:56.
