data_PCOD8039148
_publ_section_title
;
Structure prediction by ZEFSAII (Michael W. Deem and Ramdas Pophale) SiO2 
 PCOD8039148
Probable space group: P -1
;
_chemical_formula_sum "Si O2"
_cell_formula_units_Z 16
_cell_length_a 13.441639
_cell_length_b 12.655601
_cell_length_c 8.406749
_cell_angle_alpha 124.631615
_cell_angle_beta 82.933696
_cell_angle_gamma 134.272687
_cell_volume 746.120929
_symmetry_space_group_name_H-M "P -1"
_symmetry_group_IT_number 2
_symmetry_cell_setting 'triclinic'
loop_
_space_group_symop_operation_xyz
x,y,z
-x,-y,-z
loop_
_atom_site_type_symbol
_atom_site_label
_atom_site_fract_x
_atom_site_fract_y
_atom_site_fract_z
Si Si1 0.650945 0.111069 0.397707
Si Si2 0.955828 0.448138 0.781665
Si Si3 0.482196 0.495994 0.244959
Si Si4 0.508910 0.885492 0.790248
Si Si5 0.819059 0.165214 0.125615
Si Si6 0.307782 0.445674 0.517551
Si Si7 0.356410 0.177803 0.743690
Si Si8 0.967414 0.192178 0.405939
O O1 0.766256 0.274485 0.654413
O O2 0.512809 0.079065 0.357731
O O3 0.755637 0.209617 0.300112
O O4 0.583846 0.903336 0.276144
O O5 0.017912 0.379853 0.627303
O O6 0.036928 0.645679 0.845707
O O7 0.000000 0.500000 0.000000
O O8 0.351399 0.404875 0.320612
O O9 0.619327 0.544775 0.332329
O O10 0.560831 0.704843 0.339242
O O11 0.397970 0.331083 0.987494
O O12 0.369848 0.651162 0.658740
O O13 0.500000 0.000000 0.000000
O O14 0.677750 0.983855 0.876518
O O15 0.885101 0.115732 0.181401
O O16 0.120842 0.256302 0.417848
O O17 0.166370 0.993618 0.606615
#
# Coordination Sequence:
#
# PCOD8039148 Si02
#       8
#     2   2   2   2   2   2   2   2
#     4   9  18  35  59  82 113 151 192 237 290 356
#     4  10  19  32  51  82 122 157 188 235 294 348
#     4  10  22  40  60  80 117 155 198 247 289 344
#     4  10  18  32  58  86 113 145 190 237 285 347
#     4   9  17  32  54  78 113 155 188 228 284 349
#     4  11  22  37  59  88 114 154 200 240 289 348
#     4   9  20  41  60  82 112 154 194 243 300 336
#     4  10  20  37  60  83 115 153 201 241 286 352
#
# _framework density 21.444244000000001
#
# number of rings (size 3 to 8) (size 9 to 14) (size 15 to 20)
#    0.000    2.500    0.000    6.000    0.000    3.000 
#    0.000    8.750    0.000    0.000    0.000    0.000 
#    0.000    0.000    0.000    0.000    0.000    0.000 
#
# Total GULP energy -198257.367322 kJ/mol
# GULP energy per Si atom -12391.085458 kJ/mol
# Density = 2.139544 g / cm^3
# Si number density = 21.444244 Si / 1000 Ang^3
#
#
#
# Elastic Constant Matrix: (Units=GPa)
#
#
# Indices 1 2 3 4 5 6 
#
# 1 97.3787 11.2520 21.6486 -2.9844 27.9614 -2.3034
# 2 11.2520 80.2633 5.7890 13.8602 -2.1667 -9.3666
# 3 21.6486 5.7890 64.6655 3.9991 22.3557 -6.3539
# 4 -2.9844 13.8602 3.9991 19.5021 4.0385 -0.9518
# 5 27.9614 -2.1667 22.3557 4.0385 19.4526 3.3753
# 6 -2.3034 -9.3666 -6.3539 -0.9518 3.3753 33.7891
#
#
#
# Elastic Compliance Matrix: (Units=1/GPa)
#
#
# Indices 1 2 3 4 5 6 
#
# 1 0.025535 -0.008348 0.010957 0.019475 -0.055587 0.007588
# 2 -0.008348 0.017855 -0.006276 -0.017818 0.024863 0.000215
# 3 0.010957 -0.006276 0.033155 0.012129 -0.059062 0.011483
# 4 0.019475 -0.017818 0.012129 0.077447 -0.061205 0.006965
# 5 -0.055587 0.024863 -0.059062 -0.061205 0.220164 -0.031720
# 6 0.007588 0.000215 0.011483 0.006965 -0.031720 0.035696
#
#
# Mechanical properties :
#
#
# Convention : Reuss Voigt Hill
#
# Bulk Modulus (GPa) = 14.44870 35.52072 24.98471
# Shear Modulus (GPa) = 11.35699 28.12328 19.74013
#
# Velocity S-wave (km/s) = 2.30381 3.62534 3.03732
# Velocity P-wave (km/s) = 3.71876 5.84160 4.89660
#
# Compressibility (1/GPa) = 0.06921039
#
# Stress axis : x y z
#
# Youngs Moduli (GPa) = 39.16117 56.00602 30.16176
#
# Poissons Ratio (x) = 0.46755 -0.33048
# Poissons Ratio (y) = 0.32692 0.18930
# Poissons Ratio (z) = -0.42908 0.35150
#
# Static dielectric constant tensor:
#      x y z
#    x 4.092330 -0.180620 0.552920 
#    y -0.180620 3.999360 -0.003340 
#    z 0.552920 -0.003340 4.039120 
# 
# 
# High freq. dielectric constant tensor:
#      x y z
#    x 1.819630 -0.006970 0.021000 
#    y -0.006970 1.841700 0.002490 
#    z 0.021000 0.002490 1.837710 
# 
# From -- ./inp_files/305730.got.cif
#   From: 2010.06.25/outbox.cif.g09.slc.cpg/sg2_153_cif.got.tgz:305730.got - 2010.06.27 13:26:56.
