data_PCOD8039578
_publ_section_title
;
Structure prediction by ZEFSAII (Michael W. Deem and Ramdas Pophale) SiO2 
 PCOD8039578
Probable space group: P -1
;
_chemical_formula_sum "Si O2"
_cell_formula_units_Z 14
_cell_length_a 16.374485
_cell_length_b 12.598604
_cell_length_c 7.905579
_cell_angle_alpha 96.739194
_cell_angle_beta 48.679009
_cell_angle_gamma 134.603225
_cell_volume 664.483867
_symmetry_space_group_name_H-M "P -1"
_symmetry_group_IT_number 2
_symmetry_cell_setting 'triclinic'
loop_
_space_group_symop_operation_xyz
x,y,z
-x,-y,-z
loop_
_atom_site_type_symbol
_atom_site_label
_atom_site_fract_x
_atom_site_fract_y
_atom_site_fract_z
Si Si1 0.522331 0.984439 0.773481
Si Si2 0.970841 0.144306 0.835187
Si Si3 0.943454 0.376110 0.316712
Si Si4 0.954701 0.015844 0.245188
Si Si5 0.119369 0.735365 0.233102
Si Si6 0.605481 0.823306 0.524276
Si Si7 0.208958 0.408644 0.864249
O O1 0.742062 0.197017 0.448102
O O2 0.491964 0.832411 0.758648
O O3 0.500000 0.000000 0.000000
O O4 0.349836 0.906117 0.894999
O O5 0.164883 0.333703 0.718980
O O6 0.954604 0.208681 0.709124
O O7 0.003137 0.049668 0.698211
O O8 0.769179 0.990732 0.192072
O O9 0.908419 0.299776 0.536443
O O10 0.989354 0.538957 0.279935
O O11 0.118352 0.452565 0.008381
O O12 0.724021 0.864990 0.527095
O O13 0.103754 0.239193 0.108970
O O14 0.000000 0.000000 0.000000
O O15 0.443772 0.609353 0.623212
#
# Coordination Sequence:
#
# PCOD8039578 Si02
#       7
#     2   2   2   2   2   2   2
#     4  10  19  34  55  78 105 142 177 213 259 318
#     4  10  22  36  51  83 112 135 173 225 265 305
#     4  10  19  37  55  76 102 146 179 212 258 324
#     4   8  18  34  54  77 108 139 177 215 258 312
#     4  10  22  35  54  79 110 137 176 217 270 312
#     4  10  18  34  57  81 104 139 182 213 261 314
#     4  10  18  34  58  79 103 141 180 213 260 313
#
# _framework density 21.068984
#
# number of rings (size 3 to 8) (size 9 to 14) (size 15 to 20)
#    0.000    2.571    4.286    0.000    0.000    7.429 
#    0.000    0.714    0.000    0.857    0.000    0.000 
#    0.000    0.000    0.000    0.000    0.000    0.000 
#
# Total GULP energy -173451.659598 kJ/mol
# GULP energy per Si atom -12389.404257 kJ/mol
# Density = 2.102103 g / cm^3
# Si number density = 21.068984 Si / 1000 Ang^3
#
#
#
# Elastic Constant Matrix: (Units=GPa)
#
#
# Indices 1 2 3 4 5 6 
#
# 1 109.6814 36.4933 13.5628 -20.5947 -16.2841 -24.3977
# 2 36.4933 84.1358 16.0161 -26.8046 -10.8136 7.9623
# 3 13.5628 16.0161 33.3032 -15.4275 -13.1345 8.8672
# 4 -20.5947 -26.8046 -15.4275 37.6282 5.0266 -11.3148
# 5 -16.2841 -10.8136 -13.1345 5.0266 20.8323 -5.8351
# 6 -24.3977 7.9623 8.8672 -11.3148 -5.8351 31.7550
#
#
#
# Elastic Compliance Matrix: (Units=1/GPa)
#
#
# Indices 1 2 3 4 5 6 
#
# 1 0.022306 -0.005357 0.000355 0.014085 0.019014 0.026894
# 2 -0.005357 0.017342 -0.000986 0.007262 0.000920 -0.005432
# 3 0.000355 -0.000986 0.048202 0.014949 0.025742 -0.002883
# 4 0.014085 0.007262 0.014949 0.050986 0.019338 0.026547
# 5 0.019014 0.000920 0.025742 0.019338 0.083128 0.029355
# 6 0.026894 -0.005432 -0.002883 0.026547 0.029355 0.069175
#
#
# Mechanical properties :
#
#
# Convention : Reuss Voigt Hill
#
# Bulk Modulus (GPa) = 13.17960 39.91831 26.54896
# Shear Modulus (GPa) = 15.22505 28.77964 22.00235
#
# Velocity S-wave (km/s) = 2.69109 3.69992 3.23507
# Velocity P-wave (km/s) = 3.99061 6.10247 5.15583
#
# Compressibility (1/GPa) = 0.07587486
#
# Stress axis : x y z
#
# Youngs Moduli (GPa) = 44.83135 57.66238 20.74618
#
# Poissons Ratio (x) = 0.30888 -0.00736
# Poissons Ratio (y) = 0.24014 0.02045
# Poissons Ratio (z) = -0.01591 0.05684
#
# Static dielectric constant tensor:
#      x y z
#    x 4.202110 -0.359200 -0.632170 
#    y -0.359200 4.223720 -0.075240 
#    z -0.632170 -0.075240 3.666110 
# 
# 
# High freq. dielectric constant tensor:
#      x y z
#    x 1.805520 -0.009400 -0.036560 
#    y -0.009400 1.839520 -0.005070 
#    z -0.036560 -0.005070 1.792620 
# 
# From -- ./inp_files/294273.got.cif
#   From: 2010.06.25/outbox.cif.g09.slc.cpg/sg2_148_cif.got.tgz:294273.got - 2010.06.27 13:26:56.
