data_PCOD8039676
_publ_section_title
;
Structure prediction by ZEFSAII (Michael W. Deem and Ramdas Pophale) SiO2 
 PCOD8039676
Probable space group: P -1
;
_chemical_formula_sum "Si O2"
_cell_formula_units_Z 14
_cell_length_a 8.979509
_cell_length_b 15.586846
_cell_length_c 8.815438
_cell_angle_alpha 141.818955
_cell_angle_beta 87.193251
_cell_angle_gamma 110.753694
_cell_volume 654.538306
_symmetry_space_group_name_H-M "P -1"
_symmetry_group_IT_number 2
_symmetry_cell_setting 'triclinic'
loop_
_space_group_symop_operation_xyz
x,y,z
-x,-y,-z
loop_
_atom_site_type_symbol
_atom_site_label
_atom_site_fract_x
_atom_site_fract_y
_atom_site_fract_z
Si Si1 0.861285 0.088560 0.991758
Si Si2 0.734323 0.508645 0.199964
Si Si3 0.388243 0.238222 0.939931
Si Si4 0.126426 0.931332 0.383027
Si Si5 0.251823 0.212740 0.228559
Si Si6 0.813220 0.607264 0.993509
Si Si7 0.927195 0.412500 0.540100
O O1 0.823386 0.220139 0.250994
O O2 0.064148 0.148252 0.074325
O O3 0.809293 0.063654 0.784137
O O4 0.745965 0.921727 0.853148
O O5 0.688135 0.629528 0.455008
O O6 0.731478 0.534931 0.058384
O O7 0.918990 0.537291 0.278341
O O8 0.586932 0.326655 0.997538
O O9 0.293821 0.321425 0.979013
O O10 0.296054 0.047632 0.636872
O O11 0.387251 0.256030 0.145997
O O12 0.018051 0.746859 0.193056
O O13 0.000000 0.000000 0.500000
O O14 0.797343 0.464032 0.688634
O O15 0.000000 0.500000 0.500000
#
# Coordination Sequence:
#
# PCOD8039676 Si02
#       7
#     2   2   2   2   2   2   2
#     4  10  19  34  59  90 112 155 204 248 282 350
#     4  11  24  38  61  93 122 154 199 253 304 346
#     4  11  22  38  63  92 122 154 195 259 301 342
#     4  10  18  34  59  88 115 150 200 242 290 347
#     4  10  19  34  59  87 119 149 202 248 292 344
#     4  11  21  39  63  89 120 160 201 242 294 366
#     4  11  22  41  63  86 120 162 205 240 294 364
#
# _framework density 21.389123000000001
#
# number of rings (size 3 to 8) (size 9 to 14) (size 15 to 20)
#    0.000    1.429    4.286    3.857    4.000    0.000 
#    0.000    0.714    0.000    2.571    0.000    0.000 
#    0.000    0.000    0.000    0.000    0.000    0.000 
#
# Total GULP energy -173639.783439 kJ/mol
# GULP energy per Si atom -12402.841674 kJ/mol
# Density = 2.134044 g / cm^3
# Si number density = 21.389123 Si / 1000 Ang^3
#
#
#
# Elastic Constant Matrix: (Units=GPa)
#
#
# Indices 1 2 3 4 5 6 
#
# 1 14.6757 -3.4878 3.7916 -6.3379 -6.3137 1.6158
# 2 -3.4878 128.2584 14.6505 -16.1171 1.0139 21.6552
# 3 3.7916 14.6505 91.4753 -11.6511 -10.0321 12.0403
# 4 -6.3379 -16.1171 -11.6511 39.6773 1.9290 -6.1896
# 5 -6.3137 1.0139 -10.0321 1.9290 19.7740 2.9880
# 6 1.6158 21.6552 12.0403 -6.1896 2.9880 17.8485
#
#
#
# Elastic Compliance Matrix: (Units=1/GPa)
#
#
# Indices 1 2 3 4 5 6 
#
# 1 0.090526 0.006787 0.002836 0.013566 0.031530 -0.018917
# 2 0.006787 0.010538 0.000592 0.003294 0.003609 -0.013261
# 3 0.002836 0.000592 0.013442 0.002534 0.009062 -0.010681
# 4 0.013566 0.003294 0.002534 0.029830 0.002076 0.003063
# 5 0.031530 0.003609 0.009062 0.002076 0.068489 -0.024092
# 6 -0.018917 -0.013261 -0.010681 0.003063 -0.024092 0.086130
#
#
# Mechanical properties :
#
#
# Convention : Reuss Voigt Hill
#
# Bulk Modulus (GPa) = 7.41083 29.36866 18.38975
# Shear Modulus (GPa) = 15.45582 30.09030 22.77306
#
# Velocity S-wave (km/s) = 2.69104 3.75481 3.26652
# Velocity P-wave (km/s) = 3.62324 5.70601 4.77946
#
# Compressibility (1/GPa) = 0.13493766
#
# Stress axis : x y z
#
# Youngs Moduli (GPa) = 11.04650 94.89291 74.39407
#
# Poissons Ratio (x) = -0.64406 -0.21102
# Poissons Ratio (y) = -0.07497 -0.04403
# Poissons Ratio (z) = -0.03133 -0.05616
#
# Static dielectric constant tensor:
#      x y z
#    x 3.526070 -0.051860 -0.043440 
#    y -0.051860 3.942680 0.200210 
#    z -0.043440 0.200210 4.446450 
# 
# 
# High freq. dielectric constant tensor:
#      x y z
#    x 1.791240 -0.000240 -0.006640 
#    y -0.000240 1.848630 -0.004080 
#    z -0.006640 -0.004080 1.853920 
# 
# From -- ./inp_files/158547.got.cif
#   From: 2010.06.25/outbox.cif.g09.slc.cpg/sg2_80_cif.got.tgz:158547.got - 2010.06.27 13:26:56.
