data_PCOD8039280
_publ_section_title
;
Structure prediction by ZEFSAII (Michael W. Deem and Ramdas Pophale) SiO2 
 PCOD8039280
Probable space group: P -1
;
_chemical_formula_sum "Si O2"
_cell_formula_units_Z 16
_cell_length_a 14.760091
_cell_length_b 9.262272
_cell_length_c 11.844822
_cell_angle_alpha 117.829166
_cell_angle_beta 141.235181
_cell_angle_gamma 49.420110
_cell_volume 767.277710
_symmetry_space_group_name_H-M "P -1"
_symmetry_group_IT_number 2
_symmetry_cell_setting 'triclinic'
loop_
_space_group_symop_operation_xyz
x,y,z
-x,-y,-z
loop_
_atom_site_type_symbol
_atom_site_label
_atom_site_fract_x
_atom_site_fract_y
_atom_site_fract_z
Si Si1 0.201228 0.882792 0.951922
Si Si2 0.517045 0.097145 0.374200
Si Si3 0.232873 0.448382 0.123930
Si Si4 0.803331 0.478758 0.141860
Si Si5 0.419897 0.260186 0.791043
Si Si6 0.005832 0.718333 0.183746
Si Si7 0.129273 0.451479 0.401644
Si Si8 0.737548 0.937587 0.725803
O O1 0.397586 0.768455 0.065188
O O2 0.165759 0.983179 0.077703
O O3 0.139409 0.732943 0.837437
O O4 0.083298 0.052437 0.811747
O O5 0.420103 0.309481 0.307611
O O6 0.411316 0.038969 0.330707
O O7 0.578042 0.939404 0.275906
O O8 0.671738 0.063940 0.592715
O O9 0.136772 0.635662 0.176424
O O10 0.251302 0.501972 0.034720
O O11 0.142848 0.325384 0.996656
O O12 0.642626 0.638337 0.112561
O O13 0.958745 0.512518 0.328359
O O14 0.289795 0.392024 0.613943
O O15 0.103450 0.625951 0.361989
O O16 0.145590 0.285664 0.272793
#
# Coordination Sequence:
#
# PCOD8039280 Si02
#       8
#     2   2   2   2   2   2   2   2
#     4  11  21  37  57  84 113 150 180 226 284 332
#     4   9  16  31  56  85 105 140 187 233 261 322
#     4  10  18  33  55  85 112 140 184 235 272 325
#     4  11  24  35  55  84 119 147 183 226 275 327
#     4  10  21  39  60  77 110 158 191 213 268 340
#     4  10  18  33  58  86 108 142 186 230 282 326
#     4  10  20  37  63  83 107 142 193 238 265 321
#     4   9  16  30  58  83 106 138 186 227 278 323
#
# _framework density 20.852947
#
# number of rings (size 3 to 8) (size 9 to 14) (size 15 to 20)
#    0.000    2.000    3.750    3.000    0.000    2.500 
#    0.000    1.250    5.500    0.000    0.000    0.000 
#    0.000    0.000    0.000    0.000    0.000    0.000 
#
# Total GULP energy -198348.629125 kJ/mol
# GULP energy per Si atom -12396.789320 kJ/mol
# Density = 2.080548 g / cm^3
# Si number density = 20.852947 Si / 1000 Ang^3
#
#
#
# Elastic Constant Matrix: (Units=GPa)
#
#
# Indices 1 2 3 4 5 6 
#
# 1 81.1237 55.2492 34.7673 -8.0370 -22.7257 -3.4198
# 2 55.2492 111.5244 34.6166 -28.0863 -11.6471 -5.1800
# 3 34.7673 34.6166 63.0632 -30.8124 -9.3594 -1.4136
# 4 -8.0370 -28.0863 -30.8124 39.6281 -0.5491 -5.2657
# 5 -22.7257 -11.6471 -9.3594 -0.5491 12.1872 3.6631
# 6 -3.4198 -5.1800 -1.4136 -5.2657 3.6631 15.1719
#
#
#
# Elastic Compliance Matrix: (Units=1/GPa)
#
#
# Indices 1 2 3 4 5 6 
#
# 1 0.043284 -0.015187 -0.013924 -0.014115 0.059689 -0.016036
# 2 -0.015187 0.018242 0.004021 0.014243 -0.010349 0.010621
# 3 -0.013924 0.004021 0.037079 0.030403 0.004361 0.011188
# 4 -0.014115 0.014243 0.030403 0.059329 0.006218 0.023604
# 5 0.059689 -0.010349 0.004361 0.006218 0.197688 -0.035245
# 6 -0.016036 0.010621 0.011188 0.023604 -0.035245 0.083667
#
#
# Mechanical properties :
#
#
# Convention : Reuss Voigt Hill
#
# Bulk Modulus (GPa) = 20.65072 56.10860 38.37966
# Shear Modulus (GPa) = 9.88903 22.13600 16.01251
#
# Velocity S-wave (km/s) = 2.18004 3.26165 2.77407
# Velocity P-wave (km/s) = 4.03253 6.41480 5.35775
#
# Compressibility (1/GPa) = 0.04842446
#
# Stress axis : x y z
#
# Youngs Moduli (GPa) = 23.10331 54.81943 26.96908
#
# Poissons Ratio (x) = 0.83254 0.37551
# Poissons Ratio (y) = 0.35087 -0.10843
# Poissons Ratio (z) = 0.32169 -0.22040
#
# Static dielectric constant tensor:
#      x y z
#    x 3.610960 -0.278830 -0.171990 
#    y -0.278830 3.751850 -0.214210 
#    z -0.171990 -0.214210 3.703180 
# 
# 
# High freq. dielectric constant tensor:
#      x y z
#    x 1.791430 -0.020630 -0.011030 
#    y -0.020630 1.810550 -0.027030 
#    z -0.011030 -0.027030 1.799090 
# 
# From -- ./inp_files/256815.got.cif
#   From: 2010.06.25/outbox.cif.g09.slc.cpg/sg2_129_cif.got.tgz:256815.got - 2010.06.27 13:26:56.
