data_PCOD8039740
_publ_section_title
;
Structure prediction by ZEFSAII (Michael W. Deem and Ramdas Pophale) SiO2 
 PCOD8039740
Probable space group: P -1
;
_chemical_formula_sum "Si O2"
_cell_formula_units_Z 14
_cell_length_a 14.684880
_cell_length_b 11.800251
_cell_length_c 8.522055
_cell_angle_alpha 76.279385
_cell_angle_beta 130.191071
_cell_angle_gamma 64.578927
_cell_volume 679.298251
_symmetry_space_group_name_H-M "P -1"
_symmetry_group_IT_number 2
_symmetry_cell_setting 'triclinic'
loop_
_space_group_symop_operation_xyz
x,y,z
-x,-y,-z
loop_
_atom_site_type_symbol
_atom_site_label
_atom_site_fract_x
_atom_site_fract_y
_atom_site_fract_z
Si Si1 0.453832 0.526518 0.755772
Si Si2 0.582907 0.209315 0.281188
Si Si3 0.148474 0.360042 0.347039
Si Si4 0.209131 0.892568 0.748011
Si Si5 0.510344 0.009791 0.325569
Si Si6 0.200226 0.534677 0.561840
Si Si7 0.152502 0.189668 0.692641
O O1 0.435270 0.678104 0.635453
O O2 0.251774 0.611094 0.490133
O O3 0.500000 0.500000 0.000000
O O4 0.630455 0.322311 0.934841
O O5 0.762566 0.108316 0.405762
O O6 0.612155 0.057743 0.425367
O O7 0.393906 0.344529 0.921076
O O8 0.131336 0.489235 0.384657
O O9 0.103046 0.285804 0.437081
O O10 0.355375 0.183728 0.554487
O O11 0.000000 0.500000 0.000000
O O12 0.238549 0.994082 0.833146
O O13 0.000000 0.000000 0.500000
O O14 0.500000 0.000000 0.500000
O O15 0.301348 0.159093 0.962163
O O16 0.041154 0.679455 0.468358
#
# Coordination Sequence:
#
# PCOD8039740 Si02
#       7
#     2   2   2   2   2   2   2
#     4   8  17  33  58  91 118 155 201 252 298 368
#     4  10  19  37  60  91 125 160 203 254 305 366
#     4  12  25  40  59  91 126 162 207 256 305 367
#     4  10  18  34  61  93 119 158 212 248 305 365
#     4  12  25  41  63  92 127 163 207 257 304 367
#     4  10  20  37  63  90 120 161 201 250 309 366
#     4  12  22  39  67  90 124 164 206 253 312 363
#
# _framework density 20.609504000000001
#
# number of rings (size 3 to 8) (size 9 to 14) (size 15 to 20)
#    0.000    1.714    2.857    6.000    2.000    0.000 
#    0.000    0.000    3.143    4.286    0.000    0.000 
#    0.000    0.000    0.000    0.000    0.000    0.000 
#
# Total GULP energy -173434.239633 kJ/mol
# GULP energy per Si atom -12388.159974 kJ/mol
# Density = 2.056260 g / cm^3
# Si number density = 20.609504 Si / 1000 Ang^3
#
#
#
# Elastic Constant Matrix: (Units=GPa)
#
#
# Indices 1 2 3 4 5 6 
#
# 1 105.6434 49.3247 49.4037 -5.6746 19.7889 0.5322
# 2 49.3247 130.7165 18.9687 -9.8577 2.0106 8.7186
# 3 49.4037 18.9687 72.4681 -5.1261 9.0534 -11.0931
# 4 -5.6746 -9.8577 -5.1261 20.6322 -5.2914 7.9722
# 5 19.7889 2.0106 9.0534 -5.2914 32.6328 -1.9966
# 6 0.5322 8.7186 -11.0931 7.9722 -1.9966 38.3571
#
#
#
# Elastic Compliance Matrix: (Units=1/GPa)
#
#
# Indices 1 2 3 4 5 6 
#
# 1 0.018291 -0.005194 -0.010525 -0.001290 -0.008200 -0.002276
# 2 -0.005194 0.010123 0.000419 0.005504 0.003113 -0.003090
# 3 -0.010525 0.000419 0.021764 0.000485 0.000782 0.006285
# 4 -0.001290 0.005504 0.000485 0.058064 0.008947 -0.012695
# 5 -0.008200 0.003113 0.000782 0.008947 0.036639 -0.000320
# 6 -0.002276 -0.003090 0.006285 -0.012695 -0.000320 0.031244
#
#
# Mechanical properties :
#
#
# Convention : Reuss Voigt Hill
#
# Bulk Modulus (GPa) = 51.08204 60.46911 55.77557
# Shear Modulus (GPa) = 23.44654 31.06647 27.25651
#
# Velocity S-wave (km/s) = 3.37658 3.88672 3.64059
# Velocity P-wave (km/s) = 6.32781 7.03891 6.69281
#
# Compressibility (1/GPa) = 0.01957635
#
# Stress axis : x y z
#
# Youngs Moduli (GPa) = 54.67096 98.78929 45.94815
#
# Poissons Ratio (x) = 0.51311 0.48362
# Poissons Ratio (y) = 0.28396 -0.01924
# Poissons Ratio (z) = 0.57543 -0.04137
#
# Static dielectric constant tensor:
#      x y z
#    x 4.321470 0.587040 0.232120 
#    y 0.587040 4.502520 -0.228960 
#    z 0.232120 -0.228960 3.428320 
# 
# 
# High freq. dielectric constant tensor:
#      x y z
#    x 1.802500 0.017240 0.028510 
#    y 0.017240 1.830440 -0.017530 
#    z 0.028510 -0.017530 1.770180 
# 
# From -- ./inp_files/305185.got.cif
#   From: 2010.06.25/outbox.cif.g09.slc.cpg/sg2_153_cif.got.tgz:305185.got - 2010.06.27 13:26:56.
