data_PCOD8039882
_publ_section_title
;
Structure prediction by ZEFSAII (Michael W. Deem and Ramdas Pophale) SiO2 
 PCOD8039882
Probable space group: P -1
;
_chemical_formula_sum "Si O2"
_cell_formula_units_Z 16
_cell_length_a 12.906889
_cell_length_b 12.458171
_cell_length_c 9.671905
_cell_angle_alpha 128.506793
_cell_angle_beta 130.516652
_cell_angle_gamma 55.305902
_cell_volume 889.019151
_symmetry_space_group_name_H-M "P -1"
_symmetry_group_IT_number 2
_symmetry_cell_setting 'triclinic'
loop_
_space_group_symop_operation_xyz
x,y,z
-x,-y,-z
loop_
_atom_site_type_symbol
_atom_site_label
_atom_site_fract_x
_atom_site_fract_y
_atom_site_fract_z
Si Si1 0.400725 0.328850 0.838917
Si Si2 0.012008 0.862559 0.805220
Si Si3 0.665155 0.837032 0.114761
Si Si4 0.306087 0.649829 0.966966
Si Si5 0.331980 0.831910 0.377239
Si Si6 0.428276 0.112030 0.221853
Si Si7 0.905969 0.972804 0.519233
Si Si8 0.292360 0.116495 0.392429
O O1 0.341262 0.302497 0.916693
O O2 0.311715 0.484285 0.834175
O O3 0.382190 0.213598 0.617262
O O4 0.567106 0.320264 0.990103
O O5 0.012775 0.900277 0.674941
O O6 0.875033 0.806538 0.674386
O O7 0.154516 0.739234 0.852915
O O8 0.000000 0.000000 0.000000
O O9 0.810509 0.872060 0.306777
O O10 0.527004 0.958581 0.140561
O O11 0.661536 0.810469 0.925740
O O12 0.326433 0.692776 0.177120
O O13 0.473883 0.791123 0.560166
O O14 0.195486 0.876830 0.394485
O O15 0.332997 0.964194 0.382603
O O16 0.323921 0.092317 0.237648
O O17 0.000000 0.000000 0.500000
#
# Coordination Sequence:
#
# PCOD8039882 Si02
#       8
#     2   2   2   2   2   2   2   2
#     4  11  22  40  59  84 121 157 189 243 283 347
#     4  11  22  36  60  91 111 150 195 244 287 338
#     4  10  21  35  53  88 114 153 193 240 287 337
#     4  11  23  36  62  87 119 152 197 235 294 335
#     4  10  18  35  57  88 110 149 194 244 280 335
#     4  10  19  31  61  84 109 147 200 238 278 340
#     4  10  21  35  56  85 120 144 186 248 294 333
#     4  11  19  36  62  83 114 147 197 243 285 337
#
# _framework density 17.997361000000001
#
# number of rings (size 3 to 8) (size 9 to 14) (size 15 to 20)
#    0.000    1.500    7.500    1.125    1.750    2.500 
#    0.000    0.625    2.750    1.500    0.000    0.000 
#    0.000    0.000    0.000    0.000    0.000    0.000 
#
# Total GULP energy -198383.093854 kJ/mol
# GULP energy per Si atom -12398.943366 kJ/mol
# Density = 1.795640 g / cm^3
# Si number density = 17.997361 Si / 1000 Ang^3
#
#
#
# Elastic Constant Matrix: (Units=GPa)
#
#
# Indices 1 2 3 4 5 6 
#
# 1 125.2528 49.4752 37.0932 -11.5835 -9.1664 18.7934
# 2 49.4752 68.7916 37.8671 -10.7547 5.1751 1.6892
# 3 37.0932 37.8671 93.8088 -21.6964 -7.3537 10.0412
# 4 -11.5835 -10.7547 -21.6964 31.1175 3.0916 0.5690
# 5 -9.1664 5.1751 -7.3537 3.0916 32.6055 -8.7414
# 6 18.7934 1.6892 10.0412 0.5690 -8.7414 30.1373
#
#
#
# Elastic Compliance Matrix: (Units=1/GPa)
#
#
# Indices 1 2 3 4 5 6 
#
# 1 0.012985 -0.009093 -0.000191 0.001367 0.003141 -0.006639
# 2 -0.009093 0.025890 -0.007739 0.000800 -0.007231 0.004685
# 3 -0.000191 -0.007739 0.016527 0.008563 0.002948 -0.004260
# 4 0.001367 0.000800 0.008563 0.039285 -0.002972 -0.005354
# 5 0.003141 -0.007231 0.002948 -0.002972 0.035763 0.007894
# 6 -0.006639 0.004685 -0.004260 -0.005354 0.007894 0.040869
#
#
# Mechanical properties :
#
#
# Convention : Reuss Voigt Hill
#
# Bulk Modulus (GPa) = 46.82401 59.63603 53.23002
# Shear Modulus (GPa) = 23.53137 29.66657 26.59897
#
# Velocity S-wave (km/s) = 3.61985 4.06443 3.84857
# Velocity P-wave (km/s) = 6.59884 7.43196 7.02776
#
# Compressibility (1/GPa) = 0.02135657
#
# Stress axis : x y z
#
# Youngs Moduli (GPa) = 77.01476 38.62442 60.50820
#
# Poissons Ratio (x) = 0.35122 0.01154
# Poissons Ratio (y) = 0.70031 0.46825
# Poissons Ratio (z) = 0.01468 0.29890
#
# Static dielectric constant tensor:
#      x y z
#    x 3.529590 -0.040900 0.062620 
#    y -0.040900 3.080600 -0.224370 
#    z 0.062620 -0.224370 3.619830 
# 
# 
# High freq. dielectric constant tensor:
#      x y z
#    x 1.705010 0.000230 0.003500 
#    y 0.000230 1.657620 -0.013740 
#    z 0.003500 -0.013740 1.704350 
# 
# From -- ./inp_files/260320.got.cif
#   From: 2010.06.25/outbox.cif.g09.slc.cpg/sg2_131_cif.got.tgz:260320.got - 2010.06.27 13:26:56.
