data_PCOD8039824
_publ_section_title
;
Structure prediction by ZEFSAII (Michael W. Deem and Ramdas Pophale) SiO2 
 PCOD8039824
Probable space group: P -1
;
_chemical_formula_sum "Si O2"
_cell_formula_units_Z 16
_cell_length_a 20.523998
_cell_length_b 20.491098
_cell_length_c 11.989902
_cell_angle_alpha 137.096254
_cell_angle_beta 32.172000
_cell_angle_gamma 160.682320
_cell_volume 822.869947
_symmetry_space_group_name_H-M "P -1"
_symmetry_group_IT_number 2
_symmetry_cell_setting 'triclinic'
loop_
_space_group_symop_operation_xyz
x,y,z
-x,-y,-z
loop_
_atom_site_type_symbol
_atom_site_label
_atom_site_fract_x
_atom_site_fract_y
_atom_site_fract_z
Si Si1 0.276697 0.095701 0.151964
Si Si2 0.335999 0.097011 0.590568
Si Si3 0.164350 0.029450 0.988578
Si Si4 0.666490 0.660203 0.558606
Si Si5 0.691509 0.010543 0.824761
Si Si6 0.874430 0.774094 0.700886
Si Si7 0.727449 0.251300 0.083464
Si Si8 0.560629 0.622920 0.285834
O O1 0.438144 0.309660 0.204926
O O2 0.394619 0.099633 0.071596
O O3 0.962196 0.888556 0.372606
O O4 0.282967 0.064492 0.973920
O O5 0.533139 0.147822 0.337644
O O6 0.426877 0.253792 0.583193
O O7 0.353568 0.128111 0.735732
O O8 0.022598 0.855648 0.706549
O O9 0.854230 0.784871 0.096952
O O10 0.188273 0.158487 0.136316
O O11 0.500000 0.500000 0.500000
O O12 0.659030 0.572067 0.552357
O O13 0.912442 0.104227 0.553754
O O14 0.415519 0.829624 0.928668
O O15 0.807551 0.196970 0.916477
O O16 0.582473 0.514019 0.793561
O O17 0.000000 0.500000 0.000000
#
# Coordination Sequence:
#
# PCOD8039824 Si02
#       8
#     2   2   2   2   2   2   2   2
#     4  11  21  35  53  83 123 148 179 232 281 335
#     4  10  24  36  56  82 117 150 192 233 276 331
#     4  11  22  36  50  87 126 153 178 218 278 356
#     4  11  21  32  54  85 120 153 188 219 273 344
#     4  10  21  36  60  83 107 143 186 243 291 310
#     4  10  18  35  55  84 116 147 183 229 276 320
#     4  10  22  41  61  81 102 138 201 249 278 323
#     4  11  19  33  56  84 115 156 185 219 275 336
#
# _framework density 19.444141999999999
#
# number of rings (size 3 to 8) (size 9 to 14) (size 15 to 20)
#    0.000    1.500    3.750    3.000    3.500    2.000 
#    0.000    0.625    0.000    0.750    0.000    0.000 
#    0.000    0.000    0.000    0.000    0.000    0.000 
#
# Total GULP energy -198261.111773 kJ/mol
# GULP energy per Si atom -12391.319486 kJ/mol
# Density = 1.939989 g / cm^3
# Si number density = 19.444142 Si / 1000 Ang^3
#
#
#
# Elastic Constant Matrix: (Units=GPa)
#
#
# Indices 1 2 3 4 5 6 
#
# 1 104.4175 23.7117 46.0708 18.7227 23.2413 10.3693
# 2 23.7117 117.1012 21.1124 16.1177 3.9032 18.6845
# 3 46.0708 21.1124 64.6796 25.6165 9.8537 0.5328
# 4 18.7227 16.1177 25.6165 19.5349 7.0119 1.3272
# 5 23.2413 3.9032 9.8537 7.0119 19.0499 -5.2717
# 6 10.3693 18.6845 0.5328 1.3272 -5.2717 17.5989
#
#
#
# Elastic Compliance Matrix: (Units=1/GPa)
#
#
# Indices 1 2 3 4 5 6 
#
# 1 0.025071 0.002018 -0.017702 0.011439 -0.033613 -0.027310
# 2 0.002018 0.011919 -0.001850 -0.006229 -0.005823 -0.015062
# 3 -0.017702 -0.001850 0.044771 -0.050049 0.023267 0.021782
# 4 0.011439 -0.006229 -0.050049 0.126234 -0.038715 -0.019727
# 5 -0.033613 -0.005823 0.023267 -0.038715 0.114179 0.062404
# 6 -0.027310 -0.015062 0.021782 -0.019727 0.062404 0.108425
#
#
# Mechanical properties :
#
#
# Convention : Reuss Voigt Hill
#
# Bulk Modulus (GPa) = 21.41535 51.99868 36.70702
# Shear Modulus (GPa) = 10.39002 24.25697 17.32350
#
# Velocity S-wave (km/s) = 2.31411 3.53586 2.98809
# Velocity P-wave (km/s) = 4.26355 6.59321 5.55195
#
# Compressibility (1/GPa) = 0.04669547
#
# Stress axis : x y z
#
# Youngs Moduli (GPa) = 39.88601 83.89796 22.33574
#
# Poissons Ratio (x) = -0.16933 0.39538
# Poissons Ratio (y) = -0.08050 0.04132
# Poissons Ratio (z) = 0.70605 0.15521
#
# Static dielectric constant tensor:
#      x y z
#    x 3.691200 0.408330 0.206050 
#    y 0.408330 3.959370 0.264240 
#    z 0.206050 0.264240 3.406460 
# 
# 
# High freq. dielectric constant tensor:
#      x y z
#    x 1.749070 0.016720 0.015950 
#    y 0.016720 1.775740 0.013860 
#    z 0.015950 0.013860 1.719040 
# 
# From -- ./inp_files/436514.got.cif
#   From: 2010.06.25/outbox.cif.g09.slc.cpg/sg2_219_cif.got.tgz:436514.got - 2010.06.27 13:26:56.
