data_PCOD8039304
_publ_section_title
;
Structure prediction by ZEFSAII (Michael W. Deem and Ramdas Pophale) SiO2 
 PCOD8039304
Probable space group: P -1
;
_chemical_formula_sum "Si O2"
_cell_formula_units_Z 16
_cell_length_a 19.462665
_cell_length_b 17.185876
_cell_length_c 11.420263
_cell_angle_alpha 31.323939
_cell_angle_beta 138.191839
_cell_angle_gamma 156.551269
_cell_volume 776.560887
_symmetry_space_group_name_H-M "P -1"
_symmetry_group_IT_number 2
_symmetry_cell_setting 'triclinic'
loop_
_space_group_symop_operation_xyz
x,y,z
-x,-y,-z
loop_
_atom_site_type_symbol
_atom_site_label
_atom_site_fract_x
_atom_site_fract_y
_atom_site_fract_z
Si Si1 0.916643 0.579264 0.411207
Si Si2 0.028068 0.709891 0.133974
Si Si3 0.419331 0.301644 0.494906
Si Si4 0.915526 0.174663 0.456158
Si Si5 0.376747 0.173288 0.866677
Si Si6 0.220131 0.674216 0.871811
Si Si7 0.722274 0.426673 0.696878
Si Si8 0.583211 0.119727 0.694671
O O1 0.944071 0.434300 0.635383
O O2 0.707129 0.355537 0.457055
O O3 0.968191 0.707695 0.185685
O O4 0.037444 0.801956 0.377246
O O5 0.877305 0.553715 0.046317
O O6 0.197127 0.999017 0.931982
O O7 0.342763 0.147438 0.717574
O O8 0.470587 0.535022 0.273739
O O9 0.594757 0.418631 0.528835
O O10 0.268454 0.115427 0.443491
O O11 0.903560 0.341695 0.211204
O O12 0.071519 0.291562 0.422852
O O13 0.434094 0.075984 0.103277
O O14 0.384111 0.949140 0.659722
O O15 0.305596 0.672220 0.082843
O O16 0.672664 0.240978 0.779528
#
# Coordination Sequence:
#
# PCOD8039304 Si02
#       8
#     2   2   2   2   2   2   2   2
#     4   8  18  34  56  78 105 142 185 233 267 311
#     4   9  18  35  53  77 110 144 181 228 274 312
#     4  11  21  37  55  82 116 149 175 219 274 333
#     4  10  20  34  56  83 107 146 184 222 274 321
#     4  10  21  36  53  79 117 145 176 224 272 323
#     4  11  18  30  56  86 109 143 182 224 277 321
#     4  11  20  34  57  83 115 141 180 227 270 326
#     4  10  18  33  56  83 112 139 181 228 270 320
#
# _framework density 20.603663999999998
#
# number of rings (size 3 to 8) (size 9 to 14) (size 15 to 20)
#    0.000    2.000    2.500    3.000    0.000    0.500 
#    2.250    2.500    0.000    3.000    0.000    0.000 
#    0.000    0.000    0.000    0.000    0.000    0.000 
#
# Total GULP energy -198328.948505 kJ/mol
# GULP energy per Si atom -12395.559282 kJ/mol
# Density = 2.055677 g / cm^3
# Si number density = 20.603664 Si / 1000 Ang^3
#
#
#
# Elastic Constant Matrix: (Units=GPa)
#
#
# Indices 1 2 3 4 5 6 
#
# 1 104.1843 51.1288 31.9512 -8.6526 -26.0325 5.6202
# 2 51.1288 100.9669 22.8628 -23.2923 -11.8894 7.4466
# 3 31.9512 22.8628 41.8788 -12.6151 -11.0853 -0.9831
# 4 -8.6526 -23.2923 -12.6151 16.1164 4.1249 1.1424
# 5 -26.0325 -11.8894 -11.0853 4.1249 35.0582 -5.2756
# 6 5.6202 7.4466 -0.9831 1.1424 -5.2756 37.4753
#
#
#
# Elastic Compliance Matrix: (Units=1/GPa)
#
#
# Indices 1 2 3 4 5 6 
#
# 1 0.018470 -0.009118 -0.011033 -0.014198 0.008870 0.000434
# 2 -0.009118 0.020117 0.003598 0.027944 -0.002665 -0.003762
# 3 -0.011033 0.003598 0.039991 0.029873 0.002370 0.001412
# 4 -0.014198 0.027944 0.029873 0.120474 -0.006891 -0.007282
# 5 0.008870 -0.002665 0.002370 -0.006891 0.036460 0.004604
# 6 0.000434 -0.003762 0.001412 -0.007282 0.004604 0.028274
#
#
# Mechanical properties :
#
#
# Convention : Reuss Voigt Hill
#
# Bulk Modulus (GPa) = 21.99145 50.99061 36.49103
# Shear Modulus (GPa) = 16.02306 27.13579 21.57943
#
# Velocity S-wave (km/s) = 2.79172 3.63304 3.23980
# Velocity P-wave (km/s) = 4.59220 6.51158 5.63422
#
# Compressibility (1/GPa) = 0.04547222
#
# Stress axis : x y z
#
# Youngs Moduli (GPa) = 54.14050 49.70951 25.00568
#
# Poissons Ratio (x) = 0.45325 0.27589
# Poissons Ratio (y) = 0.49365 -0.08997
# Poissons Ratio (z) = 0.59734 -0.17885
#
# Static dielectric constant tensor:
#      x y z
#    x 3.987720 0.068480 -0.293230 
#    y 0.068480 3.800600 -0.184110 
#    z -0.293230 -0.184110 3.201320 
# 
# 
# High freq. dielectric constant tensor:
#      x y z
#    x 1.812610 0.005940 -0.015990 
#    y 0.005940 1.810220 -0.019190 
#    z -0.015990 -0.019190 1.749320 
# 
# From -- ./inp_files/278272.got.cif
#   From: 2010.06.25/outbox.cif.g09.slc.cpg/sg2_140_cif.got.tgz:278272.got - 2010.06.27 13:26:56.
