data_PCOD8039660
_publ_section_title
;
Structure prediction by ZEFSAII (Michael W. Deem and Ramdas Pophale) SiO2 
 PCOD8039660
Probable space group: P -1
;
_chemical_formula_sum "Si O2"
_cell_formula_units_Z 16
_cell_length_a 9.759579
_cell_length_b 21.351926
_cell_length_c 10.168970
_cell_angle_alpha 127.112984
_cell_angle_beta 95.588911
_cell_angle_gamma 40.761421
_cell_volume 797.822422
_symmetry_space_group_name_H-M "P -1"
_symmetry_group_IT_number 2
_symmetry_cell_setting 'triclinic'
loop_
_space_group_symop_operation_xyz
x,y,z
-x,-y,-z
loop_
_atom_site_type_symbol
_atom_site_label
_atom_site_fract_x
_atom_site_fract_y
_atom_site_fract_z
Si Si1 0.863305 0.545450 0.684800
Si Si2 0.305438 0.886951 0.627084
Si Si3 0.740995 0.085255 0.855703
Si Si4 0.730431 0.003109 0.487650
Si Si5 0.486605 0.057223 0.876880
Si Si6 0.851398 0.774386 0.210249
Si Si7 0.150108 0.473613 0.864729
Si Si8 0.276750 0.207651 0.321905
O O1 0.000000 0.500000 0.500000
O O2 0.977613 0.548214 0.807703
O O3 0.962176 0.407279 0.557934
O O4 0.515037 0.726681 0.885508
O O5 0.171485 0.012128 0.662861
O O6 0.515847 0.719137 0.360652
O O7 0.478539 0.847894 0.705030
O O8 0.043596 0.973213 0.783439
O O9 0.748527 0.063572 0.672597
O O10 0.705646 0.020380 0.843898
O O11 0.403039 0.134609 0.608123
O O12 0.923844 0.828716 0.324462
O O13 0.260240 0.169639 0.879700
O O14 0.683989 0.879429 0.674775
O O15 0.296340 0.158985 0.119336
O O16 0.129118 0.578849 0.015819
O O17 0.000000 0.500000 0.000000
#
# Coordination Sequence:
#
# PCOD8039660 Si02
#       8
#     2   2   2   2   2   2   2   2
#     4  11  20  38  59  85 113 156 198 235 285 348
#     4  11  22  35  55  91 120 146 185 245 296 331
#     4  11  22  37  57  84 123 149 185 240 297 342
#     4  10  19  34  56  82 112 154 187 230 289 343
#     4  10  19  38  59  83 110 152 196 235 282 346
#     4  10  18  34  59  82 112 149 198 234 275 338
#     4  11  20  35  58  89 114 150 201 242 273 346
#     4  10  21  35  63  83 109 148 203 235 274 348
#
# _framework density 20.054589
#
# number of rings (size 3 to 8) (size 9 to 14) (size 15 to 20)
#    0.000    1.500    6.250    0.375    0.000    0.500 
#    0.000    1.875    0.000    1.500    0.000    0.000 
#    0.000    0.000    0.000    0.000    0.000    0.000 
#
# Total GULP energy -198322.025767 kJ/mol
# GULP energy per Si atom -12395.126610 kJ/mol
# Density = 2.000894 g / cm^3
# Si number density = 20.054589 Si / 1000 Ang^3
#
#
#
# Elastic Constant Matrix: (Units=GPa)
#
#
# Indices 1 2 3 4 5 6 
#
# 1 74.5634 25.2076 43.2634 25.0200 2.7176 9.2366
# 2 25.2076 65.7114 36.1042 5.5350 3.7318 16.2639
# 3 43.2634 36.1042 117.9185 26.5779 12.1425 8.3879
# 4 25.0200 5.5350 26.5779 43.9390 7.6275 9.6911
# 5 2.7176 3.7318 12.1425 7.6275 34.9036 9.3637
# 6 9.2366 16.2639 8.3879 9.6911 9.3637 25.5618
#
#
#
# Elastic Compliance Matrix: (Units=1/GPa)
#
#
# Indices 1 2 3 4 5 6 
#
# 1 0.020411 -0.004750 -0.004279 -0.008745 0.002462 -0.000536
# 2 -0.004750 0.023215 -0.005982 0.006128 0.002471 -0.014320
# 3 -0.004279 -0.005982 0.013087 -0.005044 -0.003631 0.004301
# 4 -0.008745 0.006128 -0.005044 0.032794 -0.002547 -0.010584
# 5 0.002462 0.002471 -0.003631 -0.002547 0.033376 -0.012531
# 6 -0.000536 -0.014320 0.004301 -0.010584 -0.012531 0.055617
#
#
# Mechanical properties :
#
#
# Convention : Reuss Voigt Hill
#
# Bulk Modulus (GPa) = 37.46562 51.92708 44.69635
# Shear Modulus (GPa) = 22.99719 31.12209 27.05964
#
# Velocity S-wave (km/s) = 3.39001 3.94365 3.67727
# Velocity P-wave (km/s) = 5.83484 6.83268 6.35338
#
# Compressibility (1/GPa) = 0.02669113
#
# Stress axis : x y z
#
# Youngs Moduli (GPa) = 48.99376 43.07628 76.41262
#
# Poissons Ratio (x) = 0.20459 0.32694
# Poissons Ratio (y) = 0.23270 0.45713
# Poissons Ratio (z) = 0.20963 0.25770
#
# Static dielectric constant tensor:
#      x y z
#    x 3.540760 0.303180 0.473070 
#    y 0.303180 3.619000 0.045440 
#    z 0.473070 0.045440 4.032180 
# 
# 
# High freq. dielectric constant tensor:
#      x y z
#    x 1.747110 0.028980 0.031990 
#    y 0.028980 1.780480 -0.010210 
#    z 0.031990 -0.010210 1.786020 
# 
# From -- ./inp_files/281247.got.cif
#   From: 2010.06.25/outbox.cif.g09.slc.cpg/sg2_141_cif.got.tgz:281247.got - 2010.06.27 13:26:56.
