data_PCOD8039154
_publ_section_title
;
Structure prediction by ZEFSAII (Michael W. Deem and Ramdas Pophale) SiO2 
 PCOD8039154
Probable space group: P -1
;
_chemical_formula_sum "Si O2"
_cell_formula_units_Z 16
_cell_length_a 21.967830
_cell_length_b 12.469417
_cell_length_c 18.897614
_cell_angle_alpha 151.420559
_cell_angle_beta 18.929189
_cell_angle_gamma 146.654841
_cell_volume 802.953191
_symmetry_space_group_name_H-M "P -1"
_symmetry_group_IT_number 2
_symmetry_cell_setting 'triclinic'
loop_
_space_group_symop_operation_xyz
x,y,z
-x,-y,-z
loop_
_atom_site_type_symbol
_atom_site_label
_atom_site_fract_x
_atom_site_fract_y
_atom_site_fract_z
Si Si1 0.048136 0.814628 0.249006
Si Si2 0.416533 0.538670 0.325280
Si Si3 0.689113 0.946041 0.802118
Si Si4 0.961205 0.813059 0.629432
Si Si5 0.164000 0.457367 0.122181
Si Si6 0.039374 0.635143 0.852696
Si Si7 0.965328 0.129730 0.255619
Si Si8 0.346908 0.560706 0.259431
O O1 0.865183 0.930600 0.547813
O O2 0.011719 0.545483 0.133551
O O3 0.243398 0.865289 0.106062
O O4 0.064878 0.931281 0.220813
O O5 0.344813 0.282566 0.251043
O O6 0.265130 0.671236 0.615700
O O7 0.435886 0.631865 0.278147
O O8 0.620680 0.563616 0.151101
O O9 0.500000 0.000000 0.000000
O O10 0.141088 0.690719 0.326111
O O11 0.965851 0.816545 0.710422
O O12 0.788382 0.653879 0.703459
O O13 0.038758 0.459188 0.190562
O O14 0.106781 0.244978 0.110687
O O15 0.948675 0.865461 0.107390
O O16 0.759205 0.224703 0.528587
O O17 0.500000 0.500000 0.000000
#
# Coordination Sequence:
#
# PCOD8039154 Si02
#       8
#     2   2   2   2   2   2   2   2
#     4  10  20  35  58  84 121 154 195 241 291 352
#     4  11  20  35  62  91 115 152 197 245 301 343
#     4  10  18  32  58  90 114 149 197 249 289 336
#     4  11  20  40  60  88 120 155 201 251 290 345
#     4  11  21  39  64  90 118 151 203 252 293 345
#     4  11  23  41  58  89 125 160 193 241 300 358
#     4  11  24  39  60  86 127 160 193 244 302 353
#     4  11  21  38  61  90 115 149 206 249 292 347
#
# _framework density 19.926442000000002
#
# number of rings (size 3 to 8) (size 9 to 14) (size 15 to 20)
#    0.000    1.250    3.750    6.375    0.000    1.000 
#    2.250    0.000    0.000    0.750    0.000    0.000 
#    0.000    0.000    0.000    0.000    0.000    0.000 
#
# Total GULP energy -198345.225919 kJ/mol
# GULP energy per Si atom -12396.576620 kJ/mol
# Density = 1.988109 g / cm^3
# Si number density = 19.926442 Si / 1000 Ang^3
#
#
#
# Elastic Constant Matrix: (Units=GPa)
#
#
# Indices 1 2 3 4 5 6 
#
# 1 62.3286 13.8488 16.6191 4.5321 -16.4159 -12.1088
# 2 13.8488 81.9731 39.1780 20.1498 -6.5635 -21.2200
# 3 16.6191 39.1780 110.0360 -4.3160 -19.4752 -0.1864
# 4 4.5321 20.1498 -4.3160 31.1927 10.2635 -9.7601
# 5 -16.4159 -6.5635 -19.4752 10.2635 23.7450 1.1501
# 6 -12.1088 -21.2200 -0.1864 -9.7601 1.1501 31.0028
#
#
#
# Elastic Compliance Matrix: (Units=1/GPa)
#
#
# Indices 1 2 3 4 5 6 
#
# 1 0.022879 0.002266 -0.001243 -0.009043 0.018997 0.006928
# 2 0.002266 0.022705 -0.007673 -0.014945 0.007457 0.011398
# 3 -0.001243 -0.007673 0.013329 0.003211 0.006801 -0.004899
# 4 -0.009043 -0.014945 0.003211 0.055541 -0.031995 0.004930
# 5 0.018997 0.007457 0.006801 -0.031995 0.076734 -0.000354
# 6 0.006928 0.011398 -0.004899 0.004930 -0.000354 0.044298
#
#
# Mechanical properties :
#
#
# Convention : Reuss Voigt Hill
#
# Bulk Modulus (GPa) = 21.92383 43.73660 32.83021
# Shear Modulus (GPa) = 18.94009 29.50089 24.22049
#
# Velocity S-wave (km/s) = 3.08636 3.85189 3.49018
# Velocity P-wave (km/s) = 4.87105 6.46370 5.72305
#
# Compressibility (1/GPa) = 0.04561247
#
# Stress axis : x y z
#
# Youngs Moduli (GPa) = 43.70869 44.04334 75.02352
#
# Poissons Ratio (x) = -0.09981 0.09325
# Poissons Ratio (y) = -0.09905 0.57568
# Poissons Ratio (z) = 0.05433 0.33796
#
# Static dielectric constant tensor:
#      x y z
#    x 3.635370 -0.275560 0.062300 
#    y -0.275560 3.691600 -0.332520 
#    z 0.062300 -0.332520 4.484240 
# 
# 
# High freq. dielectric constant tensor:
#      x y z
#    x 1.774130 -0.021560 -0.020410 
#    y -0.021560 1.774280 -0.009860 
#    z -0.020410 -0.009860 1.762500 
# 
# From -- ./inp_files/272618.got.cif
#   From: 2010.06.25/outbox.cif.g09.slc.cpg/sg2_137_cif.got.tgz:272618.got - 2010.06.27 13:26:56.
