data_PCOD8039152
_publ_section_title
;
Structure prediction by ZEFSAII (Michael W. Deem and Ramdas Pophale) SiO2 
 PCOD8039152
Probable space group: P -1
;
_chemical_formula_sum "Si O2"
_cell_formula_units_Z 16
_cell_length_a 10.880751
_cell_length_b 13.037937
_cell_length_c 14.905406
_cell_angle_alpha 37.833244
_cell_angle_beta 29.991948
_cell_angle_gamma 54.641369
_cell_volume 608.856734
_symmetry_space_group_name_H-M "P -1"
_symmetry_group_IT_number 2
_symmetry_cell_setting 'triclinic'
loop_
_space_group_symop_operation_xyz
x,y,z
-x,-y,-z
loop_
_atom_site_type_symbol
_atom_site_label
_atom_site_fract_x
_atom_site_fract_y
_atom_site_fract_z
Si Si1 0.245028 0.219752 0.243423
Si Si2 0.181807 0.447919 0.640450
Si Si3 0.962129 0.163913 0.293202
Si Si4 0.259729 0.316436 0.493073
Si Si5 0.412841 0.643910 0.904003
Si Si6 0.286716 0.882169 0.043296
Si Si7 0.320479 0.239977 0.847683
Si Si8 0.594993 0.981572 0.313409
O O1 0.064295 0.272515 0.247602
O O2 0.397826 0.369581 0.119448
O O3 0.463004 0.178806 0.072409
O O4 0.067418 0.043448 0.530183
O O5 0.290232 0.426244 0.488914
O O6 0.177381 0.283327 0.820632
O O7 0.380111 0.630419 0.428047
O O8 0.893623 0.462776 0.810200
O O9 0.676311 0.168526 0.445855
O O10 0.160851 0.256991 0.024498
O O11 0.487936 0.420201 0.207097
O O12 0.263971 0.116262 0.644134
O O13 0.974656 0.282577 0.651002
O O14 0.460416 0.854460 0.715524
O O15 0.332757 0.043236 0.971394
O O16 0.229083 0.934134 0.942554
#
# Coordination Sequence:
#
# PCOD8039152 Si02
#       8
#     2   2   2   2   2   2   2   2
#     4   9  19  37  61  88 116 148 201 258 277 342
#     4  11  23  39  54  88 130 153 195 235 288 369
#     4   9  19  37  57  85 119 155 192 245 300 336
#     4  12  19  35  63  86 118 153 196 240 302 348
#     4  10  20  35  57  85 114 155 191 247 293 334
#     4  10  18  33  59  88 116 146 195 245 293 339
#     4  11  22  37  55  85 124 160 189 239 296 353
#     4  10  18  32  58  89 115 147 191 254 290 338
#
# _framework density 26.278758
#
# number of rings (size 3 to 8) (size 9 to 14) (size 15 to 20)
#    0.000    2.000    3.750    3.750    0.000    0.500 
#    4.500    3.750    0.000    0.750    0.000    0.000 
#    0.000    0.000    0.000    0.000    0.000    0.000 
#
# Total GULP energy -198407.200461 kJ/mol
# GULP energy per Si atom -12400.450029 kJ/mol
# Density = 2.621895 g / cm^3
# Si number density = 26.278758 Si / 1000 Ang^3
#
#
#
# Elastic Constant Matrix: (Units=GPa)
#
#
# Indices 1 2 3 4 5 6 
#
# 1 75.6928 31.2559 41.7393 8.4661 -12.9957 15.4904
# 2 31.2559 79.3222 31.5775 8.8253 -3.1543 20.1913
# 3 41.7393 31.5775 124.5357 29.2391 -8.0517 10.3151
# 4 8.4661 8.8253 29.2391 38.9404 9.9533 -0.5715
# 5 -12.9957 -3.1543 -8.0517 9.9533 41.2911 2.1627
# 6 15.4904 20.1913 10.3151 -0.5715 2.1627 39.2967
#
#
#
# Elastic Compliance Matrix: (Units=1/GPa)
#
#
# Indices 1 2 3 4 5 6 
#
# 1 0.019471 -0.004392 -0.004325 -0.001475 0.005546 -0.004610
# 2 -0.004392 0.016939 -0.001880 -0.001640 0.000282 -0.006518
# 3 -0.004325 -0.001880 0.012238 -0.008602 0.002999 -0.000832
# 4 -0.001475 -0.001640 -0.008602 0.035749 -0.011136 0.004815
# 5 0.005546 0.000282 0.002999 -0.011136 0.029511 -0.004904
# 6 -0.004610 -0.006518 -0.000832 0.004815 -0.004904 0.031172
#
#
# Mechanical properties :
#
#
# Convention : Reuss Voigt Hill
#
# Bulk Modulus (GPa) = 36.42557 54.29958 45.36258
# Shear Modulus (GPa) = 28.50217 35.57084 32.03651
#
# Velocity S-wave (km/s) = 3.29691 3.68312 3.49535
# Velocity P-wave (km/s) = 5.32768 6.22856 5.79565
#
# Compressibility (1/GPa) = 0.02745324
#
# Stress axis : x y z
#
# Youngs Moduli (GPa) = 51.35920 59.03672 81.70979
#
# Poissons Ratio (x) = 0.25930 0.35342
# Poissons Ratio (y) = 0.22558 0.15359
# Poissons Ratio (z) = 0.22215 0.11097
#
# Static dielectric constant tensor:
#      x y z
#    x 4.781880 0.051050 -0.152260 
#    y 0.051050 4.604710 -0.041200 
#    z -0.152260 -0.041200 4.674050 
# 
# 
# High freq. dielectric constant tensor:
#      x y z
#    x 2.052950 0.007030 -0.009510 
#    y 0.007030 2.044900 -0.002660 
#    z -0.009510 -0.002660 2.066900 
# 
# From -- ./inp_files/522327.got.cif
#   From: 2010.06.25/outbox.cif.g09.slc.cpg/sg2_262_cif.got.tgz:522327.got - 2010.06.27 13:26:56.
