data_PCOD8039680
_publ_section_title
;
Structure prediction by ZEFSAII (Michael W. Deem and Ramdas Pophale) SiO2 
 PCOD8039680
Probable space group: P -1
;
_chemical_formula_sum "Si O2"
_cell_formula_units_Z 14
_cell_length_a 21.987735
_cell_length_b 27.519213
_cell_length_c 8.152175
_cell_angle_alpha 42.350508
_cell_angle_beta 41.982375
_cell_angle_gamma 11.106564
_cell_volume 633.833554
_symmetry_space_group_name_H-M "P -1"
_symmetry_group_IT_number 2
_symmetry_cell_setting 'triclinic'
loop_
_space_group_symop_operation_xyz
x,y,z
-x,-y,-z
loop_
_atom_site_type_symbol
_atom_site_label
_atom_site_fract_x
_atom_site_fract_y
_atom_site_fract_z
Si Si1 0.185530 0.715112 0.687169
Si Si2 0.943333 0.938403 0.950664
Si Si3 0.969427 0.722122 0.020636
Si Si4 0.646923 0.598140 0.239140
Si Si5 0.507947 0.747625 0.663385
Si Si6 0.348879 0.265854 0.899749
Si Si7 0.304073 0.799400 0.688573
O O1 0.500000 0.500000 0.500000
O O2 0.127751 0.678056 0.846823
O O3 0.187183 0.717062 0.881216
O O4 0.903981 0.979528 0.529605
O O5 0.646078 0.200323 0.797743
O O6 0.766505 0.020019 0.233924
O O7 0.138505 0.848182 0.891875
O O8 0.024167 0.661754 0.869659
O O9 0.589953 0.016181 0.079865
O O10 0.142467 0.529540 0.264657
O O11 0.629847 0.693841 0.095325
O O12 0.627723 0.556284 0.534574
O O13 0.539258 0.783966 0.371543
O O14 0.392545 0.756813 0.800890
O O15 0.000000 0.500000 0.000000
#
# Coordination Sequence:
#
# PCOD8039680 Si02
#       7
#     2   2   2   2   2   2   2
#     4  11  19  33  60  92 125 177 206 233 311 370
#     4  10  18  34  59  88 134 164 203 258 293 359
#     4  11  21  41  65  87 130 162 202 256 314 365
#     4   9  19  38  62  91 123 161 205 251 307 369
#     4  10  22  40  60  93 125 159 209 263 299 368
#     4  11  24  46  68  89 120 160 209 267 319 367
#     4  10  18  36  57  88 133 165 202 253 290 366
#
# _framework density 22.087817000000001
#
# number of rings (size 3 to 8) (size 9 to 14) (size 15 to 20)
#    0.000    1.714    4.286    4.714    0.000    1.143 
#    5.143    4.286    0.000    0.000    0.000    0.000 
#    0.000    0.000    0.000    0.000    0.000    0.000 
#
# Total GULP energy -173453.936065 kJ/mol
# GULP energy per Si atom -12389.566862 kJ/mol
# Density = 2.203754 g / cm^3
# Si number density = 22.087817 Si / 1000 Ang^3
#
#
#
# Elastic Constant Matrix: (Units=GPa)
#
#
# Indices 1 2 3 4 5 6 
#
# 1 74.0613 53.4214 29.4894 21.0589 22.7103 12.4973
# 2 53.4214 104.4335 17.2180 19.6586 8.3106 2.2076
# 3 29.4894 17.2180 50.7689 13.7411 17.7134 7.0036
# 4 21.0589 19.6586 13.7411 29.6081 5.0506 1.9476
# 5 22.7103 8.3106 17.7134 5.0506 28.5812 7.9167
# 6 12.4973 2.2076 7.0036 1.9476 7.9167 36.3041
#
#
#
# Elastic Compliance Matrix: (Units=1/GPa)
#
#
# Indices 1 2 3 4 5 6 
#
# 1 0.034202 -0.013263 -0.006414 -0.009422 -0.016098 -0.005714
# 2 -0.013263 0.016293 0.000813 -0.002795 0.005112 0.002453
# 3 -0.006414 0.000813 0.029415 -0.007567 -0.011889 -0.000517
# 4 -0.009422 -0.002795 -0.007567 0.044957 0.004644 0.001449
# 5 -0.016098 0.005112 -0.011889 0.004644 0.054093 -0.004521
# 6 -0.005714 0.002453 -0.000517 0.001449 -0.004521 0.030371
#
#
# Mechanical properties :
#
#
# Convention : Reuss Voigt Hill
#
# Bulk Modulus (GPa) = 23.70625 47.72458 35.71541
# Shear Modulus (GPa) = 19.14833 27.50768 23.32800
#
# Velocity S-wave (km/s) = 2.94754 3.53282 3.25337
# Velocity P-wave (km/s) = 4.72652 6.18827 5.50612
#
# Compressibility (1/GPa) = 0.04218296
#
# Stress axis : x y z
#
# Youngs Moduli (GPa) = 29.23774 61.37427 33.99676
#
# Poissons Ratio (x) = 0.81400 0.21804
# Poissons Ratio (y) = 0.38778 -0.02763
# Poissons Ratio (z) = 0.18752 -0.04988
#
# Static dielectric constant tensor:
#      x y z
#    x 4.245760 0.279850 0.355430 
#    y 0.279850 4.245350 0.311450 
#    z 0.355430 0.311450 4.255460 
# 
# 
# High freq. dielectric constant tensor:
#      x y z
#    x 1.868160 0.015000 0.029540 
#    y 0.015000 1.865400 0.012330 
#    z 0.029540 0.012330 1.840500 
# 
# From -- ./inp_files/197364.got.cif
#   From: 2010.06.25/outbox.cif.g09.slc.cpg/sg2_99_cif.got.tgz:197364.got - 2010.06.27 13:26:56.
