data_PCOD8039169
_publ_section_title
;
Structure prediction by ZEFSAII (Michael W. Deem and Ramdas Pophale) SiO2 
 PCOD8039169
Probable space group: P -1
;
_chemical_formula_sum "Si O2"
_cell_formula_units_Z 16
_cell_length_a 8.412673
_cell_length_b 8.834317
_cell_length_c 16.833296
_cell_angle_alpha 129.159285
_cell_angle_beta 110.701941
_cell_angle_gamma 99.170377
_cell_volume 770.913186
_symmetry_space_group_name_H-M "P -1"
_symmetry_group_IT_number 2
_symmetry_cell_setting 'triclinic'
loop_
_space_group_symop_operation_xyz
x,y,z
-x,-y,-z
loop_
_atom_site_type_symbol
_atom_site_label
_atom_site_fract_x
_atom_site_fract_y
_atom_site_fract_z
Si Si1 0.287960 0.576126 0.523062
Si Si2 0.743189 0.267294 0.041166
Si Si3 0.661726 0.629893 0.687029
Si Si4 0.414635 0.405675 0.161623
Si Si5 0.336145 0.358276 0.857560
Si Si6 0.654726 0.160402 0.159363
Si Si7 0.876568 0.174903 0.348725
Si Si8 0.987136 0.099015 0.948456
O O1 0.478745 0.659654 0.640729
O O2 0.332210 0.550241 0.430643
O O3 0.223539 0.766037 0.576214
O O4 0.115868 0.329279 0.446554
O O5 0.802376 0.531532 0.134624
O O6 0.782868 0.202079 0.115114
O O7 0.867915 0.230370 0.983603
O O8 0.500657 0.107429 0.933445
O O9 0.639219 0.532551 0.741309
O O10 0.862557 0.884576 0.795623
O O11 0.567299 0.621807 0.206362
O O12 0.509220 0.255967 0.151792
O O13 0.218890 0.273363 0.024415
O O14 0.193542 0.089216 0.759884
O O15 0.500000 0.500000 0.000000
O O16 0.815304 0.271894 0.294121
O O17 0.000000 0.000000 0.000000
#
# Coordination Sequence:
#
# PCOD8039169 Si02
#       8
#     2   2   2   2   2   2   2   2
#     4  10  23  38  64  86 115 164 214 251 279 342
#     4  10  19  33  55  93 117 155 184 244 308 355
#     4  10  20  38  59  90 119 153 207 256 289 341
#     4  10  21  38  60  95 121 157 189 255 306 363
#     4  11  24  37  60  89 133 155 190 248 322 356
#     4  10  18  32  60  84 124 146 202 239 284 359
#     4  11  22  40  60  90 115 164 208 246 292 355
#     4  10  19  32  61  93 119 146 199 248 301 355
#
# _framework density 20.754608999999999
#
# number of rings (size 3 to 8) (size 9 to 14) (size 15 to 20)
#    0.000    1.750    5.000    0.000    5.250    0.000 
#    0.000    4.375    0.000    0.000    0.000    0.000 
#    0.000    0.000    0.000    0.000    0.000    0.000 
#
# Total GULP energy -198234.651743 kJ/mol
# GULP energy per Si atom -12389.665734 kJ/mol
# Density = 2.070737 g / cm^3
# Si number density = 20.754609 Si / 1000 Ang^3
#
#
#
# Elastic Constant Matrix: (Units=GPa)
#
#
# Indices 1 2 3 4 5 6 
#
# 1 43.6186 9.6078 12.7868 -3.9452 3.5400 -5.3392
# 2 9.6078 51.1402 26.9991 6.8591 0.6393 -2.5563
# 3 12.7868 26.9991 98.3157 -1.3428 8.1675 -6.0286
# 4 -3.9452 6.8591 -1.3428 32.6397 -0.6473 -8.2495
# 5 3.5400 0.6393 8.1675 -0.6473 34.8108 -3.0690
# 6 -5.3392 -2.5563 -6.0286 -8.2495 -3.0690 19.4770
#
#
#
# Elastic Compliance Matrix: (Units=1/GPa)
#
#
# Indices 1 2 3 4 5 6 
#
# 1 0.026050 -0.004526 -0.001426 0.006162 -0.001367 0.008500
# 2 -0.004526 0.024585 -0.006514 -0.006628 0.001180 -0.002652
# 3 -0.001426 -0.006514 0.012580 0.002512 -0.002346 0.003342
# 4 0.006162 -0.006628 0.002512 0.037349 0.001152 0.017598
# 5 -0.001367 0.001180 -0.002346 0.001152 0.029789 0.004236
# 6 0.008500 -0.002652 0.003342 0.017598 0.004236 0.062480
#
#
# Mechanical properties :
#
#
# Convention : Reuss Voigt Hill
#
# Bulk Modulus (GPa) = 26.12126 32.42908 29.27517
# Shear Modulus (GPa) = 21.68954 26.96421 24.32687
#
# Velocity S-wave (km/s) = 3.23623 3.60834 3.42734
# Velocity P-wave (km/s) = 5.15532 5.74622 5.45877
#
# Compressibility (1/GPa) = 0.03828300
#
# Stress axis : x y z
#
# Youngs Moduli (GPa) = 38.38805 40.67519 79.49266
#
# Poissons Ratio (x) = 0.18408 0.11337
# Poissons Ratio (y) = 0.17373 0.51782
# Poissons Ratio (z) = 0.05475 0.26496
#
# Static dielectric constant tensor:
#      x y z
#    x 31.652820 4.771250 15.490920 
#    y 4.771250 4.252880 2.505860 
#    z 15.490920 2.505860 12.635310 
# 
# 
# High freq. dielectric constant tensor:
#      x y z
#    x 1.824150 0.000970 -0.005250 
#    y 0.000970 1.766700 -0.014420 
#    z -0.005250 -0.014420 1.809070 
# 
# From -- ./inp_files/329004.got.cif
#   From: 2010.06.25/outbox.cif.g09.slc.cpg/sg2_165_cif.got.tgz:329004.got - 2010.06.27 13:26:56.
