data_PCOD8039145
_publ_section_title
;
Structure prediction by ZEFSAII (Michael W. Deem and Ramdas Pophale) SiO2 
 PCOD8039145
Probable space group: P -1
;
_chemical_formula_sum "Si O2"
_cell_formula_units_Z 16
_cell_length_a 14.726964
_cell_length_b 15.024448
_cell_length_c 9.553652
_cell_angle_alpha 42.532450
_cell_angle_beta 136.447797
_cell_angle_gamma 139.980417
_cell_volume 854.063244
_symmetry_space_group_name_H-M "P -1"
_symmetry_group_IT_number 2
_symmetry_cell_setting 'triclinic'
loop_
_space_group_symop_operation_xyz
x,y,z
-x,-y,-z
loop_
_atom_site_type_symbol
_atom_site_label
_atom_site_fract_x
_atom_site_fract_y
_atom_site_fract_z
Si Si1 0.675729 0.945601 0.498384
Si Si2 0.830441 0.169244 0.905129
Si Si3 0.385971 0.118188 0.818798
Si Si4 0.074694 0.449974 0.024628
Si Si5 0.676540 0.247779 0.174682
Si Si6 0.577237 0.168443 0.444769
Si Si7 0.971516 0.959677 0.742796
Si Si8 0.162350 0.224453 0.473228
O O1 0.612871 0.911412 0.310061
O O2 0.542087 0.822049 0.592842
O O3 0.823674 0.925487 0.707528
O O4 0.723218 0.117726 0.392372
O O5 0.735477 0.212906 0.644309
O O6 0.942957 0.322335 0.932548
O O7 0.922537 0.101449 0.997696
O O8 0.719327 0.042883 0.038008
O O9 0.326197 0.235998 0.646754
O O10 0.555848 0.197937 0.972816
O O11 0.177230 0.389116 0.286261
O O12 0.178562 0.591897 0.879418
O O13 0.000000 0.500000 0.000000
O O14 0.610232 0.269524 0.224148
O O15 0.500000 0.000000 0.500000
O O16 0.927992 0.872565 0.648769
O O17 0.067510 0.139369 0.606135
#
# Coordination Sequence:
#
# PCOD8039145 Si02
#       8
#     2   2   2   2   2   2   2   2
#     4  10  18  32  58  84 106 136 190 232 260 311
#     4  10  19  36  58  80 110 147 177 222 280 315
#     4  10  18  33  62  81 102 141 189 228 267 309
#     4  11  22  33  55  83 115 137 179 225 275 324
#     4  11  22  34  52  82 115 143 175 224 273 323
#     4  10  21  36  54  79 112 144 185 221 267 322
#     4   8  15  30  55  81 106 134 182 229 267 311
#     4   8  16  31  50  81 110 137 172 228 278 315
#
# _framework density 18.733975999999998
#
# number of rings (size 3 to 8) (size 9 to 14) (size 15 to 20)
#    0.000    2.250    2.500    4.125    1.750    1.000 
#    0.000    2.500    2.750    6.750    0.000    0.000 
#    0.000    0.000    0.000    0.000    0.000    0.000 
#
# Total GULP energy -198287.164445 kJ/mol
# GULP energy per Si atom -12392.947778 kJ/mol
# Density = 1.869134 g / cm^3
# Si number density = 18.733976 Si / 1000 Ang^3
#
#
#
# Elastic Constant Matrix: (Units=GPa)
#
#
# Indices 1 2 3 4 5 6 
#
# 1 121.6418 29.0198 43.5303 -6.0979 -4.3723 7.8331
# 2 29.0198 79.0603 24.7681 -4.5888 -0.7146 6.6654
# 3 43.5303 24.7681 33.5675 -8.4507 -3.7471 1.2559
# 4 -6.0979 -4.5888 -8.4507 25.7110 1.4071 2.6293
# 5 -4.3723 -0.7146 -3.7471 1.4071 31.9625 -2.7477
# 6 7.8331 6.6654 1.2559 2.6293 -2.7477 20.9909
#
#
#
# Elastic Compliance Matrix: (Units=1/GPa)
#
#
# Indices 1 2 3 4 5 6 
#
# 1 0.016078 0.001375 -0.022465 -0.002793 -0.000696 -0.004834
# 2 0.001375 0.017083 -0.014569 -0.000800 -0.001547 -0.005168
# 3 -0.022465 -0.014569 0.073833 0.015301 0.005216 0.007358
# 4 -0.002793 -0.000800 0.015301 0.043705 -0.000979 -0.005222
# 5 -0.000696 -0.001547 0.005216 -0.000979 0.032222 0.004779
# 6 -0.004834 -0.005168 0.007358 -0.005222 0.004779 0.051924
#
#
# Mechanical properties :
#
#
# Convention : Reuss Voigt Hill
#
# Bulk Modulus (GPa) = 28.03008 47.65621 37.84315
# Shear Modulus (GPa) = 15.72050 24.86298 20.29174
#
# Velocity S-wave (km/s) = 2.89994 3.64697 3.29470
# Velocity P-wave (km/s) = 5.11933 6.57476 5.89216
#
# Compressibility (1/GPa) = 0.03567596
#
# Stress axis : x y z
#
# Youngs Moduli (GPa) = 62.19592 58.53650 13.54417
#
# Poissons Ratio (x) = -0.08051 0.30427
# Poissons Ratio (y) = -0.08554 0.19733
# Poissons Ratio (z) = 1.39723 0.85285
#
# Static dielectric constant tensor:
#      x y z
#    x 4.372150 0.520140 -0.345810 
#    y 0.520140 3.445300 -0.409160 
#    z -0.345810 -0.409160 3.936710 
# 
# 
# High freq. dielectric constant tensor:
#      x y z
#    x 1.735050 0.012300 0.010540 
#    y 0.012300 1.697450 0.005970 
#    z 0.010540 0.005970 1.714880 
# 
# From -- ./inp_files/311037.got.cif
#   From: 2010.06.25/outbox.cif.g09.slc.cpg/sg2_156_cif.got.tgz:311037.got - 2010.06.27 13:26:56.
