data_PCOD8039771
_publ_section_title
;
Structure prediction by ZEFSAII (Michael W. Deem and Ramdas Pophale) SiO2 
 PCOD8039771
Probable space group: P -1
;
_chemical_formula_sum "Si O2"
_cell_formula_units_Z 14
_cell_length_a 12.575750
_cell_length_b 9.058343
_cell_length_c 11.499754
_cell_angle_alpha 52.807912
_cell_angle_beta 86.168641
_cell_angle_gamma 126.818558
_cell_volume 618.030529
_symmetry_space_group_name_H-M "P -1"
_symmetry_group_IT_number 2
_symmetry_cell_setting 'triclinic'
loop_
_space_group_symop_operation_xyz
x,y,z
-x,-y,-z
loop_
_atom_site_type_symbol
_atom_site_label
_atom_site_fract_x
_atom_site_fract_y
_atom_site_fract_z
Si Si1 0.086890 0.410876 0.136761
Si Si2 0.441776 0.732790 0.563194
Si Si3 0.734603 0.278827 0.597189
Si Si4 0.560336 0.245037 0.970218
Si Si5 0.333595 0.216337 0.889609
Si Si6 0.259547 0.999794 0.741831
Si Si7 0.036895 0.528869 0.316467
O O1 0.001044 0.401942 0.253767
O O2 0.906010 0.090437 0.236336
O O3 0.227463 0.456451 0.154834
O O4 0.192007 0.695251 0.908808
O O5 0.308975 0.595923 0.530614
O O6 0.338057 0.446528 0.795193
O O7 0.500000 0.000000 0.500000
O O8 0.600680 0.826884 0.455997
O O9 0.857829 0.476565 0.609405
O O10 0.842664 0.293438 0.497067
O O11 0.545061 0.927251 0.818274
O O12 0.512285 0.375441 0.856432
O O13 0.500000 0.000000 0.000000
O O14 0.345461 0.191269 0.763117
O O15 0.158988 0.886709 0.124081
#
# Coordination Sequence:
#
# PCOD8039771 Si02
#       7
#     2   2   2   2   2   2   2
#     4  10  18  34  64  89 124 155 205 249 307 360
#     4  12  24  39  60  89 125 165 206 259 313 363
#     4  10  19  35  61  85 121 165 202 238 312 366
#     4  11  17  37  64  94 117 169 203 246 303 374
#     4  10  22  39  64  89 124 159 215 252 300 370
#     4  10  20  36  61  94 119 159 206 256 301 366
#     4   9  19  36  60  91 120 163 203 250 299 373
#
# _framework density 22.652605000000001
#
# number of rings (size 3 to 8) (size 9 to 14) (size 15 to 20)
#    0.000    1.714    5.714    1.286    0.000    0.571 
#    0.000    3.571    6.286    0.000    0.000    0.000 
#    0.000    0.000    0.000    0.000    0.000    0.000 
#
# Total GULP energy -173433.891910 kJ/mol
# GULP energy per Si atom -12388.135136 kJ/mol
# Density = 2.260105 g / cm^3
# Si number density = 22.652605 Si / 1000 Ang^3
#
#
#
# Elastic Constant Matrix: (Units=GPa)
#
#
# Indices 1 2 3 4 5 6 
#
# 1 140.2330 43.8499 51.7519 -3.7823 7.6471 38.1654
# 2 43.8499 47.5565 31.7217 2.5984 7.1497 16.8503
# 3 51.7519 31.7217 88.3709 13.7397 8.4563 0.0945
# 4 -3.7823 2.5984 13.7397 21.1515 -4.1034 4.4814
# 5 7.6471 7.1497 8.4563 -4.1034 51.2161 5.8180
# 6 38.1654 16.8503 0.0945 4.4814 5.8180 37.7802
#
#
#
# Elastic Compliance Matrix: (Units=1/GPa)
#
#
# Indices 1 2 3 4 5 6 
#
# 1 0.018257 -0.002975 -0.012487 0.016524 0.003296 -0.019553
# 2 -0.002975 0.036620 -0.012220 0.005730 -0.000614 -0.013882
# 3 -0.012487 -0.012220 0.027240 -0.024048 -0.005315 0.021668
# 4 0.016524 0.005730 -0.024048 0.073306 0.009918 -0.029410
# 5 0.003296 -0.000614 -0.005315 0.009918 0.021649 -0.007553
# 6 -0.019553 -0.013882 0.021668 -0.029410 -0.007553 0.057010
#
#
# Mechanical properties :
#
#
# Convention : Reuss Voigt Hill
#
# Bulk Modulus (GPa) = 37.38063 58.97858 48.17961
# Shear Modulus (GPa) = 16.75810 31.95201 24.35505
#
# Velocity S-wave (km/s) = 2.72285 3.75977 3.28251
# Velocity P-wave (km/s) = 5.14031 6.70376 5.97341
#
# Compressibility (1/GPa) = 0.02675182
#
# Stress axis : x y z
#
# Youngs Moduli (GPa) = 54.77379 27.30755 36.71095
#
# Poissons Ratio (x) = 0.08124 0.45842
# Poissons Ratio (y) = 0.16295 0.44861
# Poissons Ratio (z) = 0.68398 0.33370
#
# Static dielectric constant tensor:
#      x y z
#    x 4.232110 0.438940 -0.027310 
#    y 0.438940 3.832540 0.227860 
#    z -0.027310 0.227860 4.238860 
# 
# 
# High freq. dielectric constant tensor:
#      x y z
#    x 1.893580 0.036480 -0.008860 
#    y 0.036480 1.860940 0.032390 
#    z -0.008860 0.032390 1.890230 
# 
# From -- ./inp_files/212231.got.cif
#   From: 2010.06.25/outbox.cif.g09.slc.cpg/sg2_107_cif.got.tgz:212231.got - 2010.06.27 13:26:56.
