data_PCOD8039223
_publ_section_title
;
Structure prediction by ZEFSAII (Michael W. Deem and Ramdas Pophale) SiO2 
 PCOD8039223
Probable space group: P -1
;
_chemical_formula_sum "Si O2"
_cell_formula_units_Z 16
_cell_length_a 8.920347
_cell_length_b 13.435131
_cell_length_c 14.870536
_cell_angle_alpha 55.957558
_cell_angle_beta 134.396534
_cell_angle_gamma 137.563022
_cell_volume 855.756939
_symmetry_space_group_name_H-M "P -1"
_symmetry_group_IT_number 2
_symmetry_cell_setting 'triclinic'
loop_
_space_group_symop_operation_xyz
x,y,z
-x,-y,-z
loop_
_atom_site_type_symbol
_atom_site_label
_atom_site_fract_x
_atom_site_fract_y
_atom_site_fract_z
Si Si1 0.677414 0.794654 0.022486
Si Si2 0.653014 0.529106 0.197700
Si Si3 0.519549 0.145885 0.408228
Si Si4 0.066266 0.600670 0.858912
Si Si5 0.079073 0.348470 0.047442
Si Si6 0.963827 0.402542 0.351568
Si Si7 0.288885 0.575395 0.551177
Si Si8 0.076247 0.093073 0.121617
O O1 0.783115 0.699095 0.143601
O O2 0.372250 0.705620 0.953074
O O3 0.749009 0.848528 0.923518
O O4 0.820919 0.929145 0.084474
O O5 0.367304 0.430361 0.086385
O O6 0.821162 0.483125 0.244275
O O7 0.607828 0.493478 0.304052
O O8 0.773939 0.245625 0.401796
O O9 0.553627 0.245930 0.459527
O O10 0.257719 0.100851 0.272370
O O11 0.500000 0.000000 0.500000
O O12 0.988624 0.625771 0.715810
O O13 0.930096 0.641701 0.853080
O O14 0.955783 0.427260 0.911951
O O15 0.949776 0.180152 0.049005
O O16 0.248114 0.514561 0.462269
O O17 0.000000 0.500000 0.500000
#
# Coordination Sequence:
#
# PCOD8039223 Si02
#       8
#     2   2   2   2   2   2   2   2
#     4  10  21  31  51  79 104 129 168 210 253 306
#     4   9  16  33  53  74 103 125 169 210 253 300
#     4  10  19  31  52  76 106 129 165 207 255 298
#     4  10  20  35  52  76 102 136 171 208 252 298
#     4  10  19  34  55  73 103 136 168 208 258 300
#     4  10  18  33  53  76 100 134 167 214 249 295
#     4   8  17  30  49  76  95 129 163 207 252 292
#     4  11  20  33  51  79 103 135 164 209 258 299
#
# _framework density 18.696898000000001
#
# number of rings (size 3 to 8) (size 9 to 14) (size 15 to 20)
#    0.000    2.500    3.750    0.750    5.250    2.500 
#    0.000    0.625    0.000    0.750    0.000    0.000 
#    0.000    0.000    0.000    0.000    0.000    0.000 
#
# Total GULP energy -198231.797294 kJ/mol
# GULP energy per Si atom -12389.487331 kJ/mol
# Density = 1.865434 g / cm^3
# Si number density = 18.696898 Si / 1000 Ang^3
#
#
#
# Elastic Constant Matrix: (Units=GPa)
#
#
# Indices 1 2 3 4 5 6 
#
# 1 31.2925 11.2759 -0.3328 1.0107 -11.7891 -4.3478
# 2 11.2759 137.1476 48.9430 -6.9056 -7.8849 -10.3892
# 3 -0.3328 48.9430 61.2839 2.3625 -9.8763 -1.4320
# 4 1.0107 -6.9056 2.3625 32.6668 -4.2600 -3.2655
# 5 -11.7891 -7.8849 -9.8763 -4.2600 24.5027 0.4007
# 6 -4.3478 -10.3892 -1.4320 -3.2655 0.4007 14.7610
#
#
#
# Elastic Compliance Matrix: (Units=1/GPa)
#
#
# Indices 1 2 3 4 5 6 
#
# 1 0.043373 -0.004020 0.007274 0.001255 0.022556 0.010317
# 2 -0.004020 0.011668 -0.009564 0.003786 -0.001490 0.006979
# 3 0.007274 -0.009564 0.025701 -0.003068 0.010298 -0.003053
# 4 0.001255 0.003786 -0.003068 0.033403 0.006230 0.009957
# 5 0.022556 -0.001490 0.010298 0.006230 0.056314 0.006444
# 6 0.010317 0.006979 -0.003053 0.009957 0.006444 0.077428
#
#
# Mechanical properties :
#
#
# Convention : Reuss Voigt Hill
#
# Bulk Modulus (GPa) = 14.67927 38.83292 26.75609
# Shear Modulus (GPa) = 17.65437 25.70861 21.68149
#
# Velocity S-wave (km/s) = 3.07618 3.71215 3.40903
# Velocity P-wave (km/s) = 4.52608 6.26005 5.46231
#
# Compressibility (1/GPa) = 0.06812329
#
# Stress axis : x y z
#
# Youngs Moduli (GPa) = 23.05562 85.70094 38.90846
#
# Poissons Ratio (x) = 0.34455 -0.28302
# Poissons Ratio (y) = 0.09269 0.37211
# Poissons Ratio (z) = -0.16771 0.81961
#
# Static dielectric constant tensor:
#      x y z
#    x 3.130150 -0.209820 -0.242840 
#    y -0.209820 3.848380 0.405870 
#    z -0.242840 0.405870 4.803660 
# 
# 
# High freq. dielectric constant tensor:
#      x y z
#    x 1.687780 -0.009250 -0.009460 
#    y -0.009250 1.727630 0.004680 
#    z -0.009460 0.004680 1.725300 
# 
# From -- ./inp_files/196215.got.cif
#   From: 2010.06.25/outbox.cif.g09.slc.cpg/sg2_99_cif.got.tgz:196215.got - 2010.06.27 13:26:56.
