data_PCOD8039436
_publ_section_title
;
Structure prediction by ZEFSAII (Michael W. Deem and Ramdas Pophale) SiO2 
 PCOD8039436
Probable space group: P -1
;
_chemical_formula_sum "Si O2"
_cell_formula_units_Z 14
_cell_length_a 12.059146
_cell_length_b 20.059862
_cell_length_c 8.864237
_cell_angle_alpha 147.253103
_cell_angle_beta 130.197417
_cell_angle_gamma 38.056892
_cell_volume 714.110381
_symmetry_space_group_name_H-M "P -1"
_symmetry_group_IT_number 2
_symmetry_cell_setting 'triclinic'
loop_
_space_group_symop_operation_xyz
x,y,z
-x,-y,-z
loop_
_atom_site_type_symbol
_atom_site_label
_atom_site_fract_x
_atom_site_fract_y
_atom_site_fract_z
Si Si1 0.291512 0.319694 0.454677
Si Si2 0.535681 0.898542 0.062659
Si Si3 0.289731 0.878486 0.013925
Si Si4 0.856569 0.679515 0.118424
Si Si5 0.426505 0.213541 0.670115
Si Si6 0.947642 0.224879 0.354558
Si Si7 0.928617 0.427543 0.482571
O O1 0.388773 0.320285 0.694327
O O2 0.240894 0.456563 0.555814
O O3 0.109389 0.338202 0.372673
O O4 0.429121 0.153981 0.180308
O O5 0.434708 0.832245 0.923390
O O6 0.729642 0.819449 0.160841
O O7 0.422911 0.078165 0.336023
O O8 0.384394 0.850639 0.207230
O O9 0.224444 0.770113 0.739271
O O10 0.124727 0.052810 0.176824
O O11 0.740826 0.693569 0.187438
O O12 0.021434 0.684344 0.321684
O O13 0.941852 0.519374 0.805561
O O14 0.907102 0.304129 0.304825
#
# Coordination Sequence:
#
# PCOD8039436 Si02
#       7
#     2   2   2   2   2   2   2
#     4  10  21  33  58  78 112 144 183 217 269 317
#     4  10  18  35  56  85 108 140 181 228 264 324
#     4  10  21  34  59  83 109 136 186 225 281 305
#     4  10  18  33  61  81 107 136 188 227 263 308
#     4  11  18  35  56  87 106 141 183 229 263 319
#     4  11  19  35  58  83 110 139 175 240 265 316
#     4  10  21  36  55  87 106 144 185 220 263 328
#
# _framework density 19.604811999999999
#
# number of rings (size 3 to 8) (size 9 to 14) (size 15 to 20)
#    0.000    1.714    4.286    1.714    0.000    0.000 
#    0.000    7.143    9.429    2.571    0.000    0.000 
#    0.000    0.000    0.000    0.000    0.000    0.000 
#
# Total GULP energy -173520.767111 kJ/mol
# GULP energy per Si atom -12394.340508 kJ/mol
# Density = 1.956019 g / cm^3
# Si number density = 19.604812 Si / 1000 Ang^3
#
#
#
# Elastic Constant Matrix: (Units=GPa)
#
#
# Indices 1 2 3 4 5 6 
#
# 1 92.5042 36.3578 53.1214 -11.1181 0.0079 4.9209
# 2 36.3578 89.9326 35.7257 -6.9274 6.6631 16.8463
# 3 53.1214 35.7257 66.4989 -10.3866 -5.0584 6.0330
# 4 -11.1181 -6.9274 -10.3866 25.7582 0.3314 -2.9669
# 5 0.0079 6.6631 -5.0584 0.3314 38.6670 -1.9211
# 6 4.9209 16.8463 6.0330 -2.9669 -1.9211 29.3006
#
#
#
# Elastic Compliance Matrix: (Units=1/GPa)
#
#
# Indices 1 2 3 4 5 6 
#
# 1 0.020576 -0.002228 -0.015090 0.002340 -0.001561 0.001067
# 2 -0.002228 0.016463 -0.006666 -0.000090 -0.004105 -0.007997
# 3 -0.015090 -0.006666 0.031720 0.004490 0.005294 0.000638
# 4 0.002340 -0.000090 0.004490 0.041960 0.000392 0.003009
# 5 -0.001561 -0.004105 0.005294 0.000392 0.027426 0.003370
# 6 0.001067 -0.007997 0.000638 0.003009 0.003370 0.038942
#
#
# Mechanical properties :
#
#
# Convention : Reuss Voigt Hill
#
# Bulk Modulus (GPa) = 48.09643 55.48281 51.78962
# Shear Modulus (GPa) = 21.55300 26.99386 24.27343
#
# Velocity S-wave (km/s) = 3.31928 3.71469 3.52253
# Velocity P-wave (km/s) = 6.26709 6.83817 6.55885
#
# Compressibility (1/GPa) = 0.02079156
#
# Stress axis : x y z
#
# Youngs Moduli (GPa) = 48.59973 60.74084 31.52629
#
# Poissons Ratio (x) = 0.13532 0.47573
# Poissons Ratio (y) = 0.10827 0.21015
# Poissons Ratio (z) = 0.73337 0.40489
#
# Static dielectric constant tensor:
#      x y z
#    x 3.535600 0.196050 -0.101830 
#    y 0.196050 3.976680 -0.018270 
#    z -0.101830 -0.018270 3.440470 
# 
# 
# High freq. dielectric constant tensor:
#      x y z
#    x 1.743000 0.012680 -0.023390 
#    y 0.012680 1.789620 0.010180 
#    z -0.023390 0.010180 1.732710 
# 
# From -- ./inp_files/170380.got.cif
#   From: 2010.06.25/outbox.cif.g09.slc.cpg/sg2_86_cif.got.tgz:170380.got - 2010.06.27 13:26:56.
