data_PCOD8039954
_publ_section_title
;
Structure prediction by ZEFSAII (Michael W. Deem and Ramdas Pophale) SiO2 
 PCOD8039954
Probable space group: P -1
;
_chemical_formula_sum "Si O2"
_cell_formula_units_Z 16
_cell_length_a 19.191273
_cell_length_b 12.207293
_cell_length_c 16.031363
_cell_angle_alpha 48.083823
_cell_angle_beta 159.325030
_cell_angle_gamma 141.683295
_cell_volume 783.855846
_symmetry_space_group_name_H-M "P -1"
_symmetry_group_IT_number 2
_symmetry_cell_setting 'triclinic'
loop_
_space_group_symop_operation_xyz
x,y,z
-x,-y,-z
loop_
_atom_site_type_symbol
_atom_site_label
_atom_site_fract_x
_atom_site_fract_y
_atom_site_fract_z
Si Si1 0.600934 0.768711 0.984609
Si Si2 0.860423 0.736366 0.067997
Si Si3 0.334966 0.550491 0.520451
Si Si4 0.993524 0.938242 0.820561
Si Si5 0.991245 0.670040 0.082463
Si Si6 0.201101 0.595018 0.748134
Si Si7 0.552723 0.603868 0.421082
Si Si8 0.807876 0.587202 0.393019
O O1 0.457718 0.769978 0.904734
O O2 0.402249 0.620170 0.770303
O O3 0.787640 0.727616 0.247287
O O4 0.770748 0.963828 0.027863
O O5 0.041545 0.763081 0.183026
O O6 0.752598 0.549530 0.094221
O O7 0.011427 0.913669 0.207088
O O8 0.626921 0.717398 0.776436
O O9 0.302301 0.438501 0.458225
O O10 0.225153 0.408535 0.547336
O O11 0.196500 0.642024 0.306486
O O12 0.739780 0.822962 0.540051
O O13 0.009227 0.803239 0.965247
O O14 0.715242 0.469435 0.878847
O O15 0.000000 0.500000 0.500000
O O16 0.089270 0.651031 0.665078
O O17 0.500000 0.500000 0.500000
#
# Coordination Sequence:
#
# PCOD8039954 Si02
#       8
#     2   2   2   2   2   2   2   2
#     4  10  19  35  56  89 125 150 191 243 298 349
#     4  11  20  37  61  93 120 144 199 255 297 343
#     4  11  20  39  64  87 115 160 200 241 291 356
#     4  11  21  39  60  88 123 156 192 249 303 342
#     4  10  23  40  62  86 117 160 201 240 296 357
#     4  10  19  32  58  89 120 156 191 238 296 358
#     4   9  23  43  60  82 117 167 203 236 290 356
#     4  10  18  35  59  88 118 156 195 235 296 356
#
# _framework density 20.411916999999999
#
# number of rings (size 3 to 8) (size 9 to 14) (size 15 to 20)
#    0.000    1.750    3.750    1.875    0.000    2.500 
#    0.000   15.625    0.000    1.500    0.000    0.000 
#    0.000    0.000    0.000    0.000    0.000    0.000 
#
# Total GULP energy -198323.145632 kJ/mol
# GULP energy per Si atom -12395.196602 kJ/mol
# Density = 2.036546 g / cm^3
# Si number density = 20.411917 Si / 1000 Ang^3
#
#
#
# Elastic Constant Matrix: (Units=GPa)
#
#
# Indices 1 2 3 4 5 6 
#
# 1 149.1549 53.4124 43.1450 8.1481 8.1154 -4.7265
# 2 53.4124 65.4078 45.5934 11.4349 6.2009 2.2807
# 3 43.1450 45.5934 87.0438 -4.1608 16.8233 -11.0117
# 4 8.1481 11.4349 -4.1608 30.7652 1.9775 0.5629
# 5 8.1154 6.2009 16.8233 1.9775 26.2054 -2.4571
# 6 -4.7265 2.2807 -11.0117 0.5629 -2.4571 38.3315
#
#
#
# Elastic Compliance Matrix: (Units=1/GPa)
#
#
# Indices 1 2 3 4 5 6 
#
# 1 0.009617 -0.007533 -0.000480 0.000211 -0.000768 0.001444
# 2 -0.007533 0.036125 -0.017918 -0.014077 0.005632 -0.007658
# 3 -0.000480 -0.017918 0.024794 0.010758 -0.011663 0.007224
# 4 0.000211 -0.014077 0.010758 0.039489 -0.006342 0.002968
# 5 -0.000768 0.005632 -0.011663 -0.006342 0.044956 -0.000806
# 6 0.001444 -0.007658 0.007224 0.002968 -0.000806 0.028702
#
#
# Mechanical properties :
#
#
# Convention : Reuss Voigt Hill
#
# Bulk Modulus (GPa) = 53.55252 65.10091 59.32671
# Shear Modulus (GPa) = 20.68084 29.69078 25.18581
#
# Velocity S-wave (km/s) = 3.18649 3.81803 3.51647
# Velocity P-wave (km/s) = 6.31120 7.16933 6.75391
#
# Compressibility (1/GPa) = 0.01867326
#
# Stress axis : x y z
#
# Youngs Moduli (GPa) = 103.98394 27.68185 40.33201
#
# Poissons Ratio (x) = 0.20853 0.01935
# Poissons Ratio (y) = 0.78334 0.72268
# Poissons Ratio (z) = 0.04988 0.49601
#
# Static dielectric constant tensor:
#      x y z
#    x 4.193350 0.017730 0.154800 
#    y 0.017730 3.390060 0.107880 
#    z 0.154800 0.107880 4.067190 
# 
# 
# High freq. dielectric constant tensor:
#      x y z
#    x 1.823050 0.014140 0.008030 
#    y 0.014140 1.749910 -0.011790 
#    z 0.008030 -0.011790 1.791960 
# 
# From -- ./inp_files/577800.got.cif
#   From: 2010.06.25/outbox.cif.g09.slc.cpg/sg2_289_cif.got.tgz:577800.got - 2010.06.27 13:26:56.
