data_PCOD8039963
_publ_section_title
;
Structure prediction by ZEFSAII (Michael W. Deem and Ramdas Pophale) SiO2 
 PCOD8039963
Probable space group: P -1
;
_chemical_formula_sum "Si O2"
_cell_formula_units_Z 16
_cell_length_a 16.105070
_cell_length_b 8.295089
_cell_length_c 14.909280
_cell_angle_alpha 111.681838
_cell_angle_beta 37.966169
_cell_angle_gamma 83.743304
_cell_volume 812.995074
_symmetry_space_group_name_H-M "P -1"
_symmetry_group_IT_number 2
_symmetry_cell_setting 'triclinic'
loop_
_space_group_symop_operation_xyz
x,y,z
-x,-y,-z
loop_
_atom_site_type_symbol
_atom_site_label
_atom_site_fract_x
_atom_site_fract_y
_atom_site_fract_z
Si Si1 0.394737 0.246520 0.022509
Si Si2 0.998635 0.544674 0.331801
Si Si3 0.722440 0.294622 0.481303
Si Si4 0.668439 0.067822 0.341268
Si Si5 0.307369 0.241626 0.602202
Si Si6 0.628775 0.702017 0.746131
Si Si7 0.003787 0.730758 0.866716
Si Si8 0.715785 0.023522 0.577259
O O1 0.401173 0.328590 0.131936
O O2 0.178825 0.438910 0.213845
O O3 0.472240 0.980963 0.907437
O O4 0.531909 0.234173 0.837943
O O5 0.842891 0.581330 0.530440
O O6 0.069043 0.363326 0.151668
O O7 0.899080 0.810639 0.436450
O O8 0.595670 0.568925 0.680356
O O9 0.910542 0.196737 0.254031
O O10 0.611441 0.275203 0.500012
O O11 0.777920 0.129963 0.486325
O O12 0.741720 0.833513 0.285763
O O13 0.492248 0.185734 0.453574
O O14 0.834583 0.974696 0.113925
O O15 0.147639 0.526301 0.776308
O O16 0.344060 0.090621 0.453049
#
# Coordination Sequence:
#
# PCOD8039963 Si02
#       8
#     2   2   2   2   2   2   2   2
#     4  10  18  35  60  76  96 138 178 206 255 312
#     4   9  18  34  56  77 100 132 175 216 248 301
#     4  10  21  36  49  75 114 136 163 218 262 295
#     4  10  19  34  54  73 102 139 171 207 255 304
#     4   9  19  34  53  77 100 132 178 213 241 298
#     4   9  20  35  54  80 104 129 170 220 257 301
#     4  10  19  33  53  75 102 136 171 208 253 303
#     4   9  19  35  52  76 108 135 168 214 255 300
#
# _framework density 19.680316999999999
#
# number of rings (size 3 to 8) (size 9 to 14) (size 15 to 20)
#    0.000    2.500    0.000    2.625    0.000    1.000 
#    0.000    6.875    0.000    0.000    0.000    0.000 
#    0.000    0.000    0.000    0.000    0.000    0.000 
#
# Total GULP energy -198376.634859 kJ/mol
# GULP energy per Si atom -12398.539679 kJ/mol
# Density = 1.963552 g / cm^3
# Si number density = 19.680317 Si / 1000 Ang^3
#
#
#
# Elastic Constant Matrix: (Units=GPa)
#
#
# Indices 1 2 3 4 5 6 
#
# 1 79.7385 32.8517 51.0338 -0.4674 0.1928 -7.7648
# 2 32.8517 75.9501 30.3858 -9.8819 -0.6132 4.9743
# 3 51.0338 30.3858 100.1873 -6.6594 7.2307 0.2331
# 4 -0.4674 -9.8819 -6.6594 22.5105 -0.7493 5.7385
# 5 0.1928 -0.6132 7.2307 -0.7493 30.0848 2.3191
# 6 -7.7648 4.9743 0.2331 5.7385 2.3191 20.1695
#
#
#
# Elastic Compliance Matrix: (Units=1/GPa)
#
#
# Indices 1 2 3 4 5 6 
#
# 1 0.023990 -0.008409 -0.010418 -0.009851 0.000844 0.014136
# 2 -0.008409 0.019381 -0.000969 0.011000 0.001830 -0.011346
# 3 -0.010418 -0.000969 0.016188 0.005336 -0.003318 -0.005096
# 4 -0.009851 0.011000 0.005336 0.056538 0.002179 -0.022903
# 5 0.000844 0.001830 -0.003318 0.002179 0.034483 -0.004673
# 6 0.014136 -0.011346 -0.005096 -0.022903 -0.004673 0.064933
#
#
# Mechanical properties :
#
#
# Convention : Reuss Voigt Hill
#
# Bulk Modulus (GPa) = 50.08579 53.82428 51.95503
# Shear Modulus (GPa) = 19.10138 23.99328 21.54733
#
# Velocity S-wave (km/s) = 3.11880 3.49542 3.31247
# Velocity P-wave (km/s) = 6.20275 6.61054 6.40989
#
# Compressibility (1/GPa) = 0.01996574
#
# Stress axis : x y z
#
# Youngs Moduli (GPa) = 41.68355 51.59767 61.77379
#
# Poissons Ratio (x) = 0.43391 0.64358
# Poissons Ratio (y) = 0.35054 0.05985
# Poissons Ratio (z) = 0.43427 0.04999
#
# Static dielectric constant tensor:
#      x y z
#    x 3.556980 -0.144430 0.262470 
#    y -0.144430 3.571870 -0.073620 
#    z 0.262470 -0.073620 3.520280 
# 
# 
# High freq. dielectric constant tensor:
#      x y z
#    x 1.760930 -0.012480 0.018110 
#    y -0.012480 1.758840 -0.008180 
#    z 0.018110 -0.008180 1.760750 
# 
# From -- ./inp_files/43684.got.cif
#   From: 2010.06.25/outbox.cif.g09.slc.cpg/sg2_22_cif.got.tgz:43684.got - 2010.06.27 13:26:56.
