data_PCOD8039851
_publ_section_title
;
Structure prediction by ZEFSAII (Michael W. Deem and Ramdas Pophale) SiO2 
 PCOD8039851
Probable space group: P -1
;
_chemical_formula_sum "Si O2"
_cell_formula_units_Z 16
_cell_length_a 15.396489
_cell_length_b 9.698488
_cell_length_c 11.808212
_cell_angle_alpha 135.295506
_cell_angle_beta 49.857978
_cell_angle_gamma 141.304779
_cell_volume 759.040335
_symmetry_space_group_name_H-M "P -1"
_symmetry_group_IT_number 2
_symmetry_cell_setting 'triclinic'
loop_
_space_group_symop_operation_xyz
x,y,z
-x,-y,-z
loop_
_atom_site_type_symbol
_atom_site_label
_atom_site_fract_x
_atom_site_fract_y
_atom_site_fract_z
Si Si1 0.638464 0.809986 0.685578
Si Si2 0.167165 0.150788 0.270560
Si Si3 0.919288 0.605721 0.175451
Si Si4 0.090663 0.203511 0.137140
Si Si5 0.317984 0.384236 0.691195
Si Si6 0.813066 0.102919 0.377644
Si Si7 0.125034 0.524841 0.624123
Si Si8 0.805713 0.304553 0.729064
O O1 0.695632 0.798174 0.752919
O O2 0.469433 0.636660 0.731944
O O3 0.694951 0.728514 0.488719
O O4 0.688820 0.086180 0.782390
O O5 0.171667 0.143042 0.123148
O O6 0.161002 0.372264 0.432824
O O7 0.030018 0.892312 0.279799
O O8 0.802206 0.571608 0.167433
O O9 0.827212 0.453107 0.273852
O O10 0.000000 0.500000 0.000000
O O11 0.199866 0.463185 0.132485
O O12 0.979042 0.214423 0.312736
O O13 0.000000 0.000000 0.000000
O O14 0.288427 0.192093 0.701803
O O15 0.790853 0.200087 0.336348
O O16 0.773787 0.207257 0.571786
O O17 0.957402 0.386742 0.691018
#
# Coordination Sequence:
#
# PCOD8039851 Si02
#       8
#     2   2   2   2   2   2   2   2
#     4  10  21  37  65  89 126 164 201 253 306 370
#     4  12  20  38  60  91 115 165 204 254 304 358
#     4  12  25  37  60  94 126 156 206 262 305 354
#     4  11  22  33  58  90 125 153 204 261 306 356
#     4  10  21  40  61  94 125 159 207 254 306 362
#     4  10  19  35  59  85 121 158 199 254 309 358
#     4  11  19  35  60  89 119 154 206 258 296 359
#     4  10  18  35  56  90 119 157 201 246 314 360
#
# _framework density 21.079249000000001
#
# number of rings (size 3 to 8) (size 9 to 14) (size 15 to 20)
#    0.000    1.250    6.250    1.875    3.500    0.000 
#    0.000    2.500    0.000    0.750    0.000    0.000 
#    0.000    0.000    0.000    0.000    0.000    0.000 
#
# Total GULP energy -198326.532782 kJ/mol
# GULP energy per Si atom -12395.408299 kJ/mol
# Density = 2.103127 g / cm^3
# Si number density = 21.079249 Si / 1000 Ang^3
#
#
#
# Elastic Constant Matrix: (Units=GPa)
#
#
# Indices 1 2 3 4 5 6 
#
# 1 125.6200 75.3164 37.9215 9.1214 11.5077 -17.8435
# 2 75.3164 172.2552 32.6986 17.6675 -4.3112 -23.9126
# 3 37.9215 32.6986 53.4475 11.1998 -0.3001 -10.1319
# 4 9.1214 17.6675 11.1998 15.4802 -0.4083 -3.8079
# 5 11.5077 -4.3112 -0.3001 -0.4083 29.1550 -6.2965
# 6 -17.8435 -23.9126 -10.1319 -3.8079 -6.2965 40.3337
#
#
#
# Elastic Compliance Matrix: (Units=1/GPa)
#
#
# Indices 1 2 3 4 5 6 
#
# 1 0.013449 -0.004888 -0.007044 0.002745 -0.005932 0.000616
# 2 -0.004888 0.009194 -0.000135 -0.006616 0.003894 0.003238
# 3 -0.007044 -0.000135 0.027441 -0.014759 0.003450 0.002843
# 4 0.002745 -0.006616 -0.014759 0.081471 -0.000825 0.001147
# 5 -0.005932 0.003894 0.003450 -0.000825 0.038646 0.006506
# 6 0.000616 0.003238 0.002843 0.001147 0.006506 0.028823
#
#
# Mechanical properties :
#
#
# Convention : Reuss Voigt Hill
#
# Bulk Modulus (GPa) = 38.53387 71.46617 55.00002
# Shear Modulus (GPa) = 21.56987 30.68620 26.12804
#
# Velocity S-wave (km/s) = 3.20234 3.81957 3.52449
# Velocity P-wave (km/s) = 5.65628 7.30954 6.53540
#
# Compressibility (1/GPa) = 0.02595120
#
# Stress axis : x y z
#
# Youngs Moduli (GPa) = 74.35541 108.77219 36.44220
#
# Poissons Ratio (x) = 0.53166 0.25668
# Poissons Ratio (y) = 0.36344 0.00490
# Poissons Ratio (z) = 0.52373 0.01463
#
# Static dielectric constant tensor:
#      x y z
#    x 3.824810 -0.437850 0.099260 
#    y -0.437850 3.965330 0.121750 
#    z 0.099260 0.121750 3.541420 
# 
# 
# High freq. dielectric constant tensor:
#      x y z
#    x 1.810940 -0.038250 0.013240 
#    y -0.038250 1.825320 0.016050 
#    z 0.013240 0.016050 1.796160 
# 
# From -- ./inp_files/357403.got.cif
#   From: 2010.06.25/outbox.cif.g09.slc.cpg/sg2_179_cif.got.tgz:357403.got - 2010.06.27 13:26:56.
