data_PCOD8039993
_publ_section_title
;
Structure prediction by ZEFSAII (Michael W. Deem and Ramdas Pophale) SiO2 
 PCOD8039993
Probable space group: P -1
;
_chemical_formula_sum "Si O2"
_cell_formula_units_Z 16
_cell_length_a 9.484264
_cell_length_b 8.749146
_cell_length_c 16.017149
_cell_angle_alpha 137.241014
_cell_angle_beta 91.444354
_cell_angle_gamma 70.691458
_cell_volume 800.987686
_symmetry_space_group_name_H-M "P -1"
_symmetry_group_IT_number 2
_symmetry_cell_setting 'triclinic'
loop_
_space_group_symop_operation_xyz
x,y,z
-x,-y,-z
loop_
_atom_site_type_symbol
_atom_site_label
_atom_site_fract_x
_atom_site_fract_y
_atom_site_fract_z
Si Si1 0.593624 0.940913 0.062390
Si Si2 0.297010 0.167915 0.245071
Si Si3 0.323583 0.538136 0.519632
Si Si4 0.854758 0.547435 0.809112
Si Si5 0.748168 0.304832 0.234797
Si Si6 0.091275 0.092801 0.707650
Si Si7 0.925544 0.081533 0.866819
Si Si8 0.831334 0.490290 0.158644
O O1 0.474833 0.947815 0.137193
O O2 0.641577 0.161097 0.172479
O O3 0.742586 0.666520 0.937479
O O4 0.500000 0.000000 0.000000
O O5 0.304677 0.311110 0.385621
O O6 0.234630 0.365804 0.245609
O O7 0.183697 0.044234 0.215624
O O8 0.500000 0.500000 0.500000
O O9 0.281615 0.541542 0.617660
O O10 0.198737 0.795849 0.574305
O O11 0.987834 0.644878 0.856902
O O12 0.946912 0.237389 0.696000
O O13 0.710756 0.497398 0.233045
O O14 0.933123 0.110058 0.149469
O O15 0.208450 0.226192 0.759630
O O16 0.007989 0.147074 0.817720
O O17 0.814914 0.333335 0.017682
#
# Coordination Sequence:
#
# PCOD8039993 Si02
#       8
#     2   2   2   2   2   2   2   2
#     4  10  19  33  60  90 121 153 191 249 300 350
#     4  11  22  38  61  90 121 158 203 244 293 352
#     4  11  24  42  60  82 124 165 203 239 292 365
#     4   9  19  37  60  92 118 146 199 249 301 345
#     4  11  19  35  62  85 116 164 201 240 289 359
#     4   9  22  37  62  89 120 160 193 246 301 352
#     4  11  19  35  62  95 116 153 199 253 297 351
#     4  10  18  35  60  93 117 145 201 246 299 347
#
# _framework density 19.975339999999999
#
# number of rings (size 3 to 8) (size 9 to 14) (size 15 to 20)
#    0.750    1.000    3.750    2.250    0.000    2.500 
#    0.000    1.250    5.500    0.000    0.000    0.000 
#    0.000    0.000    0.000    0.000    0.000    0.000 
#
# Total GULP energy -198216.894809 kJ/mol
# GULP energy per Si atom -12388.555926 kJ/mol
# Density = 1.992987 g / cm^3
# Si number density = 19.975340 Si / 1000 Ang^3
#
#
#
# Elastic Constant Matrix: (Units=GPa)
#
#
# Indices 1 2 3 4 5 6 
#
# 1 80.4624 15.8103 21.4288 2.8467 8.1809 8.1209
# 2 15.8103 52.9226 6.1284 0.5727 -7.9449 13.5352
# 3 21.4288 6.1284 95.6428 -6.7416 9.0537 -0.6536
# 4 2.8467 0.5727 -6.7416 19.0277 -3.2245 -1.4837
# 5 8.1809 -7.9449 9.0537 -3.2245 36.3932 -0.0143
# 6 8.1209 13.5352 -0.6536 -1.4837 -0.0143 29.2528
#
#
#
# Elastic Compliance Matrix: (Units=1/GPa)
#
#
# Indices 1 2 3 4 5 6 
#
# 1 0.014787 -0.003944 -0.003000 -0.003998 -0.003794 -0.002552
# 2 -0.003944 0.023724 -0.001327 -0.000289 0.006366 -0.009924
# 3 -0.003000 -0.001327 0.011742 0.004437 -0.002142 0.001934
# 4 -0.003998 -0.000289 0.004437 0.055853 0.004682 0.004178
# 5 -0.003794 0.006366 -0.002142 0.004682 0.030667 -0.001688
# 6 -0.002552 -0.009924 0.001934 0.004178 -0.001688 0.039739
#
#
# Mechanical properties :
#
#
# Convention : Reuss Voigt Hill
#
# Bulk Modulus (GPa) = 29.66509 35.08478 32.37494
# Shear Modulus (GPa) = 24.47475 29.31208 26.89342
#
# Velocity S-wave (km/s) = 3.50415 3.83484 3.67322
# Velocity P-wave (km/s) = 5.59064 6.10001 5.85087
#
# Compressibility (1/GPa) = 0.03370965
#
# Stress axis : x y z
#
# Youngs Moduli (GPa) = 67.62745 42.15102 85.16699
#
# Poissons Ratio (x) = 0.16623 0.25554
# Poissons Ratio (y) = 0.26670 0.11306
# Poissons Ratio (z) = 0.20291 0.05595
#
# Static dielectric constant tensor:
#      x y z
#    x 3.628690 -0.019490 -0.239810 
#    y -0.019490 3.446500 0.011620 
#    z -0.239810 0.011620 3.577690 
# 
# 
# High freq. dielectric constant tensor:
#      x y z
#    x 1.780400 0.005940 -0.005480 
#    y 0.005940 1.756070 -0.010560 
#    z -0.005480 -0.010560 1.767950 
# 
# From -- ./inp_files/495885.got.cif
#   From: 2010.06.25/outbox.cif.g09.slc.cpg/sg2_248_cif.got.tgz:495885.got - 2010.06.27 13:26:56.
