data_PCOD8039295
_publ_section_title
;
Structure prediction by ZEFSAII (Michael W. Deem and Ramdas Pophale) SiO2 
 PCOD8039295
Probable space group: P -1
;
_chemical_formula_sum "Si O2"
_cell_formula_units_Z 16
_cell_length_a 6.750977
_cell_length_b 19.587316
_cell_length_c 10.040084
_cell_angle_alpha 47.973441
_cell_angle_beta 124.013130
_cell_angle_gamma 106.042965
_cell_volume 807.032657
_symmetry_space_group_name_H-M "P -1"
_symmetry_group_IT_number 2
_symmetry_cell_setting 'triclinic'
loop_
_space_group_symop_operation_xyz
x,y,z
-x,-y,-z
loop_
_atom_site_type_symbol
_atom_site_label
_atom_site_fract_x
_atom_site_fract_y
_atom_site_fract_z
Si Si1 0.055169 0.303482 0.739595
Si Si2 0.177877 0.261224 0.550324
Si Si3 0.022160 0.082881 0.299621
Si Si4 0.380716 0.120373 0.185927
Si Si5 0.515705 0.597553 0.215194
Si Si6 0.527962 0.080198 0.007829
Si Si7 0.177956 0.773723 0.763033
Si Si8 0.527284 0.391810 0.500539
O O1 0.787707 0.333193 0.651601
O O2 0.041402 0.304823 0.572819
O O3 0.227574 0.374421 0.767582
O O4 0.157488 0.201448 0.965155
O O5 0.382114 0.176256 0.777421
O O6 0.318050 0.338127 0.432347
O O7 0.981091 0.226828 0.427291
O O8 0.996436 0.180232 0.243900
O O9 0.280480 0.062510 0.344891
O O10 0.809455 0.089546 0.102284
O O11 0.000000 0.000000 0.500000
O O12 0.615366 0.162523 0.267038
O O13 0.443902 0.059169 0.155084
O O14 0.500631 0.494176 0.290371
O O15 0.505024 0.600878 0.364429
O O16 0.292372 0.668499 0.978932
O O17 0.500000 0.000000 0.000000
#
# Coordination Sequence:
#
# PCOD8039295 Si02
#       8
#     2   2   2   2   2   2   2   2
#     4   9  17  34  55  78 106 140 184 221 265 324
#     4  10  21  35  53  80 110 143 181 225 271 323
#     4  11  22  38  60  83 108 142 183 225 273 327
#     4   9  20  37  58  79 108 146 179 222 272 321
#     4   9  19  33  54  80 106 143 183 223 270 325
#     4  10  21  38  57  82 111 141 182 226 271 327
#     4  10  21  37  53  78 114 143 182 225 269 327
#     4  10  18  33  56  79 107 142 182 227 273 317
#
# _framework density 19.825714000000001
#
# number of rings (size 3 to 8) (size 9 to 14) (size 15 to 20)
#    0.000    2.250    0.000    4.875    0.000    4.000 
#    0.000    4.375    0.000    0.000    0.000    0.000 
#    0.000    0.000    0.000    0.000    0.000    0.000 
#
# Total GULP energy -198372.347479 kJ/mol
# GULP energy per Si atom -12398.271717 kJ/mol
# Density = 1.978059 g / cm^3
# Si number density = 19.825714 Si / 1000 Ang^3
#
#
#
# Elastic Constant Matrix: (Units=GPa)
#
#
# Indices 1 2 3 4 5 6 
#
# 1 105.4508 33.5156 12.7724 2.1015 -1.5077 5.5992
# 2 33.5156 98.2239 23.4664 10.9720 -1.6189 7.5805
# 3 12.7724 23.4664 56.9642 17.0782 5.6768 12.6884
# 4 2.1015 10.9720 17.0782 25.8883 3.7733 4.0277
# 5 -1.5077 -1.6189 5.6768 3.7733 28.3809 -5.8140
# 6 5.5992 7.5805 12.6884 4.0277 -5.8140 19.3909
#
#
#
# Elastic Compliance Matrix: (Units=1/GPa)
#
#
# Indices 1 2 3 4 5 6 
#
# 1 0.010766 -0.003464 -0.001187 0.001551 0.000148 -0.001255
# 2 -0.003464 0.012605 -0.003604 -0.002824 0.001524 -0.000526
# 3 -0.001187 -0.003604 0.027399 -0.012962 -0.007232 -0.015653
# 4 0.001551 -0.002824 -0.012962 0.049295 -0.004545 -0.002464
# 5 0.000148 0.001524 -0.007232 -0.004545 0.040926 0.017309
# 6 -0.001255 -0.000526 -0.015653 -0.002464 0.017309 0.068083
#
#
# Mechanical properties :
#
#
# Convention : Reuss Voigt Hill
#
# Bulk Modulus (GPa) = 29.18870 44.46083 36.82477
# Shear Modulus (GPa) = 21.09675 27.45766 24.27721
#
# Velocity S-wave (km/s) = 3.26561 3.72553 3.50313
# Velocity P-wave (km/s) = 5.38271 6.40161 5.91414
#
# Compressibility (1/GPa) = 0.03425983
#
# Stress axis : x y z
#
# Youngs Moduli (GPa) = 92.88818 79.33458 36.49754
#
# Poissons Ratio (x) = 0.27479 0.04333
# Poissons Ratio (y) = 0.32174 0.13154
# Poissons Ratio (z) = 0.11027 0.28593
#
# Static dielectric constant tensor:
#      x y z
#    x 3.711090 0.031520 0.072650 
#    y 0.031520 3.740560 -0.241400 
#    z 0.072650 -0.241400 3.522240 
# 
# 
# High freq. dielectric constant tensor:
#      x y z
#    x 1.777680 0.000740 0.010890 
#    y 0.000740 1.767190 -0.013050 
#    z 0.010890 -0.013050 1.766270 
# 
# From -- ./inp_files/107482.got.cif
#   From: 2010.06.25/outbox.cif.g09.slc.cpg/sg2_54_cif.got.tgz:107482.got - 2010.06.27 13:26:56.
