data_PCOD8039540
_publ_section_title
;
Structure prediction by ZEFSAII (Michael W. Deem and Ramdas Pophale) SiO2 
 PCOD8039540
Probable space group: P -1
;
_chemical_formula_sum "Si O2"
_cell_formula_units_Z 16
_cell_length_a 12.070848
_cell_length_b 17.024699
_cell_length_c 8.693608
_cell_angle_alpha 59.558106
_cell_angle_beta 146.138305
_cell_angle_gamma 115.660908
_cell_volume 857.940868
_symmetry_space_group_name_H-M "P -1"
_symmetry_group_IT_number 2
_symmetry_cell_setting 'triclinic'
loop_
_space_group_symop_operation_xyz
x,y,z
-x,-y,-z
loop_
_atom_site_type_symbol
_atom_site_label
_atom_site_fract_x
_atom_site_fract_y
_atom_site_fract_z
Si Si1 0.717164 0.059452 0.032824
Si Si2 0.042322 0.669156 0.721022
Si Si3 0.058936 0.182965 0.312465
Si Si4 0.290011 0.768686 0.319412
Si Si5 0.654261 0.279104 0.218587
Si Si6 0.589212 0.383884 0.610386
Si Si7 0.454723 0.125950 0.928702
Si Si8 0.626061 0.585348 0.368318
O O1 0.630249 0.129128 0.735015
O O2 0.628783 0.083831 0.073188
O O3 0.954943 0.081138 0.299059
O O4 0.661918 0.954999 0.030171
O O5 0.130768 0.692879 0.631264
O O6 0.984247 0.765368 0.629822
O O7 0.851994 0.601818 0.559116
O O8 0.205418 0.616617 0.058926
O O9 0.295913 0.172541 0.583000
O O10 0.947832 0.239444 0.991919
O O11 0.315726 0.752416 0.543249
O O12 0.420049 0.698181 0.440836
O O13 0.546467 0.198041 0.080560
O O14 0.514280 0.366159 0.965162
O O15 0.574124 0.478196 0.407774
O O16 0.411207 0.375015 0.540519
#
# Coordination Sequence:
#
# PCOD8039540 Si02
#       8
#     2   2   2   2   2   2   2   2
#     4   9  20  35  56  81 104 137 185 231 257 308
#     4  10  18  34  56  78 109 140 181 223 264 311
#     4   9  18  35  54  76 100 141 181 221 260 310
#     4   9  21  38  49  79 121 137 167 233 272 315
#     4  11  21  35  51  81 117 142 173 219 272 329
#     4   9  19  36  57  81 106 137 188 226 258 316
#     4  11  18  34  62  77 101 142 190 219 262 316
#     4  10  19  34  60  81 101 147 183 221 264 317
#
# _framework density 18.649304000000001
#
# number of rings (size 3 to 8) (size 9 to 14) (size 15 to 20)
#    0.750    1.500    2.500    1.500    0.000    1.000 
#    2.250    0.625    0.000    2.250    0.000    0.000 
#    0.000    0.000    0.000    0.000    0.000    0.000 
#
# Total GULP energy -198228.432125 kJ/mol
# GULP energy per Si atom -12389.277008 kJ/mol
# Density = 1.860686 g / cm^3
# Si number density = 18.649304 Si / 1000 Ang^3
#
#
#
# Elastic Constant Matrix: (Units=GPa)
#
#
# Indices 1 2 3 4 5 6 
#
# 1 65.2696 20.5042 33.6429 10.7875 -7.0820 12.2304
# 2 20.5042 65.2766 26.2035 -13.1191 -6.8373 10.5699
# 3 33.6429 26.2035 66.2080 -0.1039 -11.3652 1.0163
# 4 10.7875 -13.1191 -0.1039 24.5848 6.6025 2.3038
# 5 -7.0820 -6.8373 -11.3652 6.6025 33.3346 -4.2921
# 6 12.2304 10.5699 1.0163 2.3038 -4.2921 21.0703
#
#
#
# Elastic Compliance Matrix: (Units=1/GPa)
#
#
# Indices 1 2 3 4 5 6 
#
# 1 0.027409 -0.004880 -0.011448 -0.014292 0.002350 -0.010868
# 2 -0.004880 0.025126 -0.007871 0.017614 -0.003607 -0.012053
# 3 -0.011448 -0.007871 0.024931 -0.001752 0.006197 0.010845
# 4 -0.014292 0.017614 -0.001752 0.060841 -0.013336 -0.009825
# 5 0.002350 -0.003607 0.006197 -0.013336 0.035654 0.008867
# 6 -0.010868 -0.012053 0.010845 -0.009825 0.008867 0.062172
#
#
# Mechanical properties :
#
#
# Convention : Reuss Voigt Hill
#
# Bulk Modulus (GPa) = 34.40371 39.71727 37.06049
# Shear Modulus (GPa) = 16.99413 23.55819 20.27616
#
# Velocity S-wave (km/s) = 3.02196 3.55804 3.30090
# Velocity P-wave (km/s) = 5.53752 6.18245 5.86885
#
# Compressibility (1/GPa) = 0.02906663
#
# Stress axis : x y z
#
# Youngs Moduli (GPa) = 36.48486 39.79988 40.11118
#
# Poissons Ratio (x) = 0.19424 0.45919
# Poissons Ratio (y) = 0.17806 0.31571
# Poissons Ratio (z) = 0.41768 0.31326
#
# Static dielectric constant tensor:
#      x y z
#    x 3.306070 0.176050 0.220560 
#    y 0.176050 3.445080 -0.206780 
#    z 0.220560 -0.206780 3.349560 
# 
# 
# High freq. dielectric constant tensor:
#      x y z
#    x 1.703790 0.015000 0.018730 
#    y 0.015000 1.722300 -0.021770 
#    z 0.018730 -0.021770 1.710700 
# 
# From -- ./inp_files/276432.got.cif
#   From: 2010.06.25/outbox.cif.g09.slc.cpg/sg2_139_cif.got.tgz:276432.got - 2010.06.27 13:26:56.
