data_PCOD8039822
_publ_section_title
;
Structure prediction by ZEFSAII (Michael W. Deem and Ramdas Pophale) SiO2 
 PCOD8039822
Probable space group: P -1
;
_chemical_formula_sum "Si O2"
_cell_formula_units_Z 16
_cell_length_a 9.546695
_cell_length_b 19.958503
_cell_length_c 11.890222
_cell_angle_alpha 29.808901
_cell_angle_beta 53.974342
_cell_angle_gamma 64.789492
_cell_volume 890.544242
_symmetry_space_group_name_H-M "P -1"
_symmetry_group_IT_number 2
_symmetry_cell_setting 'triclinic'
loop_
_space_group_symop_operation_xyz
x,y,z
-x,-y,-z
loop_
_atom_site_type_symbol
_atom_site_label
_atom_site_fract_x
_atom_site_fract_y
_atom_site_fract_z
Si Si1 0.659875 0.156149 0.589751
Si Si2 0.600405 0.375444 0.616329
Si Si3 0.261396 0.633683 0.196051
Si Si4 0.125436 0.326281 0.670816
Si Si5 0.909325 0.375534 0.301384
Si Si6 0.597623 0.318723 0.172338
Si Si7 0.359651 0.150240 0.913443
Si Si8 0.778461 0.627632 0.685325
O O1 0.815486 0.251033 0.448466
O O2 0.652029 0.205904 0.392759
O O3 0.472366 0.156542 0.736482
O O4 0.698839 0.004016 0.788285
O O5 0.500000 0.500000 0.500000
O O6 0.661117 0.319185 0.787422
O O7 0.770083 0.422463 0.385475
O O8 0.469603 0.243277 0.821553
O O9 0.256740 0.470484 0.429671
O O10 0.072275 0.668506 0.211751
O O11 0.378959 0.713470 0.923272
O O12 0.182449 0.205191 0.891000
O O13 0.140497 0.297132 0.575103
O O14 0.067909 0.327759 0.361108
O O15 0.000000 0.500000 0.000000
O O16 0.391385 0.315067 0.284679
O O17 0.724922 0.462846 0.937001
#
# Coordination Sequence:
#
# PCOD8039822 Si02
#       8
#     2   2   2   2   2   2   2   2
#     4  10  21  39  57  86 114 153 189 229 283 336
#     4  11  22  36  57  88 115 147 190 232 284 333
#     4  10  21  33  55  85 114 142 185 236 282 328
#     4  10  18  35  55  82 113 147 185 229 281 333
#     4  11  22  35  59  88 116 141 192 243 277 325
#     4  10  20  33  57  81 114 145 186 230 283 330
#     4  10  21  38  61  80 117 154 189 227 279 347
#     4  10  19  33  55  85 110 144 188 238 274 321
#
# _framework density 17.966539999999998
#
# number of rings (size 3 to 8) (size 9 to 14) (size 15 to 20)
#    0.000    1.750    5.000    0.000    1.750    0.000 
#    0.000    3.125    0.000    0.000    0.000    0.000 
#    0.000    0.000    0.000    0.000    0.000    0.000 
#
# Total GULP energy -198405.245958 kJ/mol
# GULP energy per Si atom -12400.327872 kJ/mol
# Density = 1.792565 g / cm^3
# Si number density = 17.966540 Si / 1000 Ang^3
#
#
#
# Elastic Constant Matrix: (Units=GPa)
#
#
# Indices 1 2 3 4 5 6 
#
# 1 112.9604 41.8368 47.1509 -9.5987 21.5233 1.2212
# 2 41.8368 85.4873 52.2677 -0.0283 13.1851 1.8180
# 3 47.1509 52.2677 93.5930 -5.5517 19.7922 2.6847
# 4 -9.5987 -0.0283 -5.5517 27.7782 0.9754 7.5692
# 5 21.5233 13.1851 19.7922 0.9754 29.8780 3.0843
# 6 1.2212 1.8180 2.6847 7.5692 3.0843 27.5358
#
#
#
# Elastic Compliance Matrix: (Units=1/GPa)
#
#
# Indices 1 2 3 4 5 6 
#
# 1 0.012900 -0.003559 -0.003019 0.004204 -0.005803 -0.000548
# 2 -0.003559 0.018905 -0.009022 -0.003197 0.000236 0.000642
# 3 -0.003019 -0.009022 0.018802 0.003281 -0.006272 -0.001303
# 4 0.004204 -0.003197 0.003281 0.041296 -0.003983 -0.011201
# 5 -0.005803 0.000236 -0.006272 -0.003983 0.042116 -0.002769
# 6 -0.000548 0.000642 -0.001303 -0.011201 -0.002769 0.039815
#
#
# Mechanical properties :
#
#
# Convention : Reuss Voigt Hill
#
# Bulk Modulus (GPa) = 51.53092 63.83905 57.68498
# Shear Modulus (GPa) = 23.64029 27.09073 25.36551
#
# Velocity S-wave (km/s) = 3.63132 3.88731 3.76149
# Velocity P-wave (km/s) = 6.80631 7.46710 7.14435
#
# Compressibility (1/GPa) = 0.01940583
#
# Stress axis : x y z
#
# Youngs Moduli (GPa) = 77.52073 52.89674 53.18501
#
# Poissons Ratio (x) = 0.18827 0.16056
# Poissons Ratio (y) = 0.27592 0.47986
# Poissons Ratio (z) = 0.23402 0.47726
#
# Static dielectric constant tensor:
#      x y z
#    x 3.159010 0.039110 0.061230 
#    y 0.039110 3.318910 0.154730 
#    z 0.061230 0.154730 3.198690 
# 
# 
# High freq. dielectric constant tensor:
#      x y z
#    x 1.710450 -0.003230 0.011320 
#    y -0.003230 1.684540 0.017500 
#    z 0.011320 0.017500 1.676540 
# 
# From -- ./inp_files/206332.got.cif
#   From: 2010.06.25/outbox.cif.g09.slc.cpg/sg2_104_cif.got.tgz:206332.got - 2010.06.27 13:26:56.
