data_PCOD8039009
_publ_section_title
;
Structure prediction by ZEFSAII (Michael W. Deem and Ramdas Pophale) SiO2 
 PCOD8039009
Probable space group: P -1
;
_chemical_formula_sum "Si O2"
_cell_formula_units_Z 16
_cell_length_a 11.615134
_cell_length_b 18.624904
_cell_length_c 14.411075
_cell_angle_alpha 32.710386
_cell_angle_beta 149.443376
_cell_angle_gamma 127.387376
_cell_volume 774.402168
_symmetry_space_group_name_H-M "P -1"
_symmetry_group_IT_number 2
_symmetry_cell_setting 'triclinic'
loop_
_space_group_symop_operation_xyz
x,y,z
-x,-y,-z
loop_
_atom_site_type_symbol
_atom_site_label
_atom_site_fract_x
_atom_site_fract_y
_atom_site_fract_z
Si Si1 0.737995 0.522562 0.172325
Si Si2 0.778835 0.801974 0.835020
Si Si3 0.415414 0.730884 0.859211
Si Si4 0.686544 0.929500 0.827352
Si Si5 0.961768 0.787302 0.344700
Si Si6 0.897759 0.139726 0.155498
Si Si7 0.382563 0.164011 0.776869
Si Si8 0.043044 0.802545 0.664931
O O1 0.977405 0.367052 0.498060
O O2 0.500000 0.500000 0.000000
O O3 0.799312 0.637580 0.029049
O O4 0.663393 0.587599 0.154529
O O5 0.831556 0.855605 0.913709
O O6 0.990406 0.809408 0.908022
O O7 0.492212 0.898356 0.498068
O O8 0.489740 0.862681 0.787925
O O9 0.310309 0.695766 0.920691
O O10 0.198130 0.784779 0.569044
O O11 0.876918 0.906274 0.071612
O O12 0.721041 0.825498 0.201865
O O13 0.976634 0.200023 0.236424
O O14 0.594825 0.223334 0.852800
O O15 0.989179 0.964998 0.412230
O O16 0.154804 0.254433 0.450854
O O17 0.500000 0.000000 0.000000
#
# Coordination Sequence:
#
# PCOD8039009 Si02
#       8
#     2   2   2   2   2   2   2   2
#     4   9  20  39  59  79 113 155 184 228 282 342
#     4  10  21  35  56  84 119 143 186 238 283 320
#     4   9  17  34  57  83 112 143 189 234 270 331
#     4  10  20  36  56  85 114 143 182 244 280 321
#     4  10  20  36  61  82 110 151 193 217 280 345
#     4  10  18  32  52  80 113 146 178 229 280 323
#     4   9  19  31  53  85 107 140 188 232 261 329
#     4   9  17  30  54  79 111 145 182 222 281 327
#
# _framework density 20.661100000000001
#
# number of rings (size 3 to 8) (size 9 to 14) (size 15 to 20)
#    0.000    2.500    1.250    0.750    3.500    2.000 
#    0.000   14.375    0.000    6.750    0.000    0.000 
#    0.000    0.000    0.000    0.000    0.000    0.000 
#
# Total GULP energy -198232.180123 kJ/mol
# GULP energy per Si atom -12389.511258 kJ/mol
# Density = 2.061407 g / cm^3
# Si number density = 20.661100 Si / 1000 Ang^3
#
#
#
# Elastic Constant Matrix: (Units=GPa)
#
#
# Indices 1 2 3 4 5 6 
#
# 1 154.5955 16.3199 33.5269 9.3884 10.1480 1.0523
# 2 16.3199 29.3834 5.2799 2.6517 -5.5915 -1.6081
# 3 33.5269 5.2799 43.1890 -3.3619 2.6978 -10.3513
# 4 9.3884 2.6517 -3.3619 24.4684 -8.7367 -1.6382
# 5 10.1480 -5.5915 2.6978 -8.7367 28.6546 2.7538
# 6 1.0523 -1.6081 -10.3513 -1.6382 2.7538 31.2507
#
#
#
# Elastic Compliance Matrix: (Units=1/GPa)
#
#
# Indices 1 2 3 4 5 6 
#
# 1 0.009282 -0.004364 -0.007532 -0.006108 -0.005012 -0.002911
# 2 -0.004364 0.038517 -0.001664 0.000661 0.009344 0.000789
# 3 -0.007532 -0.001664 0.032537 0.008588 0.000810 0.011324
# 4 -0.006108 0.000661 0.008588 0.050487 0.016466 0.004280
# 5 -0.005012 0.009344 0.000810 0.016466 0.043639 -0.002065
# 6 -0.002911 0.000789 0.011324 0.004280 -0.002065 0.036295
#
#
# Mechanical properties :
#
#
# Convention : Reuss Voigt Hill
#
# Bulk Modulus (GPa) = 18.79152 37.49125 28.14138
# Shear Modulus (GPa) = 19.56047 28.34416 23.95231
#
# Velocity S-wave (km/s) = 3.08023 3.70788 3.40854
# Velocity P-wave (km/s) = 4.66533 6.04288 5.39823
#
# Compressibility (1/GPa) = 0.05321550
#
# Stress axis : x y z
#
# Youngs Moduli (GPa) = 107.72972 25.96237 30.73444
#
# Poissons Ratio (x) = 0.11330 0.23150
# Poissons Ratio (y) = 0.47013 0.05115
# Poissons Ratio (z) = 0.81145 0.04321
#
# Static dielectric constant tensor:
#      x y z
#    x 3.982040 -0.130080 0.402640 
#    y -0.130080 3.866740 0.181730 
#    z 0.402640 0.181730 3.798710 
# 
# 
# High freq. dielectric constant tensor:
#      x y z
#    x 1.820170 -0.012940 0.024270 
#    y -0.012940 1.794800 0.023990 
#    z 0.024270 0.023990 1.773170 
# 
# From -- ./inp_files/523905.got.cif
#   From: 2010.06.25/outbox.cif.g09.slc.cpg/sg2_262_cif.got.tgz:523905.got - 2010.06.27 13:26:56.
