data_PCOD8039123
_publ_section_title
;
Structure prediction by ZEFSAII (Michael W. Deem and Ramdas Pophale) SiO2 
 PCOD8039123
Probable space group: P -1
;
_chemical_formula_sum "Si O2"
_cell_formula_units_Z 14
_cell_length_a 18.627637
_cell_length_b 21.208661
_cell_length_c 9.289619
_cell_angle_alpha 141.030520
_cell_angle_beta 49.615762
_cell_angle_gamma 161.781020
_cell_volume 640.468613
_symmetry_space_group_name_H-M "P -1"
_symmetry_group_IT_number 2
_symmetry_cell_setting 'triclinic'
loop_
_space_group_symop_operation_xyz
x,y,z
-x,-y,-z
loop_
_atom_site_type_symbol
_atom_site_label
_atom_site_fract_x
_atom_site_fract_y
_atom_site_fract_z
Si Si1 0.434433 0.155496 0.676708
Si Si2 0.030305 0.132297 0.520932
Si Si3 0.036507 0.357784 0.834371
Si Si4 0.969110 0.578202 0.743660
Si Si5 0.384836 0.321473 0.497027
Si Si6 0.636697 0.695070 0.042633
Si Si7 0.415904 0.138159 0.003749
O O1 0.683528 0.334137 0.640165
O O2 0.508930 0.344215 0.876002
O O3 0.347032 0.059337 0.784947
O O4 0.196043 0.877740 0.395173
O O5 0.100935 0.319091 0.771373
O O6 0.276066 0.302402 0.503432
O O7 0.830039 0.912380 0.517788
O O8 0.919865 0.004900 0.277682
O O9 0.320927 0.661625 0.935515
O O10 0.981142 0.381780 0.077236
O O11 0.000000 0.500000 0.500000
O O12 0.179070 0.861122 0.908560
O O13 0.459893 0.298178 0.269933
O O14 0.639444 0.621772 0.774151
O O15 0.500000 0.500000 0.000000
#
# Coordination Sequence:
#
# PCOD8039123 Si02
#       7
#     2   2   2   2   2   2   2
#     4  10  24  43  64  96 135 162 207 263 309 371
#     4   9  18  33  56  86 124 168 206 244 298 366
#     4  10  22  43  62  93 132 161 203 262 314 375
#     4  11  25  46  70  91 119 165 213 265 329 380
#     4  10  18  32  57  86 123 171 207 245 299 360
#     4   9  19  33  58  90 125 171 204 241 295 368
#     4  11  24  39  65  96 125 165 215 262 310 374
#
# _framework density 21.858993999999999
#
# number of rings (size 3 to 8) (size 9 to 14) (size 15 to 20)
#    0.000    2.000    1.429    1.714    4.000    7.429 
#    0.000    4.286    0.000    0.000    0.000    0.000 
#    0.000    0.000    0.000    0.000    0.000    0.000 
#
# Total GULP energy -173509.013679 kJ/mol
# GULP energy per Si atom -12393.500977 kJ/mol
# Density = 2.180924 g / cm^3
# Si number density = 21.858994 Si / 1000 Ang^3
#
#
#
# Elastic Constant Matrix: (Units=GPa)
#
#
# Indices 1 2 3 4 5 6 
#
# 1 55.9259 27.7431 33.6512 -6.1735 12.5952 15.0415
# 2 27.7431 100.1572 46.1684 -15.0632 16.0642 19.0792
# 3 33.6512 46.1684 146.3602 -25.1982 15.6120 21.3948
# 4 -6.1735 -15.0632 -25.1982 27.4926 5.9715 -3.8624
# 5 12.5952 16.0642 15.6120 5.9715 32.6319 0.9910
# 6 15.0415 19.0792 21.3948 -3.8624 0.9910 18.6228
#
#
#
# Elastic Compliance Matrix: (Units=1/GPa)
#
#
# Indices 1 2 3 4 5 6 
#
# 1 0.026464 -0.001479 -0.001693 0.003117 -0.008737 -0.016803
# 2 -0.001479 0.015283 -0.000669 0.007437 -0.007637 -0.011746
# 3 -0.001693 -0.000669 0.010819 0.009248 -0.005638 -0.008158
# 4 0.003117 0.007437 0.009248 0.052416 -0.018610 -0.008900
# 5 -0.008737 -0.007637 -0.005638 -0.018610 0.043418 0.015187
# 6 -0.016803 -0.011746 -0.008158 -0.008900 0.015187 0.086022
#
#
# Mechanical properties :
#
#
# Convention : Reuss Voigt Hill
#
# Bulk Modulus (GPa) = 22.27968 57.50764 39.89366
# Shear Modulus (GPa) = 19.45026 28.74151 24.09588
#
# Velocity S-wave (km/s) = 2.98620 3.63003 3.32374
# Velocity P-wave (km/s) = 4.70153 6.62835 5.74628
#
# Compressibility (1/GPa) = 0.04488394
#
# Stress axis : x y z
#
# Youngs Moduli (GPa) = 37.78675 65.43120 92.43134
#
# Poissons Ratio (x) = 0.09677 0.15651
# Poissons Ratio (y) = 0.05589 0.06183
# Poissons Ratio (z) = 0.06398 0.04377
#
# Static dielectric constant tensor:
#      x y z
#    x 3.903720 0.040470 0.281770 
#    y 0.040470 4.022740 0.210850 
#    z 0.281770 0.210850 4.536530 
# 
# 
# High freq. dielectric constant tensor:
#      x y z
#    x 1.840650 -0.001970 0.013560 
#    y -0.001970 1.865320 0.001820 
#    z 0.013560 0.001820 1.875520 
# 
# From -- ./inp_files/337488.got.cif
#   From: 2010.06.25/outbox.cif.g09.slc.cpg/sg2_169_cif.got.tgz:337488.got - 2010.06.27 13:26:56.
