data_PCOD8039266
_publ_section_title
;
Structure prediction by ZEFSAII (Michael W. Deem and Ramdas Pophale) SiO2 
 PCOD8039266
Probable space group: P -1
;
_chemical_formula_sum "Si O2"
_cell_formula_units_Z 16
_cell_length_a 24.319293
_cell_length_b 12.636635
_cell_length_c 9.079356
_cell_angle_alpha 65.237766
_cell_angle_beta 47.273521
_cell_angle_gamma 27.043064
_cell_volume 775.035347
_symmetry_space_group_name_H-M "P -1"
_symmetry_group_IT_number 2
_symmetry_cell_setting 'triclinic'
loop_
_space_group_symop_operation_xyz
x,y,z
-x,-y,-z
loop_
_atom_site_type_symbol
_atom_site_label
_atom_site_fract_x
_atom_site_fract_y
_atom_site_fract_z
Si Si1 0.352332 0.576579 0.503267
Si Si2 0.001107 0.174569 0.330053
Si Si3 0.628435 0.106881 0.488450
Si Si4 0.102546 0.446095 0.559380
Si Si5 0.593018 0.245582 0.769164
Si Si6 0.894995 0.942027 0.113963
Si Si7 0.727177 0.373619 0.692979
Si Si8 0.987499 0.379696 0.683709
O O1 0.442419 0.565670 0.278139
O O2 0.259087 0.641404 0.500419
O O3 0.211420 0.805764 0.754848
O O4 0.502040 0.279098 0.474964
O O5 0.985891 0.331882 0.305543
O O6 0.820832 0.358222 0.594522
O O7 0.170431 0.884539 0.279724
O O8 0.022693 0.124842 0.145283
O O9 0.722864 0.848612 0.499258
O O10 0.772618 0.004757 0.258875
O O11 0.513940 0.305291 0.725212
O O12 0.965159 0.533654 0.722799
O O13 0.145236 0.440554 0.321529
O O14 0.806017 0.917874 0.580899
O O15 0.481723 0.340707 0.046234
O O16 0.047216 0.678018 0.106609
#
# Coordination Sequence:
#
# PCOD8039266 Si02
#       8
#     2   2   2   2   2   2   2   2
#     4  10  18  33  55  79 103 131 174 221 256 295
#     4  11  22  36  50  74 110 141 170 208 258 311
#     4   9  18  32  56  80 101 130 168 215 264 304
#     4   9  18  35  54  80 108 133 167 211 260 309
#     4   9  17  34  56  79 101 128 172 223 259 294
#     4   9  18  33  55  79 104 132 167 216 262 301
#     4  11  23  34  52  76 103 141 177 211 255 306
#     4   8  17  34  60  84  99 128 174 214 259 304
#
# _framework density 20.644220000000001
#
# number of rings (size 3 to 8) (size 9 to 14) (size 15 to 20)
#    0.000    3.000    0.000    4.875    0.000    3.500 
#    0.000    6.875    0.000    0.000    0.000    0.000 
#    0.000    0.000    0.000    0.000    0.000    0.000 
#
# Total GULP energy -198236.544260 kJ/mol
# GULP energy per Si atom -12389.784016 kJ/mol
# Density = 2.059723 g / cm^3
# Si number density = 20.644220 Si / 1000 Ang^3
#
#
#
# Elastic Constant Matrix: (Units=GPa)
#
#
# Indices 1 2 3 4 5 6 
#
# 1 61.5416 34.2460 32.4613 1.6292 13.7830 -1.7995
# 2 34.2460 119.0231 17.1457 -13.1707 5.3027 -16.5091
# 3 32.4613 17.1457 62.9519 -1.0250 9.4226 -0.0055
# 4 1.6292 -13.1707 -1.0250 16.2884 -6.5158 15.4117
# 5 13.7830 5.3027 9.4226 -6.5158 16.9692 -4.5671
# 6 -1.7995 -16.5091 -0.0055 15.4117 -4.5671 26.4540
#
#
#
# Elastic Compliance Matrix: (Units=1/GPa)
#
#
# Indices 1 2 3 4 5 6 
#
# 1 0.035786 -0.009488 -0.011988 -0.035078 -0.029735 0.011813
# 2 -0.009488 0.012287 0.000399 0.014370 0.009229 0.000244
# 3 -0.011988 0.000399 0.022280 0.006965 -0.001392 -0.004860
# 4 -0.035078 0.014370 0.006965 0.194117 0.069221 -0.094556
# 5 -0.029735 0.009229 -0.001392 0.069221 0.102463 -0.018901
# 6 0.011813 0.000244 -0.004860 -0.094556 -0.018901 0.090580
#
#
# Mechanical properties :
#
#
# Convention : Reuss Voigt Hill
#
# Bulk Modulus (GPa) = 35.46451 45.69141 40.57796
# Shear Modulus (GPa) = 9.82187 22.58655 16.20421
#
# Velocity S-wave (km/s) = 2.18358 3.31129 2.80469
# Velocity P-wave (km/s) = 4.85526 6.06633 5.49426
#
# Compressibility (1/GPa) = 0.02819720
#
# Stress axis : x y z
#
# Youngs Moduli (GPa) = 27.94401 81.38630 44.88366
#
# Poissons Ratio (x) = 0.77218 0.53808
# Poissons Ratio (y) = 0.26513 -0.01789
# Poissons Ratio (z) = 0.33500 -0.03243
#
# Static dielectric constant tensor:
#      x y z
#    x 3.496260 -0.191590 0.282410 
#    y -0.191590 3.944290 -0.244640 
#    z 0.282410 -0.244640 3.359440 
# 
# 
# High freq. dielectric constant tensor:
#      x y z
#    x 1.786620 -0.009970 0.027180 
#    y -0.009970 1.814720 -0.017550 
#    z 0.027180 -0.017550 1.765950 
# 
# From -- ./inp_files/353470.got.cif
#   From: 2010.06.25/outbox.cif.g09.slc.cpg/sg2_177_cif.got.tgz:353470.got - 2010.06.27 13:26:56.
