data_PCOD8039318
_publ_section_title
;
Structure prediction by ZEFSAII (Michael W. Deem and Ramdas Pophale) SiO2 
 PCOD8039318
Probable space group: P -1
;
_chemical_formula_sum "Si O2"
_cell_formula_units_Z 16
_cell_length_a 20.043628
_cell_length_b 8.916427
_cell_length_c 12.088792
_cell_angle_alpha 81.575641
_cell_angle_beta 143.497875
_cell_angle_gamma 70.748311
_cell_volume 825.556544
_symmetry_space_group_name_H-M "P -1"
_symmetry_group_IT_number 2
_symmetry_cell_setting 'triclinic'
loop_
_space_group_symop_operation_xyz
x,y,z
-x,-y,-z
loop_
_atom_site_type_symbol
_atom_site_label
_atom_site_fract_x
_atom_site_fract_y
_atom_site_fract_z
Si Si1 0.433702 0.551116 0.281747
Si Si2 0.089375 0.251187 0.290347
Si Si3 0.362987 0.889507 0.532947
Si Si4 0.836391 0.425747 0.103366
Si Si5 0.275592 0.280759 0.268387
Si Si6 0.700208 0.686328 0.103412
Si Si7 0.669071 0.741267 0.294238
Si Si8 0.474147 0.829488 0.217932
O O1 0.500000 0.500000 0.500000
O O2 0.586746 0.314639 0.441259
O O3 0.255019 0.642145 0.026974
O O4 0.390261 0.754667 0.142840
O O5 0.202043 0.281786 0.466512
O O6 0.201866 0.024941 0.386392
O O7 0.027132 0.226798 0.322581
O O8 0.918030 0.481372 0.971298
O O9 0.519376 0.790809 0.825871
O O10 0.310358 0.067155 0.351077
O O11 0.716005 0.677601 0.854280
O O12 0.846868 0.468418 0.240380
O O13 0.413803 0.238922 0.520239
O O14 0.677121 0.891858 0.036600
O O15 0.758044 0.584944 0.317485
O O16 0.602702 0.682615 0.298639
O O17 0.500000 0.000000 0.000000
#
# Coordination Sequence:
#
# PCOD8039318 Si02
#       8
#     2   2   2   2   2   2   2   2
#     4  11  21  34  50  81 115 144 169 210 267 329
#     4  10  18  33  57  79 105 135 177 231 259 308
#     4  10  19  32  56  76 109 141 181 212 261 318
#     4   9  21  32  53  81 108 138 171 218 273 306
#     4   9  18  32  54  82 103 137 177 220 269 303
#     4   9  19  35  56  82  99 140 188 218 255 304
#     4  10  18  34  59  81  98 135 191 226 250 300
#     4  10  19  33  56  79 110 139 177 217 261 315
#
# _framework density 19.380866000000001
#
# number of rings (size 3 to 8) (size 9 to 14) (size 15 to 20)
#    0.750    1.500    5.000    0.375    1.750    2.000 
#    0.000    5.000    2.750    3.000    0.000    0.000 
#    0.000    0.000    0.000    0.000    0.000    0.000 
#
# Total GULP energy -198232.404949 kJ/mol
# GULP energy per Si atom -12389.525309 kJ/mol
# Density = 1.933675 g / cm^3
# Si number density = 19.380866 Si / 1000 Ang^3
#
#
#
# Elastic Constant Matrix: (Units=GPa)
#
#
# Indices 1 2 3 4 5 6 
#
# 1 120.6249 46.3258 -4.3428 4.5525 6.2591 3.1540
# 2 46.3258 90.4194 0.7965 0.5410 1.8251 -3.1028
# 3 -4.3428 0.7965 16.0911 -0.8749 7.7756 4.6635
# 4 4.5525 0.5410 -0.8749 14.2570 -6.9162 -1.3727
# 5 6.2591 1.8251 7.7756 -6.9162 29.5890 3.3889
# 6 3.1540 -3.1028 4.6635 -1.3727 3.3889 32.7682
#
#
#
# Elastic Compliance Matrix: (Units=1/GPa)
#
#
# Indices 1 2 3 4 5 6 
#
# 1 0.011208 -0.005745 0.005865 -0.005433 -0.004574 -0.002212
# 2 -0.005745 0.014072 -0.003525 0.002026 0.001482 0.002319
# 3 0.005865 -0.003525 0.077018 -0.008721 -0.022163 -0.009933
# 4 -0.005433 0.002026 -0.008721 0.082335 0.022205 0.003109
# 5 -0.004574 0.001482 -0.022163 0.022205 0.045694 -0.000061
# 6 -0.002212 0.002319 -0.009933 0.003109 -0.000061 0.032500
#
#
# Mechanical properties :
#
#
# Convention : Reuss Voigt Hill
#
# Bulk Modulus (GPa) = 10.47246 34.74382 22.60814
# Shear Modulus (GPa) = 16.58568 27.61322 22.09945
#
# Velocity S-wave (km/s) = 2.92854 3.77870 3.38045
# Velocity P-wave (km/s) = 4.10492 6.08308 5.18914
#
# Compressibility (1/GPa) = 0.09548855
#
# Stress axis : x y z
#
# Youngs Moduli (GPa) = 89.22224 71.06508 12.98399
#
# Poissons Ratio (x) = 0.40827 -0.07616
# Poissons Ratio (y) = 0.51259 0.04577
# Poissons Ratio (z) = -0.52332 0.25049
#
# Static dielectric constant tensor:
#      x y z
#    x 3.968960 -0.331140 -0.101890 
#    y -0.331140 3.422120 0.156870 
#    z -0.101890 0.156870 3.320590 
# 
# 
# High freq. dielectric constant tensor:
#      x y z
#    x 1.770600 -0.018180 0.000430 
#    y -0.018180 1.724780 0.017160 
#    z 0.000430 0.017160 1.724850 
# 
# From -- ./inp_files/468910.got.cif
#   From: 2010.06.25/outbox.cif.g09.slc.cpg/sg2_235_cif.got.tgz:468910.got - 2010.06.27 13:26:56.
