data_PCOD8039559
_publ_section_title
;
Structure prediction by ZEFSAII (Michael W. Deem and Ramdas Pophale) SiO2 
 PCOD8039559
Probable space group: P -1
;
_chemical_formula_sum "Si O2"
_cell_formula_units_Z 14
_cell_length_a 7.976719
_cell_length_b 11.510322
_cell_length_c 10.803719
_cell_angle_alpha 107.196487
_cell_angle_beta 122.305387
_cell_angle_gamma 102.121663
_cell_volume 712.900548
_symmetry_space_group_name_H-M "P -1"
_symmetry_group_IT_number 2
_symmetry_cell_setting 'triclinic'
loop_
_space_group_symop_operation_xyz
x,y,z
-x,-y,-z
loop_
_atom_site_type_symbol
_atom_site_label
_atom_site_fract_x
_atom_site_fract_y
_atom_site_fract_z
Si Si1 0.488901 0.752927 0.156270
Si Si2 0.338703 0.988597 0.542483
Si Si3 0.786828 0.747936 0.856148
Si Si4 0.462080 0.865410 0.784641
Si Si5 0.103527 0.196753 0.821876
Si Si6 0.200026 0.465493 0.042899
Si Si7 0.790692 0.159223 0.087007
O O1 0.661399 0.792421 0.124431
O O2 0.603612 0.858301 0.346606
O O3 0.416561 0.600640 0.127792
O O4 0.274754 0.764923 0.023827
O O5 0.362421 0.901904 0.636913
O O6 0.086806 0.913790 0.371887
O O7 0.500000 0.000000 0.500000
O O8 0.560314 0.761524 0.749324
O O9 0.944477 0.792074 0.810543
O O10 0.924953 0.846968 0.057944
O O11 0.727175 0.592319 0.824686
O O12 0.261443 0.798538 0.784947
O O13 0.660144 0.997020 0.966975
O O14 0.117154 0.348445 0.865885
O O15 0.000000 0.500000 0.000000
#
# Coordination Sequence:
#
# PCOD8039559 Si02
#       7
#     2   2   2   2   2   2   2
#     4  11  19  37  60  91 117 154 199 247 285 352
#     4  11  23  40  58  87 123 154 191 247 304 348
#     4  10  20  35  61  88 113 153 205 235 294 338
#     4  10  21  35  56  84 121 151 193 243 297 348
#     4  10  21  35  59  91 116 152 196 243 296 345
#     4  10  19  34  62  88 113 156 201 242 285 344
#     4  10  18  34  56  85 117 150 196 246 285 341
#
# _framework density 19.638083999999999
#
# number of rings (size 3 to 8) (size 9 to 14) (size 15 to 20)
#    0.857    0.857    2.857    3.857    0.000    0.000 
#    2.571    0.000    0.000    6.857    0.000    0.000 
#    0.000    0.000    0.000    0.000    0.000    0.000 
#
# Total GULP energy -173529.162264 kJ/mol
# GULP energy per Si atom -12394.940162 kJ/mol
# Density = 1.959339 g / cm^3
# Si number density = 19.638084 Si / 1000 Ang^3
#
#
#
# Elastic Constant Matrix: (Units=GPa)
#
#
# Indices 1 2 3 4 5 6 
#
# 1 127.2488 13.0647 5.2202 -3.0391 -7.6865 16.7735
# 2 13.0647 70.9087 9.1984 1.6657 -2.4059 10.2457
# 3 5.2202 9.1984 55.5146 3.7917 -4.6096 7.0603
# 4 -3.0391 1.6657 3.7917 23.8294 -3.1894 -2.3482
# 5 -7.6865 -2.4059 -4.6096 -3.1894 24.3922 -1.4010
# 6 16.7735 10.2457 7.0603 -2.3482 -1.4010 35.2874
#
#
#
# Elastic Compliance Matrix: (Units=1/GPa)
#
#
# Indices 1 2 3 4 5 6 
#
# 1 0.008622 -0.001000 -0.000052 0.001163 0.002553 -0.003619
# 2 -0.001000 0.015088 -0.001829 -0.001184 0.000466 -0.003600
# 3 -0.000052 -0.001829 0.019183 -0.002880 0.002859 -0.003360
# 4 0.001163 -0.001184 -0.002880 0.043752 0.005628 0.003502
# 5 0.002553 0.000466 0.002859 0.005628 0.043133 0.000166
# 6 -0.003619 -0.003600 -0.003360 0.003502 0.000166 0.032016
#
#
# Mechanical properties :
#
#
# Convention : Reuss Voigt Hill
#
# Bulk Modulus (GPa) = 26.93112 34.29320 30.61216
# Shear Modulus (GPa) = 27.78816 31.78105 29.78461
#
# Velocity S-wave (km/s) = 3.76575 4.02722 3.89868
# Velocity P-wave (km/s) = 5.71413 6.25501 5.99068
#
# Compressibility (1/GPa) = 0.03713176
#
# Stress axis : x y z
#
# Youngs Moduli (GPa) = 115.97654 66.27870 52.13056
#
# Poissons Ratio (x) = 0.06625 0.00273
# Poissons Ratio (y) = 0.11593 0.09532
# Poissons Ratio (z) = 0.00607 0.12119
#
# Static dielectric constant tensor:
#      x y z
#    x 3.770750 -0.095840 -0.189540 
#    y -0.095840 3.797000 0.293770 
#    z -0.189540 0.293770 3.586520 
# 
# 
# High freq. dielectric constant tensor:
#      x y z
#    x 1.788840 -0.002580 -0.006830 
#    y -0.002580 1.762600 -0.008610 
#    z -0.006830 -0.008610 1.710300 
# 
# From -- ./inp_files/387902.got.cif
#   From: 2010.06.25/outbox.cif.g09.slc.cpg/sg2_194_cif.got.tgz:387902.got - 2010.06.27 13:26:56.
