data_PCOD8039116
_publ_section_title
;
Structure prediction by ZEFSAII (Michael W. Deem and Ramdas Pophale) SiO2 
 PCOD8039116
Probable space group: P -1
;
_chemical_formula_sum "Si O2"
_cell_formula_units_Z 16
_cell_length_a 8.907151
_cell_length_b 9.533846
_cell_length_c 11.456528
_cell_angle_alpha 105.748820
_cell_angle_beta 110.779235
_cell_angle_gamma 61.281208
_cell_volume 791.639649
_symmetry_space_group_name_H-M "P -1"
_symmetry_group_IT_number 2
_symmetry_cell_setting 'triclinic'
loop_
_space_group_symop_operation_xyz
x,y,z
-x,-y,-z
loop_
_atom_site_type_symbol
_atom_site_label
_atom_site_fract_x
_atom_site_fract_y
_atom_site_fract_z
Si Si1 0.311456 0.742317 0.225965
Si Si2 0.833016 0.370848 0.386738
Si Si3 0.316834 0.545692 0.398393
Si Si4 0.490091 0.719046 0.762852
Si Si5 0.284666 0.348827 0.747309
Si Si6 0.648606 0.529725 0.980997
Si Si7 0.232920 0.030910 0.648245
Si Si8 0.905356 0.980405 0.634684
O O1 0.288738 0.693797 0.340549
O O2 0.507861 0.714870 0.239428
O O3 0.242542 0.638386 0.098295
O O4 0.187664 0.934658 0.248493
O O5 0.838220 0.400584 0.534698
O O6 0.653842 0.354992 0.299579
O O7 0.834790 0.521961 0.352001
O O8 0.005704 0.211601 0.363109
O O9 0.500000 0.500000 0.500000
O O10 0.339320 0.386786 0.295341
O O11 0.562224 0.687761 0.908708
O O12 0.404516 0.903218 0.737643
O O13 0.230146 0.203759 0.698173
O O14 0.235384 0.431948 0.880962
O O15 0.500000 0.500000 0.000000
O O16 0.236802 0.979298 0.502037
O O17 0.055305 0.039900 0.659447
#
# Coordination Sequence:
#
# PCOD8039116 Si02
#       8
#     2   2   2   2   2   2   2   2
#     4  10  18  34  60  81 104 144 186 233 258 324
#     4  10  18  32  57  78 111 148 180 219 270 339
#     4   9  13  26  51  80  98 138 184 211 258 323
#     4   9  16  31  55  80 105 145 183 220 267 326
#     4  11  21  35  58  85 109 139 191 229 268 304
#     4   9  17  34  58  84 106 139 187 233 260 316
#     4  10  22  35  55  82 117 144 174 228 278 332
#     4  10  21  38  53  78 116 149 179 210 288 334
#
# _framework density 20.211214999999999
#
# number of rings (size 3 to 8) (size 9 to 14) (size 15 to 20)
#    0.000    2.250    5.000    3.000    0.000    1.500 
#    0.000    1.250    2.750    0.000    0.000    0.000 
#    0.000    0.000    0.000    0.000    0.000    0.000 
#
# Total GULP energy -198223.380008 kJ/mol
# GULP energy per Si atom -12388.961250 kJ/mol
# Density = 2.016521 g / cm^3
# Si number density = 20.211215 Si / 1000 Ang^3
#
#
#
# Elastic Constant Matrix: (Units=GPa)
#
#
# Indices 1 2 3 4 5 6 
#
# 1 26.4849 33.9310 23.5135 10.7562 -4.9251 -5.2811
# 2 33.9310 136.5621 45.1517 15.6030 -12.4015 7.2468
# 3 23.5135 45.1517 110.1154 12.1346 -20.1197 -0.0560
# 4 10.7562 15.6030 12.1346 33.0235 -2.2179 -5.7582
# 5 -4.9251 -12.4015 -20.1197 -2.2179 16.9510 10.8979
# 6 -5.2811 7.2468 -0.0560 -5.7582 10.8979 29.7651
#
#
#
# Elastic Compliance Matrix: (Units=1/GPa)
#
#
# Indices 1 2 3 4 5 6 
#
# 1 0.073715 -0.016429 -0.011654 -0.009374 -0.020221 0.022647
# 2 -0.016429 0.013171 0.000619 -0.002199 0.012447 -0.011103
# 3 -0.011654 0.000619 0.015683 -0.002656 0.022326 -0.010877
# 4 -0.009374 -0.002199 -0.002656 0.036350 -0.008530 0.009022
# 5 -0.020221 0.012447 0.022326 -0.008530 0.121496 -0.052710
# 6 0.022647 -0.011103 -0.010877 0.009022 -0.052710 0.061341
#
#
# Mechanical properties :
#
#
# Convention : Reuss Voigt Hill
#
# Bulk Modulus (GPa) = 20.99119 53.15052 37.07085
# Shear Modulus (GPa) = 12.73670 27.31899 20.02785
#
# Velocity S-wave (km/s) = 2.51306 3.68050 3.15132
# Velocity P-wave (km/s) = 4.33925 6.66454 5.62340
#
# Compressibility (1/GPa) = 0.04763904
#
# Stress axis : x y z
#
# Youngs Moduli (GPa) = 13.56574 75.92340 63.76407
#
# Poissons Ratio (x) = 1.24738 0.74312
# Poissons Ratio (y) = 0.22288 -0.03944
# Poissons Ratio (z) = 0.15810 -0.04697
#
# Static dielectric constant tensor:
#      x y z
#    x 3.319160 -0.155960 -0.373290 
#    y -0.155960 3.795370 0.098990 
#    z -0.373290 0.098990 4.785670 
# 
# 
# High freq. dielectric constant tensor:
#      x y z
#    x 1.744800 -0.007920 -0.017450 
#    y -0.007920 1.795010 0.006330 
#    z -0.017450 0.006330 1.784710 
# 
# From -- ./inp_files/243136.got.cif
#   From: 2010.06.25/outbox.cif.g09.slc.cpg/sg2_122_cif.got.tgz:243136.got - 2010.06.27 13:26:56.
