data_PCOD8039036
_publ_section_title
;
Structure prediction by ZEFSAII (Michael W. Deem and Ramdas Pophale) SiO2 
 PCOD8039036
Probable space group: P -1
;
_chemical_formula_sum "Si O2"
_cell_formula_units_Z 14
_cell_length_a 13.403518
_cell_length_b 18.476927
_cell_length_c 5.236641
_cell_angle_alpha 98.143390
_cell_angle_beta 90.007291
_cell_angle_gamma 147.699877
_cell_volume 668.164855
_symmetry_space_group_name_H-M "P -1"
_symmetry_group_IT_number 2
_symmetry_cell_setting 'triclinic'
loop_
_space_group_symop_operation_xyz
x,y,z
-x,-y,-z
loop_
_atom_site_type_symbol
_atom_site_label
_atom_site_fract_x
_atom_site_fract_y
_atom_site_fract_z
Si Si1 0.285112 0.333754 0.916898
Si Si2 0.180225 0.668095 0.084221
Si Si3 0.495143 0.242220 0.871045
Si Si4 0.930875 0.325156 0.412384
Si Si5 0.872389 0.920727 0.210339
Si Si6 0.157526 0.328361 0.414191
Si Si7 0.352404 0.592740 0.546319
O O1 0.276073 0.240439 0.870320
O O2 0.165869 0.285028 0.645283
O O3 0.500000 0.500000 0.000000
O O4 0.165934 0.285100 0.139763
O O5 0.387882 0.759652 0.130203
O O6 0.180500 0.719952 0.357492
O O7 0.180683 0.720077 0.862851
O O8 0.000000 0.500000 0.000000
O O9 0.262451 0.090201 0.795147
O O10 0.540273 0.316542 0.658851
O O11 0.540567 0.316592 0.157747
O O12 0.860602 0.504570 0.502662
O O13 0.964259 0.257956 0.378879
O O14 0.000000 0.000000 0.500000
O O15 0.000000 0.000000 0.000000
O O16 0.342349 0.498181 0.499267
#
# Coordination Sequence:
#
# PCOD8039036 Si02
#       7
#     2   2   2   2   2   2   2
#     4  12  23  39  69  93 118 162 219 267 318 366
#     4  12  17  31  50  88 123 171 195 244 325 389
#     4  12  22  35  59  82 124 177 212 251 307 393
#     4  10  20  29  51  83 137 151 187 252 326 375
#     4  12  28  48  63  91 130 174 217 263 315 372
#     4  10  20  35  53  91 123 151 191 255 316 369
#     4  10  18  32  53  88 132 154 193 257 321 357
#
# _framework density 20.952912000000001
#
# number of rings (size 3 to 8) (size 9 to 14) (size 15 to 20)
#    0.857    0.000    2.857    6.857    0.000    0.000 
#    0.000    0.000    0.000    0.000    0.000   20.000 
#    0.000    0.000    0.000    0.000    0.000    0.000 
#
# Total GULP energy -173520.678879 kJ/mol
# GULP energy per Si atom -12394.334206 kJ/mol
# Density = 2.090522 g / cm^3
# Si number density = 20.952912 Si / 1000 Ang^3
#
#
#
# Elastic Constant Matrix: (Units=GPa)
#
#
# Indices 1 2 3 4 5 6 
#
# 1 149.3797 37.6858 61.7578 -7.1938 8.0458 29.8401
# 2 37.6858 56.0566 29.4951 -4.3842 8.3110 14.1961
# 3 61.7578 29.4951 184.9968 -34.0078 -0.8809 14.1737
# 4 -7.1938 -4.3842 -34.0078 29.4380 -6.8009 2.6078
# 5 8.0458 8.3110 -0.8809 -6.8009 22.8949 4.1003
# 6 29.8401 14.1961 14.1737 2.6078 4.1003 36.8936
#
#
#
# Elastic Compliance Matrix: (Units=1/GPa)
#
#
# Indices 1 2 3 4 5 6 
#
# 1 0.009735 -0.003799 -0.002398 -0.000821 -0.001434 -0.005274
# 2 -0.003799 0.023702 -0.002511 -0.001565 -0.007081 -0.004185
# 3 -0.002398 -0.002511 0.008708 0.010540 0.005543 -0.001801
# 4 -0.000821 -0.001565 0.010540 0.050556 0.017772 -0.008332
# 5 -0.001434 -0.007081 0.005543 0.017772 0.053214 -0.005416
# 6 -0.005274 -0.004185 -0.001801 -0.008332 -0.005416 0.034863
#
#
# Mechanical properties :
#
#
# Convention : Reuss Voigt Hill
#
# Bulk Modulus (GPa) = 40.43931 72.03449 56.23690
# Shear Modulus (GPa) = 24.22019 35.27828 29.74923
#
# Velocity S-wave (km/s) = 3.40359 4.10773 3.77213
# Velocity P-wave (km/s) = 5.89813 7.54664 6.77273
#
# Compressibility (1/GPa) = 0.02472842
#
# Stress axis : x y z
#
# Youngs Moduli (GPa) = 102.71836 42.19069 114.83211
#
# Poissons Ratio (x) = 0.16030 0.27536
# Poissons Ratio (y) = 0.39026 0.28838
# Poissons Ratio (z) = 0.24631 0.10596
#
# Static dielectric constant tensor:
#      x y z
#    x 3.973020 0.121950 0.033720 
#    y 0.121950 3.323160 -0.142610 
#    z 0.033720 -0.142610 3.802450 
# 
# 
# High freq. dielectric constant tensor:
#      x y z
#    x 1.835620 0.012320 0.003360 
#    y 0.012320 1.762790 -0.023760 
#    z 0.003360 -0.023760 1.842790 
# 
# From -- ./inp_files/79918.got.cif
#   From: 2010.06.25/outbox.cif.g09.slc.cpg/sg2_40_cif.got.tgz:79918.got - 2010.06.27 13:26:56.
