data_PCOD8039404
_publ_section_title
;
Structure prediction by ZEFSAII (Michael W. Deem and Ramdas Pophale) SiO2 
 PCOD8039404
Probable space group: P -1
;
_chemical_formula_sum "Si O2"
_cell_formula_units_Z 14
_cell_length_a 11.051891
_cell_length_b 11.272188
_cell_length_c 10.059981
_cell_angle_alpha 108.965095
_cell_angle_beta 134.648262
_cell_angle_gamma 47.372763
_cell_volume 628.165837
_symmetry_space_group_name_H-M "P -1"
_symmetry_group_IT_number 2
_symmetry_cell_setting 'triclinic'
loop_
_space_group_symop_operation_xyz
x,y,z
-x,-y,-z
loop_
_atom_site_type_symbol
_atom_site_label
_atom_site_fract_x
_atom_site_fract_y
_atom_site_fract_z
Si Si1 0.272750 0.476619 0.084439
Si Si2 0.900812 0.941479 0.237201
Si Si3 0.945492 0.319283 0.269316
Si Si4 0.621533 0.810642 0.544737
Si Si5 0.230680 0.732494 0.647334
Si Si6 0.153596 0.952608 0.225735
Si Si7 0.183944 0.259352 0.037511
O O1 0.527471 0.399389 0.290120
O O2 0.251780 0.335240 0.014191
O O3 0.231477 0.555071 0.935306
O O4 0.089968 0.614278 0.102521
O O5 0.012996 0.835379 0.420347
O O6 0.107496 0.874339 0.275098
O O7 0.751745 0.140230 0.218943
O O8 0.746426 0.907759 0.037720
O O9 0.809063 0.365489 0.318143
O O10 0.155588 0.317883 0.425909
O O11 0.084114 0.124691 0.278526
O O12 0.426572 0.804436 0.355592
O O13 0.692287 0.770989 0.739783
O O14 0.500000 0.000000 0.500000
O O15 0.000000 0.000000 0.000000
#
# Coordination Sequence:
#
# PCOD8039404 Si02
#       7
#     2   2   2   2   2   2   2
#     4  10  20  37  57  80 113 153 188 231 281 333
#     4  10  21  37  56  85 113 144 193 236 279 332
#     4   9  19  35  54  79 113 151 186 224 282 340
#     4   9  17  32  56  82 110 142 181 237 280 319
#     4  10  21  37  58  82 117 151 185 235 283 333
#     4  10  18  33  59  87 110 139 188 240 281 325
#     4  10  21  37  58  84 112 147 193 234 278 332
#
# _framework density 22.287106999999999
#
# number of rings (size 3 to 8) (size 9 to 14) (size 15 to 20)
#    0.000    2.286    0.000    3.857    0.000    2.286 
#    0.000    7.857    0.000    3.429    0.000    0.000 
#    0.000    0.000    0.000    0.000    0.000    0.000 
#
# Total GULP energy -173434.042423 kJ/mol
# GULP energy per Si atom -12388.145887 kJ/mol
# Density = 2.223638 g / cm^3
# Si number density = 22.287107 Si / 1000 Ang^3
#
#
#
# Elastic Constant Matrix: (Units=GPa)
#
#
# Indices 1 2 3 4 5 6 
#
# 1 124.1306 11.6953 32.9533 -2.6876 -4.6508 14.4967
# 2 11.6953 30.9354 10.2318 2.9114 -0.2075 14.8141
# 3 32.9533 10.2318 94.6705 2.9953 10.5751 -2.2228
# 4 -2.6876 2.9114 2.9953 25.8703 1.9892 -1.4465
# 5 -4.6508 -0.2075 10.5751 1.9892 32.2079 -13.4836
# 6 14.4967 14.8141 -2.2228 -1.4465 -13.4836 31.9927
#
#
#
# Elastic Compliance Matrix: (Units=1/GPa)
#
#
# Indices 1 2 3 4 5 6 
#
# 1 0.009549 -0.000745 -0.003465 0.001199 0.000841 -0.003814
# 2 -0.000745 0.046697 -0.004232 -0.005596 -0.008756 -0.025523
# 3 -0.003465 -0.004232 0.012706 -0.000928 -0.003415 0.002931
# 4 0.001199 -0.005596 -0.000928 0.039755 -0.000523 0.003561
# 5 0.000841 -0.008756 -0.003415 -0.000523 0.040914 0.020656
# 6 -0.003814 -0.025523 0.002931 0.003561 0.020656 0.053874
#
#
# Mechanical properties :
#
#
# Convention : Reuss Voigt Hill
#
# Bulk Modulus (GPa) = 19.20526 39.94414 29.57470
# Shear Modulus (GPa) = 21.03190 31.00460 26.01825
#
# Velocity S-wave (km/s) = 3.07527 3.73385 3.42045
# Velocity P-wave (km/s) = 4.60930 6.04569 5.37568
#
# Compressibility (1/GPa) = 0.05206906
#
# Stress axis : x y z
#
# Youngs Moduli (GPa) = 104.72418 21.41484 78.70296
#
# Poissons Ratio (x) = 0.01595 0.27269
# Poissons Ratio (y) = 0.07800 0.33304
# Poissons Ratio (z) = 0.36284 0.09062
#
# Static dielectric constant tensor:
#      x y z
#    x 4.644040 0.289470 0.329140 
#    y 0.289470 3.826430 0.015610 
#    z 0.329140 0.015610 3.632000 
# 
# 
# High freq. dielectric constant tensor:
#      x y z
#    x 1.894210 0.021540 0.011280 
#    y 0.021540 1.846240 -0.021490 
#    z 0.011280 -0.021490 1.863640 
# 
# From -- ./inp_files/423970.got.cif
#   From: 2010.06.25/outbox.cif.g09.slc.cpg/sg2_212_cif.got.tgz:423970.got - 2010.06.27 13:26:56.
