data_PCOD8039435
_publ_section_title
;
Structure prediction by ZEFSAII (Michael W. Deem and Ramdas Pophale) SiO2 
 PCOD8039435
Probable space group: P -1
;
_chemical_formula_sum "Si O2"
_cell_formula_units_Z 10
_cell_length_a 8.354017
_cell_length_b 11.723482
_cell_length_c 6.245145
_cell_angle_alpha 121.681490
_cell_angle_beta 99.507711
_cell_angle_gamma 63.147568
_cell_volume 462.273401
_symmetry_space_group_name_H-M "P -1"
_symmetry_group_IT_number 2
_symmetry_cell_setting 'triclinic'
loop_
_space_group_symop_operation_xyz
x,y,z
-x,-y,-z
loop_
_atom_site_type_symbol
_atom_site_label
_atom_site_fract_x
_atom_site_fract_y
_atom_site_fract_z
Si Si1 0.155878 0.103665 0.985762
Si Si2 0.972099 0.271369 0.729785
Si Si3 0.837065 0.641622 0.504968
Si Si4 0.785364 0.202253 0.240920
Si Si5 0.336031 0.544020 0.848662
O O1 0.234069 0.211864 0.214558
O O2 0.966193 0.140971 0.086635
O O3 0.121179 0.128166 0.746750
O O4 0.284080 0.927615 0.885097
O O5 0.830132 0.238130 0.524399
O O6 0.089937 0.331379 0.678064
O O7 0.853899 0.386351 0.998820
O O8 0.664852 0.604378 0.403390
O O9 0.000000 0.500000 0.500000
O O10 0.645764 0.349041 0.228260
O O11 0.500000 0.500000 0.000000
#
# Coordination Sequence:
#
# PCOD8039435 Si02
#       5
#     2   2   2   2   2
#     4   9  18  31  57  80 108 135 181 227 260 309
#     4  10  18  33  61  79 106 139 186 215 271 309
#     4  11  19  36  56  84 106 138 185 225 257 316
#     4   9  18  34  51  83 109 138 178 222 263 318
#     4  11  23  36  54  81 114 143 174 222 272 317
#
# _framework density 21.632218000000002
#
# number of rings (size 3 to 8) (size 9 to 14) (size 15 to 20)
#    0.000    2.000    6.000    1.200    0.000    2.400 
#    0.000    1.000    0.000    2.400    0.000    0.000 
#    0.000    0.000    0.000    0.000    0.000    0.000 
#
# Total GULP energy -123909.706161 kJ/mol
# GULP energy per Si atom -12390.970616 kJ/mol
# Density = 2.158298 g / cm^3
# Si number density = 21.632218 Si / 1000 Ang^3
#
#
#
# Elastic Constant Matrix: (Units=GPa)
#
#
# Indices 1 2 3 4 5 6 
#
# 1 10.0144 2.3325 24.1887 10.2943 24.3277 -12.1364
# 2 2.3325 116.1339 96.7716 19.9870 31.9619 -6.3624
# 3 24.1887 96.7716 131.8775 -5.2615 36.8713 19.4712
# 4 10.2943 19.9870 -5.2615 36.0933 11.0356 16.5356
# 5 24.3277 31.9619 36.8713 11.0356 45.6037 -1.3302
# 6 -12.1364 -6.3624 19.4712 16.5356 -1.3302 0.9143
#
#
#
# Elastic Compliance Matrix: (Units=1/GPa)
#
#
# Indices 1 2 3 4 5 6 
#
# 1 0.100018 -0.011781 0.023999 0.038590 -0.075996 -0.073903
# 2 -0.011781 0.011284 -0.004536 0.001830 0.001234 -0.012567
# 3 0.023999 -0.004536 0.011138 0.001001 -0.018742 0.004410
# 4 0.038590 0.001830 0.001001 0.025635 -0.028942 -0.002082
# 5 -0.075996 0.001234 -0.018742 -0.028942 0.085109 0.046229
# 6 -0.073903 -0.012567 0.004410 -0.002082 0.046229 0.036294
#
#
# Mechanical properties :
#
#
# Convention : Reuss Voigt Hill
#
# Bulk Modulus (GPa) = 7.25673 56.06792 31.66233
# Shear Modulus (GPa) = 16.66390 25.50445 21.08417
#
# Velocity S-wave (km/s) = 2.77849 3.43739 3.12535
# Velocity P-wave (km/s) = 3.69530 6.45981 5.26234
#
# Compressibility (1/GPa) = 0.13780305
#
# Stress axis : x y z
#
# Youngs Moduli (GPa) = 9.99822 88.62184 89.77896
#
# Poissons Ratio (x) = 1.04407 -2.15456
# Poissons Ratio (y) = 0.11779 0.40723
# Poissons Ratio (z) = -0.23994 0.40198
#
# Static dielectric constant tensor:
#      x y z
#    x 3.343240 0.632060 0.224730 
#    y 0.632060 5.537100 0.467270 
#    z 0.224730 0.467270 4.677420 
# 
# 
# High freq. dielectric constant tensor:
#      x y z
#    x 1.788390 0.028300 0.006600 
#    y 0.028300 1.863650 -0.006620 
#    z 0.006600 -0.006620 1.862010 
# 
# From -- ./inp_files/15485.got.cif
#   From: 2010.06.25/outbox.cif.g09.slc.cpg/sg2_8_cif.got.tgz:15485.got - 2010.06.27 13:26:56.
