data_PCOD8039400
_publ_section_title
;
Structure prediction by ZEFSAII (Michael W. Deem and Ramdas Pophale) SiO2 
 PCOD8039400
Probable space group: P -1
;
_chemical_formula_sum "Si O2"
_cell_formula_units_Z 16
_cell_length_a 8.990313
_cell_length_b 20.349465
_cell_length_c 11.140744
_cell_angle_alpha 41.223900
_cell_angle_beta 125.905564
_cell_angle_gamma 94.958777
_cell_volume 813.087526
_symmetry_space_group_name_H-M "P -1"
_symmetry_group_IT_number 2
_symmetry_cell_setting 'triclinic'
loop_
_space_group_symop_operation_xyz
x,y,z
-x,-y,-z
loop_
_atom_site_type_symbol
_atom_site_label
_atom_site_fract_x
_atom_site_fract_y
_atom_site_fract_z
Si Si1 0.215787 0.615869 0.183204
Si Si2 0.983186 0.114748 0.183486
Si Si3 0.948848 0.532210 0.733926
Si Si4 0.885605 0.764701 0.327499
Si Si5 0.311963 0.955476 0.770278
Si Si6 0.920655 0.120542 0.880010
Si Si7 0.651086 0.683061 0.613719
Si Si8 0.064462 0.226676 0.389524
O O1 0.500000 0.500000 0.500000
O O2 0.085317 0.557458 0.232890
O O3 0.095420 0.741412 0.040750
O O4 0.170309 0.662032 0.958211
O O5 0.752793 0.133545 0.098876
O O6 0.049966 0.063260 0.149159
O O7 0.231519 0.002762 0.529461
O O8 0.953914 0.625226 0.518030
O O9 0.718639 0.627258 0.586518
O O10 0.200951 0.440630 0.054492
O O11 0.000678 0.742173 0.544473
O O12 0.005607 0.799474 0.247596
O O13 0.593040 0.881690 0.024329
O O14 0.151133 0.083671 0.603858
O O15 0.632454 0.227153 0.618322
O O16 0.000000 0.000000 0.000000
O O17 0.718579 0.774602 0.540291
#
# Coordination Sequence:
#
# PCOD8039400 Si02
#       8
#     2   2   2   2   2   2   2   2
#     4  10  18  33  59  84 108 139 186 239 276 313
#     4  10  22  36  56  82 109 149 191 229 277 328
#     4   9  19  36  59  82 104 143 190 232 271 314
#     4  11  21  33  55  84 113 146 182 225 281 334
#     4  10  19  36  57  79 109 143 192 240 269 318
#     4  12  24  37  55  83 118 151 180 224 286 343
#     4   9  18  36  58  81 110 141 186 232 269 323
#     4   9  18  33  57  83 106 144 189 230 274 319
#
# _framework density 19.678079
#
# number of rings (size 3 to 8) (size 9 to 14) (size 15 to 20)
#    0.000    2.000    0.000    5.625    0.000    1.000 
#    0.000    0.625    0.000    0.000    0.000    0.000 
#    0.000    0.000    0.000    0.000    0.000    0.000 
#
# Total GULP energy -198375.919417 kJ/mol
# GULP energy per Si atom -12398.494964 kJ/mol
# Density = 1.963329 g / cm^3
# Si number density = 19.678079 Si / 1000 Ang^3
#
#
#
# Elastic Constant Matrix: (Units=GPa)
#
#
# Indices 1 2 3 4 5 6 
#
# 1 84.5106 37.8000 38.3740 -3.4633 -16.3638 9.2406
# 2 37.8000 123.1205 40.6475 -6.5576 -16.7069 5.1770
# 3 38.3740 40.6475 93.9126 3.7600 -12.4730 0.8134
# 4 -3.4633 -6.5576 3.7600 35.3492 4.8484 -11.1058
# 5 -16.3638 -16.7069 -12.4730 4.8484 28.5091 -1.7272
# 6 9.2406 5.1770 0.8134 -11.1058 -1.7272 30.6388
#
#
#
# Elastic Compliance Matrix: (Units=1/GPa)
#
#
# Indices 1 2 3 4 5 6 
#
# 1 0.016802 -0.002591 -0.004918 -0.000470 0.005791 -0.004343
# 2 -0.002591 0.010445 -0.003125 0.001553 0.002992 -0.000169
# 3 -0.004918 -0.003125 0.014393 -0.002636 0.002139 0.000794
# 4 -0.000470 0.001553 -0.002636 0.033232 -0.005457 0.011688
# 5 0.005791 0.002992 0.002139 -0.005457 0.041901 -0.001925
# 6 -0.004343 -0.000169 0.000794 0.011688 -0.001925 0.038084
#
#
# Mechanical properties :
#
#
# Convention : Reuss Voigt Hill
#
# Bulk Modulus (GPa) = 49.09084 59.46518 54.27801
# Shear Modulus (GPa) = 27.33463 31.21424 29.27444
#
# Velocity S-wave (km/s) = 3.73109 3.98709 3.86121
# Velocity P-wave (km/s) = 6.60019 7.17499 6.89358
#
# Compressibility (1/GPa) = 0.02037040
#
# Stress axis : x y z
#
# Youngs Moduli (GPa) = 59.51637 95.73615 69.47589
#
# Poissons Ratio (x) = 0.24809 0.34171
# Poissons Ratio (y) = 0.15423 0.21714
# Poissons Ratio (z) = 0.29273 0.29922
#
# Static dielectric constant tensor:
#      x y z
#    x 3.304590 0.259760 -0.281910 
#    y 0.259760 3.889170 0.046280 
#    z -0.281910 0.046280 3.735900 
# 
# 
# High freq. dielectric constant tensor:
#      x y z
#    x 1.728150 0.027450 -0.020380 
#    y 0.027450 1.775220 0.004210 
#    z -0.020380 0.004210 1.780400 
# 
# From -- ./inp_files/225372.got.cif
#   From: 2010.06.25/outbox.cif.g09.slc.cpg/sg2_113_cif.got.tgz:225372.got - 2010.06.27 13:26:56.
