data_PCOD8039625
_publ_section_title
;
Structure prediction by ZEFSAII (Michael W. Deem and Ramdas Pophale) SiO2 
 PCOD8039625
Probable space group: P -1
;
_chemical_formula_sum "Si O2"
_cell_formula_units_Z 12
_cell_length_a 8.143173
_cell_length_b 8.282863
_cell_length_c 16.649308
_cell_angle_alpha 132.109051
_cell_angle_beta 135.752116
_cell_angle_gamma 60.580014
_cell_volume 581.180097
_symmetry_space_group_name_H-M "P -1"
_symmetry_group_IT_number 2
_symmetry_cell_setting 'triclinic'
loop_
_space_group_symop_operation_xyz
x,y,z
-x,-y,-z
loop_
_atom_site_type_symbol
_atom_site_label
_atom_site_fract_x
_atom_site_fract_y
_atom_site_fract_z
Si Si1 0.876024 0.500545 0.542975
Si Si2 0.601014 0.258874 0.954797
Si Si3 0.237281 0.897389 0.707331
Si Si4 0.259836 0.037659 0.381708
Si Si5 0.218339 0.653187 0.113832
Si Si6 0.682550 0.356696 0.187051
O O1 0.722771 0.281359 0.411012
O O2 0.000000 0.500000 0.500000
O O3 0.084336 0.493788 0.679916
O O4 0.722613 0.723347 0.574047
O O5 0.796207 0.247785 0.948858
O O6 0.393927 0.098057 0.805439
O O7 0.500000 0.500000 0.000000
O O8 0.700128 0.211793 0.063238
O O9 0.316181 0.808020 0.792626
O O10 0.962177 0.970293 0.638054
O O11 0.215576 0.854410 0.239664
O O12 0.500000 0.000000 0.500000
O O13 0.454395 0.511229 0.162564
O O14 0.000000 0.500000 0.000000
#
# Coordination Sequence:
#
# PCOD8039625 Si02
#       6
#     2   2   2   2   2   2
#     4   8  17  33  56  82 108 146 180 213 270 334
#     4  10  21  36  55  82 111 146 186 221 270 334
#     4  10  19  37  60  81 109 150 184 217 270 336
#     4  10  18  34  58  84 110 141 182 231 272 313
#     4  11  22  37  55  83 112 142 184 236 275 311
#     4   9  18  37  58  80 111 149 181 214 270 340
#
# _framework density 20.647644
#
# number of rings (size 3 to 8) (size 9 to 14) (size 15 to 20)
#    0.000    2.667    0.000    5.500    0.000    1.333 
#    0.000   17.500    0.000    2.000    0.000    1.167 
#    0.000    0.000    0.000    0.000    0.000    0.000 
#
# Total GULP energy -148672.192810 kJ/mol
# GULP energy per Si atom -12389.349401 kJ/mol
# Density = 2.060065 g / cm^3
# Si number density = 20.647644 Si / 1000 Ang^3
#
#
#
# Elastic Constant Matrix: (Units=GPa)
#
#
# Indices 1 2 3 4 5 6 
#
# 1 85.5147 41.4267 64.7425 10.9581 8.3337 0.3655
# 2 41.4267 98.3947 72.2196 5.4885 10.4414 -16.3131
# 3 64.7425 72.2196 198.3237 28.1114 14.4476 -6.9868
# 4 10.9581 5.4885 28.1114 46.5722 -0.7816 4.9846
# 5 8.3337 10.4414 14.4476 -0.7816 25.7406 9.4070
# 6 0.3655 -16.3131 -6.9868 4.9846 9.4070 22.8562
#
#
#
# Elastic Compliance Matrix: (Units=1/GPa)
#
#
# Indices 1 2 3 4 5 6 
#
# 1 0.017229 -0.005407 -0.003835 -0.000499 0.000768 -0.005514
# 2 -0.005407 0.019109 -0.003770 -0.000678 -0.010069 0.016865
# 3 -0.003835 -0.003770 0.008526 -0.004068 -0.002889 0.002054
# 4 -0.000499 -0.000678 -0.004068 0.025340 0.007224 -0.010219
# 5 0.000768 -0.010069 -0.002889 0.007224 0.056563 -0.032937
# 6 -0.005514 0.016865 0.002054 -0.010219 -0.032937 0.072289
#
#
# Mechanical properties :
#
#
# Convention : Reuss Voigt Hill
#
# Bulk Modulus (GPa) = 53.07508 82.11230 67.59369
# Shear Modulus (GPa) = 21.61135 32.62342 27.11739
#
# Velocity S-wave (km/s) = 3.23874 3.97924 3.62794
# Velocity P-wave (km/s) = 6.30451 7.80815 7.09627
#
# Compressibility (1/GPa) = 0.01884124
#
# Stress axis : x y z
#
# Youngs Moduli (GPa) = 58.04020 52.33205 117.28367
#
# Poissons Ratio (x) = 0.28296 0.44979
# Poissons Ratio (y) = 0.31383 0.44211
# Poissons Ratio (z) = 0.22259 0.19727
#
# Static dielectric constant tensor:
#      x y z
#    x 3.950200 0.175000 -0.634120 
#    y 0.175000 3.983080 -0.051840 
#    z -0.634120 -0.051840 5.828420 
# 
# 
# High freq. dielectric constant tensor:
#      x y z
#    x 1.773080 -0.006710 -0.004100 
#    y -0.006710 1.799210 0.012520 
#    z -0.004100 0.012520 1.838050 
# 
# From -- ./inp_files/184521.got.cif
#   From: 2010.06.25/outbox.cif.g09.slc.cpg/sg2_93_cif.got.tgz:184521.got - 2010.06.27 13:26:56.
