data_PCOD8039511
_publ_section_title
;
Structure prediction by ZEFSAII (Michael W. Deem and Ramdas Pophale) SiO2 
 PCOD8039511
Probable space group: P -1
;
_chemical_formula_sum "Si O2"
_cell_formula_units_Z 16
_cell_length_a 15.177543
_cell_length_b 9.000482
_cell_length_c 8.797895
_cell_angle_alpha 83.720847
_cell_angle_beta 99.721169
_cell_angle_gamma 48.629194
_cell_volume 848.370237
_symmetry_space_group_name_H-M "P -1"
_symmetry_group_IT_number 2
_symmetry_cell_setting 'triclinic'
loop_
_space_group_symop_operation_xyz
x,y,z
-x,-y,-z
loop_
_atom_site_type_symbol
_atom_site_label
_atom_site_fract_x
_atom_site_fract_y
_atom_site_fract_z
Si Si1 0.440941 0.464987 0.855951
Si Si2 0.737401 0.728058 0.785564
Si Si3 0.270122 0.507749 0.426390
Si Si4 0.156807 0.438118 0.625326
Si Si5 0.894361 0.737343 0.621769
Si Si6 0.459491 0.801385 0.363529
Si Si7 0.635576 0.767219 0.064091
Si Si8 0.702023 0.214179 0.486616
O O1 0.547121 0.275922 0.793955
O O2 0.375590 0.399719 0.926083
O O3 0.337892 0.676010 0.703208
O O4 0.500000 0.500000 0.000000
O O5 0.743806 0.556018 0.732803
O O6 0.853559 0.696145 0.768125
O O7 0.615925 0.958835 0.673855
O O8 0.726390 0.716265 0.961999
O O9 0.162471 0.574906 0.500573
O O10 0.400999 0.308529 0.558739
O O11 0.264498 0.692859 0.394492
O O12 0.139474 0.311646 0.534475
O O13 0.288741 0.265540 0.764587
O O14 0.042078 0.593400 0.690669
O O15 0.825742 0.973415 0.550468
O O16 0.415427 0.740321 0.489079
O O17 0.500000 0.000000 0.000000
#
# Coordination Sequence:
#
# PCOD8039511 Si02
#       8
#     2   2   2   2   2   2   2   2
#     4  11  23  35  52  87 121 147 178 225 295 339
#     4  10  21  34  56  82 110 151 187 228 277 333
#     4  10  18  34  54  82 109 144 190 231 273 328
#     4  10  20  40  60  84 110 144 200 235 269 334
#     4   9  22  39  62  82 106 152 195 236 275 320
#     4  10  19  36  52  81 112 149 188 225 279 333
#     4  12  23  37  58  86 119 149 182 231 285 338
#     4  10  21  36  56  83 112 151 182 234 284 329
#
# _framework density 18.859690000000001
#
# number of rings (size 3 to 8) (size 9 to 14) (size 15 to 20)
#    0.000    1.750    3.750    1.875    5.250    2.000 
#    0.000    0.000    0.000    0.750    0.000    0.000 
#    0.000    0.000    0.000    0.000    0.000    0.000 
#
# Total GULP energy -198273.660748 kJ/mol
# GULP energy per Si atom -12392.103797 kJ/mol
# Density = 1.881676 g / cm^3
# Si number density = 18.859690 Si / 1000 Ang^3
#
#
#
# Elastic Constant Matrix: (Units=GPa)
#
#
# Indices 1 2 3 4 5 6 
#
# 1 83.7179 36.2909 22.8915 -5.6292 -13.3528 -7.2106
# 2 36.2909 73.8500 21.9141 -6.0782 -8.2058 -2.8251
# 3 22.8915 21.9141 61.6485 2.3480 -11.2318 0.5236
# 4 -5.6292 -6.0782 2.3480 23.4514 -1.2003 -5.5331
# 5 -13.3528 -8.2058 -11.2318 -1.2003 35.3423 2.4928
# 6 -7.2106 -2.8251 0.5236 -5.5331 2.4928 37.7536
#
#
#
# Elastic Compliance Matrix: (Units=1/GPa)
#
#
# Indices 1 2 3 4 5 6 
#
# 1 0.016745 -0.006385 -0.003446 0.003618 0.003656 0.003057
# 2 -0.006385 0.018332 -0.004190 0.003842 0.000591 0.000734
# 3 -0.003446 -0.004190 0.019908 -0.004202 0.004060 -0.002132
# 4 0.003618 0.003842 -0.004202 0.046861 0.001967 0.007775
# 5 0.003656 0.000591 0.004060 0.001967 0.031247 -0.001089
# 6 0.003057 0.000734 -0.002132 0.007775 -0.001089 0.028367
#
#
# Mechanical properties :
#
#
# Convention : Reuss Voigt Hill
#
# Bulk Modulus (GPa) = 37.11659 42.37881 39.74770
# Shear Modulus (GPa) = 25.19110 28.51746 26.85428
#
# Velocity S-wave (km/s) = 3.65870 3.89277 3.77755
# Velocity P-wave (km/s) = 6.12954 6.53638 6.33623
#
# Compressibility (1/GPa) = 0.02694213
#
# Stress axis : x y z
#
# Youngs Moduli (GPa) = 59.72081 54.54907 50.23171
#
# Poissons Ratio (x) = 0.34830 0.17308
# Poissons Ratio (y) = 0.38133 0.21049
# Poissons Ratio (z) = 0.20577 0.22858
#
# Static dielectric constant tensor:
#      x y z
#    x 3.762540 -0.045250 -0.261570 
#    y -0.045250 3.544180 0.170560 
#    z -0.261570 0.170560 3.304410 
# 
# 
# High freq. dielectric constant tensor:
#      x y z
#    x 1.742620 0.005880 -0.018580 
#    y 0.005880 1.729490 0.010450 
#    z -0.018580 0.010450 1.708950 
# 
# From -- ./inp_files/186542.got.cif
#   From: 2010.06.25/outbox.cif.g09.slc.cpg/sg2_94_cif.got.tgz:186542.got - 2010.06.27 13:26:56.
