data_PCOD8039113
_publ_section_title
;
Structure prediction by ZEFSAII (Michael W. Deem and Ramdas Pophale) SiO2 
 PCOD8039113
Probable space group: P -1
;
_chemical_formula_sum "Si O2"
_cell_formula_units_Z 16
_cell_length_a 18.432000
_cell_length_b 17.152651
_cell_length_c 8.565493
_cell_angle_alpha 133.623236
_cell_angle_beta 144.113792
_cell_angle_gamma 31.351320
_cell_volume 825.879444
_symmetry_space_group_name_H-M "P -1"
_symmetry_group_IT_number 2
_symmetry_cell_setting 'triclinic'
loop_
_space_group_symop_operation_xyz
x,y,z
-x,-y,-z
loop_
_atom_site_type_symbol
_atom_site_label
_atom_site_fract_x
_atom_site_fract_y
_atom_site_fract_z
Si Si1 0.369115 0.349067 0.726649
Si Si2 0.526386 0.115878 0.458077
Si Si3 0.801606 0.823419 0.056240
Si Si4 0.991344 0.436430 0.740612
Si Si5 0.035471 0.616420 0.894585
Si Si6 0.417448 0.436537 0.233505
Si Si7 0.544736 0.143059 0.173866
Si Si8 0.718734 0.796329 0.408867
O O1 0.521045 0.232135 0.704859
O O2 0.341905 0.253673 0.639658
O O3 0.198209 0.489062 0.532056
O O4 0.428042 0.407387 0.026557
O O5 0.592303 0.095796 0.370706
O O6 0.646011 0.959299 0.542129
O O7 0.329817 0.194431 0.225639
O O8 0.900004 0.737719 0.273672
O O9 0.932258 0.744094 0.026377
O O10 0.699286 0.998212 0.138467
O O11 0.068666 0.469585 0.788648
O O12 0.000000 0.500000 0.000000
O O13 0.218770 0.560260 0.110867
O O14 0.926455 0.683536 0.633333
O O15 0.500000 0.500000 0.500000
O O16 0.527520 0.280053 0.300840
O O17 0.362847 0.192275 0.884078
#
# Coordination Sequence:
#
# PCOD8039113 Si02
#       8
#     2   2   2   2   2   2   2   2
#     4  10  20  33  57  84 118 156 180 225 283 340
#     4  11  18  32  54  94 126 147 165 224 293 361
#     4  10  18  32  56  94 124 147 167 225 291 359
#     4   9  16  31  55  92 124 137 173 221 289 353
#     4  10  20  34  58  83 116 150 188 230 281 336
#     4  11  26  44  57  75 107 155 210 247 270 318
#     4  10  23  34  60  84 120 152 185 221 292 341
#     4   9  18  32  54  91 122 142 179 219 290 354
#
# _framework density 19.373287999999999
#
# number of rings (size 3 to 8) (size 9 to 14) (size 15 to 20)
#    0.000    2.000    3.750    2.625    5.250    7.500 
#    0.000    1.250    0.000    1.500    0.000    0.000 
#    0.000    0.000    0.000    0.000    0.000    0.000 
#
# Total GULP energy -198250.273333 kJ/mol
# GULP energy per Si atom -12390.642083 kJ/mol
# Density = 1.932919 g / cm^3
# Si number density = 19.373288 Si / 1000 Ang^3
#
#
#
# Elastic Constant Matrix: (Units=GPa)
#
#
# Indices 1 2 3 4 5 6 
#
# 1 46.1075 37.2808 35.3580 7.6115 -7.1269 -11.2462
# 2 37.2808 137.4733 66.0072 -2.3795 0.9153 0.7221
# 3 35.3580 66.0072 104.8107 6.2135 -3.8548 5.9104
# 4 7.6115 -2.3795 6.2135 31.7734 2.1121 -11.9572
# 5 -7.1269 0.9153 -3.8548 2.1121 25.7615 2.6869
# 6 -11.2462 0.7221 5.9104 -11.9572 2.6869 27.1086
#
#
#
# Elastic Compliance Matrix: (Units=1/GPa)
#
#
# Indices 1 2 3 4 5 6 
#
# 1 0.040500 -0.006221 -0.010300 -0.002132 0.008238 0.017456
# 2 -0.006221 0.011782 -0.005694 0.003850 -0.003347 0.000377
# 3 -0.010300 -0.005694 0.017574 -0.005452 0.001525 -0.010509
# 4 -0.002132 0.003850 -0.005452 0.040919 -0.006872 0.018932
# 5 0.008238 -0.003347 0.001525 -0.006872 0.042431 -0.004062
# 6 0.017456 0.000377 -0.010509 0.018932 -0.004062 0.055165
#
#
# Mechanical properties :
#
#
# Convention : Reuss Voigt Hill
#
# Bulk Modulus (GPa) = 39.32985 62.85374 51.09179
# Shear Modulus (GPa) = 19.13682 26.91175 23.02428
#
# Velocity S-wave (km/s) = 3.14633 3.73113 3.45114
# Velocity P-wave (km/s) = 5.79175 7.14673 6.50461
#
# Compressibility (1/GPa) = 0.02542598
#
# Stress axis : x y z
#
# Youngs Moduli (GPa) = 24.69112 84.87448 56.90376
#
# Poissons Ratio (x) = 0.52801 0.58611
# Poissons Ratio (y) = 0.15361 0.32401
# Poissons Ratio (z) = 0.25432 0.48327
#
# Static dielectric constant tensor:
#      x y z
#    x 3.320760 0.121560 -0.586690 
#    y 0.121560 4.042700 -0.365970 
#    z -0.586690 -0.365970 3.468460 
# 
# 
# High freq. dielectric constant tensor:
#      x y z
#    x 1.720100 -0.011920 -0.056410 
#    y -0.011920 1.780230 -0.019320 
#    z -0.056410 -0.019320 1.714350 
# 
# From -- ./inp_files/348975.got.cif
#   From: 2010.06.25/outbox.cif.g09.slc.cpg/sg2_175_cif.got.tgz:348975.got - 2010.06.27 13:26:56.
