data_PCOD8039800
_publ_section_title
;
Structure prediction by ZEFSAII (Michael W. Deem and Ramdas Pophale) SiO2 
 PCOD8039800
Probable space group: P -1
;
_chemical_formula_sum "Si O2"
_cell_formula_units_Z 16
_cell_length_a 8.918387
_cell_length_b 11.641366
_cell_length_c 19.844114
_cell_angle_alpha 135.815830
_cell_angle_beta 127.395421
_cell_angle_gamma 41.010621
_cell_volume 932.336011
_symmetry_space_group_name_H-M "P -1"
_symmetry_group_IT_number 2
_symmetry_cell_setting 'triclinic'
loop_
_space_group_symop_operation_xyz
x,y,z
-x,-y,-z
loop_
_atom_site_type_symbol
_atom_site_label
_atom_site_fract_x
_atom_site_fract_y
_atom_site_fract_z
Si Si1 0.942812 0.699516 0.754752
Si Si2 0.662120 0.289496 0.371954
Si Si3 0.216328 0.469623 0.133725
Si Si4 0.268525 0.764225 0.784930
Si Si5 0.173767 0.592567 0.419324
Si Si6 0.551695 0.968660 0.204690
Si Si7 0.833595 0.812986 0.088250
Si Si8 0.091911 0.373674 0.755299
O O1 0.849313 0.588354 0.639718
O O2 0.722796 0.907268 0.812435
O O3 0.086501 0.746497 0.767201
O O4 0.095342 0.554795 0.798680
O O5 0.731094 0.296659 0.317581
O O6 0.419753 0.497413 0.410212
O O7 0.853934 0.271914 0.467424
O O8 0.653555 0.098681 0.300443
O O9 0.482676 0.386889 0.176633
O O10 0.082725 0.663023 0.129129
O O11 0.109775 0.528843 0.203595
O O12 0.193417 0.295231 0.027252
O O13 0.186553 0.993687 0.864548
O O14 0.977683 0.723411 0.363526
O O15 0.629224 0.874722 0.111677
O O16 0.660013 0.792527 0.216083
#
# Coordination Sequence:
#
# PCOD8039800 Si02
#       8
#     2   2   2   2   2   2   2   2
#     4   9  20  32  46  72 105 131 158 189 243 296
#     4   9  16  30  53  74  95 123 169 204 232 277
#     4  10  18  35  54  74  95 121 167 206 241 280
#     4  11  19  32  52  73 102 130 153 200 245 290
#     4   8  16  32  49  74  95 127 165 197 238 283
#     4   9  17  33  52  70  97 129 162 204 237 280
#     4   9  20  33  54  76  92 123 166 208 237 279
#     4   9  17  33  52  69  95 132 160 200 240 280
#
# _framework density 17.161193999999998
#
# number of rings (size 3 to 8) (size 9 to 14) (size 15 to 20)
#    0.750    2.000    1.250    1.125    0.000    2.000 
#    0.000    2.500    0.000    5.250    0.000    0.000 
#    0.000    0.000    0.000    0.000    0.000    0.000 
#
# Total GULP energy -198277.124801 kJ/mol
# GULP energy per Si atom -12392.320300 kJ/mol
# Density = 1.712213 g / cm^3
# Si number density = 17.161194 Si / 1000 Ang^3
#
#
#
# Elastic Constant Matrix: (Units=GPa)
#
#
# Indices 1 2 3 4 5 6 
#
# 1 99.9344 45.5459 16.1507 -7.4686 -3.2015 2.4653
# 2 45.5459 92.6019 19.6975 -2.2978 -9.8009 4.3819
# 3 16.1507 19.6975 67.5644 -12.4224 -3.5709 -4.6985
# 4 -7.4686 -2.2978 -12.4224 19.9231 2.4748 -4.4926
# 5 -3.2015 -9.8009 -3.5709 2.4748 7.1101 -0.7819
# 6 2.4653 4.3819 -4.6985 -4.4926 -0.7819 14.1970
#
#
#
# Elastic Compliance Matrix: (Units=1/GPa)
#
#
# Indices 1 2 3 4 5 6 
#
# 1 0.013441 -0.006996 -0.000522 0.004775 -0.005421 0.000865
# 2 -0.006996 0.017433 -0.004119 -0.007247 0.020599 -0.006688
# 3 -0.000522 -0.004119 0.019643 0.014336 0.000328 0.012417
# 4 0.004775 -0.007247 0.014336 0.068803 -0.021648 0.026732
# 5 -0.005421 0.020599 0.000328 -0.021648 0.174015 -0.002574
# 6 0.000865 -0.006688 0.012417 0.026732 -0.002574 0.084778
#
#
# Mechanical properties :
#
#
# Convention : Reuss Voigt Hill
#
# Bulk Modulus (GPa) = 36.70591 46.98766 41.84679
# Shear Modulus (GPa) = 12.18119 20.15981 16.17050
#
# Velocity S-wave (km/s) = 2.66712 3.43115 3.07297
# Velocity P-wave (km/s) = 5.56058 6.56786 6.08509
#
# Compressibility (1/GPa) = 0.02724357
#
# Stress axis : x y z
#
# Youngs Moduli (GPa) = 74.39722 57.36280 50.90888
#
# Poissons Ratio (x) = 0.40133 0.02656
# Poissons Ratio (y) = 0.52050 0.20968
# Poissons Ratio (z) = 0.03882 0.23626
#
# Static dielectric constant tensor:
#      x y z
#    x 2.825900 -0.003360 -0.120710 
#    y -0.003360 3.276280 -0.034850 
#    z -0.120710 -0.034850 3.294450 
# 
# 
# High freq. dielectric constant tensor:
#      x y z
#    x 1.630930 0.001340 -0.012460 
#    y 0.001340 1.664200 -0.003580 
#    z -0.012460 -0.003580 1.660670 
# 
# From -- ./inp_files/286032.got.cif
#   From: 2010.06.25/outbox.cif.g09.slc.cpg/sg2_144_cif.got.tgz:286032.got - 2010.06.27 13:26:56.
