data_PCOD8039554
_publ_section_title
;
Structure prediction by ZEFSAII (Michael W. Deem and Ramdas Pophale) SiO2 
 PCOD8039554
Probable space group: P -1
;
_chemical_formula_sum "Si O2"
_cell_formula_units_Z 16
_cell_length_a 11.025475
_cell_length_b 10.983364
_cell_length_c 13.889106
_cell_angle_alpha 31.768162
_cell_angle_beta 78.443740
_cell_angle_gamma 72.368110
_cell_volume 838.407196
_symmetry_space_group_name_H-M "P -1"
_symmetry_group_IT_number 2
_symmetry_cell_setting 'triclinic'
loop_
_space_group_symop_operation_xyz
x,y,z
-x,-y,-z
loop_
_atom_site_type_symbol
_atom_site_label
_atom_site_fract_x
_atom_site_fract_y
_atom_site_fract_z
Si Si1 0.419572 0.650542 0.327889
Si Si2 0.749993 0.866822 0.921020
Si Si3 0.827323 0.007932 0.608674
Si Si4 0.011421 0.177387 0.965165
Si Si5 0.082238 0.137599 0.684440
Si Si6 0.193787 0.493101 0.533123
Si Si7 0.057931 0.259231 0.407981
Si Si8 0.331934 0.506020 0.704500
O O1 0.500000 0.500000 0.500000
O O2 0.290577 0.561221 0.393861
O O3 0.514088 0.608770 0.248908
O O4 0.380117 0.926617 0.182103
O O5 0.814131 0.878395 0.798658
O O6 0.717784 0.611890 0.114866
O O7 0.844650 0.899175 0.968556
O O8 0.695714 0.206625 0.470337
O O9 0.931807 0.162243 0.487238
O O10 0.859814 0.801424 0.661727
O O11 0.974039 0.456690 0.756129
O O12 0.918690 0.125052 0.100306
O O13 0.000000 0.000000 0.000000
O O14 0.164261 0.245670 0.674440
O O15 0.141469 0.126643 0.574863
O O16 0.935637 0.296316 0.589506
O O17 0.258304 0.458035 0.651524
#
# Coordination Sequence:
#
# PCOD8039554 Si02
#       8
#     2   2   2   2   2   2   2   2
#     4  10  19  34  57  83 115 145 189 230 288 327
#     4  12  20  35  55  87 113 148 184 232 287 325
#     4  11  22  37  54  78 118 152 192 226 271 339
#     4  12  22  33  57  87 117 146 180 226 285 346
#     4  11  19  35  54  79 119 144 178 227 285 330
#     4  10  18  34  56  83 113 145 176 233 283 333
#     4  11  23  36  53  82 114 155 188 227 275 336
#     4  11  20  36  55  84 113 147 188 234 280 331
#
# _framework density 19.083807
#
# number of rings (size 3 to 8) (size 9 to 14) (size 15 to 20)
#    0.000    1.000    7.500    2.625    0.000    1.500 
#    0.000    0.000    0.000    0.750    0.000    1.750 
#    0.000    0.000    0.000    0.000    0.000    0.000 
#
# Total GULP energy -198231.644745 kJ/mol
# GULP energy per Si atom -12389.477797 kJ/mol
# Density = 1.904037 g / cm^3
# Si number density = 19.083807 Si / 1000 Ang^3
#
#
#
# Elastic Constant Matrix: (Units=GPa)
#
#
# Indices 1 2 3 4 5 6 
#
# 1 53.5898 26.8814 16.8002 4.6306 -8.6829 -9.7164
# 2 26.8814 108.5993 38.4048 6.2811 -2.8861 -11.2454
# 3 16.8002 38.4048 112.0312 16.2814 -19.4243 -2.4334
# 4 4.6306 6.2811 16.2814 26.7355 -4.9618 -9.1210
# 5 -8.6829 -2.8861 -19.4243 -4.9618 27.3792 2.1651
# 6 -9.7164 -11.2454 -2.4334 -9.1210 2.1651 18.8149
#
#
#
# Elastic Compliance Matrix: (Units=1/GPa)
#
#
# Indices 1 2 3 4 5 6 
#
# 1 0.023790 -0.004445 -0.001106 0.002031 0.005885 0.009793
# 2 -0.004445 0.012199 -0.004217 0.001817 -0.003237 0.005704
# 3 -0.001106 -0.004217 0.012737 -0.007170 0.007398 -0.005771
# 4 0.002031 0.001817 -0.007170 0.050105 0.002838 0.025171
# 5 0.005885 -0.003237 0.007398 0.002838 0.043940 -0.001619
# 6 0.009793 0.005704 -0.005771 0.025171 -0.001619 0.073258
#
#
# Mechanical properties :
#
#
# Convention : Reuss Voigt Hill
#
# Bulk Modulus (GPa) = 34.25661 48.71034 41.48348
# Shear Modulus (GPa) = 20.38364 27.39485 23.88925
#
# Velocity S-wave (km/s) = 3.27174 3.79291 3.54193
# Velocity P-wave (km/s) = 5.67996 6.69040 6.20578
#
# Compressibility (1/GPa) = 0.02919144
#
# Stress axis : x y z
#
# Youngs Moduli (GPa) = 42.03417 81.97355 78.51240
#
# Poissons Ratio (x) = 0.36434 0.08683
# Poissons Ratio (y) = 0.18682 0.33107
# Poissons Ratio (z) = 0.04649 0.34567
#
# Static dielectric constant tensor:
#      x y z
#    x 3.813880 -0.392480 -0.242040 
#    y -0.392480 3.668010 0.243340 
#    z -0.242040 0.243340 3.816370 
# 
# 
# High freq. dielectric constant tensor:
#      x y z
#    x 1.713000 -0.011980 -0.015540 
#    y -0.011980 1.715390 0.015260 
#    z -0.015540 0.015260 1.758810 
# 
# From -- ./inp_files/518567.got.cif
#   From: 2010.06.25/outbox.cif.g09.slc.cpg/sg2_260_cif.got.tgz:518567.got - 2010.06.27 13:26:56.
