data_PCOD8039447
_publ_section_title
;
Structure prediction by ZEFSAII (Michael W. Deem and Ramdas Pophale) SiO2 
 PCOD8039447
Probable space group: P -1
;
_chemical_formula_sum "Si O2"
_cell_formula_units_Z 12
_cell_length_a 14.249968
_cell_length_b 11.716929
_cell_length_c 8.606739
_cell_angle_alpha 86.027734
_cell_angle_beta 67.586690
_cell_angle_gamma 28.658825
_cell_volume 510.473203
_symmetry_space_group_name_H-M "P -1"
_symmetry_group_IT_number 2
_symmetry_cell_setting 'triclinic'
loop_
_space_group_symop_operation_xyz
x,y,z
-x,-y,-z
loop_
_atom_site_type_symbol
_atom_site_label
_atom_site_fract_x
_atom_site_fract_y
_atom_site_fract_z
Si Si1 0.370391 0.096323 0.379380
Si Si2 0.463703 0.288527 0.863112
Si Si3 0.084431 0.471311 0.788473
Si Si4 0.591131 0.683443 0.749194
Si Si5 0.938536 0.852905 0.941094
Si Si6 0.060124 0.057744 0.380894
O O1 0.092757 0.385622 0.630694
O O2 0.435676 0.152222 0.262729
O O3 0.374026 0.997072 0.251670
O O4 0.609397 0.808359 0.368197
O O5 0.191032 0.590171 0.914672
O O6 0.654739 0.196621 0.714512
O O7 0.373846 0.383820 0.087263
O O8 0.919128 0.759262 0.848698
O O9 0.000000 0.500000 0.000000
O O10 0.842812 0.378084 0.527548
O O11 0.338518 0.875175 0.818128
O O12 0.937640 0.958484 0.808523
O O13 0.000000 0.000000 0.500000
#
# Coordination Sequence:
#
# PCOD8039447 Si02
#       6
#     2   2   2   2   2   2
#     4  10  20  35  61  98 136 168 205 256 323 399
#     4  10  25  40  65 104 128 165 221 259 326 397
#     4  10  18  33  61  96 133 173 201 249 321 391
#     4  11  22  42  66  95 132 175 206 269 327 382
#     4  10  22  42  65  96 131 169 216 261 323 387
#     4  11  26  47  65  88 129 176 225 275 318 367
#
# _framework density 23.507601000000001
#
# number of rings (size 3 to 8) (size 9 to 14) (size 15 to 20)
#    0.000    1.667    3.333    0.500    0.000    8.000 
#    0.000    1.667    0.000    0.000    0.000    0.000 
#    0.000    0.000    0.000    0.000    0.000    0.000 
#
# Total GULP energy -148658.798220 kJ/mol
# GULP energy per Si atom -12388.233185 kJ/mol
# Density = 2.345410 g / cm^3
# Si number density = 23.507601 Si / 1000 Ang^3
#
#
#
# Elastic Constant Matrix: (Units=GPa)
#
#
# Indices 1 2 3 4 5 6 
#
# 1 86.2093 37.5536 23.3212 -10.6811 -29.0317 -8.2428
# 2 37.5536 78.8564 10.6198 -6.3179 -25.7793 -8.4204
# 3 23.3212 10.6198 105.9943 -12.6920 -26.1841 -14.7137
# 4 -10.6811 -6.3179 -12.6920 28.9201 9.1995 -16.5092
# 5 -29.0317 -25.7793 -26.1841 9.1995 32.3190 -1.1330
# 6 -8.2428 -8.4204 -14.7137 -16.5092 -1.1330 35.4045
#
#
#
# Elastic Compliance Matrix: (Units=1/GPa)
#
#
# Indices 1 2 3 4 5 6 
#
# 1 0.018942 -0.003230 0.001587 0.007159 0.013970 0.008087
# 2 -0.003230 0.020020 0.004340 0.005151 0.015422 0.008708
# 3 0.001587 0.004340 0.015564 0.011515 0.014700 0.013710
# 4 0.007159 0.005151 0.011515 0.063892 0.002999 0.037566
# 5 0.013970 0.015422 0.014700 0.002999 0.067430 0.016586
# 6 0.008087 0.008708 0.013710 0.037566 0.016586 0.055944
#
#
# Mechanical properties :
#
#
# Convention : Reuss Voigt Hill
#
# Bulk Modulus (GPa) = 16.68914 46.00546 31.34730
# Shear Modulus (GPa) = 19.50296 32.63308 26.06802
#
# Velocity S-wave (km/s) = 2.88348 3.72989 3.33366
# Velocity P-wave (km/s) = 4.26624 6.17757 5.30863
#
# Compressibility (1/GPa) = 0.05991922
#
# Stress axis : x y z
#
# Youngs Moduli (GPa) = 52.79168 49.95121 64.25187
#
# Poissons Ratio (x) = 0.16136 -0.10195
# Poissons Ratio (y) = 0.17054 -0.27888
# Poissons Ratio (z) = -0.08377 -0.21681
#
# Static dielectric constant tensor:
#      x y z
#    x 4.030900 -0.108130 -0.030500 
#    y -0.108130 4.140750 0.222370 
#    z -0.030500 0.222370 4.714900 
# 
# 
# High freq. dielectric constant tensor:
#      x y z
#    x 1.894000 -0.012320 -0.014660 
#    y -0.012320 1.932550 0.003140 
#    z -0.014660 0.003140 1.952390 
# 
# From -- ./inp_files/35667.got.cif
#   From: 2010.06.25/outbox.cif.g09.slc.cpg/sg2_18_cif.got.tgz:35667.got - 2010.06.27 13:26:56.
