data_PCOD8039286
_publ_section_title
;
Structure prediction by ZEFSAII (Michael W. Deem and Ramdas Pophale) SiO2 
 PCOD8039286
Probable space group: P -1
;
_chemical_formula_sum "Si O2"
_cell_formula_units_Z 16
_cell_length_a 14.272419
_cell_length_b 9.726911
_cell_length_c 20.126042
_cell_angle_alpha 54.373754
_cell_angle_beta 25.550091
_cell_angle_gamma 45.119424
_cell_volume 840.382336
_symmetry_space_group_name_H-M "P -1"
_symmetry_group_IT_number 2
_symmetry_cell_setting 'triclinic'
loop_
_space_group_symop_operation_xyz
x,y,z
-x,-y,-z
loop_
_atom_site_type_symbol
_atom_site_label
_atom_site_fract_x
_atom_site_fract_y
_atom_site_fract_z
Si Si1 0.561769 0.354409 0.597618
Si Si2 0.168559 0.581549 0.481492
Si Si3 0.115470 0.895919 0.238773
Si Si4 0.673085 0.564009 0.989675
Si Si5 0.136950 0.581931 0.234093
Si Si6 0.914078 0.334548 0.261333
Si Si7 0.255282 0.077816 0.416501
Si Si8 0.578872 0.634423 0.752568
O O1 0.614404 0.399481 0.625576
O O2 0.779147 0.340866 0.414566
O O3 0.285812 0.524858 0.704889
O O4 0.568702 0.148861 0.652615
O O5 0.250608 0.487675 0.383563
O O6 0.108961 0.441171 0.605139
O O7 0.918138 0.797954 0.570378
O O8 0.070153 0.807975 0.223773
O O9 0.922638 0.898804 0.415056
O O10 0.404417 0.764843 0.116760
O O11 0.060222 0.115114 0.199246
O O12 0.697795 0.514272 0.909766
O O13 0.894582 0.589372 0.869580
O O14 0.675421 0.380510 0.079038
O O15 0.281504 0.471626 0.239299
O O16 0.451987 0.150304 0.290149
#
# Coordination Sequence:
#
# PCOD8039286 Si02
#       8
#     2   2   2   2   2   2   2   2
#     4  10  22  37  56  77 113 151 189 223 259 329
#     4  11  17  35  58  85 109 141 184 224 277 321
#     4  10  18  34  58  83 112 140 180 230 273 322
#     4  11  20  35  58  85 112 143 180 226 279 322
#     4  10  18  33  55  89 111 136 181 229 275 324
#     4  10  22  39  52  79 115 151 185 223 268 319
#     4  10  18  34  57  86 108 141 183 226 275 322
#     4  10  19  33  57  86 113 136 175 237 279 318
#
# _framework density 19.038954
#
# number of rings (size 3 to 8) (size 9 to 14) (size 15 to 20)
#    0.000    1.750    5.000    3.000    0.000    0.000 
#    0.000    4.375    0.000    0.000    0.000    0.000 
#    0.000    0.000    0.000    0.000    0.000    0.000 
#
# Total GULP energy -198287.002114 kJ/mol
# GULP energy per Si atom -12392.937632 kJ/mol
# Density = 1.899562 g / cm^3
# Si number density = 19.038954 Si / 1000 Ang^3
#
#
#
# Elastic Constant Matrix: (Units=GPa)
#
#
# Indices 1 2 3 4 5 6 
#
# 1 62.6494 60.7568 25.0405 -5.9031 -12.0538 11.2248
# 2 60.7568 104.7413 46.8766 -19.2571 -29.4105 20.4936
# 3 25.0405 46.8766 86.9670 -18.4906 -15.0912 9.4406
# 4 -5.9031 -19.2571 -18.4906 24.1796 7.5443 -4.9371
# 5 -12.0538 -29.4105 -15.0912 7.5443 28.0820 -5.1841
# 6 11.2248 20.4936 9.4406 -4.9371 -5.1841 24.2654
#
#
#
# Elastic Compliance Matrix: (Units=1/GPa)
#
#
# Indices 1 2 3 4 5 6 
#
# 1 0.039955 -0.027502 -0.000371 -0.009369 -0.009146 0.001029
# 2 -0.027502 0.037488 -0.005462 0.010681 0.019727 -0.010426
# 3 -0.000371 -0.005462 0.016338 0.007835 0.000833 0.000200
# 4 -0.009369 0.010681 0.007835 0.055051 -0.002889 0.002849
# 5 -0.009146 0.019727 0.000833 -0.002889 0.053203 -0.001975
# 6 0.001029 -0.010426 0.000200 0.002849 -0.001975 0.049620
#
#
# Mechanical properties :
#
#
# Convention : Reuss Voigt Hill
#
# Bulk Modulus (GPa) = 36.88586 57.74505 47.31545
# Shear Modulus (GPa) = 15.27368 23.41765 19.34567
#
# Velocity S-wave (km/s) = 2.83544 3.51092 3.19111
# Velocity P-wave (km/s) = 5.48959 6.84333 6.20350
#
# Compressibility (1/GPa) = 0.02711066
#
# Stress axis : x y z
#
# Youngs Moduli (GPa) = 25.02839 26.67550 61.20730
#
# Poissons Ratio (x) = 0.73363 0.02269
# Poissons Ratio (y) = 0.68834 0.33430
# Poissons Ratio (z) = 0.00928 0.14570
#
# Static dielectric constant tensor:
#      x y z
#    x 3.307570 0.361390 -0.067070 
#    y 0.361390 3.821570 -0.439380 
#    z -0.067070 -0.439380 3.662630 
# 
# 
# High freq. dielectric constant tensor:
#      x y z
#    x 1.723810 0.031310 0.001950 
#    y 0.031310 1.732760 -0.024960 
#    z 0.001950 -0.024960 1.734160 
# 
# From -- ./inp_files/180296.got.cif
#   From: 2010.06.25/outbox.cif.g09.slc.cpg/sg2_91_cif.got.tgz:180296.got - 2010.06.27 13:26:56.
