data_PCOD8039653
_publ_section_title
;
Structure prediction by ZEFSAII (Michael W. Deem and Ramdas Pophale) SiO2 
 PCOD8039653
Probable space group: P -1
;
_chemical_formula_sum "Si O2"
_cell_formula_units_Z 14
_cell_length_a 17.410367
_cell_length_b 20.621923
_cell_length_c 13.450023
_cell_angle_alpha 152.767412
_cell_angle_beta 33.915672
_cell_angle_gamma 160.118897
_cell_volume 750.862978
_symmetry_space_group_name_H-M "P -1"
_symmetry_group_IT_number 2
_symmetry_cell_setting 'triclinic'
loop_
_space_group_symop_operation_xyz
x,y,z
-x,-y,-z
loop_
_atom_site_type_symbol
_atom_site_label
_atom_site_fract_x
_atom_site_fract_y
_atom_site_fract_z
Si Si1 0.688769 0.518432 0.889273
Si Si2 0.599591 0.747460 0.348979
Si Si3 0.128109 0.556850 0.082181
Si Si4 0.015291 0.729727 0.328464
Si Si5 0.452785 0.803944 0.247029
Si Si6 0.190633 0.499945 0.574259
Si Si7 0.945818 0.105274 0.150699
O O1 0.490570 0.301793 0.733169
O O2 0.725397 0.417836 0.788490
O O3 0.910418 0.749103 0.905659
O O4 0.603863 0.581669 0.133608
O O5 0.439714 0.694994 0.528832
O O6 0.845879 0.011946 0.463012
O O7 0.348342 0.715420 0.128726
O O8 0.173958 0.725386 0.185788
O O9 0.905110 0.416799 0.196968
O O10 0.080162 0.374761 0.822429
O O11 0.810935 0.576712 0.419582
O O12 0.500000 0.000000 0.500000
O O13 0.682585 0.900387 0.127617
O O14 0.006906 0.276225 0.396098
O O15 0.000000 0.000000 0.000000
#
# Coordination Sequence:
#
# PCOD8039653 Si02
#       7
#     2   2   2   2   2   2   2
#     4  10  22  34  54  90 111 141 193 232 277 350
#     4  10  18  34  59  79 106 148 186 232 278 329
#     4   9  20  36  53  83 113 145 191 233 272 344
#     4   9  18  37  54  79 112 147 192 233 275 323
#     4  12  21  38  57  83 120 150 179 239 292 323
#     4   9  17  33  53  83 104 142 189 227 268 334
#     4  11  21  36  61  85 114 150 186 230 289 337
#
# _framework density 18.645212999999998
#
# number of rings (size 3 to 8) (size 9 to 14) (size 15 to 20)
#    0.857    1.143    1.429    5.143    0.000    1.143 
#    2.571    0.714    0.000    6.000    0.000    0.000 
#    0.000    0.000    0.000    0.000    0.000    0.000 
#
# Total GULP energy -173475.131215 kJ/mol
# GULP energy per Si atom -12391.080801 kJ/mol
# Density = 1.860278 g / cm^3
# Si number density = 18.645213 Si / 1000 Ang^3
#
#
#
# Elastic Constant Matrix: (Units=GPa)
#
#
# Indices 1 2 3 4 5 6 
#
# 1 101.5005 34.8861 43.0746 6.7282 7.9416 1.2364
# 2 34.8861 64.1838 22.2673 -3.7782 -0.3346 -0.9241
# 3 43.0746 22.2673 75.7661 3.6547 18.2028 -1.0798
# 4 6.7282 -3.7782 3.6547 29.1196 -2.8339 -3.3383
# 5 7.9416 -0.3346 18.2028 -2.8339 31.1050 1.7331
# 6 1.2364 -0.9241 -1.0798 -3.3383 1.7331 20.3642
#
#
#
# Elastic Compliance Matrix: (Units=1/GPa)
#
#
# Indices 1 2 3 4 5 6 
#
# 1 0.015030 -0.006163 -0.006508 -0.003730 -0.000317 -0.002122
# 2 -0.006163 0.020617 -0.003848 0.005195 0.004433 0.001580
# 3 -0.006508 -0.003848 0.020785 -0.002451 -0.010870 0.001846
# 4 -0.003730 0.005195 -0.002451 0.037409 0.005516 0.005995
# 5 -0.000317 0.004433 -0.010870 0.005516 0.039297 -0.002796
# 6 -0.002122 0.001580 0.001846 0.005995 -0.002796 0.050625
#
#
# Mechanical properties :
#
#
# Convention : Reuss Voigt Hill
#
# Bulk Modulus (GPa) = 42.74662 49.10069 45.92365
# Shear Modulus (GPa) = 22.26185 25.53259 23.89722
#
# Velocity S-wave (km/s) = 3.45914 3.70454 3.58394
# Velocity P-wave (km/s) = 6.23941 6.68503 6.46606
#
# Compressibility (1/GPa) = 0.02339366
#
# Stress axis : x y z
#
# Youngs Moduli (GPa) = 66.53272 48.50369 48.11123
#
# Poissons Ratio (x) = 0.29895 0.31310
# Poissons Ratio (y) = 0.41007 0.18514
# Poissons Ratio (z) = 0.43298 0.18665
#
# Static dielectric constant tensor:
#      x y z
#    x 3.210690 -0.103850 0.091680 
#    y -0.103850 3.293290 -0.111260 
#    z 0.091680 -0.111260 3.399150 
# 
# 
# High freq. dielectric constant tensor:
#      x y z
#    x 1.693970 -0.013290 0.007980 
#    y -0.013290 1.710560 -0.006200 
#    z 0.007980 -0.006200 1.725510 
# 
# From -- ./inp_files/539209.got.cif
#   From: 2010.06.25/outbox.cif.g09.slc.cpg/sg2_270_cif.got.tgz:539209.got - 2010.06.27 13:26:56.
