data_PCOD8039638
_publ_section_title
;
Structure prediction by ZEFSAII (Michael W. Deem and Ramdas Pophale) SiO2 
 PCOD8039638
Probable space group: P -1
;
_chemical_formula_sum "Si O2"
_cell_formula_units_Z 14
_cell_length_a 12.323485
_cell_length_b 7.998765
_cell_length_c 8.360266
_cell_angle_alpha 80.107222
_cell_angle_beta 70.094739
_cell_angle_gamma 114.149336
_cell_volume 658.928929
_symmetry_space_group_name_H-M "P -1"
_symmetry_group_IT_number 2
_symmetry_cell_setting 'triclinic'
loop_
_space_group_symop_operation_xyz
x,y,z
-x,-y,-z
loop_
_atom_site_type_symbol
_atom_site_label
_atom_site_fract_x
_atom_site_fract_y
_atom_site_fract_z
Si Si1 0.416629 0.469748 0.800830
Si Si2 0.352963 0.863461 0.039408
Si Si3 0.934418 0.849420 0.697012
Si Si4 0.190611 0.036331 0.997474
Si Si5 0.622472 0.197092 0.332340
Si Si6 0.662140 0.503907 0.811596
Si Si7 0.907600 0.289625 0.167336
O O1 0.300395 0.253244 0.843047
O O2 0.411573 0.628063 0.658234
O O3 0.561473 0.484390 0.722077
O O4 0.405624 0.532768 0.974866
O O5 0.295409 0.661831 0.201641
O O6 0.355617 0.837122 0.854470
O O7 0.500000 0.000000 0.000000
O O8 0.262410 0.961391 0.099523
O O9 0.791783 0.713755 0.709970
O O10 0.009456 0.730163 0.724033
O O11 0.923418 0.951421 0.848018
O O12 0.000000 0.000000 0.500000
O O13 0.123900 0.886375 0.910470
O O14 0.770941 0.266024 0.317905
O O15 0.500000 0.000000 0.500000
O O16 0.000000 0.500000 0.000000
#
# Coordination Sequence:
#
# PCOD8039638 Si02
#       7
#     2   2   2   2   2   2   2
#     4   9  17  34  62  87 113 158 204 247 301 366
#     4  10  18  34  58  88 114 154 201 245 300 368
#     4  11  24  38  61  92 122 161 207 265 307 359
#     4  10  20  38  64  90 117 167 216 246 302 383
#     4  10  23  37  59  89 123 158 200 262 311 346
#     4   9  18  34  57  87 120 153 199 245 304 367
#     4  11  23  44  64  86 129 174 211 241 312 398
#
# _framework density 21.246601999999999
#
# number of rings (size 3 to 8) (size 9 to 14) (size 15 to 20)
#    0.000    2.000    1.429    3.857    4.000    0.000 
#    0.000    8.571    0.000    0.000    0.000    0.000 
#    0.000    0.000    0.000    0.000    0.000    0.000 
#
# Total GULP energy -173498.316237 kJ/mol
# GULP energy per Si atom -12392.736874 kJ/mol
# Density = 2.119824 g / cm^3
# Si number density = 21.246602 Si / 1000 Ang^3
#
#
#
# Elastic Constant Matrix: (Units=GPa)
#
#
# Indices 1 2 3 4 5 6 
#
# 1 142.6248 30.0912 49.6594 -23.4374 0.7318 -20.9052
# 2 30.0912 104.3846 31.4318 -31.2122 5.9597 -11.3443
# 3 49.6594 31.4318 84.1419 -39.7862 -4.1884 -10.0824
# 4 -23.4374 -31.2122 -39.7862 30.7758 -0.4750 11.7733
# 5 0.7318 5.9597 -4.1884 -0.4750 24.0437 -8.0534
# 6 -20.9052 -11.3443 -10.0824 11.7733 -8.0534 36.7325
#
#
#
# Elastic Compliance Matrix: (Units=1/GPa)
#
#
# Indices 1 2 3 4 5 6 
#
# 1 0.009626 -0.001752 -0.006864 -0.005149 0.000453 0.004803
# 2 -0.001752 0.014772 0.004992 0.021005 -0.003157 -0.002489
# 3 -0.006864 0.004992 0.037793 0.051694 0.004003 -0.007682
# 4 -0.005149 0.021005 0.051694 0.125365 -0.001169 -0.022692
# 5 0.000453 -0.003157 0.004003 -0.001169 0.046718 0.010998
# 6 0.004803 -0.002489 -0.007682 -0.022692 0.010998 0.036765
#
#
# Mechanical properties :
#
#
# Convention : Reuss Voigt Hill
#
# Bulk Modulus (GPa) = 18.20016 61.50180 39.85098
# Shear Modulus (GPa) = 16.85771 32.97502 24.91636
#
# Velocity S-wave (km/s) = 2.81985 3.94383 3.42822
# Velocity P-wave (km/s) = 4.38027 7.05322 5.87089
#
# Compressibility (1/GPa) = 0.05494457
#
# Stress axis : x y z
#
# Youngs Moduli (GPa) = 103.88146 67.69497 26.46019
#
# Poissons Ratio (x) = 0.11859 0.18162
# Poissons Ratio (y) = 0.18198 -0.13210
# Poissons Ratio (z) = 0.71302 -0.33795
#
# Static dielectric constant tensor:
#      x y z
#    x 4.918520 -0.111230 -0.083700 
#    y -0.111230 3.389860 -0.139590 
#    z -0.083700 -0.139590 3.346760 
# 
# 
# High freq. dielectric constant tensor:
#      x y z
#    x 1.858260 -0.008440 0.000140 
#    y -0.008440 1.838470 -0.025260 
#    z 0.000140 -0.025260 1.785860 
# 
# From -- ./inp_files/184907.got.cif
#   From: 2010.06.25/outbox.cif.g09.slc.cpg/sg2_93_cif.got.tgz:184907.got - 2010.06.27 13:26:56.
