data_PCOD8039015
_publ_section_title
;
Structure prediction by ZEFSAII (Michael W. Deem and Ramdas Pophale) SiO2 
 PCOD8039015
Probable space group: P -1
;
_chemical_formula_sum "Si O2"
_cell_formula_units_Z 14
_cell_length_a 16.565279
_cell_length_b 12.320899
_cell_length_c 10.625577
_cell_angle_alpha 104.287964
_cell_angle_beta 39.986950
_cell_angle_gamma 134.529620
_cell_volume 768.167600
_symmetry_space_group_name_H-M "P -1"
_symmetry_group_IT_number 2
_symmetry_cell_setting 'triclinic'
loop_
_space_group_symop_operation_xyz
x,y,z
-x,-y,-z
loop_
_atom_site_type_symbol
_atom_site_label
_atom_site_fract_x
_atom_site_fract_y
_atom_site_fract_z
Si Si1 0.809317 0.798319 0.032258
Si Si2 0.657341 0.097502 0.458636
Si Si3 0.110287 0.346382 0.940908
Si Si4 0.419497 0.502545 0.220021
Si Si5 0.489698 0.192100 0.757893
Si Si6 0.458656 0.226169 0.518776
Si Si7 0.010703 0.139596 0.754423
O O1 0.985915 0.992424 0.788268
O O2 0.914247 0.762557 0.949952
O O3 0.590676 0.608385 0.159359
O O4 0.740902 0.830346 0.240547
O O5 0.602570 0.154263 0.643793
O O6 0.500000 0.000000 0.500000
O O7 0.621517 0.944190 0.508103
O O8 0.915844 0.295505 0.170016
O O9 0.344819 0.578447 0.742047
O O10 0.100792 0.282856 0.798658
O O11 0.400946 0.622850 0.245774
O O12 0.182443 0.275496 0.473802
O O13 0.500000 0.500000 0.000000
O O14 0.538080 0.250235 0.569809
O O15 0.229175 0.992794 0.041491
#
# Coordination Sequence:
#
# PCOD8039015 Si02
#       7
#     2   2   2   2   2   2   2
#     4  10  21  30  48  80 103 129 168 196 250 305
#     4  10  19  30  44  72 109 137 163 188 238 310
#     4  12  18  29  51  76 112 135 150 199 251 303
#     4  10  21  37  54  72  95 129 174 214 243 282
#     4   9  19  33  46  76 100 132 173 194 239 301
#     4   9  18  28  45  72 105 136 159 188 241 303
#     4  10  18  32  53  72 104 134 152 206 257 288
#
# _framework density 18.225189
#
# number of rings (size 3 to 8) (size 9 to 14) (size 15 to 20)
#    0.000    2.286    7.143    0.857    0.000    5.714 
#    0.000    0.000    0.000    0.857    0.000    3.000 
#    0.000    0.000    0.000    0.000    0.000    0.000 
#
# Total GULP energy -173485.360507 kJ/mol
# GULP energy per Si atom -12391.811465 kJ/mol
# Density = 1.818371 g / cm^3
# Si number density = 18.225189 Si / 1000 Ang^3
#
#
#
# Elastic Constant Matrix: (Units=GPa)
#
#
# Indices 1 2 3 4 5 6 
#
# 1 28.6205 18.3099 40.4805 5.4307 -5.4689 -11.5917
# 2 18.3099 105.8752 67.7849 0.9204 7.3524 -20.7638
# 3 40.4805 67.7849 131.3056 -5.8699 6.3969 -20.4118
# 4 5.4307 0.9204 -5.8699 37.8690 -5.5263 0.2106
# 5 -5.4689 7.3524 6.3969 -5.5263 18.4515 2.7648
# 6 -11.5917 -20.7638 -20.4118 0.2106 2.7648 14.0216
#
#
#
# Elastic Compliance Matrix: (Units=1/GPa)
#
#
# Indices 1 2 3 4 5 6 
#
# 1 0.096855 0.009962 -0.029414 -0.015582 0.023125 0.047678
# 2 0.009962 0.018579 -0.008768 -0.004300 -0.006339 0.024298
# 3 -0.029414 -0.008768 0.021296 0.006288 -0.010063 -0.004409
# 4 -0.015582 -0.004300 0.006288 0.030639 0.005845 -0.011707
# 5 0.023125 -0.006339 -0.010063 0.005845 0.071684 -0.019142
# 6 0.047678 0.024298 -0.004409 -0.011707 -0.019142 0.144247
#
#
# Mechanical properties :
#
#
# Convention : Reuss Voigt Hill
#
# Bulk Modulus (GPa) = 12.45496 57.66132 35.05814
# Shear Modulus (GPa) = 10.71800 23.35014 17.03407
#
# Velocity S-wave (km/s) = 2.42768 3.58327 3.06051
# Velocity P-wave (km/s) = 3.83496 6.98761 5.63621
#
# Compressibility (1/GPa) = 0.08028933
#
# Stress axis : x y z
#
# Youngs Moduli (GPa) = 10.32470 53.82415 46.95635
#
# Poissons Ratio (x) = -0.53618 1.38116
# Poissons Ratio (y) = -0.10285 0.41174
# Poissons Ratio (z) = 0.30369 0.47196
#
# Static dielectric constant tensor:
#      x y z
#    x 2.980040 -0.432670 -0.320930 
#    y -0.432670 3.988090 0.148470 
#    z -0.320930 0.148470 3.453390 
# 
# 
# High freq. dielectric constant tensor:
#      x y z
#    x 1.645120 -0.024100 -0.024840 
#    y -0.024100 1.713430 -0.016710 
#    z -0.024840 -0.016710 1.701280 
# 
# From -- ./inp_files/431227.got.cif
#   From: 2010.06.25/outbox.cif.g09.slc.cpg/sg2_216_cif.got.tgz:431227.got - 2010.06.27 13:26:56.
