data_PCOD8039560
_publ_section_title
;
Structure prediction by ZEFSAII (Michael W. Deem and Ramdas Pophale) SiO2 
 PCOD8039560
Probable space group: P -1
;
_chemical_formula_sum "Si O2"
_cell_formula_units_Z 16
_cell_length_a 11.804960
_cell_length_b 26.530707
_cell_length_c 5.519232
_cell_angle_alpha 67.973433
_cell_angle_beta 73.551573
_cell_angle_gamma 28.148274
_cell_volume 751.471948
_symmetry_space_group_name_H-M "P -1"
_symmetry_group_IT_number 2
_symmetry_cell_setting 'triclinic'
loop_
_space_group_symop_operation_xyz
x,y,z
-x,-y,-z
loop_
_atom_site_type_symbol
_atom_site_label
_atom_site_fract_x
_atom_site_fract_y
_atom_site_fract_z
Si Si1 0.688492 0.742255 0.137436
Si Si2 0.996498 0.328705 0.302200
Si Si3 0.614249 0.869654 0.240753
Si Si4 0.208062 0.103353 0.200651
Si Si5 0.775711 0.312599 0.349903
Si Si6 0.271442 0.717871 0.060291
Si Si7 0.615381 0.672294 0.027619
Si Si8 0.009344 0.561453 0.640843
O O1 0.537995 0.839795 0.241893
O O2 0.525954 0.760380 0.079714
O O3 0.922874 0.617962 0.332785
O O4 0.792028 0.743850 0.883194
O O5 0.124886 0.242262 0.591969
O O6 0.884585 0.430373 0.282128
O O7 0.786839 0.374209 0.238835
O O8 0.400257 0.977266 0.352413
O O9 0.647428 0.900100 0.951692
O O10 0.052266 0.177781 0.404125
O O11 0.019581 0.161196 0.997639
O O12 0.654602 0.339792 0.623360
O O13 0.633581 0.352324 0.115554
O O14 0.383715 0.733287 0.958642
O O15 0.777184 0.567526 0.287569
O O16 0.775327 0.628935 0.786556
#
# Coordination Sequence:
#
# PCOD8039560 Si02
#       8
#     2   2   2   2   2   2   2   2
#     4  10  19  33  59  84 113 147 191 248 289 336
#     4  10  18  34  56  85 119 146 188 245 292 337
#     4  10  18  34  56  89 116 151 194 242 283 340
#     4   9  20  33  58  85 120 153 195 233 288 345
#     4  10  20  38  57  83 122 156 188 232 292 349
#     4  10  22  38  59  84 119 162 189 235 290 353
#     4  10  21  39  59  82 109 155 195 244 290 346
#     4   9  21  37  60  85 109 142 203 246 292 338
#
# _framework density 21.291547999999999
#
# number of rings (size 3 to 8) (size 9 to 14) (size 15 to 20)
#    0.750    1.500    2.500    0.375    3.500    1.500 
#    0.000    1.875    0.000    7.500    0.000    0.000 
#    0.000    0.000    0.000    0.000    0.000    0.000 
#
# Total GULP energy -198217.848046 kJ/mol
# GULP energy per Si atom -12388.615503 kJ/mol
# Density = 2.124309 g / cm^3
# Si number density = 21.291548 Si / 1000 Ang^3
#
#
#
# Elastic Constant Matrix: (Units=GPa)
#
#
# Indices 1 2 3 4 5 6 
#
# 1 180.5411 23.5633 27.9780 8.9472 -4.3718 17.5991
# 2 23.5633 39.1637 7.9348 -1.0702 -8.4496 14.8193
# 3 27.9780 7.9348 71.2105 9.3111 1.0385 12.8110
# 4 8.9472 -1.0702 9.3111 21.5902 8.5418 -0.9455
# 5 -4.3718 -8.4496 1.0385 8.5418 22.8129 -0.7269
# 6 17.5991 14.8193 12.8110 -0.9455 -0.7269 27.7805
#
#
#
# Elastic Compliance Matrix: (Units=1/GPa)
#
#
# Indices 1 2 3 4 5 6 
#
# 1 0.006488 -0.002597 -0.001545 -0.002765 0.001321 -0.002072
# 2 -0.002597 0.036653 0.000408 -0.003529 0.013812 -0.017854
# 3 -0.001545 0.000408 0.016876 -0.007609 0.001706 -0.007236
# 4 -0.002765 -0.003529 -0.007609 0.060370 -0.023822 0.008575
# 5 0.001321 0.013812 0.001706 -0.023822 0.057781 -0.008290
# 6 -0.002072 -0.017854 -0.007236 0.008575 -0.008290 0.050245
#
#
# Mechanical properties :
#
#
# Convention : Reuss Voigt Hill
#
# Bulk Modulus (GPa) = 19.02947 45.54083 32.28515
# Shear Modulus (GPa) = 19.73181 29.86600 24.79890
#
# Velocity S-wave (km/s) = 3.04755 3.74935 3.41652
# Velocity P-wave (km/s) = 4.61956 6.33870 5.54615
#
# Compressibility (1/GPa) = 0.05255007
#
# Stress axis : x y z
#
# Youngs Moduli (GPa) = 154.12468 27.28277 59.25516
#
# Poissons Ratio (x) = 0.07086 0.09154
# Poissons Ratio (y) = 0.40031 -0.02420
# Poissons Ratio (z) = 0.23809 -0.01114
#
# Static dielectric constant tensor:
#      x y z
#    x 3.987530 0.311850 -0.006250 
#    y 0.311850 3.471060 0.066750 
#    z -0.006250 0.066750 3.633840 
# 
# 
# High freq. dielectric constant tensor:
#      x y z
#    x 1.843290 0.026910 -0.002270 
#    y 0.026910 1.791740 0.009360 
#    z -0.002270 0.009360 1.822320 
# 
# From -- ./inp_files/84783.got.cif
#   From: 2010.06.25/outbox.cif.g09.slc.cpg/sg2_43_cif.got.tgz:84783.got - 2010.06.27 13:26:56.
