data_PCOD8039926
_publ_section_title
;
Structure prediction by ZEFSAII (Michael W. Deem and Ramdas Pophale) SiO2 
 PCOD8039926
Probable space group: P -1
;
_chemical_formula_sum "Si O2"
_cell_formula_units_Z 16
_cell_length_a 9.335385
_cell_length_b 22.714466
_cell_length_c 10.970240
_cell_angle_alpha 35.412263
_cell_angle_beta 115.415789
_cell_angle_gamma 139.135537
_cell_volume 766.949049
_symmetry_space_group_name_H-M "P -1"
_symmetry_group_IT_number 2
_symmetry_cell_setting 'triclinic'
loop_
_space_group_symop_operation_xyz
x,y,z
-x,-y,-z
loop_
_atom_site_type_symbol
_atom_site_label
_atom_site_fract_x
_atom_site_fract_y
_atom_site_fract_z
Si Si1 0.855129 0.615824 0.237465
Si Si2 0.586939 0.713462 0.259890
Si Si3 0.030005 0.273593 0.641161
Si Si4 0.777931 0.229306 0.100522
Si Si5 0.466187 0.389324 0.029725
Si Si6 0.694193 0.395734 0.895830
Si Si7 0.890090 0.748812 0.668495
Si Si8 0.254004 0.990095 0.194197
O O1 0.674622 0.432634 0.517760
O O2 0.692092 0.620048 0.104399
O O3 0.991953 0.730056 0.214736
O O4 0.064495 0.672841 0.129971
O O5 0.532123 0.699073 0.121346
O O6 0.752741 0.696904 0.368483
O O7 0.715807 0.882034 0.067064
O O8 0.777605 0.103652 0.772784
O O9 0.091145 0.412356 0.368603
O O10 0.875132 0.178873 0.291315
O O11 0.489283 0.070029 0.225408
O O12 0.812865 0.343694 0.009083
O O13 0.569069 0.341950 0.075222
O O14 0.711072 0.568366 0.866768
O O15 0.282022 0.264250 0.285219
O O16 0.003214 0.865831 0.397970
#
# Coordination Sequence:
#
# PCOD8039926 Si02
#       8
#     2   2   2   2   2   2   2   2
#     4  10  19  38  61  86 111 143 195 231 282 324
#     4  10  19  33  60  87 112 145 184 240 279 330
#     4  11  19  34  62  84 117 144 182 242 277 338
#     4  10  24  37  57  83 117 155 183 232 276 336
#     4  10  18  36  65  85 102 143 198 239 271 322
#     4  10  18  35  58  90 107 142 193 227 289 323
#     4  10  21  38  60  81 115 147 191 237 273 326
#     4  11  22  36  54  86 120 153 182 217 298 337
#
# _framework density 20.861881
#
# number of rings (size 3 to 8) (size 9 to 14) (size 15 to 20)
#    0.000    1.750    3.750    1.500    0.000    5.500 
#    0.000    2.500    2.750    0.000    0.000    0.000 
#    0.000    0.000    0.000    0.000    0.000    0.000 
#
# Total GULP energy -198348.970843 kJ/mol
# GULP energy per Si atom -12396.810678 kJ/mol
# Density = 2.081440 g / cm^3
# Si number density = 20.861881 Si / 1000 Ang^3
#
#
#
# Elastic Constant Matrix: (Units=GPa)
#
#
# Indices 1 2 3 4 5 6 
#
# 1 91.3605 26.9341 31.2582 -3.6844 -19.3076 -29.6359
# 2 26.9341 79.1721 31.1310 -8.2089 -8.1091 -26.6648
# 3 31.2582 31.1310 85.6393 -8.8797 -11.0885 -14.5768
# 4 -3.6844 -8.2089 -8.8797 31.1632 -10.0079 -0.1090
# 5 -19.3076 -8.1091 -11.0885 -10.0079 31.5027 2.7487
# 6 -29.6359 -26.6648 -14.5768 -0.1090 2.7487 26.2601
#
#
#
# Elastic Compliance Matrix: (Units=1/GPa)
#
#
# Indices 1 2 3 4 5 6 
#
# 1 0.022778 0.004967 -0.002705 0.007949 0.014388 0.027775
# 2 0.004967 0.022803 -0.003841 0.008123 0.007888 0.025836
# 3 -0.002705 -0.003841 0.015203 0.004279 0.003969 0.001089
# 4 0.007949 0.008123 0.004279 0.043070 0.020614 0.017615
# 5 0.014388 0.007888 0.003969 0.020614 0.048667 0.021443
# 6 0.027775 0.025836 0.001089 0.017615 0.021443 0.094094
#
#
# Mechanical properties :
#
#
# Convention : Reuss Voigt Hill
#
# Bulk Modulus (GPa) = 17.35302 48.31318 32.83310
# Shear Modulus (GPa) = 18.58871 28.90844 23.74858
#
# Velocity S-wave (km/s) = 2.98826 3.72655 3.37764
# Velocity P-wave (km/s) = 4.49916 6.45949 5.56630
#
# Compressibility (1/GPa) = 0.05762685
#
# Stress axis : x y z
#
# Youngs Moduli (GPa) = 43.90234 43.85438 65.77521
#
# Poissons Ratio (x) = -0.21782 0.17789
# Poissons Ratio (y) = -0.21806 0.25263
# Poissons Ratio (z) = 0.11874 0.16844
#
# Static dielectric constant tensor:
#      x y z
#    x 3.768310 -0.225120 -0.164840 
#    y -0.225120 3.988570 -0.043270 
#    z -0.164840 -0.043270 3.651040 
# 
# 
# High freq. dielectric constant tensor:
#      x y z
#    x 1.800620 -0.007990 -0.012980 
#    y -0.007990 1.828580 -0.000380 
#    z -0.012980 -0.000380 1.796600 
# 
# From -- ./inp_files/177566.got.cif
#   From: 2010.06.25/outbox.cif.g09.slc.cpg/sg2_89_cif.got.tgz:177566.got - 2010.06.27 13:26:56.
