data_PCOD8039544
_publ_section_title
;
Structure prediction by ZEFSAII (Michael W. Deem and Ramdas Pophale) SiO2 
 PCOD8039544
Probable space group: P -1
;
_chemical_formula_sum "Si O2"
_cell_formula_units_Z 14
_cell_length_a 7.062512
_cell_length_b 9.984270
_cell_length_c 14.105280
_cell_angle_alpha 47.787243
_cell_angle_beta 95.353254
_cell_angle_gamma 113.606449
_cell_volume 651.994411
_symmetry_space_group_name_H-M "P -1"
_symmetry_group_IT_number 2
_symmetry_cell_setting 'triclinic'
loop_
_space_group_symop_operation_xyz
x,y,z
-x,-y,-z
loop_
_atom_site_type_symbol
_atom_site_label
_atom_site_fract_x
_atom_site_fract_y
_atom_site_fract_z
Si Si1 0.549136 0.869977 0.268670
Si Si2 0.092211 0.347145 0.790600
Si Si3 0.703681 0.171437 0.979556
Si Si4 0.174877 0.778013 0.554055
Si Si5 0.080057 0.735181 0.371722
Si Si6 0.648057 0.852910 0.487291
Si Si7 0.447353 0.557945 0.245004
O O1 0.322834 0.856650 0.290863
O O2 0.674744 0.852198 0.375303
O O3 0.505012 0.687943 0.281720
O O4 0.696254 0.094421 0.123215
O O5 0.044915 0.543352 0.692512
O O6 0.328950 0.405443 0.810480
O O7 0.919930 0.192091 0.930020
O O8 0.062086 0.247568 0.729927
O O9 0.681176 0.379162 0.868617
O O10 0.500000 0.000000 0.000000
O O11 0.066130 0.824543 0.432817
O O12 0.408037 0.807304 0.521595
O O13 0.184646 0.930251 0.565042
O O14 0.000000 0.500000 0.500000
O O15 0.695382 0.677831 0.620130
#
# Coordination Sequence:
#
# PCOD8039544 Si02
#       7
#     2   2   2   2   2   2   2
#     4  10  19  34  53  81 110 142 174 225 271 311
#     4  10  18  34  56  79 109 142 177 222 268 318
#     4  10  20  35  53  81 112 142 174 221 272 318
#     4   8  17  31  54  79 106 145 177 218 275 315
#     4   9  16  30  54  77 105 138 172 222 270 308
#     4   9  17  33  55  80 107 142 182 220 267 320
#     4  10  20  33  59  81 108 140 182 224 265 316
#
# _framework density 21.472576
#
# number of rings (size 3 to 8) (size 9 to 14) (size 15 to 20)
#    0.000    2.571    2.857    1.286    0.000    2.286 
#    0.000    1.429    0.000   13.714    0.000    0.000 
#    0.000    0.000    0.000    0.000    0.000    0.000 
#
# Total GULP energy -173476.525396 kJ/mol
# GULP energy per Si atom -12391.180385 kJ/mol
# Density = 2.142370 g / cm^3
# Si number density = 21.472576 Si / 1000 Ang^3
#
#
#
# Elastic Constant Matrix: (Units=GPa)
#
#
# Indices 1 2 3 4 5 6 
#
# 1 17.5649 -14.5889 10.8941 -0.5712 2.4845 1.0709
# 2 -14.5889 88.3793 27.4267 -2.1659 3.0037 0.3150
# 3 10.8941 27.4267 124.8303 -2.9470 -7.7459 0.3172
# 4 -0.5712 -2.1659 -2.9470 15.2994 -3.9855 1.9868
# 5 2.4845 3.0037 -7.7459 -3.9855 32.1257 -7.1046
# 6 1.0709 0.3150 0.3172 1.9868 -7.1046 18.1116
#
#
#
# Elastic Compliance Matrix: (Units=1/GPa)
#
#
# Indices 1 2 3 4 5 6 
#
# 1 0.081198 0.017529 -0.011677 0.001234 -0.012806 -0.010060
# 2 0.017529 0.016056 -0.005316 0.001091 -0.004708 -0.003189
# 3 -0.011677 -0.005316 0.010522 0.001760 0.004648 0.002229
# 4 0.001234 0.001091 0.001760 0.068508 0.007705 -0.004616
# 5 -0.012806 -0.004708 0.004648 0.007705 0.037904 0.014781
# 6 -0.010060 -0.003189 0.002229 -0.004616 0.014781 0.062129
#
#
# Mechanical properties :
#
#
# Convention : Reuss Voigt Hill
#
# Bulk Modulus (GPa) = 9.18719 30.91537 20.05128
# Shear Modulus (GPa) = 16.04987 26.91016 21.48002
#
# Velocity S-wave (km/s) = 2.73694 3.54394 3.16626
# Velocity P-wave (km/s) = 3.77831 5.58345 4.76710
#
# Compressibility (1/GPa) = 0.10884723
#
# Stress axis : x y z
#
# Youngs Moduli (GPa) = 12.31558 62.28156 95.03677
#
# Poissons Ratio (x) = -1.09171 1.10979
# Poissons Ratio (y) = -0.21588 0.50519
# Poissons Ratio (z) = 0.14381 0.33107
#
# Static dielectric constant tensor:
#      x y z
#    x 3.799340 0.087400 0.087510 
#    y 0.087400 3.828960 0.008370 
#    z 0.087510 0.008370 4.578830 
# 
# 
# High freq. dielectric constant tensor:
#      x y z
#    x 1.842160 0.004290 -0.012740 
#    y 0.004290 1.799630 -0.004880 
#    z -0.012740 -0.004880 1.844700 
# 
# From -- ./inp_files/178832.got.cif
#   From: 2010.06.25/outbox.cif.g09.slc.cpg/sg2_90_cif.got.tgz:178832.got - 2010.06.27 13:26:56.
