data_PCOD8039535
_publ_section_title
;
Structure prediction by ZEFSAII (Michael W. Deem and Ramdas Pophale) SiO2 
 PCOD8039535
Probable space group: P -1
;
_chemical_formula_sum "Si O2"
_cell_formula_units_Z 14
_cell_length_a 4.953649
_cell_length_b 12.995351
_cell_length_c 16.421708
_cell_angle_alpha 49.931710
_cell_angle_beta 114.647942
_cell_angle_gamma 94.727923
_cell_volume 708.508062
_symmetry_space_group_name_H-M "P -1"
_symmetry_group_IT_number 2
_symmetry_cell_setting 'triclinic'
loop_
_space_group_symop_operation_xyz
x,y,z
-x,-y,-z
loop_
_atom_site_type_symbol
_atom_site_label
_atom_site_fract_x
_atom_site_fract_y
_atom_site_fract_z
Si Si1 0.642232 0.548811 0.414627
Si Si2 0.765705 0.458996 0.163184
Si Si3 0.158185 0.841634 0.434234
Si Si4 0.542069 0.594806 0.691033
Si Si5 0.479364 0.823456 0.330163
Si Si6 0.145050 0.093165 0.210527
Si Si7 0.454815 0.724224 0.897241
O O1 0.500000 0.500000 0.500000
O O2 0.552033 0.499583 0.341863
O O3 0.526078 0.720210 0.311601
O O4 0.000000 0.500000 0.500000
O O5 0.511726 0.463506 0.197965
O O6 0.747388 0.349593 0.146473
O O7 0.100070 0.413854 0.268913
O O8 0.702856 0.612937 0.038340
O O9 0.336941 0.756525 0.577219
O O10 0.330731 0.753784 0.421659
O O11 0.801660 0.846377 0.389979
O O12 0.199693 0.999737 0.349323
O O13 0.241308 0.978628 0.206543
O O14 0.361624 0.196915 0.179055
O O15 0.783801 0.174864 0.121962
#
# Coordination Sequence:
#
# PCOD8039535 Si02
#       7
#     2   2   2   2   2   2   2
#     4  12  20  34  60  90 123 167 185 228 290 368
#     4  11  26  40  61  88 112 161 198 265 285 345
#     4  10  19  34  58  88 123 150 186 233 296 356
#     4  12  22  39  59  91 133 144 194 248 301 344
#     4  10  18  34  55  93 115 152 198 218 291 353
#     4  10  19  37  66  86 110 158 200 248 281 364
#     4  11  22  44  64  80 112 156 222 236 304 340
#
# _framework density 19.759830000000001
#
# number of rings (size 3 to 8) (size 9 to 14) (size 15 to 20)
#    0.857    0.286    4.286    3.429    0.000    2.286 
#    0.000    4.286    0.000    5.143    0.000    0.000 
#    0.000    0.000    0.000    0.000    0.000    0.000 
#
# Total GULP energy -173443.146230 kJ/mol
# GULP energy per Si atom -12388.796159 kJ/mol
# Density = 1.971486 g / cm^3
# Si number density = 19.759830 Si / 1000 Ang^3
#
#
#
# Elastic Constant Matrix: (Units=GPa)
#
#
# Indices 1 2 3 4 5 6 
#
# 1 110.2357 11.4778 20.8012 -8.0531 6.9753 -4.1734
# 2 11.4778 42.3712 30.2607 -21.1929 -6.7230 -4.1746
# 3 20.8012 30.2607 77.4455 -18.3318 -3.5148 5.1062
# 4 -8.0531 -21.1929 -18.3318 24.4924 -2.5069 2.7669
# 5 6.9753 -6.7230 -3.5148 -2.5069 28.1887 -2.2097
# 6 -4.1734 -4.1746 5.1062 2.7669 -2.2097 25.9775
#
#
#
# Elastic Compliance Matrix: (Units=1/GPa)
#
#
# Indices 1 2 3 4 5 6 
#
# 1 0.009904 -0.001394 -0.002415 -0.000245 -0.002980 0.001614
# 2 -0.001394 0.055558 -0.011775 0.039543 0.016286 0.008192
# 3 -0.002415 -0.011775 0.019668 0.004498 0.000123 -0.006615
# 4 -0.000245 0.039543 0.004498 0.080266 0.017060 -0.001667
# 5 -0.002980 0.016286 0.000123 0.017060 0.041932 0.003864
# 6 0.001614 0.008192 -0.006615 -0.001667 0.003864 0.041877
#
#
# Mechanical properties :
#
#
# Convention : Reuss Voigt Hill
#
# Bulk Modulus (GPa) = 18.53162 39.45909 28.99535
# Shear Modulus (GPa) = 16.75823 26.89926 21.82874
#
# Velocity S-wave (km/s) = 2.91537 3.69360 3.32731
# Velocity P-wave (km/s) = 4.55316 6.18085 5.42836
#
# Compressibility (1/GPa) = 0.05396181
#
# Stress axis : x y z
#
# Youngs Moduli (GPa) = 100.96806 17.99933 50.84334
#
# Poissons Ratio (x) = 0.02510 0.12278
# Poissons Ratio (y) = 0.14080 0.59866
# Poissons Ratio (z) = 0.24383 0.21194
#
# Static dielectric constant tensor:
#      x y z
#    x 3.762210 -0.121360 0.053700 
#    y -0.121360 3.666530 -0.477050 
#    z 0.053700 -0.477050 3.510380 
# 
# 
# High freq. dielectric constant tensor:
#      x y z
#    x 1.797860 -0.003990 0.003340 
#    y -0.003990 1.750770 -0.040580 
#    z 0.003340 -0.040580 1.744020 
# 
# From -- ./inp_files/509298.got.cif
#   From: 2010.06.25/outbox.cif.g09.slc.cpg/sg2_255_cif.got.tgz:509298.got - 2010.06.27 13:26:56.
