data_PCOD8039701
_publ_section_title
;
Structure prediction by ZEFSAII (Michael W. Deem and Ramdas Pophale) SiO2 
 PCOD8039701
Probable space group: P -1
;
_chemical_formula_sum "Si O2"
_cell_formula_units_Z 16
_cell_length_a 11.567390
_cell_length_b 11.715602
_cell_length_c 17.741390
_cell_angle_alpha 68.942685
_cell_angle_beta 148.275020
_cell_angle_gamma 131.367775
_cell_volume 813.894109
_symmetry_space_group_name_H-M "P -1"
_symmetry_group_IT_number 2
_symmetry_cell_setting 'triclinic'
loop_
_space_group_symop_operation_xyz
x,y,z
-x,-y,-z
loop_
_atom_site_type_symbol
_atom_site_label
_atom_site_fract_x
_atom_site_fract_y
_atom_site_fract_z
Si Si1 0.323550 0.711725 0.920233
Si Si2 0.700742 0.637478 0.144746
Si Si3 0.907414 0.418251 0.640078
Si Si4 0.327774 0.385322 0.697036
Si Si5 0.369567 0.267304 0.282017
Si Si6 0.703079 0.259324 0.334362
Si Si7 0.292835 0.689947 0.081822
Si Si8 0.349170 0.986045 0.074443
O O1 0.023997 0.522806 0.758951
O O2 0.397152 0.870528 0.883103
O O3 0.654100 0.765118 0.082246
O O4 0.223159 0.692406 0.954958
O O5 0.572213 0.547568 0.177092
O O6 0.046440 0.712118 0.306599
O O7 0.500000 0.500000 0.000000
O O8 0.535226 0.295426 0.446806
O O9 0.117526 0.562574 0.654840
O O10 0.557659 0.560574 0.731825
O O11 0.395531 0.269829 0.744309
O O12 0.957448 0.263411 0.505462
O O13 0.518007 0.245003 0.303888
O O14 0.994085 0.099986 0.119435
O O15 0.444171 0.083484 0.183275
O O16 0.355732 0.842877 0.122326
O O17 0.000000 0.500000 0.000000
#
# Coordination Sequence:
#
# PCOD8039701 Si02
#       8
#     2   2   2   2   2   2   2   2
#     4   9  21  36  58  82 112 150 187 229 288 331
#     4   9  15  29  55  81 108 144 189 217 273 334
#     4   9  16  32  57  85 111 151 184 225 276 341
#     4  10  18  34  60  84 108 149 195 232 270 331
#     4  11  18  33  59  87 119 141 188 232 278 336
#     4  10  19  33  57  87 119 147 184 230 285 335
#     4  11  22  40  63  80 109 148 202 235 268 337
#     4  11  23  37  55  85 120 152 180 234 289 326
#
# _framework density 19.658577999999999
#
# number of rings (size 3 to 8) (size 9 to 14) (size 15 to 20)
#    0.000    2.000    3.750    1.500    0.000    0.500 
#    0.000    1.250    8.250    0.000    0.000    0.000 
#    0.000    0.000    0.000    0.000    0.000    0.000 
#
# Total GULP energy -198257.708262 kJ/mol
# GULP energy per Si atom -12391.106766 kJ/mol
# Density = 1.961383 g / cm^3
# Si number density = 19.658578 Si / 1000 Ang^3
#
#
#
# Elastic Constant Matrix: (Units=GPa)
#
#
# Indices 1 2 3 4 5 6 
#
# 1 47.1976 17.8785 25.0947 4.7911 -0.6097 -8.8576
# 2 17.8785 75.4348 25.9412 -0.6550 -0.6324 -15.7518
# 3 25.0947 25.9412 120.1457 -3.8194 -4.7268 -13.9470
# 4 4.7911 -0.6550 -3.8194 26.0187 -1.8396 0.8835
# 5 -0.6097 -0.6324 -4.7268 -1.8396 23.8561 -4.4110
# 6 -8.8576 -15.7518 -13.9470 0.8835 -4.4110 26.7627
#
#
#
# Elastic Compliance Matrix: (Units=1/GPa)
#
#
# Indices 1 2 3 4 5 6 
#
# 1 0.026374 -0.003894 -0.004339 -0.005735 0.000079 0.004378
# 2 -0.003894 0.016403 -0.001758 0.000715 0.001460 0.007666
# 3 -0.004339 -0.001758 0.010155 0.002323 0.002621 0.003176
# 4 -0.005735 0.000715 0.002323 0.040113 0.003230 -0.001059
# 5 0.000079 0.001460 0.002621 0.003230 0.044479 0.009475
# 6 0.004378 0.007666 0.003176 -0.001059 0.009475 0.046579
#
#
# Mechanical properties :
#
#
# Convention : Reuss Voigt Hill
#
# Bulk Modulus (GPa) = 30.34859 42.28967 36.31913
# Shear Modulus (GPa) = 23.24833 26.91839 25.08336
#
# Velocity S-wave (km/s) = 3.44263 3.70441 3.57592
# Velocity P-wave (km/s) = 5.59228 6.31313 5.96361
#
# Compressibility (1/GPa) = 0.03295046
#
# Stress axis : x y z
#
# Youngs Moduli (GPa) = 37.91567 60.96343 98.47502
#
# Poissons Ratio (x) = 0.23737 0.42729
# Poissons Ratio (y) = 0.14763 0.17315
# Poissons Ratio (z) = 0.16452 0.10720
#
# Static dielectric constant tensor:
#      x y z
#    x 3.480790 -0.288780 -0.064620 
#    y -0.288780 3.740670 -0.436620 
#    z -0.064620 -0.436620 3.932670 
# 
# 
# High freq. dielectric constant tensor:
#      x y z
#    x 1.752860 -0.017600 -0.011280 
#    y -0.017600 1.748450 -0.028730 
#    z -0.011280 -0.028730 1.767620 
# 
# From -- ./inp_files/176146.got.cif
#   From: 2010.06.25/outbox.cif.g09.slc.cpg/sg2_89_cif.got.tgz:176146.got - 2010.06.27 13:26:56.
