data_PCOD8039150
_publ_section_title
;
Structure prediction by ZEFSAII (Michael W. Deem and Ramdas Pophale) SiO2 
 PCOD8039150
Probable space group: P -1
;
_chemical_formula_sum "Si O2"
_cell_formula_units_Z 16
_cell_length_a 9.021950
_cell_length_b 18.300798
_cell_length_c 7.786563
_cell_angle_alpha 99.015939
_cell_angle_beta 53.867436
_cell_angle_gamma 131.684716
_cell_volume 713.942899
_symmetry_space_group_name_H-M "P -1"
_symmetry_group_IT_number 2
_symmetry_cell_setting 'triclinic'
loop_
_space_group_symop_operation_xyz
x,y,z
-x,-y,-z
loop_
_atom_site_type_symbol
_atom_site_label
_atom_site_fract_x
_atom_site_fract_y
_atom_site_fract_z
Si Si1 0.507304 0.178409 0.060636
Si Si2 0.919679 0.637382 0.179491
Si Si3 0.503586 0.079062 0.724191
Si Si4 0.539384 0.100784 0.330721
Si Si5 0.986171 0.427746 0.243664
Si Si6 0.440299 0.584403 0.525794
Si Si7 0.005828 0.724775 0.699385
Si Si8 0.497377 0.347088 0.105950
O O1 0.376045 0.095501 0.960952
O O2 0.821552 0.254340 0.868785
O O3 0.400829 0.114294 0.291363
O O4 0.432906 0.241840 0.117044
O O5 0.713611 0.642533 0.261635
O O6 0.757946 0.542747 0.396095
O O7 0.009892 0.606250 0.960544
O O8 0.383323 0.058610 0.605948
O O9 0.816959 0.188189 0.540319
O O10 0.459010 0.981787 0.774797
O O11 0.844642 0.215696 0.196918
O O12 0.015373 0.370693 0.342199
O O13 0.705562 0.387329 0.450132
O O14 0.223026 0.555711 0.141899
O O15 0.514928 0.622820 0.685913
O O16 0.718803 0.676909 0.875571
#
# Coordination Sequence:
#
# PCOD8039150 Si02
#       8
#     2   2   2   2   2   2   2   2
#     4  12  19  38  65  90 119 166 206 248 317 373
#     4  10  18  32  58  86 116 164 207 244 300 363
#     4   9  21  39  65  87 115 154 218 257 311 370
#     4   9  20  41  65  83 119 159 203 268 317 354
#     4  11  19  39  56  87 129 171 201 253 304 364
#     4  10  19  33  56  83 124 163 209 247 294 361
#     4  10  20  39  58  83 125 162 199 257 309 354
#     4  11  21  34  56  90 127 163 204 253 302 368
#
# _framework density 22.410757
#
# number of rings (size 3 to 8) (size 9 to 14) (size 15 to 20)
#    0.750    1.000    3.750    2.250    0.000    0.000 
#    2.250    1.875    0.000    0.000    0.000    0.000 
#    0.000    0.000    0.000    0.000    0.000    0.000 
#
# Total GULP energy -198274.808694 kJ/mol
# GULP energy per Si atom -12392.175543 kJ/mol
# Density = 2.235975 g / cm^3
# Si number density = 22.410757 Si / 1000 Ang^3
#
#
#
# Elastic Constant Matrix: (Units=GPa)
#
#
# Indices 1 2 3 4 5 6 
#
# 1 117.1117 36.0638 28.3034 14.7137 -14.5300 -30.9631
# 2 36.0638 93.7278 10.4137 16.9424 14.2163 -35.0437
# 3 28.3034 10.4137 38.6422 16.4711 -10.9351 -7.4273
# 4 14.7137 16.9424 16.4711 28.9321 -0.5329 0.7019
# 5 -14.5300 14.2163 -10.9351 -0.5329 35.7634 10.0534
# 6 -30.9631 -35.0437 -7.4273 0.7019 10.0534 35.4844
#
#
#
# Elastic Compliance Matrix: (Units=1/GPa)
#
#
# Indices 1 2 3 4 5 6 
#
# 1 0.013202 -0.000223 -0.006061 -0.003359 0.000772 0.009879
# 2 -0.000223 0.033383 0.001113 -0.021505 -0.024707 0.040433
# 3 -0.006061 0.001113 0.042202 -0.021491 0.008968 0.002528
# 4 -0.003359 -0.021505 -0.021491 0.062098 0.010802 -0.032956
# 5 0.000772 -0.024707 0.008968 0.010802 0.051286 -0.036594
# 6 0.009879 0.040433 0.002528 -0.032956 -0.036594 0.088281
#
#
# Mechanical properties :
#
#
# Convention : Reuss Voigt Hill
#
# Bulk Modulus (GPa) = 12.74764 44.33817 28.54291
# Shear Modulus (GPa) = 15.29320 31.68269 23.48794
#
# Velocity S-wave (km/s) = 2.61512 3.76403 3.24090
# Velocity P-wave (km/s) = 3.84955 6.22237 5.17382
#
# Compressibility (1/GPa) = 0.07844589
#
# Stress axis : x y z
#
# Youngs Moduli (GPa) = 75.74714 29.95509 23.69552
#
# Poissons Ratio (x) = 0.00667 0.14362
# Poissons Ratio (y) = 0.01687 -0.02637
# Poissons Ratio (z) = 0.45909 -0.03334
#
# Static dielectric constant tensor:
#      x y z
#    x 3.837950 -0.075930 0.017220 
#    y -0.075930 4.087890 -0.040630 
#    z 0.017220 -0.040630 3.733990 
# 
# 
# High freq. dielectric constant tensor:
#      x y z
#    x 1.866990 -0.011930 0.009900 
#    y -0.011930 1.887790 0.007300 
#    z 0.009900 0.007300 1.850950 
# 
# From -- ./inp_files/214956.got.cif
#   From: 2010.06.25/outbox.cif.g09.slc.cpg/sg2_108_cif.got.tgz:214956.got - 2010.06.27 13:26:56.
