data_PCOD8039710
_publ_section_title
;
Structure prediction by ZEFSAII (Michael W. Deem and Ramdas Pophale) SiO2 
 PCOD8039710
Probable space group: P -1
;
_chemical_formula_sum "Si O2"
_cell_formula_units_Z 16
_cell_length_a 12.325807
_cell_length_b 15.912050
_cell_length_c 11.776313
_cell_angle_alpha 88.931390
_cell_angle_beta 108.579839
_cell_angle_gamma 153.387719
_cell_volume 763.993241
_symmetry_space_group_name_H-M "P -1"
_symmetry_group_IT_number 2
_symmetry_cell_setting 'triclinic'
loop_
_space_group_symop_operation_xyz
x,y,z
-x,-y,-z
loop_
_atom_site_type_symbol
_atom_site_label
_atom_site_fract_x
_atom_site_fract_y
_atom_site_fract_z
Si Si1 0.750961 0.577386 0.872474
Si Si2 0.336483 0.662884 0.119993
Si Si3 0.741604 0.010751 0.784618
Si Si4 0.148257 0.654197 0.223107
Si Si5 0.705156 0.424893 0.261097
Si Si6 0.326654 0.414787 0.832557
Si Si7 0.731479 0.170065 0.385910
Si Si8 0.720183 0.085603 0.142357
O O1 0.533169 0.343152 0.830283
O O2 0.484256 0.469895 0.780140
O O3 0.942480 0.702464 0.814954
O O4 0.020863 0.776608 0.055950
O O5 0.275470 0.648076 0.233088
O O6 0.554809 0.880247 0.116840
O O7 0.987312 0.410499 0.944820
O O8 0.934433 0.131487 0.725998
O O9 0.636285 0.847942 0.801806
O O10 0.401844 0.826591 0.657327
O O11 0.872133 0.470502 0.232193
O O12 0.447842 0.918670 0.355526
O O13 0.603839 0.438680 0.160196
O O14 0.939688 0.610614 0.438055
O O15 0.500000 0.500000 0.000000
O O16 0.816254 0.196083 0.288632
O O17 0.500000 0.000000 0.000000
#
# Coordination Sequence:
#
# PCOD8039710 Si02
#       8
#     2   2   2   2   2   2   2   2
#     4  11  21  39  63  88 124 159 202 254 299 357
#     4  10  20  34  59  91 120 156 197 251 304 354
#     4  11  22  39  61  94 124 156 208 250 305 372
#     4  10  18  34  60  87 122 155 191 248 315 353
#     4  12  24  39  62  91 126 167 197 254 314 356
#     4  10  24  42  61  86 122 165 211 248 293 364
#     4  11  22  39  59  96 129 154 199 257 313 367
#     4  11  21  37  63  93 123 154 202 256 306 360
#
# _framework density 20.942592000000001
#
# number of rings (size 3 to 8) (size 9 to 14) (size 15 to 20)
#    0.000    1.250    3.750    3.750    1.750    3.000 
#    0.000    0.625    0.000    3.750    0.000    0.000 
#    0.000    0.000    0.000    0.000    0.000    0.000 
#
# Total GULP energy -198271.365878 kJ/mol
# GULP energy per Si atom -12391.960367 kJ/mol
# Density = 2.089493 g / cm^3
# Si number density = 20.942592 Si / 1000 Ang^3
#
#
#
# Elastic Constant Matrix: (Units=GPa)
#
#
# Indices 1 2 3 4 5 6 
#
# 1 122.4090 76.3642 30.9543 3.7741 2.8979 6.7504
# 2 76.3642 143.3154 12.8306 2.7328 8.4656 -12.0955
# 3 30.9543 12.8306 58.6735 -4.0679 -6.7798 -7.5498
# 4 3.7741 2.7328 -4.0679 11.5254 -3.1735 -0.7666
# 5 2.8979 8.4656 -6.7798 -3.1735 22.9236 -1.6745
# 6 6.7504 -12.0955 -7.5498 -0.7666 -1.6745 43.7739
#
#
#
# Elastic Compliance Matrix: (Units=1/GPa)
#
#
# Indices 1 2 3 4 5 6 
#
# 1 0.015868 -0.007920 -0.008326 -0.007516 -0.003046 -0.006319
# 2 -0.007920 0.011543 0.002007 0.000244 -0.002293 0.004674
# 3 -0.008326 0.002007 0.023933 0.013830 0.009785 0.006583
# 4 -0.007516 0.000244 0.013830 0.099742 0.019203 0.006093
# 5 -0.003046 -0.002293 0.009785 0.019203 0.050685 0.003799
# 6 -0.006319 0.004674 0.006583 0.006093 0.003799 0.026498
#
#
# Mechanical properties :
#
#
# Convention : Reuss Voigt Hill
#
# Bulk Modulus (GPa) = 43.72860 62.74403 53.23632
# Shear Modulus (GPa) = 18.91311 29.26117 24.08714
#
# Velocity S-wave (km/s) = 3.00841 3.74198 3.39507
# Velocity P-wave (km/s) = 5.74395 6.97818 6.39093
#
# Compressibility (1/GPa) = 0.02286833
#
# Stress axis : x y z
#
# Youngs Moduli (GPa) = 63.02145 86.63243 41.78269
#
# Poissons Ratio (x) = 0.68610 0.34786
# Poissons Ratio (y) = 0.49911 -0.08387
# Poissons Ratio (z) = 0.52469 -0.17390
#
# Static dielectric constant tensor:
#      x y z
#    x 4.502560 0.232220 0.007820 
#    y 0.232220 3.987330 0.005890 
#    z 0.007820 0.005890 3.327820 
# 
# 
# High freq. dielectric constant tensor:
#      x y z
#    x 1.831490 -0.001570 -0.011730 
#    y -0.001570 1.827920 -0.004680 
#    z -0.011730 -0.004680 1.769400 
# 
# From -- ./inp_files/433963.got.cif
#   From: 2010.06.25/outbox.cif.g09.slc.cpg/sg2_217_cif.got.tgz:433963.got - 2010.06.27 13:26:56.
