data_PCOD8039114
_publ_section_title
;
Structure prediction by ZEFSAII (Michael W. Deem and Ramdas Pophale) SiO2 
 PCOD8039114
Probable space group: P -1
;
_chemical_formula_sum "Si O2"
_cell_formula_units_Z 12
_cell_length_a 14.930224
_cell_length_b 10.181118
_cell_length_c 9.302553
_cell_angle_alpha 76.059339
_cell_angle_beta 38.288445
_cell_angle_gamma 51.630372
_cell_volume 592.106618
_symmetry_space_group_name_H-M "P -1"
_symmetry_group_IT_number 2
_symmetry_cell_setting 'triclinic'
loop_
_space_group_symop_operation_xyz
x,y,z
-x,-y,-z
loop_
_atom_site_type_symbol
_atom_site_label
_atom_site_fract_x
_atom_site_fract_y
_atom_site_fract_z
Si Si1 0.127982 0.475792 0.472676
Si Si2 0.750946 0.893295 0.873365
Si Si3 0.654850 0.017931 0.274945
Si Si4 0.454967 0.376147 0.620110
Si Si5 0.983492 0.625975 0.105640
Si Si6 0.495741 0.200667 0.890942
O O1 0.000000 0.500000 0.500000
O O2 0.997337 0.695074 0.630703
O O3 0.150084 0.348356 0.602770
O O4 0.354215 0.359112 0.155664
O O5 0.706848 0.010883 0.754358
O O6 0.616285 0.846232 0.041558
O O7 0.688981 0.015544 0.062684
O O8 0.561114 0.219027 0.401263
O O9 0.500000 0.000000 0.500000
O O10 0.869134 0.835809 0.133772
O O11 0.500000 0.500000 0.500000
O O12 0.552510 0.273245 0.680101
O O13 0.209768 0.516250 0.902700
O O14 0.000000 0.500000 0.000000
#
# Coordination Sequence:
#
# PCOD8039114 Si02
#       6
#     2   2   2   2   2   2
#     4  10  18  32  56  97 120 144 204 265 297 346
#     4  10  19  33  60  96 112 154 208 265 293 349
#     4  12  21  38  66  94 122 159 217 261 298 364
#     4  12  27  43  59  93 135 167 200 252 323 379
#     4  12  21  38  67  96 121 160 212 260 302 359
#     4  10  20  35  60  90 124 158 201 258 312 351
#
# _framework density 20.266621000000001
#
# number of rings (size 3 to 8) (size 9 to 14) (size 15 to 20)
#    0.000    1.000    8.333    1.000    4.667    0.667 
#    0.000    0.833    0.000    2.000    0.000    0.000 
#    0.000    0.000    0.000    0.000    0.000    0.000 
#
# Total GULP energy -148780.205792 kJ/mol
# GULP energy per Si atom -12398.350483 kJ/mol
# Density = 2.022049 g / cm^3
# Si number density = 20.266621 Si / 1000 Ang^3
#
#
#
# Elastic Constant Matrix: (Units=GPa)
#
#
# Indices 1 2 3 4 5 6 
#
# 1 60.6031 46.9201 33.3795 -7.3571 24.7712 -7.4176
# 2 46.9201 135.9374 44.8809 -5.6887 11.6079 -5.6235
# 3 33.3795 44.8809 80.2169 0.3876 30.5540 8.0056
# 4 -7.3571 -5.6887 0.3876 40.4305 -6.4480 7.3444
# 5 24.7712 11.6079 30.5540 -6.4480 34.0946 2.8271
# 6 -7.4176 -5.6235 8.0056 7.3444 2.8271 38.1875
#
#
#
# Elastic Compliance Matrix: (Units=1/GPa)
#
#
# Indices 1 2 3 4 5 6 
#
# 1 0.033662 -0.008906 -0.002092 0.000409 -0.020059 0.007072
# 2 -0.008906 0.011799 -0.006011 0.001305 0.008052 0.000421
# 3 -0.002092 -0.006011 0.024159 -0.003613 -0.018410 -0.004298
# 4 0.000409 0.001305 -0.003613 0.027178 0.008034 -0.004793
# 5 -0.020059 0.008052 -0.018410 0.008034 0.059579 -0.004807
# 6 0.007072 0.000421 -0.004298 -0.004793 -0.004807 0.029801
#
#
# Mechanical properties :
#
#
# Convention : Reuss Voigt Hill
#
# Bulk Modulus (GPa) = 28.08768 58.56871 43.32820
# Shear Modulus (GPa) = 21.54576 32.64764 27.09670
#
# Velocity S-wave (km/s) = 3.26408 4.01796 3.66048
# Velocity P-wave (km/s) = 5.30045 7.10544 6.26825
#
# Compressibility (1/GPa) = 0.03560279
#
# Stress axis : x y z
#
# Youngs Moduli (GPa) = 29.70670 84.75131 41.39301
#
# Poissons Ratio (x) = 0.75476 0.08660
# Poissons Ratio (y) = 0.26456 0.24881
# Poissons Ratio (z) = 0.06215 0.50944
#
# Static dielectric constant tensor:
#      x y z
#    x 3.500560 -0.334260 0.271020 
#    y -0.334260 4.078480 0.564170 
#    z 0.271020 0.564170 3.844930 
# 
# 
# High freq. dielectric constant tensor:
#      x y z
#    x 1.767940 -0.040320 0.040020 
#    y -0.040320 1.788080 0.028840 
#    z 0.040020 0.028840 1.782340 
# 
# From -- ./inp_files/151940.got.cif
#   From: 2010.06.25/outbox.cif.g09.slc.cpg/sg2_76_cif.got.tgz:151940.got - 2010.06.27 13:26:56.
