data_PCOD8039054
_publ_section_title
;
Structure prediction by ZEFSAII (Michael W. Deem and Ramdas Pophale) SiO2 
 PCOD8039054
Probable space group: P -1
;
_chemical_formula_sum "Si O2"
_cell_formula_units_Z 16
_cell_length_a 9.078495
_cell_length_b 12.557233
_cell_length_c 10.832996
_cell_angle_alpha 127.795076
_cell_angle_beta 122.254141
_cell_angle_gamma 73.401649
_cell_volume 823.708590
_symmetry_space_group_name_H-M "P -1"
_symmetry_group_IT_number 2
_symmetry_cell_setting 'triclinic'
loop_
_space_group_symop_operation_xyz
x,y,z
-x,-y,-z
loop_
_atom_site_type_symbol
_atom_site_label
_atom_site_fract_x
_atom_site_fract_y
_atom_site_fract_z
Si Si1 0.035755 0.712405 0.395886
Si Si2 0.978126 0.184756 0.811214
Si Si3 0.558220 0.117794 0.948682
Si Si4 0.127761 0.457103 0.133027
Si Si5 0.770541 0.044182 0.219947
Si Si6 0.332886 0.358073 0.747061
Si Si7 0.594640 0.130218 0.692658
Si Si8 0.460343 0.413854 0.111228
O O1 0.986098 0.773484 0.284780
O O2 0.107862 0.562022 0.311099
O O3 0.180478 0.809974 0.596302
O O4 0.864539 0.703170 0.400099
O O5 0.772979 0.168201 0.729128
O O6 0.061104 0.043482 0.774310
O O7 0.066969 0.300529 0.024370
O O8 0.699808 0.060388 0.061876
O O9 0.525059 0.270653 0.079848
O O10 0.633714 0.108215 0.838464
O O11 0.375686 0.029679 0.811216
O O12 0.331073 0.467978 0.194487
O O13 0.000000 0.500000 0.000000
O O14 0.470474 0.250127 0.700427
O O15 0.370688 0.482594 0.757903
O O16 0.351260 0.407770 0.931303
O O17 0.500000 0.000000 0.500000
#
# Coordination Sequence:
#
# PCOD8039054 Si02
#       8
#     2   2   2   2   2   2   2   2
#     4  11  21  34  60  92 116 143 197 241 288 337
#     4  11  20  35  61  86 118 147 191 241 288 339
#     4  10  23  40  60  79 114 160 196 228 292 352
#     4  10  18  32  54  88 112 142 185 239 285 333
#     4  11  22  41  60  80 115 160 195 236 284 348
#     4  10  19  32  58  85 116 147 181 241 290 339
#     4  11  22  36  59  90 116 145 191 244 293 338
#     4  10  18  35  55  82 115 150 191 229 292 342
#
# _framework density 19.424343
#
# number of rings (size 3 to 8) (size 9 to 14) (size 15 to 20)
#    0.000    1.500    3.750    4.125    3.500    0.500 
#    0.000    1.250    2.750    0.000    0.000    0.000 
#    0.000    0.000    0.000    0.000    0.000    0.000 
#
# Total GULP energy -198425.820518 kJ/mol
# GULP energy per Si atom -12401.613782 kJ/mol
# Density = 1.938013 g / cm^3
# Si number density = 19.424343 Si / 1000 Ang^3
#
#
#
# Elastic Constant Matrix: (Units=GPa)
#
#
# Indices 1 2 3 4 5 6 
#
# 1 130.6192 32.3746 46.6397 16.1496 21.8587 -4.9347
# 2 32.3746 48.5901 32.8268 14.7194 7.1607 2.1251
# 3 46.6397 32.8268 102.4121 31.8382 5.9856 -2.0360
# 4 16.1496 14.7194 31.8382 26.9817 3.7490 3.5690
# 5 21.8587 7.1607 5.9856 3.7490 27.7685 13.9992
# 6 -4.9347 2.1251 -2.0360 3.5690 13.9992 25.1103
#
#
#
# Elastic Compliance Matrix: (Units=1/GPa)
#
#
# Indices 1 2 3 4 5 6 
#
# 1 0.012504 -0.004551 -0.002966 -0.001024 -0.012904 0.009942
# 2 -0.004551 0.029419 -0.005298 -0.006648 -0.000721 -0.002467
# 3 -0.002966 -0.005298 0.018295 -0.017446 0.000253 0.003687
# 4 -0.001024 -0.006648 -0.017446 0.062955 0.003928 -0.012191
# 5 -0.012904 -0.000721 0.000253 0.003928 0.065777 -0.039684
# 6 0.009942 -0.002467 0.003687 -0.012191 -0.039684 0.066143
#
#
# Mechanical properties :
#
#
# Convention : Reuss Voigt Hill
#
# Bulk Modulus (GPa) = 28.90926 56.14484 42.52705
# Shear Modulus (GPa) = 17.10850 27.29081 22.19965
#
# Velocity S-wave (km/s) = 2.97101 3.75237 3.38432
# Velocity P-wave (km/s) = 5.16570 6.90948 6.10022
#
# Compressibility (1/GPa) = 0.03459100
#
# Stress axis : x y z
#
# Youngs Moduli (GPa) = 79.97176 33.99112 54.65841
#
# Poissons Ratio (x) = 0.15468 0.16210
# Poissons Ratio (y) = 0.36392 0.28957
# Poissons Ratio (z) = 0.23717 0.18008
#
# Static dielectric constant tensor:
#      x y z
#    x 3.638330 0.007250 0.012480 
#    y 0.007250 3.462010 0.444810 
#    z 0.012480 0.444810 3.583000 
# 
# 
# High freq. dielectric constant tensor:
#      x y z
#    x 1.765470 -0.004760 0.009190 
#    y -0.004760 1.738890 0.037980 
#    z 0.009190 0.037980 1.741960 
# 
# From -- ./inp_files/179483.got.cif
#   From: 2010.06.25/outbox.cif.g09.slc.cpg/sg2_90_cif.got.tgz:179483.got - 2010.06.27 13:26:56.
