data_PCOD8039168
_publ_section_title
;
Structure prediction by ZEFSAII (Michael W. Deem and Ramdas Pophale) SiO2 
 PCOD8039168
Probable space group: P -1
;
_chemical_formula_sum "Si O2"
_cell_formula_units_Z 14
_cell_length_a 10.344571
_cell_length_b 11.560765
_cell_length_c 8.460560
_cell_angle_alpha 119.225740
_cell_angle_beta 70.657856
_cell_angle_gamma 81.152298
_cell_volume 769.578593
_symmetry_space_group_name_H-M "P -1"
_symmetry_group_IT_number 2
_symmetry_cell_setting 'triclinic'
loop_
_space_group_symop_operation_xyz
x,y,z
-x,-y,-z
loop_
_atom_site_type_symbol
_atom_site_label
_atom_site_fract_x
_atom_site_fract_y
_atom_site_fract_z
Si Si1 0.717919 0.325844 0.728282
Si Si2 0.565529 0.898042 0.255591
Si Si3 0.620821 0.603554 0.140862
Si Si4 0.879868 0.220967 0.280876
Si Si5 0.673638 0.157798 0.897046
Si Si6 0.639999 0.417319 0.284035
Si Si7 0.803902 0.972004 0.017348
O O1 0.557753 0.335616 0.741967
O O2 0.839174 0.282630 0.513677
O O3 0.774563 0.202486 0.759596
O O4 0.698250 0.484143 0.897940
O O5 0.663471 0.739982 0.179884
O O6 0.439955 0.893153 0.183839
O O7 0.666783 0.952156 0.141960
O O8 0.500000 0.000000 0.500000
O O9 0.677025 0.532343 0.240230
O O10 0.788510 0.339673 0.271053
O O11 0.842238 0.080206 0.187012
O O12 0.054944 0.178408 0.152019
O O13 0.592173 0.305539 0.126985
O O14 0.768817 0.032262 0.892955
O O15 0.500000 0.500000 0.500000
#
# Coordination Sequence:
#
# PCOD8039168 Si02
#       7
#     2   2   2   2   2   2   2
#     4   9  16  32  54  79 102 136 181 228 266 300
#     4  11  22  36  56  78 112 147 180 220 275 325
#     4   9  18  32  51  80 105 133 183 231 257 313
#     4  10  20  34  58  80 109 145 183 222 273 318
#     4   9  20  34  56  82 106 139 185 228 261 321
#     4  10  18  32  60  84 104 137 186 230 265 307
#     4  10  21  37  51  81 117 143 177 223 269 332
#
# _framework density 18.191773000000001
#
# number of rings (size 3 to 8) (size 9 to 14) (size 15 to 20)
#    0.000    2.286    1.429    3.000    2.000    0.571 
#    0.000    4.286    0.000    0.000    0.000    0.000 
#    0.000    0.000    0.000    0.000    0.000    0.000 
#
# Total GULP energy -173525.103232 kJ/mol
# GULP energy per Si atom -12394.650231 kJ/mol
# Density = 1.815037 g / cm^3
# Si number density = 18.191773 Si / 1000 Ang^3
#
#
#
# Elastic Constant Matrix: (Units=GPa)
#
#
# Indices 1 2 3 4 5 6 
#
# 1 53.3386 31.7413 38.5907 0.8611 5.4312 -8.1172
# 2 31.7413 130.2381 46.4198 -1.5539 0.8258 -17.6081
# 3 38.5907 46.4198 120.0952 -6.8141 3.6956 -14.1830
# 4 0.8611 -1.5539 -6.8141 23.3778 -4.1264 1.3653
# 5 5.4312 0.8258 3.6956 -4.1264 20.7648 2.8490
# 6 -8.1172 -17.6081 -14.1830 1.3653 2.8490 27.0081
#
#
#
# Elastic Compliance Matrix: (Units=1/GPa)
#
#
# Indices 1 2 3 4 5 6 
#
# 1 0.027328 -0.003756 -0.007017 -0.004736 -0.007112 0.003069
# 2 -0.003756 0.009920 -0.002148 -0.000002 0.000398 0.004169
# 3 -0.007017 -0.002148 0.011905 0.003461 0.000139 0.002553
# 4 -0.004736 -0.000002 0.003461 0.045928 0.010161 -0.003000
# 5 -0.007112 0.000398 0.000139 0.010161 0.053084 -0.007918
# 6 0.003069 0.004169 0.002553 -0.003000 -0.007918 0.042994
#
#
# Mechanical properties :
#
#
# Convention : Reuss Voigt Hill
#
# Bulk Modulus (GPa) = 42.89519 59.68617 51.29068
# Shear Modulus (GPa) = 22.24497 26.69147 24.46822
#
# Velocity S-wave (km/s) = 3.50065 3.83460 3.67142
# Velocity P-wave (km/s) = 6.32219 7.24473 6.79913
#
# Compressibility (1/GPa) = 0.02331263
#
# Stress axis : x y z
#
# Youngs Moduli (GPa) = 36.59293 100.80545 83.99660
#
# Poissons Ratio (x) = 0.37859 0.58941
# Poissons Ratio (y) = 0.13743 0.18038
# Poissons Ratio (z) = 0.25677 0.21648
#
# Static dielectric constant tensor:
#      x y z
#    x 3.067900 -0.183380 0.156380 
#    y -0.183380 3.735780 -0.025290 
#    z 0.156380 -0.025290 3.431100 
# 
# 
# High freq. dielectric constant tensor:
#      x y z
#    x 1.662020 -0.014160 0.013560 
#    y -0.014160 1.719540 -0.003160 
#    z 0.013560 -0.003160 1.711870 
# 
# From -- ./inp_files/157644.got.cif
#   From: 2010.06.25/outbox.cif.g09.slc.cpg/sg2_79_cif.got.tgz:157644.got - 2010.06.27 13:26:56.
