data_PCOD8039836
_publ_section_title
;
Structure prediction by ZEFSAII (Michael W. Deem and Ramdas Pophale) SiO2 
 PCOD8039836
Probable space group: P -1
;
_chemical_formula_sum "Si O2"
_cell_formula_units_Z 16
_cell_length_a 14.772199
_cell_length_b 7.106555
_cell_length_c 10.475545
_cell_angle_alpha 90.300161
_cell_angle_beta 66.524516
_cell_angle_gamma 121.198268
_cell_volume 833.989641
_symmetry_space_group_name_H-M "P -1"
_symmetry_group_IT_number 2
_symmetry_cell_setting 'triclinic'
loop_
_space_group_symop_operation_xyz
x,y,z
-x,-y,-z
loop_
_atom_site_type_symbol
_atom_site_label
_atom_site_fract_x
_atom_site_fract_y
_atom_site_fract_z
Si Si1 0.961945 0.275138 0.185729
Si Si2 0.164185 0.520187 0.878752
Si Si3 0.669198 0.175593 0.001431
Si Si4 0.529432 0.329521 0.925554
Si Si5 0.751660 0.614418 0.643160
Si Si6 0.066259 0.937486 0.362638
Si Si7 0.853909 0.789348 0.318032
Si Si8 0.877785 0.412799 0.689459
O O1 0.893933 0.380496 0.171718
O O2 0.014722 0.370683 0.296578
O O3 0.864401 0.007404 0.253859
O O4 0.068995 0.331211 0.030890
O O5 0.280454 0.722201 0.886760
O O6 0.205214 0.402833 0.757651
O O7 0.589025 0.903170 0.055882
O O8 0.595095 0.276468 0.996099
O O9 0.777148 0.242179 0.846395
O O10 0.613404 0.440312 0.754128
O O11 0.500000 0.500000 0.000000
O O12 0.766799 0.698753 0.489492
O O13 0.823994 0.494848 0.614052
O O14 0.802960 0.824845 0.717121
O O15 0.075936 0.730666 0.403713
O O16 0.989470 0.862545 0.275130
O O17 0.000000 0.000000 0.500000
#
# Coordination Sequence:
#
# PCOD8039836 Si02
#       8
#     2   2   2   2   2   2   2   2
#     4  10  20  34  55  79 114 155 188 216 270 334
#     4  10  21  37  54  81 114 152 185 225 271 331
#     4   9  21  37  60  86 105 139 194 234 281 326
#     4  10  20  40  64  83 105 138 188 247 285 325
#     4  10  22  35  55  84 112 149 190 230 285 328
#     4  10  20  31  49  80 116 151 181 213 272 332
#     4  11  21  34  51  83 120 150 184 222 271 341
#     4  10  18  35  56  80 116 148 185 232 271 328
#
# _framework density 19.184889999999999
#
# number of rings (size 3 to 8) (size 9 to 14) (size 15 to 20)
#    0.000    2.000    2.500    1.125    0.000    5.000 
#    0.000    0.625    0.000    1.500    0.000    0.000 
#    0.000    0.000    0.000    0.000    0.000    0.000 
#
# Total GULP energy -198398.379690 kJ/mol
# GULP energy per Si atom -12399.898731 kJ/mol
# Density = 1.914122 g / cm^3
# Si number density = 19.184890 Si / 1000 Ang^3
#
#
#
# Elastic Constant Matrix: (Units=GPa)
#
#
# Indices 1 2 3 4 5 6 
#
# 1 40.7698 28.2845 26.8826 6.6986 -5.2555 1.4043
# 2 28.2845 130.7614 52.8295 5.5363 -4.2592 -0.2554
# 3 26.8826 52.8295 89.2095 1.2554 5.9791 3.5071
# 4 6.6986 5.5363 1.2554 30.9651 -4.4232 -0.4229
# 5 -5.2555 -4.2592 5.9791 -4.4232 15.6434 1.2042
# 6 1.4043 -0.2554 3.5071 -0.4229 1.2042 39.9280
#
#
#
# Elastic Compliance Matrix: (Units=1/GPa)
#
#
# Indices 1 2 3 4 5 6 
#
# 1 0.035674 -0.003161 -0.009681 -0.004840 0.013524 -0.000884
# 2 -0.003161 0.010785 -0.005710 -0.000450 0.003887 0.000560
# 3 -0.009681 -0.005710 0.018309 0.000713 -0.011531 -0.000949
# 4 -0.004840 -0.000450 0.000713 0.034498 0.007715 0.000237
# 5 0.013524 0.003887 -0.011531 0.007715 0.076243 -0.001656
# 6 -0.000884 0.000560 -0.000949 0.000237 -0.001656 0.025216
#
#
# Mechanical properties :
#
#
# Convention : Reuss Voigt Hill
#
# Bulk Modulus (GPa) = 36.15160 52.97043 44.56101
# Shear Modulus (GPa) = 20.23872 27.49024 23.86448
#
# Velocity S-wave (km/s) = 3.25149 3.78949 3.53075
# Velocity P-wave (km/s) = 5.74291 6.84232 6.31658
#
# Compressibility (1/GPa) = 0.02766129
#
# Stress axis : x y z
#
# Youngs Moduli (GPa) = 28.03173 92.71982 54.61860
#
# Poissons Ratio (x) = 0.29312 0.52879
# Poissons Ratio (y) = 0.08862 0.31190
# Poissons Ratio (z) = 0.27139 0.52947
#
# Static dielectric constant tensor:
#      x y z
#    x 3.423150 0.137350 -0.008440 
#    y 0.137350 3.836250 -0.147360 
#    z -0.008440 -0.147360 3.394370 
# 
# 
# High freq. dielectric constant tensor:
#      x y z
#    x 1.720780 -0.009450 0.004800 
#    y -0.009450 1.761180 -0.007200 
#    z 0.004800 -0.007200 1.735450 
# 
# From -- ./inp_files/128737.got.cif
#   From: 2010.06.25/outbox.cif.g09.slc.cpg/sg2_65_cif.got.tgz:128737.got - 2010.06.27 13:26:56.
