data_PCOD8039742
_publ_section_title
;
Structure prediction by ZEFSAII (Michael W. Deem and Ramdas Pophale) SiO2 
 PCOD8039742
Probable space group: P -1
;
_chemical_formula_sum "Si O2"
_cell_formula_units_Z 16
_cell_length_a 5.318729
_cell_length_b 14.355819
_cell_length_c 18.679220
_cell_angle_alpha 37.753377
_cell_angle_beta 58.914190
_cell_angle_gamma 79.926567
_cell_volume 669.718703
_symmetry_space_group_name_H-M "P -1"
_symmetry_group_IT_number 2
_symmetry_cell_setting 'triclinic'
loop_
_space_group_symop_operation_xyz
x,y,z
-x,-y,-z
loop_
_atom_site_type_symbol
_atom_site_label
_atom_site_fract_x
_atom_site_fract_y
_atom_site_fract_z
Si Si1 0.346065 0.283710 0.543312
Si Si2 0.715491 0.333232 0.850001
Si Si3 0.322486 0.914611 0.323244
Si Si4 0.295757 0.497162 0.761078
Si Si5 0.756873 0.868078 0.674462
Si Si6 0.694563 0.202176 0.334180
Si Si7 0.653077 0.977919 0.093175
Si Si8 0.948593 0.361859 0.651066
O O1 0.614980 0.212210 0.554905
O O2 0.501333 0.459822 0.369085
O O3 0.015684 0.161247 0.624226
O O4 0.245207 0.311943 0.621555
O O5 0.414850 0.384733 0.861779
O O6 0.966900 0.428634 0.688872
O O7 0.912062 0.392077 0.860621
O O8 0.580287 0.131494 0.981464
O O9 0.312818 0.057339 0.288657
O O10 0.624820 0.984561 0.179940
O O11 0.384642 0.681601 0.669419
O O12 0.409003 0.760112 0.751960
O O13 0.918652 0.745875 0.750151
O O14 0.000000 0.000000 0.500000
O O15 0.500000 0.000000 0.500000
O O16 0.399388 0.799893 0.207326
O O17 0.000000 0.000000 0.000000
O O18 0.000000 0.500000 0.500000
#
# Coordination Sequence:
#
# PCOD8039742 Si02
#       8
#     2   2   2   2   2   2   2   2
#     4  11  22  38  62  98 138 172 230 296 354 393
#     4  12  26  44  67  98 144 191 235 283 359 433
#     4  11  23  40  67 101 135 183 237 295 342 423
#     4  12  24  40  68  99 141 180 233 291 362 419
#     4  10  18  34  61  94 135 165 222 288 364 404
#     4  10  20  36  60  95 133 172 215 287 360 420
#     4  11  26  48  72 100 148 201 242 279 356 436
#     4  11  24  45  69 104 140 183 241 305 348 407
#
# _framework density 23.890626000000001
#
# number of rings (size 3 to 8) (size 9 to 14) (size 15 to 20)
#    0.000    1.000    1.250    7.125    1.750    4.500 
#    0.000    0.000    0.000    4.500    0.000    0.000 
#    0.000    0.000    0.000    0.000    0.000    0.000 
#
# Total GULP energy -198280.420565 kJ/mol
# GULP energy per Si atom -12392.526285 kJ/mol
# Density = 2.383625 g / cm^3
# Si number density = 23.890626 Si / 1000 Ang^3
#
#
#
# Elastic Constant Matrix: (Units=GPa)
#
#
# Indices 1 2 3 4 5 6 
#
# 1 182.6591 55.9900 17.5884 -11.6166 27.1460 -9.5885
# 2 55.9900 123.7224 24.7459 -6.4813 4.1003 -5.1697
# 3 17.5884 24.7459 69.8776 -12.9160 8.3760 -6.1462
# 4 -11.6166 -6.4813 -12.9160 40.9439 -4.7246 5.4293
# 5 27.1460 4.1003 8.3760 -4.7246 24.5563 -1.7450
# 6 -9.5885 -5.1697 -6.1462 5.4293 -1.7450 41.8715
#
#
#
# Elastic Compliance Matrix: (Units=1/GPa)
#
#
# Indices 1 2 3 4 5 6 
#
# 1 0.007696 -0.003215 0.000373 0.000751 -0.007882 0.000994
# 2 -0.003215 0.010066 -0.003089 0.000024 0.002944 0.000173
# 3 0.000373 -0.003089 0.016773 0.004175 -0.004713 0.001428
# 4 0.000751 0.000024 0.004175 0.026605 0.002680 -0.002550
# 5 -0.007882 0.002944 -0.004713 0.002680 0.051043 -0.000354
# 6 0.000994 0.000173 0.001428 -0.002550 -0.000354 0.024657
#
#
# Mechanical properties :
#
#
# Convention : Reuss Voigt Hill
#
# Bulk Modulus (GPa) = 44.10677 63.65639 53.88158
# Shear Modulus (GPa) = 31.99800 40.00333 36.00067
#
# Velocity S-wave (km/s) = 3.66369 4.09643 3.88609
# Velocity P-wave (km/s) = 6.03315 7.00550 6.53743
#
# Compressibility (1/GPa) = 0.02267225
#
# Stress axis : x y z
#
# Youngs Moduli (GPa) = 129.94282 99.34164 59.61979
#
# Poissons Ratio (x) = 0.31939 -0.02221
# Poissons Ratio (y) = 0.41777 0.18415
# Poissons Ratio (z) = -0.04841 0.30685
#
# Static dielectric constant tensor:
#      x y z
#    x 5.364430 -0.083780 0.223290 
#    y -0.083780 4.501690 0.110050 
#    z 0.223290 0.110050 4.043450 
# 
# 
# High freq. dielectric constant tensor:
#      x y z
#    x 1.968800 -0.003170 0.012920 
#    y -0.003170 1.952230 -0.000400 
#    z 0.012920 -0.000400 1.905090 
# 
# From -- ./inp_files/77743.got.cif
#   From: 2010.06.25/outbox.cif.g09.slc.cpg/sg2_39_cif.got.tgz:77743.got - 2010.06.27 13:26:56.
