data_PCOD8039807
_publ_section_title
;
Structure prediction by ZEFSAII (Michael W. Deem and Ramdas Pophale) SiO2 
 PCOD8039807
Probable space group: P -1
;
_chemical_formula_sum "Si O2"
_cell_formula_units_Z 16
_cell_length_a 11.365804
_cell_length_b 14.077541
_cell_length_c 13.779795
_cell_angle_alpha 101.822150
_cell_angle_beta 146.635311
_cell_angle_gamma 99.309852
_cell_volume 932.704199
_symmetry_space_group_name_H-M "P -1"
_symmetry_group_IT_number 2
_symmetry_cell_setting 'triclinic'
loop_
_space_group_symop_operation_xyz
x,y,z
-x,-y,-z
loop_
_atom_site_type_symbol
_atom_site_label
_atom_site_fract_x
_atom_site_fract_y
_atom_site_fract_z
Si Si1 0.001593 0.786114 0.565815
Si Si2 0.620469 0.815546 0.853166
Si Si3 0.188220 0.839790 0.504011
Si Si4 0.388651 0.362007 0.889876
Si Si5 0.032331 0.125237 0.060256
Si Si6 0.235149 0.642071 0.715850
Si Si7 0.476388 0.044555 0.596054
Si Si8 0.083012 0.092379 0.295490
O O1 0.195297 0.879417 0.630271
O O2 0.109023 0.712346 0.661803
O O3 0.695637 0.688399 0.289921
O O4 0.011514 0.864402 0.675119
O O5 0.417234 0.822157 0.648550
O O6 0.761615 0.783596 0.864149
O O7 0.452785 0.704840 0.791085
O O8 0.847605 0.945769 0.089401
O O9 0.884828 0.714339 0.247946
O O10 0.242348 0.935719 0.481291
O O11 0.500000 0.500000 0.000000
O O12 0.609534 0.347225 0.077523
O O13 0.130970 0.170148 0.247713
O O14 0.762221 0.114364 0.861593
O O15 0.000000 0.000000 0.000000
O O16 0.000000 0.500000 0.500000
O O17 0.375898 0.126358 0.528266
O O18 0.500000 0.000000 0.500000
#
# Coordination Sequence:
#
# PCOD8039807 Si02
#       8
#     2   2   2   2   2   2   2   2
#     4   9  23  35  52  82 112 144 171 222 281 318
#     4  10  18  35  54  81 110 144 182 218 265 311
#     4   9  19  33  49  80 109 138 182 214 268 314
#     4  10  19  37  54  79 107 133 182 222 258 322
#     4  10  19  33  52  76 111 146 182 220 253 319
#     4  11  20  37  61  80 103 143 183 221 269 316
#     4  12  19  32  53  77 108 150 185 212 264 314
#     4  11  21  35  52  80 121 141 173 223 270 331
#
# _framework density 17.154419999999998
#
# number of rings (size 3 to 8) (size 9 to 14) (size 15 to 20)
#    0.750    1.000    6.250    0.750    0.000    3.500 
#    0.000    0.000    0.000    0.750    0.000    7.000 
#    0.000    0.000    0.000    0.000    0.000    0.000 
#
# Total GULP energy -198225.671356 kJ/mol
# GULP energy per Si atom -12389.104460 kJ/mol
# Density = 1.711538 g / cm^3
# Si number density = 17.154420 Si / 1000 Ang^3
#
#
#
# Elastic Constant Matrix: (Units=GPa)
#
#
# Indices 1 2 3 4 5 6 
#
# 1 125.7627 54.1795 42.0779 3.3509 -1.8982 4.8681
# 2 54.1795 76.9690 47.4512 -22.0589 -1.4016 4.4102
# 3 42.0779 47.4512 107.0188 -25.0125 5.8151 0.4295
# 4 3.3509 -22.0589 -25.0125 36.6609 1.6693 2.2233
# 5 -1.8982 -1.4016 5.8151 1.6693 24.7729 -7.5820
# 6 4.8681 4.4102 0.4295 2.2233 -7.5820 17.1147
#
#
#
# Elastic Compliance Matrix: (Units=1/GPa)
#
#
# Indices 1 2 3 4 5 6 
#
# 1 0.013899 -0.010735 -0.003188 -0.010080 0.002253 0.001200
# 2 -0.010735 0.028091 -0.004590 0.015205 -0.001192 -0.006573
# 3 -0.003188 -0.004590 0.014759 0.007917 -0.004963 -0.001508
# 4 -0.010080 0.015205 0.007917 0.043742 -0.007912 -0.010437
# 5 0.002253 -0.001192 -0.004963 -0.007912 0.049075 0.022559
# 6 0.001200 -0.006573 -0.001508 -0.010437 0.022559 0.071170
#
#
# Mechanical properties :
#
#
# Convention : Reuss Voigt Hill
#
# Bulk Modulus (GPa) = 50.70173 66.35200 58.52686
# Shear Modulus (GPa) = 18.91546 26.77915 22.84731
#
# Velocity S-wave (km/s) = 3.32423 3.95532 3.65343
# Velocity P-wave (km/s) = 6.65990 7.72157 7.21030
#
# Compressibility (1/GPa) = 0.01972319
#
# Stress axis : x y z
#
# Youngs Moduli (GPa) = 71.94782 35.59908 67.75638
#
# Poissons Ratio (x) = 0.38215 0.21603
# Poissons Ratio (y) = 0.77234 0.31097
# Poissons Ratio (z) = 0.22939 0.16338
#
# Static dielectric constant tensor:
#      x y z
#    x 3.330310 0.252090 0.136470 
#    y 0.252090 3.140390 -0.455780 
#    z 0.136470 -0.455780 3.468570 
# 
# 
# High freq. dielectric constant tensor:
#      x y z
#    x 1.656620 0.019070 0.010240 
#    y 0.019070 1.635590 -0.039390 
#    z 0.010240 -0.039390 1.663020 
# 
# From -- ./inp_files/521627.got.cif
#   From: 2010.06.25/outbox.cif.g09.slc.cpg/sg2_261_cif.got.tgz:521627.got - 2010.06.27 13:26:56.
