data_PCOD8039818
_publ_section_title
;
Structure prediction by ZEFSAII (Michael W. Deem and Ramdas Pophale) SiO2 
 PCOD8039818
Probable space group: P -1
;
_chemical_formula_sum "Si O2"
_cell_formula_units_Z 16
_cell_length_a 20.827355
_cell_length_b 7.742112
_cell_length_c 8.182836
_cell_angle_alpha 60.860175
_cell_angle_beta 121.156170
_cell_angle_gamma 131.075994
_cell_volume 828.800006
_symmetry_space_group_name_H-M "P -1"
_symmetry_group_IT_number 2
_symmetry_cell_setting 'triclinic'
loop_
_space_group_symop_operation_xyz
x,y,z
-x,-y,-z
loop_
_atom_site_type_symbol
_atom_site_label
_atom_site_fract_x
_atom_site_fract_y
_atom_site_fract_z
Si Si1 0.768540 0.245371 0.776396
Si Si2 0.973236 0.121052 0.541999
Si Si3 0.847203 0.733234 0.791874
Si Si4 0.598972 0.207834 0.498113
Si Si5 0.686480 0.725827 0.434578
Si Si6 0.844772 0.609080 0.217893
Si Si7 0.187353 0.038032 0.796304
Si Si8 0.701125 0.154794 0.392394
O O1 0.839237 0.517295 0.781542
O O2 0.668152 0.183072 0.715893
O O3 0.771920 0.200828 0.608222
O O4 0.795448 0.090455 0.979487
O O5 0.933603 0.963554 0.726084
O O6 0.897845 0.150654 0.341471
O O7 0.000000 0.000000 0.500000
O O8 0.062765 0.362431 0.610363
O O9 0.760165 0.743184 0.645563
O O10 0.857930 0.704394 0.009086
O O11 0.606395 0.453253 0.432021
O O12 0.625820 0.195881 0.349108
O O13 0.500000 0.000000 0.500000
O O14 0.725445 0.824967 0.262329
O O15 0.652106 0.886005 0.387865
O O16 0.826776 0.766527 0.239720
O O17 0.760403 0.339130 0.241493
#
# Coordination Sequence:
#
# PCOD8039818 Si02
#       8
#     2   2   2   2   2   2   2   2
#     4   9  19  35  55  80 111 147 191 222 291 334
#     4   9  19  33  52  79 116 155 193 239 277 315
#     4  10  19  34  54  80 114 155 191 235 279 328
#     4   9  20  39  61  85 115 141 183 238 283 340
#     4  10  19  36  59  83 115 150 188 226 285 339
#     4  11  19  34  55  81 115 153 197 234 276 329
#     4  10  18  35  55  80 115 155 188 237 277 335
#     4  10  20  36  59  84 111 154 188 224 292 336
#
# _framework density 19.305019000000001
#
# number of rings (size 3 to 8) (size 9 to 14) (size 15 to 20)
#    0.750    1.500    1.250    3.375    0.000    0.500 
#    0.000   13.125    0.000    3.750    0.000    0.000 
#    0.000    0.000    0.000    0.000    0.000    0.000 
#
# Total GULP energy -198235.709778 kJ/mol
# GULP energy per Si atom -12389.731861 kJ/mol
# Density = 1.926108 g / cm^3
# Si number density = 19.305019 Si / 1000 Ang^3
#
#
#
# Elastic Constant Matrix: (Units=GPa)
#
#
# Indices 1 2 3 4 5 6 
#
# 1 56.2206 43.8386 11.2509 -6.2656 -13.3221 0.2466
# 2 43.8386 99.6168 -5.6698 -17.2254 -2.5053 -4.4544
# 3 11.2509 -5.6698 67.6719 -4.7499 -10.4668 3.1210
# 4 -6.2656 -17.2254 -4.7499 19.8501 -6.0143 -4.6975
# 5 -13.3221 -2.5053 -10.4668 -6.0143 29.1213 -2.8463
# 6 0.2466 -4.4544 3.1210 -4.6975 -2.8463 36.0880
#
#
#
# Elastic Compliance Matrix: (Units=1/GPa)
#
#
# Indices 1 2 3 4 5 6 
#
# 1 0.032876 -0.014421 -0.004761 0.000239 0.012078 -0.000609
# 2 -0.014421 0.019328 0.004870 0.014371 0.000170 0.003947
# 3 -0.004761 0.004870 0.017586 0.009099 0.006520 0.000811
# 4 0.000239 0.014371 0.009099 0.074445 0.021198 0.012347
# 5 0.012078 0.000170 0.006520 0.021198 0.047173 0.005854
# 6 -0.000609 0.003947 0.000811 0.012347 0.005854 0.030200
#
#
# Mechanical properties :
#
#
# Convention : Reuss Voigt Hill
#
# Bulk Modulus (GPa) = 24.29220 35.81651 30.05436
# Shear Modulus (GPa) = 18.94264 28.61786 23.78025
#
# Velocity S-wave (km/s) = 3.13586 3.85438 3.51353
# Velocity P-wave (km/s) = 5.07170 6.19690 5.66232
#
# Compressibility (1/GPa) = 0.04116548
#
# Stress axis : x y z
#
# Youngs Moduli (GPa) = 30.41730 51.73943 56.86182
#
# Poissons Ratio (x) = 0.74613 0.27073
# Poissons Ratio (y) = 0.43865 -0.27691
# Poissons Ratio (z) = 0.14482 -0.25196
#
# Static dielectric constant tensor:
#      x y z
#    x 3.380520 -0.113010 -0.115640 
#    y -0.113010 3.471660 0.033250 
#    z -0.115640 0.033250 3.537700 
# 
# 
# High freq. dielectric constant tensor:
#      x y z
#    x 1.734750 -0.013640 -0.013610 
#    y -0.013640 1.742160 -0.003910 
#    z -0.013610 -0.003910 1.740540 
# 
# From -- ./inp_files/351620.got.cif
#   From: 2010.06.25/outbox.cif.g09.slc.cpg/sg2_176_cif.got.tgz:351620.got - 2010.06.27 13:26:56.
