data_PCOD8039460
_publ_section_title
;
Structure prediction by ZEFSAII (Michael W. Deem and Ramdas Pophale) SiO2 
 PCOD8039460
Probable space group: P -1
;
_chemical_formula_sum "Si O2"
_cell_formula_units_Z 16
_cell_length_a 14.502574
_cell_length_b 9.267284
_cell_length_c 11.342332
_cell_angle_alpha 94.254232
_cell_angle_beta 83.280256
_cell_angle_gamma 31.660565
_cell_volume 749.184035
_symmetry_space_group_name_H-M "P -1"
_symmetry_group_IT_number 2
_symmetry_cell_setting 'triclinic'
loop_
_space_group_symop_operation_xyz
x,y,z
-x,-y,-z
loop_
_atom_site_type_symbol
_atom_site_label
_atom_site_fract_x
_atom_site_fract_y
_atom_site_fract_z
Si Si1 0.174607 0.796568 0.087165
Si Si2 0.856150 0.250907 0.355892
Si Si3 0.441922 0.404128 0.221609
Si Si4 0.178014 0.247016 0.814470
Si Si5 0.522202 0.379113 0.605711
Si Si6 0.986224 0.270288 0.993018
Si Si7 0.102108 0.705883 0.414482
Si Si8 0.112116 0.266687 0.566703
O O1 0.374517 0.527053 0.105591
O O2 0.155040 0.663734 0.024934
O O3 0.004040 0.060413 0.217912
O O4 0.164142 0.942149 0.002707
O O5 0.652551 0.494661 0.346860
O O6 0.861245 0.379496 0.455005
O O7 0.914317 0.053479 0.435042
O O8 0.481629 0.506591 0.277430
O O9 0.283251 0.529409 0.319008
O O10 0.621110 0.058241 0.177248
O O11 0.046446 0.291596 0.877419
O O12 0.184634 0.250942 0.671777
O O13 0.111920 0.494046 0.881730
O O14 0.500000 0.500000 0.500000
O O15 0.712950 0.033053 0.550262
O O16 0.041819 0.639116 0.357222
O O17 0.000000 0.500000 0.500000
#
# Coordination Sequence:
#
# PCOD8039460 Si02
#       8
#     2   2   2   2   2   2   2   2
#     4  10  22  40  64  93 114 164 213 260 293 360
#     4  10  18  33  64  86 122 150 201 248 294 363
#     4  11  21  36  69  90 122 156 206 253 304 374
#     4  11  23  43  62  89 126 167 199 259 311 363
#     4  12  19  37  60  96 120 161 198 240 314 377
#     4  10  24  43  64  84 124 167 210 253 310 353
#     4  10  18  34  56  93 117 159 188 242 309 366
#     4  12  25  38  60  91 129 160 198 249 309 370
#
# _framework density 21.356566000000001
#
# number of rings (size 3 to 8) (size 9 to 14) (size 15 to 20)
#    0.000    1.250    3.750    3.750    3.500    1.000 
#    2.250    1.250    0.000    0.000    0.000    0.000 
#    0.000    0.000    0.000    0.000    0.000    0.000 
#
# Total GULP energy -198241.814913 kJ/mol
# GULP energy per Si atom -12390.113432 kJ/mol
# Density = 2.130796 g / cm^3
# Si number density = 21.356566 Si / 1000 Ang^3
#
#
#
# Elastic Constant Matrix: (Units=GPa)
#
#
# Indices 1 2 3 4 5 6 
#
# 1 64.9499 36.6971 17.8322 2.4197 22.2368 -10.4562
# 2 36.6971 142.1388 27.0802 -8.2516 19.2893 -6.5890
# 3 17.8322 27.0802 52.4330 -9.5899 20.9664 8.0931
# 4 2.4197 -8.2516 -9.5899 37.3742 -7.9323 3.7374
# 5 22.2368 19.2893 20.9664 -7.9323 30.3103 -0.2011
# 6 -10.4562 -6.5890 8.0931 3.7374 -0.2011 30.4779
#
#
#
# Elastic Compliance Matrix: (Units=1/GPa)
#
#
# Indices 1 2 3 4 5 6 
#
# 1 0.025902 -0.003861 -0.003236 -0.007791 -0.016282 0.009759
# 2 -0.003861 0.008787 -0.003071 0.001212 -0.000310 0.001240
# 3 -0.003236 -0.003071 0.030545 0.005135 -0.015527 -0.010617
# 4 -0.007791 0.001212 0.005135 0.031648 0.009624 -0.007592
# 5 -0.016282 -0.000310 -0.015527 0.009624 0.058378 -0.002325
# 6 0.009759 0.001240 -0.010617 -0.007592 -0.002325 0.040162
#
#
# Mechanical properties :
#
#
# Convention : Reuss Voigt Hill
#
# Bulk Modulus (GPa) = 22.27232 46.97120 34.62176
# Shear Modulus (GPa) = 21.67087 31.49328 26.58208
#
# Velocity S-wave (km/s) = 3.18892 3.84427 3.53183
# Velocity P-wave (km/s) = 4.90004 6.46112 5.73396
#
# Compressibility (1/GPa) = 0.04489877
#
# Stress axis : x y z
#
# Youngs Moduli (GPa) = 38.60690 113.80163 32.73815
#
# Poissons Ratio (x) = 0.43942 0.10593
# Poissons Ratio (y) = 0.14907 0.10054
# Poissons Ratio (z) = 0.12492 0.34948
#
# Static dielectric constant tensor:
#      x y z
#    x 19.887080 -1.974390 6.812410 
#    y -1.974390 4.276080 -0.855570 
#    z 6.812410 -0.855570 6.548110 
# 
# 
# High freq. dielectric constant tensor:
#      x y z
#    x 1.835730 -0.010510 0.015800 
#    y -0.010510 1.830750 -0.010980 
#    z 0.015800 -0.010980 1.834940 
# 
# From -- ./inp_files/328619.got.cif
#   From: 2010.06.25/outbox.cif.g09.slc.cpg/sg2_165_cif.got.tgz:328619.got - 2010.06.27 13:26:56.
