data_PCOD8039083
_publ_section_title
;
Structure prediction by ZEFSAII (Michael W. Deem and Ramdas Pophale) SiO2 
 PCOD8039083
Probable space group: P -1
;
_chemical_formula_sum "Si O2"
_cell_formula_units_Z 16
_cell_length_a 9.512712
_cell_length_b 10.162173
_cell_length_c 12.312350
_cell_angle_alpha 129.913160
_cell_angle_beta 55.756952
_cell_angle_gamma 117.786683
_cell_volume 744.233854
_symmetry_space_group_name_H-M "P -1"
_symmetry_group_IT_number 2
_symmetry_cell_setting 'triclinic'
loop_
_space_group_symop_operation_xyz
x,y,z
-x,-y,-z
loop_
_atom_site_type_symbol
_atom_site_label
_atom_site_fract_x
_atom_site_fract_y
_atom_site_fract_z
Si Si1 0.520898 0.793979 0.132564
Si Si2 0.400737 0.473088 0.880599
Si Si3 0.083281 0.360947 0.541154
Si Si4 0.012244 0.998833 0.303206
Si Si5 0.208103 0.473239 0.318839
Si Si6 0.144102 0.088055 0.066248
Si Si7 0.645570 0.990163 0.516640
Si Si8 0.803202 0.676372 0.303930
O O1 0.634766 0.691510 0.109278
O O2 0.390245 0.902000 0.304323
O O3 0.396365 0.654778 0.039229
O O4 0.663246 0.921292 0.066871
O O5 0.590030 0.471106 0.751193
O O6 0.254831 0.454073 0.840304
O O7 0.178091 0.474057 0.461676
O O8 0.165951 0.431121 0.658046
O O9 0.113874 0.158481 0.415069
O O10 0.883110 0.385416 0.630881
O O11 0.822477 0.057302 0.408805
O O12 0.108521 0.984232 0.139839
O O13 0.985209 0.807993 0.269986
O O14 0.130025 0.288187 0.201677
O O15 0.000000 0.000000 0.000000
O O16 0.500000 0.000000 0.500000
O O17 0.650381 0.791467 0.447180
#
# Coordination Sequence:
#
# PCOD8039083 Si02
#       8
#     2   2   2   2   2   2   2   2
#     4  10  19  33  58  86 116 154 193 232 294 337
#     4  10  19  35  56  83 116 155 192 238 281 358
#     4  10  19  37  56  86 114 146 195 247 288 342
#     4   9  20  33  57  83 116 146 190 238 287 333
#     4   9  21  35  58  81 111 153 192 236 297 341
#     4  10  18  34  58  84 113 147 195 240 278 349
#     4  10  18  32  55  92 107 147 200 233 279 339
#     4  10  21  33  60  89 115 149 196 245 287 331
#
# _framework density 21.498619000000001
#
# number of rings (size 3 to 8) (size 9 to 14) (size 15 to 20)
#    0.750    1.500    1.250    2.625    0.000    0.500 
#    2.250    0.000    5.500   15.000    0.000    0.000 
#    0.000    0.000    0.000    0.000    0.000    0.000 
#
# Total GULP energy -198231.550024 kJ/mol
# GULP energy per Si atom -12389.471876 kJ/mol
# Density = 2.144969 g / cm^3
# Si number density = 21.498619 Si / 1000 Ang^3
#
#
#
# Elastic Constant Matrix: (Units=GPa)
#
#
# Indices 1 2 3 4 5 6 
#
# 1 63.4821 25.4582 25.2155 -11.8570 29.4286 -9.8414
# 2 25.4582 65.5214 40.4471 -9.7437 6.7503 3.3744
# 3 25.2155 40.4471 109.2134 -14.3040 19.9087 1.0393
# 4 -11.8570 -9.7437 -14.3040 34.4008 6.8409 0.2697
# 5 29.4286 6.7503 19.9087 6.8409 43.3581 -5.6887
# 6 -9.8414 3.3744 1.0393 0.2697 -5.6887 21.0412
#
#
#
# Elastic Compliance Matrix: (Units=1/GPa)
#
#
# Indices 1 2 3 4 5 6 
#
# 1 0.034546 -0.010714 0.002043 0.014307 -0.023500 0.011238
# 2 -0.010714 0.023555 -0.007534 -0.001376 0.006407 -0.006667
# 3 0.002043 -0.007534 0.013581 0.005698 -0.007425 -0.000588
# 4 0.014307 -0.001376 0.005698 0.039590 -0.018201 0.001202
# 5 -0.023500 0.006407 -0.007425 -0.018201 0.044374 0.000578
# 6 0.011238 -0.006667 -0.000588 0.001202 0.000578 0.054021
#
#
# Mechanical properties :
#
#
# Convention : Reuss Voigt Hill
#
# Bulk Modulus (GPa) = 25.46458 46.71761 36.09110
# Shear Modulus (GPa) = 19.59489 29.56644 24.58066
#
# Velocity S-wave (km/s) = 3.02230 3.71249 3.38503
# Velocity P-wave (km/s) = 4.90403 6.33675 5.66586
#
# Compressibility (1/GPa) = 0.03927023
#
# Stress axis : x y z
#
# Youngs Moduli (GPa) = 28.94659 42.45404 73.63428
#
# Poissons Ratio (x) = 0.45485 -0.15040
# Poissons Ratio (y) = 0.31013 0.55480
# Poissons Ratio (z) = -0.05912 0.31987
#
# Static dielectric constant tensor:
#      x y z
#    x 3.412390 0.102960 0.033840 
#    y 0.102960 3.871510 -0.054280 
#    z 0.033840 -0.054280 4.206780 
# 
# 
# High freq. dielectric constant tensor:
#      x y z
#    x 1.805490 0.013350 0.009420 
#    y 0.013350 1.832310 -0.003820 
#    z 0.009420 -0.003820 1.854430 
# 
# From -- ./inp_files/257024.got.cif
#   From: 2010.06.25/outbox.cif.g09.slc.cpg/sg2_129_cif.got.tgz:257024.got - 2010.06.27 13:26:56.
