data_PCOD8039422
_publ_section_title
;
Structure prediction by ZEFSAII (Michael W. Deem and Ramdas Pophale) SiO2 
 PCOD8039422
Probable space group: P -1
;
_chemical_formula_sum "Si O2"
_cell_formula_units_Z 12
_cell_length_a 14.054936
_cell_length_b 14.866240
_cell_length_c 19.418840
_cell_angle_alpha 27.002234
_cell_angle_beta 17.689050
_cell_angle_gamma 28.978979
_cell_volume 549.769460
_symmetry_space_group_name_H-M "P -1"
_symmetry_group_IT_number 2
_symmetry_cell_setting 'triclinic'
loop_
_space_group_symop_operation_xyz
x,y,z
-x,-y,-z
loop_
_atom_site_type_symbol
_atom_site_label
_atom_site_fract_x
_atom_site_fract_y
_atom_site_fract_z
Si Si1 0.322305 0.471772 0.536206
Si Si2 0.227232 0.065607 0.241232
Si Si3 0.905764 0.842322 0.508972
Si Si4 0.954528 0.505129 0.138059
Si Si5 0.774234 0.970830 0.113565
Si Si6 0.053282 0.060773 0.134612
O O1 0.685322 0.510137 0.260643
O O2 0.188044 0.520625 0.671215
O O3 0.327862 0.244827 0.663877
O O4 0.096181 0.614765 0.541000
O O5 0.223149 0.305426 0.077493
O O6 0.000000 0.000000 0.500000
O O7 0.113265 0.993486 0.296276
O O8 0.577707 0.949720 0.094830
O O9 0.552099 0.862364 0.771237
O O10 0.883718 0.905833 0.400103
O O11 0.109543 0.706651 0.893759
O O12 0.967908 0.992712 0.894918
O O13 0.000000 0.000000 0.000000
#
# Coordination Sequence:
#
# PCOD8039422 Si02
#       6
#     2   2   2   2   2   2
#     4  10  19  36  60  89 117 156 196 238 295 350
#     4  12  18  35  61  91 126 155 185 236 302 360
#     4  12  23  38  62  92 122 153 194 248 298 348
#     4  10  18  33  60  89 125 155 185 233 299 362
#     4  11  25  45  62  80 117 165 205 244 288 344
#     4  11  24  38  60  95 122 151 194 244 299 355
#
# _framework density 21.827331999999998
#
# number of rings (size 3 to 8) (size 9 to 14) (size 15 to 20)
#    0.000    1.000    6.667    1.500    0.000    3.333 
#    0.000    0.833    0.000    0.000    0.000    0.000 
#    0.000    0.000    0.000    0.000    0.000    0.000 
#
# Total GULP energy -148813.312719 kJ/mol
# GULP energy per Si atom -12401.109393 kJ/mol
# Density = 2.177765 g / cm^3
# Si number density = 21.827332 Si / 1000 Ang^3
#
#
#
# Elastic Constant Matrix: (Units=GPa)
#
#
# Indices 1 2 3 4 5 6 
#
# 1 106.2608 16.0221 11.8132 -9.4295 -5.9077 -7.8731
# 2 16.0221 104.5068 3.4589 -5.8153 7.0482 -16.1351
# 3 11.8132 3.4589 20.0822 -5.7660 3.3642 -2.0362
# 4 -9.4295 -5.8153 -5.7660 17.4559 -13.5986 6.6284
# 5 -5.9077 7.0482 3.3642 -13.5986 32.1363 -3.5314
# 6 -7.8731 -16.1351 -2.0362 6.6284 -3.5314 24.0214
#
#
#
# Elastic Compliance Matrix: (Units=1/GPa)
#
#
# Indices 1 2 3 4 5 6 
#
# 1 0.011425 -0.001410 -0.004929 0.009090 0.006869 0.000881
# 2 -0.001410 0.010953 -0.000479 -0.002044 -0.002705 0.007021
# 3 -0.004929 -0.000479 0.057436 0.016926 0.000160 -0.001716
# 4 0.009090 -0.002044 0.016926 0.109578 0.044445 -0.020661
# 5 0.006869 -0.002705 0.000160 0.044445 0.051294 -0.004275
# 6 0.000881 0.007021 -0.001716 -0.020661 -0.004275 0.051562
#
#
# Mechanical properties :
#
#
# Convention : Reuss Voigt Hill
#
# Bulk Modulus (GPa) = 15.11061 32.60425 23.85743
# Shear Modulus (GPa) = 15.24649 28.02640 21.63645
#
# Velocity S-wave (km/s) = 2.64579 3.58719 3.15184
# Velocity P-wave (km/s) = 4.03379 5.66807 4.91927
#
# Compressibility (1/GPa) = 0.06617867
#
# Stress axis : x y z
#
# Youngs Moduli (GPa) = 87.52535 91.29553 17.41056
#
# Poissons Ratio (x) = 0.12871 0.08582
# Poissons Ratio (y) = 0.12340 0.00834
# Poissons Ratio (z) = 0.43144 0.04374
#
# Static dielectric constant tensor:
#      x y z
#    x 4.025470 0.022880 0.221720 
#    y 0.022880 4.254010 0.031790 
#    z 0.221720 0.031790 3.475230 
# 
# 
# High freq. dielectric constant tensor:
#      x y z
#    x 1.849570 -0.004440 0.025070 
#    y -0.004440 1.873620 0.002860 
#    z 0.025070 0.002860 1.814370 
# 
# From -- ./inp_files/161865.got.cif
#   From: 2010.06.25/outbox.cif.g09.slc.cpg/sg2_81_cif.got.tgz:161865.got - 2010.06.27 13:26:56.
