data_PCOD8039175
_publ_section_title
;
Structure prediction by ZEFSAII (Michael W. Deem and Ramdas Pophale) SiO2 
 PCOD8039175
Probable space group: P -1
;
_chemical_formula_sum "Si O2"
_cell_formula_units_Z 14
_cell_length_a 15.040990
_cell_length_b 19.394203
_cell_length_c 10.209083
_cell_angle_alpha 142.273323
_cell_angle_beta 134.054078
_cell_angle_gamma 18.911086
_cell_volume 569.191237
_symmetry_space_group_name_H-M "P -1"
_symmetry_group_IT_number 2
_symmetry_cell_setting 'triclinic'
loop_
_space_group_symop_operation_xyz
x,y,z
-x,-y,-z
loop_
_atom_site_type_symbol
_atom_site_label
_atom_site_fract_x
_atom_site_fract_y
_atom_site_fract_z
Si Si1 0.716270 0.285639 0.195549
Si Si2 0.556655 0.706467 0.144073
Si Si3 0.962196 0.396938 0.323884
Si Si4 0.521963 0.666107 0.456058
Si Si5 0.099327 0.107144 0.480395
Si Si6 0.431090 0.921813 0.939340
Si Si7 0.932277 0.657069 0.023294
O O1 0.574375 0.490556 0.257687
O O2 0.805942 0.279431 0.410055
O O3 0.495614 0.363375 0.102575
O O4 0.000000 0.000000 0.000000
O O5 0.754161 0.512055 0.177068
O O6 0.266646 0.993104 0.341617
O O7 0.748148 0.633892 0.140689
O O8 0.000000 0.500000 0.500000
O O9 0.813313 0.493919 0.456118
O O10 0.261988 0.082276 0.144475
O O11 0.431184 0.793140 0.695187
O O12 0.276629 0.884366 0.426309
O O13 0.030439 0.284159 0.734480
O O14 0.263860 0.134090 0.980397
O O15 0.760460 0.690223 0.952107
#
# Coordination Sequence:
#
# PCOD8039175 Si02
#       7
#     2   2   2   2   2   2   2
#     4  10  22  39  57  83 116 149 195 238 274 337
#     4   9  18  32  52  80 111 145 186 227 273 332
#     4  10  18  32  60  90 114 148 189 230 286 344
#     4  10  20  37  60  83 115 153 185 234 288 329
#     4   9  19  35  56  80 112 148 186 228 280 335
#     4   9  17  31  55  88 114 141 192 235 277 344
#     4   9  16  31  56  82 111 147 181 230 286 330
#
# _framework density 24.596302999999999
#
# number of rings (size 3 to 8) (size 9 to 14) (size 15 to 20)
#    0.000    2.571    0.000    4.286    0.000    5.714 
#    0.000   12.857    0.000   27.429    0.000    0.000 
#    0.000    0.000    0.000    0.000    0.000    0.000 
#
# Total GULP energy -173439.635000 kJ/mol
# GULP energy per Si atom -12388.545357 kJ/mol
# Density = 2.454032 g / cm^3
# Si number density = 24.596303 Si / 1000 Ang^3
#
#
#
# Elastic Constant Matrix: (Units=GPa)
#
#
# Indices 1 2 3 4 5 6 
#
# 1 33.4833 11.0085 11.7241 8.5918 -4.2194 -12.5824
# 2 11.0085 96.6866 24.8833 -26.0978 -3.7467 -13.4098
# 3 11.7241 24.8833 95.9712 -3.5019 -19.7246 -2.3438
# 4 8.5918 -26.0978 -3.5019 39.9638 -1.1580 1.8906
# 5 -4.2194 -3.7467 -19.7246 -1.1580 28.6140 4.6231
# 6 -12.5824 -13.4098 -2.3438 1.8906 4.6231 30.5672
#
#
#
# Elastic Compliance Matrix: (Units=1/GPa)
#
#
# Indices 1 2 3 4 5 6 
#
# 1 0.042385 -0.005336 -0.003967 -0.013694 -0.000272 0.015690
# 2 -0.005336 0.015018 -0.002985 0.010489 -0.001047 0.003673
# 3 -0.003967 -0.002985 0.013432 0.000492 0.008833 -0.003279
# 4 -0.013694 0.010489 0.000492 0.035070 0.001664 -0.003419
# 5 -0.000272 -0.001047 0.008833 0.001664 0.041951 -0.006342
# 6 0.015690 0.003673 -0.003279 -0.003419 -0.006342 0.041704
#
#
# Mechanical properties :
#
#
# Convention : Reuss Voigt Hill
#
# Bulk Modulus (GPa) = 21.61715 35.70811 28.66263
# Shear Modulus (GPa) = 21.78135 31.73067 26.75601
#
# Velocity S-wave (km/s) = 2.97905 3.59564 3.30177
# Velocity P-wave (km/s) = 4.54322 5.63802 5.11997
#
# Compressibility (1/GPa) = 0.04625957
#
# Stress axis : x y z
#
# Youngs Moduli (GPa) = 23.59350 66.58465 74.45175
#
# Poissons Ratio (x) = 0.35528 0.29534
# Poissons Ratio (y) = 0.12589 0.22223
# Poissons Ratio (z) = 0.09359 0.19875
#
# Static dielectric constant tensor:
#      x y z
#    x 4.199270 -0.419660 -0.412310 
#    y -0.419660 4.914290 -0.187340 
#    z -0.412310 -0.187340 4.642100 
# 
# 
# High freq. dielectric constant tensor:
#      x y z
#    x 1.935200 -0.011090 -0.019740 
#    y -0.011090 1.990570 -0.008260 
#    z -0.019740 -0.008260 1.979530 
# 
# From -- ./inp_files/377959.got.cif
#   From: 2010.06.25/outbox.cif.g09.slc.cpg/sg2_189_cif.got.tgz:377959.got - 2010.06.27 13:26:56.
