data_PCOD8039678
_publ_section_title
;
Structure prediction by ZEFSAII (Michael W. Deem and Ramdas Pophale) SiO2 
 PCOD8039678
Probable space group: P -1
;
_chemical_formula_sum "Si O2"
_cell_formula_units_Z 16
_cell_length_a 14.710453
_cell_length_b 14.605354
_cell_length_c 9.806837
_cell_angle_alpha 54.738589
_cell_angle_beta 55.911132
_cell_angle_gamma 27.888476
_cell_volume 797.748676
_symmetry_space_group_name_H-M "P -1"
_symmetry_group_IT_number 2
_symmetry_cell_setting 'triclinic'
loop_
_space_group_symop_operation_xyz
x,y,z
-x,-y,-z
loop_
_atom_site_type_symbol
_atom_site_label
_atom_site_fract_x
_atom_site_fract_y
_atom_site_fract_z
Si Si1 0.315564 0.283206 0.285801
Si Si2 0.942386 0.898783 0.249208
Si Si3 0.123078 0.227945 0.396437
Si Si4 0.371337 0.878511 0.023162
Si Si5 0.059906 0.275519 0.826610
Si Si6 0.569587 0.053457 0.822626
Si Si7 0.725151 0.678174 0.401099
Si Si8 0.317274 0.717910 0.033806
O O1 0.255323 0.203214 0.396317
O O2 0.336124 0.303853 0.408618
O O3 0.155023 0.494240 0.157025
O O4 0.517461 0.135129 0.166331
O O5 0.866480 0.911648 0.444347
O O6 0.957171 0.772664 0.259893
O O7 0.785840 0.120635 0.135155
O O8 0.160079 0.766126 0.188543
O O9 0.897783 0.454690 0.390804
O O10 0.206595 0.156979 0.232830
O O11 0.446330 0.830768 0.155370
O O12 0.391474 0.732891 0.083591
O O13 0.144138 0.114861 0.004588
O O14 0.211451 0.247741 0.710564
O O15 0.452455 0.186462 0.671043
O O16 0.500000 0.000000 0.000000
O O17 0.500000 0.500000 0.000000
#
# Coordination Sequence:
#
# PCOD8039678 Si02
#       8
#     2   2   2   2   2   2   2   2
#     4  11  20  34  62  96 120 153 203 253 304 359
#     4  10  20  38  60  93 114 149 206 261 305 347
#     4  11  22  37  62  89 128 158 204 250 303 364
#     4  11  24  40  60  87 128 164 197 248 306 366
#     4  10  18  34  59  88 122 148 196 251 304 352
#     4  12  25  40  54  91 136 173 195 228 309 386
#     4  11  22  34  61  94 127 161 199 245 305 366
#     4  10  23  40  64  88 118 153 207 265 308 342
#
# _framework density 20.056441
#
# number of rings (size 3 to 8) (size 9 to 14) (size 15 to 20)
#    0.000    1.250    5.000    1.500    3.500    2.500 
#    0.000    0.625    0.000    1.500    0.000    0.000 
#    0.000    0.000    0.000    0.000    0.000    0.000 
#
# Total GULP energy -198312.110474 kJ/mol
# GULP energy per Si atom -12394.506905 kJ/mol
# Density = 2.001079 g / cm^3
# Si number density = 20.056441 Si / 1000 Ang^3
#
#
#
# Elastic Constant Matrix: (Units=GPa)
#
#
# Indices 1 2 3 4 5 6 
#
# 1 117.8132 54.8422 44.0611 0.6784 9.7864 10.3042
# 2 54.8422 107.1536 51.6528 9.8166 3.4569 10.9882
# 3 44.0611 51.6528 91.0059 13.0841 -0.2597 5.7400
# 4 0.6784 9.8166 13.0841 26.7902 5.7209 1.9197
# 5 9.7864 3.4569 -0.2597 5.7209 34.5443 -0.9778
# 6 10.3042 10.9882 5.7400 1.9197 -0.9778 26.3787
#
#
#
# Elastic Compliance Matrix: (Units=1/GPa)
#
#
# Indices 1 2 3 4 5 6 
#
# 1 0.012630 -0.004530 -0.004012 0.004331 -0.003947 -0.002635
# 2 -0.004530 0.014955 -0.005767 -0.002341 0.000045 -0.003033
# 3 -0.004012 -0.005767 0.017145 -0.006861 0.003003 0.000849
# 4 0.004331 -0.002341 -0.006861 0.043393 -0.008307 -0.002690
# 5 -0.003947 0.000045 0.003003 -0.008307 0.031535 0.002643
# 6 -0.002635 -0.003033 0.000849 -0.002690 0.002643 0.040311
#
#
# Mechanical properties :
#
#
# Convention : Reuss Voigt Hill
#
# Bulk Modulus (GPa) = 62.05978 68.56498 65.31238
# Shear Modulus (GPa) = 25.77891 28.57042 27.17466
#
# Velocity S-wave (km/s) = 3.58902 3.77835 3.68490
# Velocity P-wave (km/s) = 6.94151 7.30033 7.12318
#
# Compressibility (1/GPa) = 0.01611350
#
# Stress axis : x y z
#
# Youngs Moduli (GPa) = 79.17406 66.86899 58.32525
#
# Poissons Ratio (x) = 0.30289 0.23399
# Poissons Ratio (y) = 0.35863 0.33635
# Poissons Ratio (z) = 0.31764 0.38562
#
# Static dielectric constant tensor:
#      x y z
#    x 3.711760 -0.055360 -0.032140 
#    y -0.055360 3.817890 0.016650 
#    z -0.032140 0.016650 3.495660 
# 
# 
# High freq. dielectric constant tensor:
#      x y z
#    x 1.767370 -0.003060 -0.005450 
#    y -0.003060 1.796120 0.001010 
#    z -0.005450 0.001010 1.755020 
# 
# From -- ./inp_files/274185.got.cif
#   From: 2010.06.25/outbox.cif.g09.slc.cpg/sg2_138_cif.got.tgz:274185.got - 2010.06.27 13:26:56.
