data_PCOD8039484
_publ_section_title
;
Structure prediction by ZEFSAII (Michael W. Deem and Ramdas Pophale) SiO2 
 PCOD8039484
Probable space group: P -1
;
_chemical_formula_sum "Si O2"
_cell_formula_units_Z 16
_cell_length_a 11.482465
_cell_length_b 22.454702
_cell_length_c 14.124309
_cell_angle_alpha 158.960826
_cell_angle_beta 51.249027
_cell_angle_gamma 135.310916
_cell_volume 909.192923
_symmetry_space_group_name_H-M "P -1"
_symmetry_group_IT_number 2
_symmetry_cell_setting 'triclinic'
loop_
_space_group_symop_operation_xyz
x,y,z
-x,-y,-z
loop_
_atom_site_type_symbol
_atom_site_label
_atom_site_fract_x
_atom_site_fract_y
_atom_site_fract_z
Si Si1 0.292098 0.874825 0.623680
Si Si2 0.914992 0.243601 0.254257
Si Si3 0.166919 0.514038 0.052076
Si Si4 0.823906 0.539601 0.244040
Si Si5 0.344125 0.798011 0.048421
Si Si6 0.009181 0.944744 0.807116
Si Si7 0.021985 0.817044 0.222394
Si Si8 0.852343 0.333278 0.220148
O O1 0.209500 0.822883 0.692243
O O2 0.302660 0.696870 0.308213
O O3 0.186817 0.938688 0.699101
O O4 0.476118 0.038235 0.780714
O O5 0.813781 0.253103 0.226990
O O6 0.068116 0.444163 0.493064
O O7 0.993747 0.100890 0.981639
O O8 0.994730 0.527910 0.156641
O O9 0.234367 0.498011 0.890989
O O10 0.133330 0.330029 0.855371
O O11 0.854276 0.745124 0.564430
O O12 0.679034 0.383720 0.150050
O O13 0.200873 0.859709 0.243951
O O14 0.319632 0.745529 0.870552
O O15 0.000000 0.000000 0.000000
O O16 0.018512 0.730468 0.991257
O O17 0.000000 0.000000 0.500000
#
# Coordination Sequence:
#
# PCOD8039484 Si02
#       8
#     2   2   2   2   2   2   2   2
#     4  10  18  34  52  77 106 135 161 213 265 301
#     4  10  18  34  55  75 100 138 177 209 241 304
#     4   9  17  31  53  71 100 134 171 206 255 300
#     4   9  17  31  50  74  99 135 169 211 248 300
#     4   9  19  33  51  77 108 131 163 209 269 302
#     4   9  18  31  53  77  99 131 178 208 243 299
#     4   9  18  34  54  75  97 131 176 209 242 303
#     4   9  19  34  54  75 102 135 176 207 252 299
#
# _framework density 17.598025
#
# number of rings (size 3 to 8) (size 9 to 14) (size 15 to 20)
#    0.750    2.000    1.250    1.500    1.750    1.000 
#    0.000    6.250    0.000    1.500    0.000    0.000 
#    0.000    0.000    0.000    0.000    0.000    0.000 
#
# Total GULP energy -198254.331938 kJ/mol
# GULP energy per Si atom -12390.895746 kJ/mol
# Density = 1.755797 g / cm^3
# Si number density = 17.598025 Si / 1000 Ang^3
#
#
#
# Elastic Constant Matrix: (Units=GPa)
#
#
# Indices 1 2 3 4 5 6 
#
# 1 61.9108 44.5963 64.1725 18.2147 14.2590 -5.0070
# 2 44.5963 72.4583 57.0608 14.0510 13.5100 -17.6595
# 3 64.1725 57.0608 163.7207 24.4481 3.3919 -11.9076
# 4 18.2147 14.0510 24.4481 28.9128 -0.7031 5.5881
# 5 14.2590 13.5100 3.3919 -0.7031 34.4517 1.0067
# 6 -5.0070 -17.6595 -11.9076 5.5881 1.0067 23.2187
#
#
#
# Elastic Compliance Matrix: (Units=1/GPa)
#
#
# Indices 1 2 3 4 5 6 
#
# 1 0.042882 -0.015831 -0.009898 -0.010255 -0.010630 -0.004941
# 2 -0.015831 0.034849 -0.002548 -0.009725 -0.007776 0.024462
# 3 -0.009898 -0.002548 0.011311 -0.002410 0.003870 0.002141
# 4 -0.010255 -0.009725 -0.002410 0.052687 0.010071 -0.023961
# 5 -0.010630 -0.007776 0.003870 0.010071 0.036599 -0.010232
# 6 -0.004941 0.024462 0.002141 -0.023961 -0.010232 0.067917
#
#
# Mechanical properties :
#
#
# Convention : Reuss Voigt Hill
#
# Bulk Modulus (GPa) = 30.78175 69.97210 50.37692
# Shear Modulus (GPa) = 15.94243 26.13400 21.03821
#
# Velocity S-wave (km/s) = 3.01312 3.85782 3.46133
# Velocity P-wave (km/s) = 5.44378 7.72602 6.68304
#
# Compressibility (1/GPa) = 0.03248679
#
# Stress axis : x y z
#
# Youngs Moduli (GPa) = 23.31995 28.69525 88.40865
#
# Poissons Ratio (x) = 0.45429 0.87508
# Poissons Ratio (y) = 0.36919 0.22526
# Poissons Ratio (z) = 0.23082 0.07311
#
# Static dielectric constant tensor:
#      x y z
#    x 3.184380 -0.369200 -0.101310 
#    y -0.369200 3.119720 0.071450 
#    z -0.101310 0.071450 3.519900 
# 
# 
# High freq. dielectric constant tensor:
#      x y z
#    x 1.647590 -0.030260 0.005740 
#    y -0.030260 1.656920 0.008500 
#    z 0.005740 0.008500 1.695700 
# 
# From -- ./inp_files/535351.got.cif
#   From: 2010.06.25/outbox.cif.g09.slc.cpg/sg2_268_cif.got.tgz:535351.got - 2010.06.27 13:26:56.
