data_PCOD8039470
_publ_section_title
;
Structure prediction by ZEFSAII (Michael W. Deem and Ramdas Pophale) SiO2 
 PCOD8039470
Probable space group: P -1
;
_chemical_formula_sum "Si O2"
_cell_formula_units_Z 14
_cell_length_a 9.309801
_cell_length_b 9.928669
_cell_length_c 18.992613
_cell_angle_alpha 28.553165
_cell_angle_beta 95.586402
_cell_angle_gamma 108.826114
_cell_volume 723.911114
_symmetry_space_group_name_H-M "P -1"
_symmetry_group_IT_number 2
_symmetry_cell_setting 'triclinic'
loop_
_space_group_symop_operation_xyz
x,y,z
-x,-y,-z
loop_
_atom_site_type_symbol
_atom_site_label
_atom_site_fract_x
_atom_site_fract_y
_atom_site_fract_z
Si Si1 0.440000 0.641581 0.074234
Si Si2 0.837403 0.595636 0.011666
Si Si3 0.916943 0.617528 0.847184
Si Si4 0.531712 0.862456 0.775828
Si Si5 0.744001 0.118525 0.801289
Si Si6 0.606628 0.950508 0.586347
Si Si7 0.972963 0.155256 0.496122
O O1 0.269147 0.652870 0.063083
O O2 0.439015 0.448995 0.089846
O O3 0.448250 0.434792 0.235977
O O4 0.602869 0.997206 0.912542
O O5 0.919031 0.701598 0.890448
O O6 0.827622 0.891637 0.911232
O O7 0.659013 0.264104 0.153767
O O8 0.959886 0.521631 0.099183
O O9 0.974523 0.955900 0.655351
O O10 0.572554 0.053564 0.614796
O O11 0.658474 0.104342 0.728758
O O12 0.878543 0.481210 0.657756
O O13 0.500000 0.000000 0.500000
O O14 0.801165 0.162112 0.479655
O O15 0.000000 0.000000 0.500000
#
# Coordination Sequence:
#
# PCOD8039470 Si02
#       7
#     2   2   2   2   2   2   2
#     4   8  16  34  60  86 111 152 188 234 287 347
#     4  10  18  33  67  90 116 145 195 245 288 346
#     4  10  19  36  58  92 123 146 186 243 300 337
#     4   9  17  33  65  88 113 151 192 242 285 348
#     4  11  18  38  63  89 111 156 201 234 291 349
#     4   9  20  38  60  84 118 157 190 229 300 350
#     4  11  26  40  56  83 127 157 189 247 297 336
#
# _framework density 19.339390000000002
#
# number of rings (size 3 to 8) (size 9 to 14) (size 15 to 20)
#    0.857    1.429    2.857    0.857    2.000    2.286 
#    0.000    7.857    0.000    0.000    0.000    0.000 
#    0.000    0.000    0.000    0.000    0.000    0.000 
#
# Total GULP energy -173516.821576 kJ/mol
# GULP energy per Si atom -12394.058684 kJ/mol
# Density = 1.929537 g / cm^3
# Si number density = 19.339390 Si / 1000 Ang^3
#
#
#
# Elastic Constant Matrix: (Units=GPa)
#
#
# Indices 1 2 3 4 5 6 
#
# 1 150.8346 51.0225 76.8752 0.1842 -7.0967 33.2562
# 2 51.0225 70.1175 52.8214 -3.0443 -5.7449 22.8369
# 3 76.8752 52.8214 115.8039 -9.1946 -24.7091 24.8242
# 4 0.1842 -3.0443 -9.1946 26.6147 6.3903 5.8885
# 5 -7.0967 -5.7449 -24.7091 6.3903 35.3017 6.1860
# 6 33.2562 22.8369 24.8242 5.8885 6.1860 26.7832
#
#
#
# Elastic Compliance Matrix: (Units=1/GPa)
#
#
# Indices 1 2 3 4 5 6 
#
# 1 0.011704 -0.002074 -0.005226 -0.000348 -0.000214 -0.007795
# 2 -0.002074 0.025733 -0.006983 0.003437 0.000680 -0.013807
# 3 -0.005226 -0.006983 0.021124 0.005833 0.013567 -0.011552
# 4 -0.000348 0.003437 0.005833 0.043930 -0.000315 -0.017491
# 5 -0.000214 0.000680 0.013567 -0.000315 0.041890 -0.022495
# 6 -0.007795 -0.013807 -0.011552 -0.017491 -0.022495 0.078536
#
#
# Mechanical properties :
#
#
# Convention : Reuss Voigt Hill
#
# Bulk Modulus (GPa) = 33.33864 77.57712 55.45788
# Shear Modulus (GPa) = 19.12198 28.14238 23.63218
#
# Velocity S-wave (km/s) = 3.14786 3.81883 3.49946
# Velocity P-wave (km/s) = 5.52161 7.72303 6.71317
#
# Compressibility (1/GPa) = 0.02999523
#
# Stress axis : x y z
#
# Youngs Moduli (GPa) = 85.44426 38.86027 47.33998
#
# Poissons Ratio (x) = 0.08058 0.24739
# Poissons Ratio (y) = 0.17717 0.33059
# Poissons Ratio (z) = 0.44651 0.27138
#
# Static dielectric constant tensor:
#      x y z
#    x 3.838630 0.000290 -0.201050 
#    y 0.000290 3.184150 0.296960 
#    z -0.201050 0.296960 3.386430 
# 
# 
# High freq. dielectric constant tensor:
#      x y z
#    x 1.765940 0.004840 -0.021430 
#    y 0.004840 1.725730 0.030110 
#    z -0.021430 0.030110 1.730950 
# 
# From -- ./inp_files/607733.got.cif
#   From: 2010.06.25/outbox.cif.g09.slc.cpg/sg2_304_cif.got.tgz:607733.got - 2010.06.27 13:26:56.
