data_PCOD8039038
_publ_section_title
;
Structure prediction by ZEFSAII (Michael W. Deem and Ramdas Pophale) SiO2 
 PCOD8039038
Probable space group: P -1
;
_chemical_formula_sum "Si O2"
_cell_formula_units_Z 16
_cell_length_a 9.898398
_cell_length_b 11.482316
_cell_length_c 16.201053
_cell_angle_alpha 140.203296
_cell_angle_beta 50.591129
_cell_angle_gamma 103.091676
_cell_volume 773.174298
_symmetry_space_group_name_H-M "P -1"
_symmetry_group_IT_number 2
_symmetry_cell_setting 'triclinic'
loop_
_space_group_symop_operation_xyz
x,y,z
-x,-y,-z
loop_
_atom_site_type_symbol
_atom_site_label
_atom_site_fract_x
_atom_site_fract_y
_atom_site_fract_z
Si Si1 0.306061 0.701495 0.723316
Si Si2 0.516491 0.044541 0.254443
Si Si3 0.688391 0.760733 0.882641
Si Si4 0.909233 0.529530 0.352060
Si Si5 0.962427 0.830378 0.177519
Si Si6 0.084291 0.425579 0.807850
Si Si7 0.323828 0.837739 0.967277
Si Si8 0.524909 0.098998 0.462032
O O1 0.500000 0.500000 0.500000
O O2 0.298625 0.906636 0.798031
O O3 0.114568 0.677913 0.761077
O O4 0.324534 0.703649 0.816115
O O5 0.299631 0.252892 0.420550
O O6 0.507197 0.989179 0.323820
O O7 0.573612 0.851085 0.064948
O O8 0.725745 0.929089 0.912402
O O9 0.546539 0.706223 0.853260
O O10 0.908117 0.539958 0.690601
O O11 0.987059 0.562932 0.252079
O O12 0.957980 0.745507 0.224684
O O13 0.961593 0.657443 0.022512
O O14 0.152529 0.862089 0.111717
O O15 0.753810 0.059000 0.360095
O O16 0.331084 0.343881 0.668019
O O17 0.500000 0.000000 0.500000
#
# Coordination Sequence:
#
# PCOD8039038 Si02
#       8
#     2   2   2   2   2   2   2   2
#     4   9  18  32  53  80 106 131 177 232 263 310
#     4   9  19  32  53  79 108 139 184 220 266 325
#     4  10  22  37  53  75 116 152 174 218 267 327
#     4  10  18  34  56  78 106 142 178 224 274 309
#     4  10  18  32  54  78 109 140 174 227 271 312
#     4   9  18  32  53  82 108 134 176 228 273 314
#     4  10  21  37  53  80 113 144 186 217 267 327
#     4   9  18  31  52  82 109 136 174 225 276 313
#
# _framework density 20.693912000000001
#
# number of rings (size 3 to 8) (size 9 to 14) (size 15 to 20)
#    0.000    2.500    1.250    0.750    1.750    1.000 
#    0.000   11.875    0.000    6.750    0.000    0.000 
#    0.000    0.000    0.000    0.000    0.000    0.000 
#
# Total GULP energy -198217.828026 kJ/mol
# GULP energy per Si atom -12388.614252 kJ/mol
# Density = 2.064681 g / cm^3
# Si number density = 20.693912 Si / 1000 Ang^3
#
#
#
# Elastic Constant Matrix: (Units=GPa)
#
#
# Indices 1 2 3 4 5 6 
#
# 1 88.5150 30.0965 19.7018 0.2594 -33.2114 -7.5508
# 2 30.0965 72.1766 23.4482 -18.8258 -18.6006 -11.0296
# 3 19.7018 23.4482 57.7407 -6.6813 -19.3520 0.5976
# 4 0.2594 -18.8258 -6.6813 27.1078 -4.0368 -5.4870
# 5 -33.2114 -18.6006 -19.3520 -4.0368 33.0743 2.1568
# 6 -7.5508 -11.0296 0.5976 -5.4870 2.1568 23.8613
#
#
#
# Elastic Compliance Matrix: (Units=1/GPa)
#
#
# Indices 1 2 3 4 5 6 
#
# 1 0.019117 -0.002551 0.000760 0.001666 0.018175 0.003592
# 2 -0.002551 0.028331 -0.003620 0.024150 0.013109 0.016748
# 3 0.000760 -0.003620 0.023543 0.004825 0.013229 -0.002109
# 4 0.001666 0.024150 0.004825 0.063289 0.024242 0.023932
# 5 0.018175 0.013109 0.013229 0.024242 0.065833 0.011104
# 6 0.003592 0.016748 -0.002109 0.023932 0.011104 0.055339
#
#
# Mechanical properties :
#
#
# Convention : Reuss Voigt Hill
#
# Bulk Modulus (GPa) = 16.61968 40.54726 28.58347
# Shear Modulus (GPa) = 17.46237 26.48774 21.97506
#
# Velocity S-wave (km/s) = 2.90805 3.58156 3.26223
# Velocity P-wave (km/s) = 4.39594 6.06133 5.29453
#
# Compressibility (1/GPa) = 0.06016962
#
# Stress axis : x y z
#
# Youngs Moduli (GPa) = 52.31056 35.29672 42.47470
#
# Poissons Ratio (x) = 0.09004 -0.03229
# Poissons Ratio (y) = 0.13344 0.15377
# Poissons Ratio (z) = -0.03977 0.12778
#
# Static dielectric constant tensor:
#      x y z
#    x 3.880050 0.180260 -0.285160 
#    y 0.180260 4.510920 -0.199380 
#    z -0.285160 -0.199380 3.984300 
# 
# 
# High freq. dielectric constant tensor:
#      x y z
#    x 1.773230 -0.025620 -0.020900 
#    y -0.025620 1.801090 -0.022210 
#    z -0.020900 -0.022210 1.813260 
# 
# From -- ./inp_files/195791.got.cif
#   From: 2010.06.25/outbox.cif.g09.slc.cpg/sg2_98_cif.got.tgz:195791.got - 2010.06.27 13:26:56.
