data_PCOD8039255
_publ_section_title
;
Structure prediction by ZEFSAII (Michael W. Deem and Ramdas Pophale) SiO2 
 PCOD8039255
Probable space group: P -1
;
_chemical_formula_sum "Si O2"
_cell_formula_units_Z 16
_cell_length_a 16.228841
_cell_length_b 22.588963
_cell_length_c 12.750923
_cell_angle_alpha 29.310572
_cell_angle_beta 137.313163
_cell_angle_gamma 158.258698
_cell_volume 771.985586
_symmetry_space_group_name_H-M "P -1"
_symmetry_group_IT_number 2
_symmetry_cell_setting 'triclinic'
loop_
_space_group_symop_operation_xyz
x,y,z
-x,-y,-z
loop_
_atom_site_type_symbol
_atom_site_label
_atom_site_fract_x
_atom_site_fract_y
_atom_site_fract_z
Si Si1 0.134628 0.817472 0.807324
Si Si2 0.617317 0.781498 0.728845
Si Si3 0.652356 0.180391 0.734186
Si Si4 0.819303 0.701864 0.067789
Si Si5 0.754748 0.466419 0.545232
Si Si6 0.542567 0.130609 0.477630
Si Si7 0.792699 0.039098 0.131042
Si Si8 0.880968 0.358036 0.258411
O O1 0.049337 0.812926 0.841216
O O2 0.193475 0.968156 0.542872
O O3 0.369460 0.941384 0.875647
O O4 0.952803 0.558924 0.990558
O O5 0.407339 0.561308 0.791718
O O6 0.512670 0.773094 0.740512
O O7 0.756842 0.787988 0.897306
O O8 0.800205 0.396451 0.614308
O O9 0.671614 0.242829 0.537303
O O10 0.762378 0.143744 0.891602
O O11 0.862123 0.677815 0.259382
O O12 0.055795 0.906410 0.896889
O O13 0.904697 0.555399 0.652123
O O14 0.472676 0.249463 0.648275
O O15 0.716502 0.217370 0.425115
O O16 0.284469 0.833280 0.697156
#
# Coordination Sequence:
#
# PCOD8039255 Si02
#       8
#     2   2   2   2   2   2   2   2
#     4  10  18  34  55  84 116 141 183 236 284 336
#     4  10  22  39  51  82 118 155 191 228 279 333
#     4  10  18  33  54  83 117 138 181 233 293 328
#     4  11  22  36  58  81 117 157 190 232 273 332
#     4  11  20  37  57  90 112 146 188 238 284 337
#     4  10  22  37  55  87 114 151 185 230 295 340
#     4  11  19  33  57  87 116 144 190 236 284 334
#     4  11  21  35  60  88 114 143 186 238 296 339
#
# _framework density 20.725776
#
# number of rings (size 3 to 8) (size 9 to 14) (size 15 to 20)
#    0.000    1.500    6.250    2.250    0.000    3.500 
#    2.250    0.625    0.000    0.750    0.000    0.000 
#    0.000    0.000    0.000    0.000    0.000    0.000 
#
# Total GULP energy -198281.835640 kJ/mol
# GULP energy per Si atom -12392.614727 kJ/mol
# Density = 2.067860 g / cm^3
# Si number density = 20.725776 Si / 1000 Ang^3
#
#
#
# Elastic Constant Matrix: (Units=GPa)
#
#
# Indices 1 2 3 4 5 6 
#
# 1 50.8905 -0.9715 16.7468 1.8877 3.6598 17.3527
# 2 -0.9715 29.0060 23.8954 -3.2818 8.5084 6.0368
# 3 16.7468 23.8954 96.8088 -0.9675 6.6413 6.4352
# 4 1.8877 -3.2818 -0.9675 26.5109 2.1167 1.8960
# 5 3.6598 8.5084 6.6413 2.1167 30.9986 -4.3037
# 6 17.3527 6.0368 6.4352 1.8960 -4.3037 17.8652
#
#
#
# Elastic Compliance Matrix: (Units=1/GPa)
#
#
# Indices 1 2 3 4 5 6 
#
# 1 0.040659 0.023990 -0.008504 0.004604 -0.016687 -0.049044
# 2 0.023990 0.066695 -0.015616 0.011383 -0.025163 -0.047484
# 3 -0.008504 -0.015616 0.014782 -0.001731 0.003525 0.009246
# 4 0.004604 0.011383 -0.001731 0.040370 -0.007984 -0.013903
# 5 -0.016687 -0.025163 0.003525 -0.007984 0.045831 0.035329
# 6 -0.049044 -0.047484 0.009246 -0.013903 0.035329 0.126313
#
#
# Mechanical properties :
#
#
# Convention : Reuss Voigt Hill
#
# Bulk Modulus (GPa) = 8.20507 28.44963 18.32735
# Shear Modulus (GPa) = 13.31435 24.21057 18.76246
#
# Velocity S-wave (km/s) = 2.53732 3.42151 3.01204
# Velocity P-wave (km/s) = 3.54281 5.41899 4.57804
#
# Compressibility (1/GPa) = 0.12187582
#
# Stress axis : x y z
#
# Youngs Moduli (GPa) = 24.59485 14.99358 67.65161
#
# Poissons Ratio (x) = -0.35970 0.57533
# Poissons Ratio (y) = -0.59004 1.05646
# Poissons Ratio (z) = 0.20916 0.23414
#
# Static dielectric constant tensor:
#      x y z
#    x 3.824640 0.037770 0.019680 
#    y 0.037770 3.704340 -0.098590 
#    z 0.019680 -0.098590 3.682150 
# 
# 
# High freq. dielectric constant tensor:
#      x y z
#    x 1.795600 0.008150 -0.009520 
#    y 0.008150 1.784510 -0.005590 
#    z -0.009520 -0.005590 1.808710 
# 
# From -- ./inp_files/425949.got.cif
#   From: 2010.06.25/outbox.cif.g09.slc.cpg/sg2_213_cif.got.tgz:425949.got - 2010.06.27 13:26:56.
