data_PCOD8039626
_publ_section_title
;
Structure prediction by ZEFSAII (Michael W. Deem and Ramdas Pophale) SiO2 
 PCOD8039626
Probable space group: P -1
;
_chemical_formula_sum "Si O2"
_cell_formula_units_Z 16
_cell_length_a 16.393634
_cell_length_b 15.206919
_cell_length_c 12.848089
_cell_angle_alpha 45.059710
_cell_angle_beta 24.193906
_cell_angle_gamma 38.087703
_cell_volume 808.893142
_symmetry_space_group_name_H-M "P -1"
_symmetry_group_IT_number 2
_symmetry_cell_setting 'triclinic'
loop_
_space_group_symop_operation_xyz
x,y,z
-x,-y,-z
loop_
_atom_site_type_symbol
_atom_site_label
_atom_site_fract_x
_atom_site_fract_y
_atom_site_fract_z
Si Si1 0.828475 0.097768 0.002927
Si Si2 0.382322 0.846544 0.363661
Si Si3 0.632511 0.785724 0.434534
Si Si4 0.238605 0.126908 0.998870
Si Si5 0.981243 0.210183 0.904942
Si Si6 0.767373 0.298550 0.494946
Si Si7 0.487768 0.621195 0.608242
Si Si8 0.888027 0.101197 0.706079
O O1 0.614566 0.121500 0.303160
O O2 0.970260 0.166836 0.834100
O O3 0.758234 0.165019 0.913447
O O4 0.984573 0.926416 0.952365
O O5 0.596194 0.874775 0.100387
O O6 0.387174 0.764154 0.321179
O O7 0.405442 0.743563 0.516632
O O8 0.154334 0.999125 0.507001
O O9 0.669957 0.871911 0.224606
O O10 0.650558 0.641312 0.486272
O O11 0.818892 0.751892 0.336314
O O12 0.984566 0.262092 0.198391
O O13 0.218579 0.985263 0.155839
O O14 0.744990 0.352907 0.087705
O O15 0.619569 0.467653 0.531945
O O16 0.852899 0.231440 0.565628
#
# Coordination Sequence:
#
# PCOD8039626 Si02
#       8
#     2   2   2   2   2   2   2   2
#     4  10  20  33  59  89 108 143 185 240 283 321
#     4  10  20  37  60  81 109 149 195 236 265 322
#     4  10  20  34  59  90 112 136 189 248 276 317
#     4  10  21  36  58  86 112 145 191 234 278 324
#     4  10  18  34  58  84 112 138 185 239 279 320
#     4  11  24  38  55  81 123 155 179 223 283 343
#     4  10  21  37  57  86 112 149 190 228 278 329
#     4  11  22  38  56  84 119 149 184 227 284 338
#
# _framework density 19.780116
#
# number of rings (size 3 to 8) (size 9 to 14) (size 15 to 20)
#    0.000    1.750    2.500    3.000    1.750    5.000 
#    0.000    2.500    0.000    1.500    0.000    0.000 
#    0.000    0.000    0.000    0.000    0.000    0.000 
#
# Total GULP energy -198324.413877 kJ/mol
# GULP energy per Si atom -12395.275867 kJ/mol
# Density = 1.973510 g / cm^3
# Si number density = 19.780116 Si / 1000 Ang^3
#
#
#
# Elastic Constant Matrix: (Units=GPa)
#
#
# Indices 1 2 3 4 5 6 
#
# 1 118.2964 23.6176 44.3275 6.0491 -24.0230 9.6662
# 2 23.6176 50.4805 25.4568 13.2193 -1.0851 0.0468
# 3 44.3275 25.4568 74.8532 9.3683 -10.7633 3.4232
# 4 6.0491 13.2193 9.3683 16.7446 3.8175 3.1263
# 5 -24.0230 -1.0851 -10.7633 3.8175 42.4296 -2.0736
# 6 9.6662 0.0468 3.4232 3.1263 -2.0736 18.6686
#
#
#
# Elastic Compliance Matrix: (Units=1/GPa)
#
#
# Indices 1 2 3 4 5 6 
#
# 1 0.012604 -0.003224 -0.005464 0.000772 0.005352 -0.005051
# 2 -0.003224 0.029500 -0.005998 -0.019760 -0.000524 0.005946
# 3 -0.005464 -0.005998 0.019526 -0.004762 0.002149 0.000300
# 4 0.000772 -0.019760 -0.004762 0.082527 -0.009402 -0.014341
# 5 0.005352 -0.000524 0.002149 -0.009402 0.028051 0.001526
# 6 -0.005051 0.005946 0.000300 -0.014341 0.001526 0.058682
#
#
# Mechanical properties :
#
#
# Convention : Reuss Voigt Hill
#
# Bulk Modulus (GPa) = 30.99842 47.82599 39.41220
# Shear Modulus (GPa) = 18.44913 25.58379 22.01646
#
# Velocity S-wave (km/s) = 3.05734 3.60030 3.33987
# Velocity P-wave (km/s) = 5.30742 6.44315 5.90266
#
# Compressibility (1/GPa) = 0.03225971
#
# Stress axis : x y z
#
# Youngs Moduli (GPa) = 79.33683 33.89797 51.21322
#
# Poissons Ratio (x) = 0.10929 0.27982
# Poissons Ratio (y) = 0.25579 0.30716
# Poissons Ratio (z) = 0.43349 0.20331
#
# Static dielectric constant tensor:
#      x y z
#    x 3.981810 0.203980 -0.191060 
#    y 0.203980 3.154790 0.095340 
#    z -0.191060 0.095340 3.549310 
# 
# 
# High freq. dielectric constant tensor:
#      x y z
#    x 1.789370 0.017100 -0.010860 
#    y 0.017100 1.728240 0.013030 
#    z -0.010860 0.013030 1.762490 
# 
# From -- ./inp_files/307014.got.cif
#   From: 2010.06.25/outbox.cif.g09.slc.cpg/sg2_154_cif.got.tgz:307014.got - 2010.06.27 13:26:56.
