data_PCOD8039471
_publ_section_title
;
Structure prediction by ZEFSAII (Michael W. Deem and Ramdas Pophale) SiO2 
 PCOD8039471
Probable space group: P -1
;
_chemical_formula_sum "Si O2"
_cell_formula_units_Z 16
_cell_length_a 5.229311
_cell_length_b 14.834513
_cell_length_c 15.500642
_cell_angle_alpha 58.745174
_cell_angle_beta 106.997080
_cell_angle_gamma 87.990609
_cell_volume 957.049396
_symmetry_space_group_name_H-M "P -1"
_symmetry_group_IT_number 2
_symmetry_cell_setting 'triclinic'
loop_
_space_group_symop_operation_xyz
x,y,z
-x,-y,-z
loop_
_atom_site_type_symbol
_atom_site_label
_atom_site_fract_x
_atom_site_fract_y
_atom_site_fract_z
Si Si1 0.672774 0.405032 0.459818
Si Si2 0.869751 0.421287 0.142207
Si Si3 0.912861 0.578718 0.646536
Si Si4 0.877988 0.039495 0.095729
Si Si5 0.729461 0.384469 0.666824
Si Si6 0.052835 0.833881 0.116323
Si Si7 0.682135 0.641914 0.923224
Si Si8 0.342792 0.147115 0.076663
O O1 0.902600 0.371529 0.426330
O O2 0.795361 0.354511 0.587903
O O3 0.577442 0.537190 0.394838
O O4 0.406431 0.359405 0.428821
O O5 0.997425 0.402768 0.257922
O O6 0.598302 0.374429 0.138217
O O7 0.090870 0.358023 0.127459
O O8 0.795277 0.548718 0.050472
O O9 0.945899 0.450425 0.693748
O O10 0.641302 0.070251 0.127991
O O11 0.150953 0.075859 0.138933
O O12 0.942188 0.910837 0.148853
O O13 0.781449 0.102163 0.963777
O O14 0.746028 0.275851 0.776766
O O15 0.797190 0.806641 0.051302
O O16 0.620785 0.756186 0.907274
#
# Coordination Sequence:
#
# PCOD8039471 Si02
#       8
#     2   2   2   2   2   2   2   2
#     4   9  20  32  46  70  97 126 160 196 217 287
#     4  10  20  31  45  68  93 121 161 196 224 276
#     4  10  18  34  46  65  97 130 155 187 237 267
#     4   9  20  32  46  70  97 126 160 196 217 287
#     4   9  19  31  49  70  97 131 156 188 235 276
#     4   9  19  31  49  70  97 131 156 188 235 276
#     4  10  20  31  45  68  93 121 161 196 224 276
#     4  10  18  34  46  65  97 130 155 187 237 267
#
# _framework density 16.718050999999999
#
# number of rings (size 3 to 8) (size 9 to 14) (size 15 to 20)
#    1.500    1.000    0.000    3.000    0.000    2.000 
#    0.000    0.000    0.000    0.000    0.000    0.000 
#    0.000   20.000    0.000    0.000    0.000    0.000 
#
# Total GULP energy -198262.963870 kJ/mol
# GULP energy per Si atom -12391.435242 kJ/mol
# Density = 1.668000 g / cm^3
# Si number density = 16.718051 Si / 1000 Ang^3
#
#
#
# Elastic Constant Matrix: (Units=GPa)
#
#
# Indices 1 2 3 4 5 6 
#
# 1 84.4436 6.2956 2.3634 0.3699 4.0392 -8.2423
# 2 6.2956 50.8459 9.0166 11.3897 7.0505 -1.6461
# 3 2.3634 9.0166 32.1904 4.4962 0.6773 5.4840
# 4 0.3699 11.3897 4.4962 20.1240 0.6581 0.7519
# 5 4.0392 7.0505 0.6773 0.6581 12.9836 3.2825
# 6 -8.2423 -1.6461 5.4840 0.7519 3.2825 17.4708
#
#
#
# Elastic Compliance Matrix: (Units=1/GPa)
#
#
# Indices 1 2 3 4 5 6 
#
# 1 0.012960 -0.000228 -0.002139 0.000265 -0.005793 0.007841
# 2 -0.000228 0.026130 -0.006477 -0.013135 -0.015084 0.007787
# 3 -0.002139 -0.006477 0.035820 -0.003978 0.006010 -0.013821
# 4 0.000265 -0.013135 -0.003978 0.057966 0.005161 -0.003328
# 5 -0.005793 -0.015084 0.006010 0.005161 0.092411 -0.023625
# 6 0.007841 0.007787 -0.013821 -0.003328 -0.023625 0.070592
#
#
# Mechanical properties :
#
#
# Convention : Reuss Voigt Hill
#
# Bulk Modulus (GPa) = 17.47525 22.53680 20.00602
# Shear Modulus (GPa) = 15.03125 20.10263 17.56694
#
# Velocity S-wave (km/s) = 3.00176 3.47140 3.24509
# Velocity P-wave (km/s) = 4.74233 5.43850 5.10230
#
# Compressibility (1/GPa) = 0.05722379
#
# Stress axis : x y z
#
# Youngs Moduli (GPa) = 77.15853 38.27014 27.91720
#
# Poissons Ratio (x) = 0.00872 0.05971
# Poissons Ratio (y) = 0.01757 0.18082
# Poissons Ratio (z) = 0.16502 0.24787
#
# Static dielectric constant tensor:
#      x y z
#    x 3.110820 -0.001270 0.034600 
#    y -0.001270 2.881590 0.137500 
#    z 0.034600 0.137500 2.763280 
# 
# 
# High freq. dielectric constant tensor:
#      x y z
#    x 1.650210 -0.001510 0.005070 
#    y -0.001510 1.622970 0.018970 
#    z 0.005070 0.018970 1.605330 
# 
# From -- ./inp_files/483587.got.cif
#   From: 2010.06.25/outbox.cif.g09.slc.cpg/sg2_242_cif.got.tgz:483587.got - 2010.06.27 13:26:56.
