data_PCOD8039878
_publ_section_title
;
Structure prediction by ZEFSAII (Michael W. Deem and Ramdas Pophale) SiO2 
 PCOD8039878
Probable space group: P -1
;
_chemical_formula_sum "Si O2"
_cell_formula_units_Z 16
_cell_length_a 12.078469
_cell_length_b 8.640586
_cell_length_c 11.530284
_cell_angle_alpha 138.988718
_cell_angle_beta 78.085687
_cell_angle_gamma 95.749060
_cell_volume 769.738566
_symmetry_space_group_name_H-M "P -1"
_symmetry_group_IT_number 2
_symmetry_cell_setting 'triclinic'
loop_
_space_group_symop_operation_xyz
x,y,z
-x,-y,-z
loop_
_atom_site_type_symbol
_atom_site_label
_atom_site_fract_x
_atom_site_fract_y
_atom_site_fract_z
Si Si1 0.917212 0.934143 0.081179
Si Si2 0.602214 0.868880 0.270250
Si Si3 0.709904 0.831029 0.659389
Si Si4 0.354425 0.853518 0.368879
Si Si5 0.472467 0.758891 0.699388
Si Si6 0.239280 0.668648 0.752335
Si Si7 0.129359 0.817614 0.095053
Si Si8 0.219450 0.487142 0.089648
O O1 0.861297 0.688720 0.930817
O O2 0.994692 0.902965 0.162730
O O3 0.816784 0.144492 0.225305
O O4 0.000000 0.000000 0.000000
O O5 0.489075 0.768029 0.291247
O O6 0.680281 0.647306 0.081757
O O7 0.673911 0.989338 0.422526
O O8 0.568563 0.062776 0.291603
O O9 0.594573 0.825049 0.760496
O O10 0.758289 0.579612 0.455157
O O11 0.677473 0.998227 0.653777
O O12 0.804046 0.945006 0.780543
O O13 0.278499 0.629819 0.259175
O O14 0.500000 0.500000 0.500000
O O15 0.366115 0.743492 0.801053
O O16 0.169900 0.666359 0.886152
O O17 0.144652 0.660682 0.117712
#
# Coordination Sequence:
#
# PCOD8039878 Si02
#       8
#     2   2   2   2   2   2   2   2
#     4  10  22  40  58  82 116 153 196 243 279 329
#     4  10  18  35  57  86 116 153 181 228 293 339
#     4   9  19  36  57  84 114 147 191 233 282 345
#     4   9  20  34  57  89 119 143 188 234 279 349
#     4   9  18  34  54  82 117 146 183 229 282 343
#     4  10  19  38  57  81 116 152 186 239 281 338
#     4  10  22  37  59  82 110 153 193 236 286 326
#     4  11  20  38  60  84 112 151 193 236 284 338
#
# _framework density 20.786277999999999
#
# number of rings (size 3 to 8) (size 9 to 14) (size 15 to 20)
#    0.000    2.250    1.250    1.500    0.000    2.000 
#    9.000    2.500    0.000    9.000    0.000    0.000 
#    0.000    0.000    0.000    0.000    0.000    0.000 
#
# Total GULP energy -198257.611206 kJ/mol
# GULP energy per Si atom -12391.100700 kJ/mol
# Density = 2.073897 g / cm^3
# Si number density = 20.786278 Si / 1000 Ang^3
#
#
#
# Elastic Constant Matrix: (Units=GPa)
#
#
# Indices 1 2 3 4 5 6 
#
# 1 114.0161 25.3493 50.7701 22.3409 18.5568 12.4282
# 2 25.3493 50.1242 11.4086 19.5937 8.5550 13.5590
# 3 50.7701 11.4086 77.7513 18.4651 11.5613 -0.7729
# 4 22.3409 19.5937 18.4651 29.2327 6.0501 5.7842
# 5 18.5568 8.5550 11.5613 6.0501 26.9628 0.9358
# 6 12.4282 13.5590 -0.7729 5.7842 0.9358 26.7291
#
#
#
# Elastic Compliance Matrix: (Units=1/GPa)
#
#
# Indices 1 2 3 4 5 6 
#
# 1 0.014753 -0.002359 -0.007949 -0.002568 -0.005241 -0.005154
# 2 -0.002359 0.031149 0.001598 -0.016957 -0.004764 -0.010821
# 3 -0.007949 0.001598 0.020155 -0.008375 -0.001985 0.005350
# 4 -0.002568 -0.016957 -0.008375 0.053463 -0.001189 -0.001974
# 5 -0.005241 -0.004764 -0.001985 -0.001189 0.043202 0.003541
# 6 -0.005154 -0.010821 0.005350 -0.001974 0.003541 0.045756
#
#
# Mechanical properties :
#
#
# Convention : Reuss Voigt Hill
#
# Bulk Modulus (GPa) = 20.56095 46.32749 33.44422
# Shear Modulus (GPa) = 20.65168 26.87583 23.76375
#
# Velocity S-wave (km/s) = 3.15544 3.59968 3.38485
# Velocity P-wave (km/s) = 4.81548 6.29387 5.60364
#
# Compressibility (1/GPa) = 0.04863589
#
# Stress axis : x y z
#
# Youngs Moduli (GPa) = 67.78337 32.10382 49.61557
#
# Poissons Ratio (x) = 0.07574 0.39440
# Poissons Ratio (y) = 0.15992 -0.07929
# Poissons Ratio (z) = 0.53882 -0.05130
#
# Static dielectric constant tensor:
#      x y z
#    x 4.631470 0.093740 0.059420 
#    y 0.093740 3.781610 0.314310 
#    z 0.059420 0.314310 3.584290 
# 
# 
# High freq. dielectric constant tensor:
#      x y z
#    x 1.830320 0.001090 0.000790 
#    y 0.001090 1.807680 0.023860 
#    z 0.000790 0.023860 1.789920 
# 
# From -- ./inp_files/221535.got.cif
#   From: 2010.06.25/outbox.cif.g09.slc.cpg/sg2_111_cif.got.tgz:221535.got - 2010.06.27 13:26:56.
