data_PCOD8039088
_publ_section_title
;
Structure prediction by ZEFSAII (Michael W. Deem and Ramdas Pophale) SiO2 
 PCOD8039088
Probable space group: P -1
;
_chemical_formula_sum "Si O2"
_cell_formula_units_Z 14
_cell_length_a 14.493023
_cell_length_b 8.976717
_cell_length_c 21.446882
_cell_angle_alpha 124.038912
_cell_angle_beta 20.094151
_cell_angle_gamma 113.270103
_cell_volume 705.832682
_symmetry_space_group_name_H-M "P -1"
_symmetry_group_IT_number 2
_symmetry_cell_setting 'triclinic'
loop_
_space_group_symop_operation_xyz
x,y,z
-x,-y,-z
loop_
_atom_site_type_symbol
_atom_site_label
_atom_site_fract_x
_atom_site_fract_y
_atom_site_fract_z
Si Si1 0.740123 0.672768 0.058422
Si Si2 0.811888 0.715953 0.262998
Si Si3 0.798569 0.087267 0.909799
Si Si4 0.480616 0.947501 0.180403
Si Si5 0.891672 0.281838 0.681926
Si Si6 0.445561 0.882396 0.419131
Si Si7 0.541595 0.403299 0.051067
O O1 0.744193 0.810315 0.029855
O O2 0.573232 0.823413 0.255756
O O3 0.537191 0.566151 0.141624
O O4 0.075364 0.502374 0.826004
O O5 0.665926 0.712073 0.288105
O O6 0.103044 0.759785 0.080033
O O7 0.566622 0.899688 0.504276
O O8 0.572323 0.207848 0.024232
O O9 0.106450 0.903004 0.643646
O O10 0.630528 0.002372 0.040942
O O11 0.305042 0.831420 0.237713
O O12 0.244224 0.149854 0.413508
O O13 0.763835 0.491590 0.772020
O O14 0.837246 0.334951 0.802304
#
# Coordination Sequence:
#
# PCOD8039088 Si02
#       7
#     2   2   2   2   2   2   2
#     4  10  18  32  56  77  99 140 167 202 251 315
#     4   8  18  34  56  76 100 133 172 202 249 306
#     4   9  18  33  51  77 103 129 169 216 244 299
#     4  10  20  32  51  76 104 132 172 207 260 288
#     4   9  19  35  50  72 102 140 166 212 248 307
#     4   9  17  34  59  73 103 132 170 205 252 297
#     4   9  18  34  53  72 101 135 178 201 254 299
#
# _framework density 19.83473
#
# number of rings (size 3 to 8) (size 9 to 14) (size 15 to 20)
#    0.857    2.000    0.000    1.286    0.000    1.143 
#    0.000   10.000    0.000    0.000    0.000    0.000 
#    0.000    0.000    0.000    0.000    0.000    0.000 
#
# Total GULP energy -173435.027191 kJ/mol
# GULP energy per Si atom -12388.216228 kJ/mol
# Density = 1.978959 g / cm^3
# Si number density = 19.834730 Si / 1000 Ang^3
#
#
#
# Elastic Constant Matrix: (Units=GPa)
#
#
# Indices 1 2 3 4 5 6 
#
# 1 84.2765 45.5311 25.3813 5.5527 11.2115 -33.5486
# 2 45.5311 90.7904 49.6974 12.1900 -7.1876 -52.2607
# 3 25.3813 49.6974 66.3926 20.1029 2.7310 -23.1015
# 4 5.5527 12.1900 20.1029 21.1443 -5.0482 -6.3767
# 5 11.2115 -7.1876 2.7310 -5.0482 31.3121 9.9626
# 6 -33.5486 -52.2607 -23.1015 -6.3767 9.9626 43.4451
#
#
#
# Elastic Compliance Matrix: (Units=1/GPa)
#
#
# Indices 1 2 3 4 5 6 
#
# 1 0.021978 -0.001688 0.000958 -0.003717 -0.014759 0.018290
# 2 -0.001688 0.053597 -0.023821 0.007728 -0.000214 0.051687
# 3 0.000958 -0.023821 0.038343 -0.028327 -0.010792 -0.009209
# 4 -0.003717 0.007728 -0.028327 0.074525 0.018186 -0.001869
# 5 -0.014759 -0.000214 -0.010792 0.018186 0.049329 -0.026036
# 6 0.018290 0.051687 -0.009209 -0.001869 -0.026036 0.100115
#
#
# Mechanical properties :
#
#
# Convention : Reuss Voigt Hill
#
# Bulk Modulus (GPa) = 15.42803 53.63101 34.52952
# Shear Modulus (GPa) = 12.23705 27.23693 19.73699
#
# Velocity S-wave (km/s) = 2.48654 3.70968 3.15790
# Velocity P-wave (km/s) = 4.00488 6.74141 5.54462
#
# Compressibility (1/GPa) = 0.06481709
#
# Stress axis : x y z
#
# Youngs Moduli (GPa) = 45.50000 18.65767 26.08007
#
# Poissons Ratio (x) = 0.03149 -0.02498
# Poissons Ratio (y) = 0.07679 0.62125
# Poissons Ratio (z) = -0.04358 0.44444
#
# Static dielectric constant tensor:
#      x y z
#    x 3.635500 -0.315170 -0.015550 
#    y -0.315170 3.430720 0.530750 
#    z -0.015550 0.530750 3.476770 
# 
# 
# High freq. dielectric constant tensor:
#      x y z
#    x 1.777650 -0.029770 0.007180 
#    y -0.029770 1.743170 0.045780 
#    z 0.007180 0.045780 1.748460 
# 
# From -- ./inp_files/197101.got.cif
#   From: 2010.06.25/outbox.cif.g09.slc.cpg/sg2_99_cif.got.tgz:197101.got - 2010.06.27 13:26:56.
