data_PCOD8039749
_publ_section_title
;
Structure prediction by ZEFSAII (Michael W. Deem and Ramdas Pophale) SiO2 
 PCOD8039749
Probable space group: P -1
;
_chemical_formula_sum "Si O2"
_cell_formula_units_Z 14
_cell_length_a 10.891330
_cell_length_b 11.382877
_cell_length_c 11.327152
_cell_angle_alpha 54.666536
_cell_angle_beta 98.835981
_cell_angle_gamma 56.337853
_cell_volume 682.499683
_symmetry_space_group_name_H-M "P -1"
_symmetry_group_IT_number 2
_symmetry_cell_setting 'triclinic'
loop_
_space_group_symop_operation_xyz
x,y,z
-x,-y,-z
loop_
_atom_site_type_symbol
_atom_site_label
_atom_site_fract_x
_atom_site_fract_y
_atom_site_fract_z
Si Si1 0.662619 0.691633 0.307690
Si Si2 0.213832 0.148823 0.917996
Si Si3 0.408420 0.367035 0.126110
Si Si4 0.965467 0.825743 0.341141
Si Si5 0.200354 0.811686 0.719901
Si Si6 0.094965 0.483578 0.140860
Si Si7 0.298795 0.145047 0.572533
O O1 0.753178 0.730192 0.212394
O O2 0.682143 0.725450 0.426552
O O3 0.787379 0.425901 0.466735
O O4 0.428105 0.873953 0.138906
O O5 0.100958 0.138396 0.823808
O O6 0.088356 0.289090 0.937215
O O7 0.613604 0.262004 0.262966
O O8 0.240972 0.485846 0.132323
O O9 0.485039 0.141888 0.217862
O O10 0.292737 0.566048 0.891501
O O11 0.880572 0.783290 0.440564
O O12 0.879116 0.058543 0.238962
O O13 0.000000 0.000000 0.500000
O O14 0.236117 0.237247 0.374729
O O15 0.000000 0.500000 0.000000
#
# Coordination Sequence:
#
# PCOD8039749 Si02
#       7
#     2   2   2   2   2   2   2
#     4  10  18  34  62  87 123 159 199 248 302 363
#     4  10  20  34  56  93 121 159 200 244 312 364
#     4  10  24  40  61  93 123 163 206 251 308 363
#     4  10  19  37  63  84 121 154 208 254 291 353
#     4  10  24  44  66  85 117 168 220 256 291 356
#     4  12  23  36  62  96 136 161 188 254 325 373
#     4  10  19  38  59  93 127 155 197 254 310 370
#
# _framework density 20.512830999999998
#
# number of rings (size 3 to 8) (size 9 to 14) (size 15 to 20)
#    0.000    1.714    2.857    2.143    4.000    6.857 
#    0.000    0.714    0.000    1.714    0.000    0.000 
#    0.000    0.000    0.000    0.000    0.000    0.000 
#
# Total GULP energy -173513.051036 kJ/mol
# GULP energy per Si atom -12393.789360 kJ/mol
# Density = 2.046614 g / cm^3
# Si number density = 20.512831 Si / 1000 Ang^3
#
#
#
# Elastic Constant Matrix: (Units=GPa)
#
#
# Indices 1 2 3 4 5 6 
#
# 1 61.9447 36.1256 35.5549 -0.1007 9.0102 -16.2321
# 2 36.1256 124.1884 57.9876 -1.8121 10.1721 -9.2972
# 3 35.5549 57.9876 149.6838 -10.4440 16.1953 -4.0347
# 4 -0.1007 -1.8121 -10.4440 43.0639 -1.2699 0.2714
# 5 9.0102 10.1721 16.1953 -1.2699 27.2809 -5.1006
# 6 -16.2321 -9.2972 -4.0347 0.2714 -5.1006 24.1776
#
#
#
# Elastic Compliance Matrix: (Units=1/GPa)
#
#
# Indices 1 2 3 4 5 6 
#
# 1 0.024681 -0.004269 -0.003720 -0.001165 -0.001799 0.013941
# 2 -0.004269 0.010851 -0.003122 -0.000335 -0.000677 0.000647
# 3 -0.003720 -0.003122 0.009217 0.002010 -0.003533 -0.002928
# 4 -0.001165 -0.000335 0.002010 0.023705 0.000273 -0.000784
# 5 -0.001799 -0.000677 -0.003533 0.000273 0.040838 0.006554
# 6 0.013941 0.000647 -0.002928 -0.000784 0.006554 0.051872
#
#
# Mechanical properties :
#
#
# Convention : Reuss Voigt Hill
#
# Bulk Modulus (GPa) = 44.38921 66.12811 55.25866
# Shear Modulus (GPa) = 26.19247 32.64773 29.42010
#
# Velocity S-wave (km/s) = 3.57723 3.99378 3.79123
# Velocity P-wave (km/s) = 6.22485 7.31946 6.79424
#
# Compressibility (1/GPa) = 0.02252800
#
# Stress axis : x y z
#
# Youngs Moduli (GPa) = 40.51721 92.15818 108.48960
#
# Poissons Ratio (x) = 0.39338 0.40355
# Poissons Ratio (y) = 0.17295 0.33874
# Poissons Ratio (z) = 0.15071 0.28775
#
# Static dielectric constant tensor:
#      x y z
#    x 3.471920 -0.021990 0.152930 
#    y -0.021990 3.976210 -0.227800 
#    z 0.152930 -0.227800 3.892640 
# 
# 
# High freq. dielectric constant tensor:
#      x y z
#    x 1.757140 -0.007250 0.017280 
#    y -0.007250 1.801810 -0.019050 
#    z 0.017280 -0.019050 1.818240 
# 
# From -- ./inp_files/427817.got.cif
#   From: 2010.06.25/outbox.cif.g09.slc.cpg/sg2_214_cif.got.tgz:427817.got - 2010.06.27 13:26:56.
