data_PCOD8039192
_publ_section_title
;
Structure prediction by ZEFSAII (Michael W. Deem and Ramdas Pophale) SiO2 
 PCOD8039192
Probable space group: P -1
;
_chemical_formula_sum "Si O2"
_cell_formula_units_Z 16
_cell_length_a 13.417436
_cell_length_b 6.670260
_cell_length_c 16.276959
_cell_angle_alpha 120.698116
_cell_angle_beta 71.788285
_cell_angle_gamma 132.817665
_cell_volume 917.447540
_symmetry_space_group_name_H-M "P -1"
_symmetry_group_IT_number 2
_symmetry_cell_setting 'triclinic'
loop_
_space_group_symop_operation_xyz
x,y,z
-x,-y,-z
loop_
_atom_site_type_symbol
_atom_site_label
_atom_site_fract_x
_atom_site_fract_y
_atom_site_fract_z
Si Si1 0.152086 0.294570 0.435600
Si Si2 0.659388 0.690399 0.493458
Si Si3 0.576528 0.221139 0.794551
Si Si4 0.799147 0.337359 0.649036
Si Si5 0.952982 0.599328 0.366662
Si Si6 0.453799 0.323608 0.059946
Si Si7 0.399834 0.797469 0.888582
Si Si8 0.700875 0.358058 0.287782
O O1 0.290361 0.382163 0.455365
O O2 0.186249 0.417775 0.360564
O O3 0.102770 0.441097 0.535019
O O4 0.031568 0.938736 0.386763
O O5 0.500000 0.500000 0.500000
O O6 0.700847 0.610837 0.383862
O O7 0.737419 0.045996 0.547061
O O8 0.702257 0.255161 0.733453
O O9 0.613769 0.551028 0.849797
O O10 0.543368 0.075792 0.864549
O O11 0.439243 0.978708 0.725177
O O12 0.947056 0.480342 0.676884
O O13 0.827382 0.381288 0.291056
O O14 0.576675 0.394600 0.100009
O O15 0.500000 0.500000 0.000000
O O16 0.355765 0.962578 0.989419
O O17 0.287830 0.586066 0.802598
#
# Coordination Sequence:
#
# PCOD8039192 Si02
#       8
#     2   2   2   2   2   2   2   2
#     4   9  20  34  50  67  96 148 185 202 244 295
#     4  10  18  33  46  71 108 131 163 216 250 284
#     4   9  19  31  50  81 101 122 170 211 251 297
#     4  11  20  33  53  72 102 143 176 204 250 294
#     4   9  19  36  48  65 105 141 176 211 241 294
#     4   9  16  32  53  78 103 126 157 204 255 319
#     4   8  17  33  53  75 103 130 154 205 268 297
#     4   9  18  34  48  74 104 130 168 209 253 294
#
# _framework density 17.439688
#
# number of rings (size 3 to 8) (size 9 to 14) (size 15 to 20)
#    0.750    2.000    1.250    1.125    0.000    3.500 
#    6.750    0.000    0.000    0.750    0.000    5.250 
#    0.000    0.000    0.000    0.000    0.000    0.000 
#
# Total GULP energy -198215.448760 kJ/mol
# GULP energy per Si atom -12388.465548 kJ/mol
# Density = 1.739999 g / cm^3
# Si number density = 17.439688 Si / 1000 Ang^3
#
#
#
# Elastic Constant Matrix: (Units=GPa)
#
#
# Indices 1 2 3 4 5 6 
#
# 1 128.2100 30.5130 37.3595 -5.5750 2.5771 3.1554
# 2 30.5130 46.7083 15.4750 -7.6310 -3.1912 -11.8827
# 3 37.3595 15.4750 78.6675 9.6811 0.0037 -5.8731
# 4 -5.5750 -7.6310 9.6811 17.0347 -6.8884 -2.2551
# 5 2.5771 -3.1912 0.0037 -6.8884 27.1402 -2.8916
# 6 3.1554 -11.8827 -5.8731 -2.2551 -2.8916 27.6565
#
#
#
# Elastic Compliance Matrix: (Units=1/GPa)
#
#
# Indices 1 2 3 4 5 6 
#
# 1 0.010975 -0.006947 -0.004420 0.001466 -0.002048 -0.005270
# 2 -0.006947 0.038193 -0.006015 0.026484 0.013955 0.019543
# 3 -0.004420 -0.006015 0.017977 -0.016138 -0.004390 -0.000037
# 4 0.001466 0.026484 -0.016138 0.094352 0.028895 0.018500
# 5 -0.002048 0.013955 -0.004390 0.028895 0.047358 0.012605
# 6 -0.005270 0.019543 -0.000037 0.018500 0.012605 0.047974
#
#
# Mechanical properties :
#
#
# Convention : Reuss Voigt Hill
#
# Bulk Modulus (GPa) = 30.88040 46.69788 38.78914
# Shear Modulus (GPa) = 16.53510 25.71551 21.12530
#
# Velocity S-wave (km/s) = 3.08251 3.84414 3.48420
# Velocity P-wave (km/s) = 5.51494 6.82189 6.20293
#
# Compressibility (1/GPa) = 0.03238300
#
# Stress axis : x y z
#
# Youngs Moduli (GPa) = 91.11283 26.18306 55.62610
#
# Poissons Ratio (x) = 0.18189 0.24584
# Poissons Ratio (y) = 0.63294 0.33458
# Poissons Ratio (z) = 0.40267 0.15749
#
# Static dielectric constant tensor:
#      x y z
#    x 3.264760 -0.088790 -0.025030 
#    y -0.088790 2.993660 0.193600 
#    z -0.025030 0.193600 3.361400 
# 
# 
# High freq. dielectric constant tensor:
#      x y z
#    x 1.667030 -0.017080 0.002330 
#    y -0.017080 1.643820 0.008250 
#    z 0.002330 0.008250 1.667450 
# 
# From -- ./inp_files/564283.got.cif
#   From: 2010.06.25/outbox.cif.g09.slc.cpg/sg2_283_cif.got.tgz:564283.got - 2010.06.27 13:26:56.
