data_PCOD8039842
_publ_section_title
;
Structure prediction by ZEFSAII (Michael W. Deem and Ramdas Pophale) SiO2 
 PCOD8039842
Probable space group: P -1
;
_chemical_formula_sum "Si O2"
_cell_formula_units_Z 16
_cell_length_a 14.909780
_cell_length_b 12.120757
_cell_length_c 8.788219
_cell_angle_alpha 50.260435
_cell_angle_beta 55.068101
_cell_angle_gamma 48.633935
_cell_volume 885.002944
_symmetry_space_group_name_H-M "P -1"
_symmetry_group_IT_number 2
_symmetry_cell_setting 'triclinic'
loop_
_space_group_symop_operation_xyz
x,y,z
-x,-y,-z
loop_
_atom_site_type_symbol
_atom_site_label
_atom_site_fract_x
_atom_site_fract_y
_atom_site_fract_z
Si Si1 0.230817 0.249166 0.676576
Si Si2 0.389547 0.393189 0.539139
Si Si3 0.504970 0.425647 0.897456
Si Si4 0.974714 0.474415 0.875266
Si Si5 0.785391 0.768063 0.650706
Si Si6 0.717436 0.539696 0.079629
Si Si7 0.397753 0.931307 0.307615
Si Si8 0.589715 0.064133 0.057288
O O1 0.307062 0.346365 0.550212
O O2 0.094140 0.338257 0.799712
O O3 0.220724 0.243365 0.512316
O O4 0.295133 0.069714 0.842551
O O5 0.397792 0.547366 0.326317
O O6 0.324921 0.431055 0.731196
O O7 0.531833 0.251627 0.536595
O O8 0.366501 0.521614 0.876423
O O9 0.500000 0.500000 0.000000
O O10 0.548559 0.234371 0.032538
O O11 0.925090 0.647520 0.680491
O O12 0.000000 0.500000 0.000000
O O13 0.865422 0.418980 0.028771
O O14 0.735262 0.957159 0.580416
O O15 0.693831 0.711765 0.876959
O O16 0.483337 0.012084 0.199200
O O17 0.369718 0.926042 0.162289
#
# Coordination Sequence:
#
# PCOD8039842 Si02
#       8
#     2   2   2   2   2   2   2   2
#     4  11  21  35  58  93 111 152 191 250 291 328
#     4  11  22  34  62  82 121 153 193 231 290 357
#     4  12  24  38  56  89 123 157 186 234 299 349
#     4  10  19  37  60  84 115 148 200 241 288 335
#     4  10  20  32  58  87 118 138 188 246 295 329
#     4  10  20  38  57  83 115 156 189 236 278 350
#     4  10  18  35  56  85 114 151 191 243 286 339
#     4  10  20  35  57  79 122 149 195 233 290 347
#
# _framework density 18.079035999999999
#
# number of rings (size 3 to 8) (size 9 to 14) (size 15 to 20)
#    0.750    0.750    3.750    3.750    1.750    1.000 
#    0.000    0.000    0.000    3.000    0.000    0.000 
#    0.000    0.000    0.000    0.000    0.000    0.000 
#
# Total GULP energy -198251.450302 kJ/mol
# GULP energy per Si atom -12390.715644 kJ/mol
# Density = 1.803789 g / cm^3
# Si number density = 18.079036 Si / 1000 Ang^3
#
#
#
# Elastic Constant Matrix: (Units=GPa)
#
#
# Indices 1 2 3 4 5 6 
#
# 1 82.0739 26.4879 16.7422 -3.4562 15.2543 -15.8177
# 2 26.4879 76.0593 22.4514 -1.3806 6.3953 -14.2397
# 3 16.7422 22.4514 54.8593 3.6337 6.6568 -11.1356
# 4 -3.4562 -1.3806 3.6337 24.8518 3.7819 1.4737
# 5 15.2543 6.3953 6.6568 3.7819 34.5307 0.7967
# 6 -15.8177 -14.2397 -11.1356 1.4737 0.7967 27.2569
#
#
#
# Elastic Compliance Matrix: (Units=1/GPa)
#
#
# Indices 1 2 3 4 5 6 
#
# 1 0.016322 -0.003256 -0.001562 0.002926 -0.006792 0.007173
# 2 -0.003256 0.016709 -0.004814 0.001037 -0.000954 0.004845
# 3 -0.001562 -0.004814 0.022447 -0.003747 -0.002474 0.006024
# 4 0.002926 0.001037 -0.003747 0.042148 -0.005346 -0.001414
# 5 -0.006792 -0.000954 -0.002474 -0.005346 0.033341 -0.006136
# 6 0.007173 0.004845 0.006024 -0.001414 -0.006136 0.046098
#
#
# Mechanical properties :
#
#
# Convention : Reuss Voigt Hill
#
# Bulk Modulus (GPa) = 27.61487 38.26172 32.93829
# Shear Modulus (GPa) = 23.99246 27.14860 25.57053
#
# Velocity S-wave (km/s) = 3.64687 3.87933 3.76490
# Velocity P-wave (km/s) = 5.74810 6.42457 6.09573
#
# Compressibility (1/GPa) = 0.03621237
#
# Stress axis : x y z
#
# Youngs Moduli (GPa) = 61.26877 59.84978 44.55030
#
# Poissons Ratio (x) = 0.19486 0.06960
# Poissons Ratio (y) = 0.19948 0.21447
# Poissons Ratio (z) = 0.09572 0.28812
#
# Static dielectric constant tensor:
#      x y z
#    x 3.289960 -0.040600 0.270490 
#    y -0.040600 3.358660 -0.159400 
#    z 0.270490 -0.159400 3.141610 
# 
# 
# High freq. dielectric constant tensor:
#      x y z
#    x 1.691960 -0.004300 0.027090 
#    y -0.004300 1.696480 0.009320 
#    z 0.027090 0.009320 1.688740 
# 
# From -- ./inp_files/171481.got.cif
#   From: 2010.06.25/outbox.cif.g09.slc.cpg/sg2_86_cif.got.tgz:171481.got - 2010.06.27 13:26:56.
