data_PCOD8039234
_publ_section_title
;
Structure prediction by ZEFSAII (Michael W. Deem and Ramdas Pophale) SiO2 
 PCOD8039234
Probable space group: P -1
;
_chemical_formula_sum "Si O2"
_cell_formula_units_Z 16
_cell_length_a 11.595531
_cell_length_b 13.973910
_cell_length_c 12.939607
_cell_angle_alpha 112.182480
_cell_angle_beta 92.490471
_cell_angle_gamma 30.617443
_cell_volume 793.388087
_symmetry_space_group_name_H-M "P -1"
_symmetry_group_IT_number 2
_symmetry_cell_setting 'triclinic'
loop_
_space_group_symop_operation_xyz
x,y,z
-x,-y,-z
loop_
_atom_site_type_symbol
_atom_site_label
_atom_site_fract_x
_atom_site_fract_y
_atom_site_fract_z
Si Si1 0.709003 0.013567 0.424049
Si Si2 0.646121 0.389735 0.072758
Si Si3 0.921298 0.311719 0.408883
Si Si4 0.285118 0.846665 0.863257
Si Si5 0.163635 0.500508 0.302906
Si Si6 0.092004 0.472497 0.599226
Si Si7 0.219578 0.898776 0.346197
Si Si8 0.680300 0.227946 0.391529
O O1 0.425687 0.181694 0.508530
O O2 0.755208 0.067063 0.530013
O O3 0.680417 0.101178 0.351859
O O4 0.961181 0.725698 0.306206
O O5 0.627340 0.296670 0.095052
O O6 0.491707 0.607173 0.216869
O O7 0.500000 0.500000 0.000000
O O8 0.976126 0.150416 0.984286
O O9 0.893496 0.398753 0.548877
O O10 0.967812 0.354169 0.333410
O O11 0.628650 0.482644 0.459129
O O12 0.181856 0.018849 0.304863
O O13 0.515488 0.750251 0.825318
O O14 0.285364 0.776781 0.730846
O O15 0.078783 0.448110 0.284603
O O16 0.000000 0.500000 0.500000
O O17 0.932694 0.066846 0.404113
#
# Coordination Sequence:
#
# PCOD8039234 Si02
#       8
#     2   2   2   2   2   2   2   2
#     4  10  20  31  53  90 118 146 182 223 288 346
#     4  11  23  41  58  79 113 151 198 232 274 329
#     4   8  18  30  49  82 111 144 177 217 285 335
#     4  10  22  38  58  84 109 148 197 233 273 329
#     4   9  17  32  55  80 110 141 183 231 273 329
#     4   9  17  33  52  79 116 149 180 225 280 340
#     4  11  20  33  53  79 118 152 184 230 277 337
#     4  10  18  33  53  82 121 146 177 226 280 345
#
# _framework density 20.166675000000001
#
# number of rings (size 3 to 8) (size 9 to 14) (size 15 to 20)
#    0.000    2.250    1.250    2.625    0.000    4.000 
#    0.000    0.000    0.000    1.500    0.000    0.000 
#    0.000    0.000    0.000    0.000    0.000    0.000 
#
# Total GULP energy -198261.162235 kJ/mol
# GULP energy per Si atom -12391.322640 kJ/mol
# Density = 2.012078 g / cm^3
# Si number density = 20.166675 Si / 1000 Ang^3
#
#
#
# Elastic Constant Matrix: (Units=GPa)
#
#
# Indices 1 2 3 4 5 6 
#
# 1 79.8461 35.6376 43.5862 15.8132 -25.6315 -7.1917
# 2 35.6376 111.0765 37.4984 20.4718 -13.2282 8.4002
# 3 43.5862 37.4984 63.2221 22.9915 -15.4604 10.0598
# 4 15.8132 20.4718 22.9915 39.4735 -1.8631 2.1986
# 5 -25.6315 -13.2282 -15.4604 -1.8631 28.1006 8.0182
# 6 -7.1917 8.4002 10.0598 2.1986 8.0182 35.2150
#
#
#
# Elastic Compliance Matrix: (Units=1/GPa)
#
#
# Indices 1 2 3 4 5 6 
#
# 1 0.026502 -0.002482 -0.014580 -0.000636 0.012864 0.007280
# 2 -0.002482 0.011930 -0.003336 -0.003002 0.002084 -0.002687
# 3 -0.014580 -0.003336 0.036697 -0.012638 0.008418 -0.013793
# 4 -0.000636 -0.003002 -0.012638 0.033923 -0.007796 0.003854
# 5 0.012864 0.002084 0.008418 -0.007796 0.055993 -0.012537
# 6 0.007280 -0.002687 -0.013793 0.003854 -0.012537 0.037079
#
#
# Mechanical properties :
#
#
# Convention : Reuss Voigt Hill
#
# Bulk Modulus (GPa) = 29.12722 54.17658 41.65190
# Shear Modulus (GPa) = 19.65691 29.71932 24.68811
#
# Velocity S-wave (km/s) = 3.12544 3.84302 3.50266
# Velocity P-wave (km/s) = 5.24396 6.82748 6.08743
#
# Compressibility (1/GPa) = 0.03433215
#
# Stress axis : x y z
#
# Youngs Moduli (GPa) = 37.73311 83.82239 27.25051
#
# Poissons Ratio (x) = 0.20806 0.39732
# Poissons Ratio (y) = 0.09366 0.09090
# Poissons Ratio (z) = 0.55015 0.27962
#
# Static dielectric constant tensor:
#      x y z
#    x 4.411720 0.432130 -0.429060 
#    y 0.432130 4.180280 0.133940 
#    z -0.429060 0.133940 3.278010 
# 
# 
# High freq. dielectric constant tensor:
#      x y z
#    x 1.784540 0.010690 -0.025230 
#    y 0.010690 1.815730 0.016270 
#    z -0.025230 0.016270 1.726160 
# 
# From -- ./inp_files/451441.got.cif
#   From: 2010.06.25/outbox.cif.g09.slc.cpg/sg2_226_cif.got.tgz:451441.got - 2010.06.27 13:26:56.
