data_PCOD8039702
_publ_section_title
;
Structure prediction by ZEFSAII (Michael W. Deem and Ramdas Pophale) SiO2 
 PCOD8039702
Probable space group: P -1
;
_chemical_formula_sum "Si O2"
_cell_formula_units_Z 16
_cell_length_a 9.100804
_cell_length_b 16.253346
_cell_length_c 7.123591
_cell_angle_alpha 111.008553
_cell_angle_beta 127.386123
_cell_angle_gamma 68.865711
_cell_volume 766.948091
_symmetry_space_group_name_H-M "P -1"
_symmetry_group_IT_number 2
_symmetry_cell_setting 'triclinic'
loop_
_space_group_symop_operation_xyz
x,y,z
-x,-y,-z
loop_
_atom_site_type_symbol
_atom_site_label
_atom_site_fract_x
_atom_site_fract_y
_atom_site_fract_z
Si Si1 0.211114 0.800428 0.020106
Si Si2 0.047419 0.906650 0.622115
Si Si3 0.349336 0.616233 0.838549
Si Si4 0.210815 0.988056 0.245685
Si Si5 0.685761 0.959096 0.005997
Si Si6 0.069921 0.610573 0.285626
Si Si7 0.748511 0.504655 0.004932
Si Si8 0.049411 0.209374 0.860979
O O1 0.365901 0.709816 0.032107
O O2 0.134575 0.835877 0.788825
O O3 0.291564 0.881165 0.253069
O O4 0.047481 0.771980 0.996559
O O5 0.066161 0.850672 0.400624
O O6 0.827116 0.951540 0.545238
O O7 0.153995 0.989835 0.748837
O O8 0.197675 0.637476 0.571888
O O9 0.273103 0.550984 0.871126
O O10 0.553511 0.574839 0.879201
O O11 0.344672 0.025701 0.230578
O O12 0.000000 0.000000 0.000000
O O13 0.742271 0.851859 0.999906
O O14 0.500000 0.000000 0.000000
O O15 0.924257 0.553822 0.211663
O O16 0.942730 0.697896 0.160982
O O17 0.212155 0.556724 0.199121
#
# Coordination Sequence:
#
# PCOD8039702 Si02
#       8
#     2   2   2   2   2   2   2   2
#     4  10  18  34  60  84 111 151 196 239 281 348
#     4  10  19  36  60  78 108 160 199 225 276 357
#     4  11  21  41  66  86 122 155 197 244 304 362
#     4   8  16  33  54  75 111 150 190 225 275 342
#     4  10  20  34  56  85 119 149 190 248 291 327
#     4  11  23  39  63  93 118 155 200 246 302 361
#     4  10  24  41  63  90 120 155 194 251 306 359
#     4  12  20  35  63  83 113 155 203 233 293 353
#
# _framework density 20.861908
#
# number of rings (size 3 to 8) (size 9 to 14) (size 15 to 20)
#    0.000    2.000    6.250    1.125    0.000    2.000 
#    0.000    0.625    5.500    0.000    0.000    0.000 
#    0.000    0.000    0.000    0.000    0.000    0.000 
#
# Total GULP energy -198261.285250 kJ/mol
# GULP energy per Si atom -12391.330328 kJ/mol
# Density = 2.081442 g / cm^3
# Si number density = 20.861908 Si / 1000 Ang^3
#
#
#
# Elastic Constant Matrix: (Units=GPa)
#
#
# Indices 1 2 3 4 5 6 
#
# 1 132.3825 51.6271 11.5426 -6.3384 1.4811 -19.9761
# 2 51.6271 151.7932 11.7226 -3.0570 -1.2504 -20.8870
# 3 11.5426 11.7226 22.3845 1.3871 -3.2520 -6.1317
# 4 -6.3384 -3.0570 1.3871 26.0911 -0.9859 -7.1179
# 5 1.4811 -1.2504 -3.2520 -0.9859 17.3365 -1.6170
# 6 -19.9761 -20.8870 -6.1317 -7.1179 -1.6170 34.5905
#
#
#
# Elastic Compliance Matrix: (Units=1/GPa)
#
#
# Indices 1 2 3 4 5 6 
#
# 1 0.009535 -0.002387 -0.002860 0.003297 -0.000945 0.004193
# 2 -0.002387 0.008069 -0.002015 0.001451 0.000814 0.003474
# 3 -0.002860 -0.002015 0.050468 -0.001534 0.010060 0.006232
# 4 0.003297 0.001451 -0.001534 0.042609 0.003023 0.011418
# 5 -0.000945 0.000814 0.010060 0.003023 0.060363 0.005173
# 6 0.004193 0.003474 0.006232 0.011418 0.005173 0.037125
#
#
# Mechanical properties :
#
#
# Convention : Reuss Voigt Hill
#
# Bulk Modulus (GPa) = 18.67478 50.70499 34.68988
# Shear Modulus (GPa) = 20.78650 31.04815 25.91733
#
# Velocity S-wave (km/s) = 3.15998 3.86200 3.52849
# Velocity P-wave (km/s) = 4.72070 6.65165 5.76756
#
# Compressibility (1/GPa) = 0.05354816
#
# Stress axis : x y z
#
# Youngs Moduli (GPa) = 104.87609 123.92843 19.81473
#
# Poissons Ratio (x) = 0.29577 0.05667
# Poissons Ratio (y) = 0.25030 0.03993
# Poissons Ratio (z) = 0.29994 0.24974
#
# Static dielectric constant tensor:
#      x y z
#    x 5.928910 0.148310 -0.081180 
#    y 0.148310 4.171660 0.105510 
#    z -0.081180 0.105510 3.519720 
# 
# 
# High freq. dielectric constant tensor:
#      x y z
#    x 1.826980 -0.003850 -0.035090 
#    y -0.003850 1.833760 -0.004020 
#    z -0.035090 -0.004020 1.774100 
# 
# From -- ./inp_files/203368.got.cif
#   From: 2010.06.25/outbox.cif.g09.slc.cpg/sg2_102_cif.got.tgz:203368.got - 2010.06.27 13:26:56.
