data_PCOD8039837
_publ_section_title
;
Structure prediction by ZEFSAII (Michael W. Deem and Ramdas Pophale) SiO2 
 PCOD8039837
Probable space group: P -1
;
_chemical_formula_sum "Si O2"
_cell_formula_units_Z 16
_cell_length_a 9.172851
_cell_length_b 26.028245
_cell_length_c 9.186447
_cell_angle_alpha 150.840178
_cell_angle_beta 51.692609
_cell_angle_gamma 127.885141
_cell_volume 823.261622
_symmetry_space_group_name_H-M "P -1"
_symmetry_group_IT_number 2
_symmetry_cell_setting 'triclinic'
loop_
_space_group_symop_operation_xyz
x,y,z
-x,-y,-z
loop_
_atom_site_type_symbol
_atom_site_label
_atom_site_fract_x
_atom_site_fract_y
_atom_site_fract_z
Si Si1 0.666032 0.805810 0.763664
Si Si2 0.525306 0.389362 0.784037
Si Si3 0.233859 0.286556 0.947652
Si Si4 0.810394 0.375570 0.183418
Si Si5 0.356855 0.969126 0.640364
Si Si6 0.077678 0.574359 0.449994
Si Si7 0.471965 0.226703 0.913152
Si Si8 0.002739 0.823955 0.417319
O O1 0.519254 0.708467 0.544886
O O2 0.879712 0.795183 0.568183
O O3 0.648008 0.808093 0.953798
O O4 0.634576 0.921236 0.000800
O O5 0.392230 0.366702 0.953224
O O6 0.749925 0.395959 0.700153
O O7 0.500000 0.500000 0.000000
O O8 0.329812 0.239314 0.905102
O O9 0.138669 0.184556 0.655077
O O10 0.071307 0.346017 0.257267
O O11 0.811005 0.432750 0.482369
O O12 0.958298 0.456171 0.191122
O O13 0.608467 0.342724 0.146186
O O14 0.870800 0.264062 0.902735
O O15 0.413024 0.867385 0.439436
O O16 0.143874 0.937639 0.627415
O O17 0.500000 0.000000 0.500000
#
# Coordination Sequence:
#
# PCOD8039837 Si02
#       8
#     2   2   2   2   2   2   2   2
#     4  10  19  35  61  83 105 151 197 226 276 343
#     4  11  21  38  61  85 112 154 197 229 271 347
#     4  10  23  36  56  86 121 145 185 241 290 327
#     4   9  17  33  57  77 108 150 190 226 274 336
#     4   9  19  35  61  81 108 149 190 230 278 342
#     4  10  18  35  56  81 108 156 192 222 277 341
#     4  10  20  38  54  85 117 144 183 244 286 324
#     4   9  18  35  57  81 110 144 191 231 275 346
#
# _framework density 19.434892000000001
#
# number of rings (size 3 to 8) (size 9 to 14) (size 15 to 20)
#    0.000    2.250    1.250    3.375    1.750    0.500 
#    4.500    5.625    0.000    0.000    0.000    0.000 
#    0.000    0.000    0.000    0.000    0.000    0.000 
#
# Total GULP energy -198216.407148 kJ/mol
# GULP energy per Si atom -12388.525447 kJ/mol
# Density = 1.939066 g / cm^3
# Si number density = 19.434892 Si / 1000 Ang^3
#
#
#
# Elastic Constant Matrix: (Units=GPa)
#
#
# Indices 1 2 3 4 5 6 
#
# 1 116.4514 50.5413 36.3464 5.6002 -0.8058 8.7087
# 2 50.5413 96.9515 31.5646 5.2085 -0.9329 26.7345
# 3 36.3464 31.5646 77.4517 16.2378 1.5427 4.3735
# 4 5.6002 5.2085 16.2378 38.9034 9.2286 -0.6247
# 5 -0.8058 -0.9329 1.5427 9.2286 18.8887 -0.4005
# 6 8.7087 26.7345 4.3735 -0.6247 -0.4005 33.9679
#
#
#
# Elastic Compliance Matrix: (Units=1/GPa)
#
#
# Indices 1 2 3 4 5 6 
#
# 1 0.011971 -0.005611 -0.003535 0.000452 0.000340 0.001814
# 2 -0.005611 0.017887 -0.003914 -0.000357 0.000881 -0.012131
# 3 -0.003535 -0.003914 0.017419 -0.006561 0.001473 0.001641
# 4 0.000452 -0.000357 -0.006561 0.032026 -0.015079 0.001421
# 5 0.000340 0.000881 0.001473 -0.015079 0.060235 -0.000537
# 6 0.001814 -0.012131 0.001641 0.001421 -0.000537 0.038331
#
#
# Mechanical properties :
#
#
# Convention : Reuss Voigt Hill
#
# Bulk Modulus (GPa) = 47.26721 58.63992 52.95356
# Shear Modulus (GPa) = 23.69218 29.84549 26.76883
#
# Velocity S-wave (km/s) = 3.49528 3.92301 3.71531
# Velocity P-wave (km/s) = 6.37675 7.12446 6.76095
#
# Compressibility (1/GPa) = 0.02115632
#
# Stress axis : x y z
#
# Youngs Moduli (GPa) = 83.53731 55.90755 57.40947
#
# Poissons Ratio (x) = 0.31369 0.20294
# Poissons Ratio (y) = 0.46872 0.22471
# Poissons Ratio (z) = 0.29530 0.21883
#
# Static dielectric constant tensor:
#      x y z
#    x 3.391430 0.476250 0.055300 
#    y 0.476250 3.667560 0.086120 
#    z 0.055300 0.086120 3.582180 
# 
# 
# High freq. dielectric constant tensor:
#      x y z
#    x 1.720270 0.041490 -0.009690 
#    y 0.041490 1.755940 0.006860 
#    z -0.009690 0.006860 1.764060 
# 
# From -- ./inp_files/196286.got.cif
#   From: 2010.06.25/outbox.cif.g09.slc.cpg/sg2_99_cif.got.tgz:196286.got - 2010.06.27 13:26:56.
