data_PCOD8039588
_publ_section_title
;
Structure prediction by ZEFSAII (Michael W. Deem and Ramdas Pophale) SiO2 
 PCOD8039588
Probable space group: P -1
;
_chemical_formula_sum "Si O2"
_cell_formula_units_Z 14
_cell_length_a 10.589774
_cell_length_b 9.702386
_cell_length_c 13.126633
_cell_angle_alpha 138.787340
_cell_angle_beta 49.823868
_cell_angle_gamma 118.021787
_cell_volume 678.629672
_symmetry_space_group_name_H-M "P -1"
_symmetry_group_IT_number 2
_symmetry_cell_setting 'triclinic'
loop_
_space_group_symop_operation_xyz
x,y,z
-x,-y,-z
loop_
_atom_site_type_symbol
_atom_site_label
_atom_site_fract_x
_atom_site_fract_y
_atom_site_fract_z
Si Si1 0.269440 0.597281 0.934112
Si Si2 0.986222 0.433483 0.107595
Si Si3 0.917971 0.391992 0.344804
Si Si4 0.324698 0.027587 0.222763
Si Si5 0.857650 0.903516 0.453363
Si Si6 0.988759 0.180884 0.387068
Si Si7 0.455110 0.448550 0.380110
O O1 0.121494 0.691016 0.988906
O O2 0.407764 0.466057 0.722892
O O3 0.178918 0.448581 0.981262
O O4 0.364691 0.783249 0.045479
O O5 0.968289 0.325161 0.166632
O O6 0.897720 0.661790 0.280353
O O7 0.029288 0.587747 0.425456
O O8 0.724801 0.451802 0.493131
O O9 0.962400 0.197248 0.287927
O O10 0.305298 0.066901 0.376565
O O11 0.165401 0.081284 0.267089
O O12 0.463237 0.194536 0.214680
O O13 0.000000 0.000000 0.500000
O O14 0.846436 0.034012 0.426116
O O15 0.500000 0.500000 0.500000
#
# Coordination Sequence:
#
# PCOD8039588 Si02
#       7
#     2   2   2   2   2   2   2
#     4  11  21  31  54  83 106 136 180 224 262 304
#     4  11  19  33  55  80 105 137 185 217 256 311
#     4  10  18  33  53  81 103 144 173 219 265 312
#     4  10  18  33  56  83 105 138 180 217 264 311
#     4  10  14  31  54  80  99 133 180 218 251 308
#     4   9  17  29  56  81 106 132 182 219 259 316
#     4  11  20  35  54  78 111 141 176 218 264 319
#
# _framework density 20.629808000000001
#
# number of rings (size 3 to 8) (size 9 to 14) (size 15 to 20)
#    0.000    1.714    8.571    0.429    0.000    0.000 
#    0.000    0.714    0.000   18.857    0.000    0.000 
#    0.000    0.000    0.000    0.000    0.000    0.000 
#
# Total GULP energy -173444.096906 kJ/mol
# GULP energy per Si atom -12388.864065 kJ/mol
# Density = 2.058285 g / cm^3
# Si number density = 20.629808 Si / 1000 Ang^3
#
#
#
# Elastic Constant Matrix: (Units=GPa)
#
#
# Indices 1 2 3 4 5 6 
#
# 1 50.8256 32.5894 17.5233 -14.1100 8.0769 -5.2414
# 2 32.5894 91.5883 33.2238 -33.5222 4.0730 -13.9767
# 3 17.5233 33.2238 88.8108 -34.1822 3.3073 4.0340
# 4 -14.1100 -33.5222 -34.1822 46.6851 8.2892 8.2719
# 5 8.0769 4.0730 3.3073 8.2892 26.5893 -7.2842
# 6 -5.2414 -13.9767 4.0340 8.2719 -7.2842 36.3203
#
#
#
# Elastic Compliance Matrix: (Units=1/GPa)
#
#
# Indices 1 2 3 4 5 6 
#
# 1 0.027252 -0.007917 -0.000427 0.004111 -0.008777 -0.001763
# 2 -0.007917 0.018426 -0.001895 0.009163 -0.002035 0.003664
# 3 -0.000427 -0.001895 0.018550 0.015080 -0.008794 -0.008049
# 4 0.004111 0.009163 0.015080 0.046522 -0.022500 -0.012664
# 5 -0.008777 -0.002035 -0.008794 -0.022500 0.052700 0.014621
# 6 -0.001763 0.003664 -0.008049 -0.012664 0.014621 0.035399
#
#
# Mechanical properties :
#
#
# Convention : Reuss Voigt Hill
#
# Bulk Modulus (GPa) = 22.85603 44.21085 33.53344
# Shear Modulus (GPa) = 21.37570 31.77815 26.57692
#
# Velocity S-wave (km/s) = 3.22243 3.92905 3.59315
# Velocity P-wave (km/s) = 4.99486 6.48539 5.78830
#
# Compressibility (1/GPa) = 0.04375213
#
# Stress axis : x y z
#
# Youngs Moduli (GPa) = 36.69389 54.27116 53.90753
#
# Poissons Ratio (x) = 0.42964 0.02300
# Poissons Ratio (y) = 0.29049 0.10216
# Poissons Ratio (z) = 0.01565 0.10285
#
# Static dielectric constant tensor:
#      x y z
#    x 3.599520 0.211450 0.500370 
#    y 0.211450 4.412120 -0.401660 
#    z 0.500370 -0.401660 4.080130 
# 
# 
# High freq. dielectric constant tensor:
#      x y z
#    x 1.756590 0.025890 0.032650 
#    y 0.025890 1.806520 -0.022830 
#    z 0.032650 -0.022830 1.805980 
# 
# From -- ./inp_files/344735.got.cif
#   From: 2010.06.25/outbox.cif.g09.slc.cpg/sg2_173_cif.got.tgz:344735.got - 2010.06.27 13:26:56.
