data_PCOD8039992
_publ_section_title
;
Structure prediction by ZEFSAII (Michael W. Deem and Ramdas Pophale) SiO2 
 PCOD8039992
Probable space group: P -1
;
_chemical_formula_sum "Si O2"
_cell_formula_units_Z 16
_cell_length_a 7.871612
_cell_length_b 13.669981
_cell_length_c 13.815279
_cell_angle_alpha 133.071504
_cell_angle_beta 41.219526
_cell_angle_gamma 128.091425
_cell_volume 698.935027
_symmetry_space_group_name_H-M "P -1"
_symmetry_group_IT_number 2
_symmetry_cell_setting 'triclinic'
loop_
_space_group_symop_operation_xyz
x,y,z
-x,-y,-z
loop_
_atom_site_type_symbol
_atom_site_label
_atom_site_fract_x
_atom_site_fract_y
_atom_site_fract_z
Si Si1 0.493080 0.172218 0.624988
Si Si2 0.249233 0.756590 0.629856
Si Si3 0.873592 0.337284 0.077005
Si Si4 0.440676 0.457001 0.883552
Si Si5 0.814881 0.732839 0.940076
Si Si6 0.988411 0.199897 0.753784
Si Si7 0.410728 0.443201 0.670929
Si Si8 0.473516 0.948444 0.273185
O O1 0.733681 0.219637 0.477994
O O2 0.480353 0.302972 0.788691
O O3 0.537583 0.056456 0.605442
O O4 0.214798 0.130059 0.656964
O O5 0.374430 0.627168 0.522577
O O6 0.945142 0.728164 0.774977
O O7 0.414169 0.896212 0.702470
O O8 0.938653 0.244705 0.075509
O O9 0.642605 0.417020 0.260118
O O10 0.130796 0.456504 0.022425
O O11 0.803458 0.242158 0.946916
O O12 0.620970 0.584399 0.951887
O O13 0.529281 0.486560 0.755091
O O14 0.668694 0.856888 0.087601
O O15 0.812199 0.097992 0.684589
O O16 0.136023 0.331865 0.720073
#
# Coordination Sequence:
#
# PCOD8039992 Si02
#       8
#     2   2   2   2   2   2   2   2
#     4   9  21  41  64  91 118 150 204 253 295 345
#     4  10  25  40  54  88 129 163 191 241 298 362
#     4  10  18  35  60  92 120 143 204 258 288 349
#     4   9  18  35  61  93 110 148 204 251 297 348
#     4  12  22  35  64  89 123 158 196 244 305 352
#     4   9  19  36  64  94 111 148 206 261 282 337
#     4   9  19  36  57  84 124 150 192 253 302 340
#     4  12  21  40  69  83 117 165 207 236 292 353
#
# _framework density 22.891969
#
# number of rings (size 3 to 8) (size 9 to 14) (size 15 to 20)
#    0.000    2.500    2.500    4.125    1.750    4.500 
#    0.000    0.625   13.750    0.000    0.000    0.000 
#    0.000    0.000    0.000    0.000    0.000    0.000 
#
# Total GULP energy -198265.371626 kJ/mol
# GULP energy per Si atom -12391.585727 kJ/mol
# Density = 2.283987 g / cm^3
# Si number density = 22.891969 Si / 1000 Ang^3
#
#
#
# Elastic Constant Matrix: (Units=GPa)
#
#
# Indices 1 2 3 4 5 6 
#
# 1 100.7846 16.2181 16.2014 4.1400 10.1672 2.4940
# 2 16.2181 37.6350 14.0235 -0.6534 -4.0860 -3.5663
# 3 16.2014 14.0235 101.2122 -3.3129 -16.2895 -15.1105
# 4 4.1400 -0.6534 -3.3129 28.2329 -7.3877 -4.7011
# 5 10.1672 -4.0860 -16.2895 -7.3877 18.6144 9.3019
# 6 2.4940 -3.5663 -15.1105 -4.7011 9.3019 25.2179
#
#
#
# Elastic Compliance Matrix: (Units=1/GPa)
#
#
# Indices 1 2 3 4 5 6 
#
# 1 0.013191 -0.005941 -0.003833 -0.006293 -0.014166 -0.000389
# 2 -0.005941 0.030921 -0.001427 0.004199 0.009817 0.001267
# 3 -0.003833 -0.001427 0.013882 0.006652 0.014348 0.004443
# 4 -0.006293 0.004199 0.006652 0.044664 0.025925 0.003966
# 5 -0.014166 0.009817 0.014348 0.025925 0.096061 -0.019214
# 6 -0.000389 0.001267 0.004443 0.003966 -0.019214 0.050361
#
#
# Mechanical properties :
#
#
# Convention : Reuss Voigt Hill
#
# Bulk Modulus (GPa) = 28.09414 36.94640 32.52027
# Shear Modulus (GPa) = 17.64631 27.29229 22.46930
#
# Velocity S-wave (km/s) = 2.77943 3.45660 3.13635
# Velocity P-wave (km/s) = 4.75389 5.66615 5.22995
#
# Compressibility (1/GPa) = 0.03559461
#
# Stress axis : x y z
#
# Youngs Moduli (GPa) = 75.80666 32.34002 72.03758
#
# Poissons Ratio (x) = 0.19212 0.27609
# Poissons Ratio (y) = 0.45034 0.10278
# Poissons Ratio (z) = 0.29053 0.04614
#
# Static dielectric constant tensor:
#      x y z
#    x 3.843530 -0.074910 0.186490 
#    y -0.074910 3.765250 0.258030 
#    z 0.186490 0.258030 4.409090 
# 
# 
# High freq. dielectric constant tensor:
#      x y z
#    x 1.883180 -0.011910 0.014380 
#    y -0.011910 1.872280 0.025090 
#    z 0.014380 0.025090 1.923530 
# 
# From -- ./inp_files/504237.got.cif
#   From: 2010.06.25/outbox.cif.g09.slc.cpg/sg2_253_cif.got.tgz:504237.got - 2010.06.27 13:26:56.
