data_PCOD8039982
_publ_section_title
;
Structure prediction by ZEFSAII (Michael W. Deem and Ramdas Pophale) SiO2 
 PCOD8039982
Probable space group: P -1
;
_chemical_formula_sum "Si O2"
_cell_formula_units_Z 16
_cell_length_a 9.186395
_cell_length_b 12.580219
_cell_length_c 9.235590
_cell_angle_alpha 87.105014
_cell_angle_beta 63.552456
_cell_angle_gamma 121.071427
_cell_volume 761.853304
_symmetry_space_group_name_H-M "P -1"
_symmetry_group_IT_number 2
_symmetry_cell_setting 'triclinic'
loop_
_space_group_symop_operation_xyz
x,y,z
-x,-y,-z
loop_
_atom_site_type_symbol
_atom_site_label
_atom_site_fract_x
_atom_site_fract_y
_atom_site_fract_z
Si Si1 0.700808 0.370457 0.568439
Si Si2 0.531713 0.890189 0.767908
Si Si3 0.100679 0.959800 0.229003
Si Si4 0.584244 0.321336 0.928692
Si Si5 0.853797 0.782390 0.831674
Si Si6 0.785916 0.052626 0.142973
Si Si7 0.336290 0.180297 0.567683
Si Si8 0.909397 0.592673 0.670808
O O1 0.610207 0.278564 0.760401
O O2 0.519466 0.325080 0.539349
O O3 0.818619 0.525460 0.555790
O O4 0.856439 0.350869 0.423836
O O5 0.733691 0.027501 0.737210
O O6 0.378446 0.919028 0.781241
O O7 0.594959 0.840109 0.612676
O O8 0.420738 0.773930 0.945376
O O9 0.096203 0.082743 0.266467
O O10 0.868093 0.827361 0.360626
O O11 0.180183 0.979913 0.029234
O O12 0.775699 0.476789 0.860300
O O13 0.382308 0.314692 0.013246
O O14 0.897003 0.713521 0.691842
O O15 0.998685 0.816370 0.903335
O O16 0.707966 0.929560 0.290074
#
# Coordination Sequence:
#
# PCOD8039982 Si02
#       8
#     2   2   2   2   2   2   2   2
#     4   9  19  36  59  85 109 145 191 231 273 328
#     4  11  22  36  56  86 119 148 181 229 291 332
#     4  10  22  38  57  83 118 146 182 233 285 331
#     4   9  19  37  57  83 112 150 182 231 279 324
#     4  10  18  35  60  88 106 145 190 229 272 335
#     4  11  22  37  59  87 111 150 190 230 274 339
#     4  11  20  37  59  85 114 146 188 233 275 335
#     4   9  19  35  62  84 109 145 196 230 273 325
#
# _framework density 21.001415999999999
#
# number of rings (size 3 to 8) (size 9 to 14) (size 15 to 20)
#    0.750    1.250    0.000    6.000    0.000    1.000 
#    0.000    5.000    0.000    3.000    0.000    0.000 
#    0.000    0.000    0.000    0.000    0.000    0.000 
#
# Total GULP energy -198279.485514 kJ/mol
# GULP energy per Si atom -12392.467845 kJ/mol
# Density = 2.095362 g / cm^3
# Si number density = 21.001416 Si / 1000 Ang^3
#
#
#
# Elastic Constant Matrix: (Units=GPa)
#
#
# Indices 1 2 3 4 5 6 
#
# 1 82.3684 13.6706 18.4027 -1.2074 -17.9084 17.9285
# 2 13.6706 51.7157 17.2563 12.3081 -7.3109 15.3477
# 3 18.4027 17.2563 60.3092 7.5210 -13.4748 14.6075
# 4 -1.2074 12.3081 7.5210 22.0107 7.0179 -3.5250
# 5 -17.9084 -7.3109 -13.4748 7.0179 33.2408 1.5818
# 6 17.9285 15.3477 14.6075 -3.5250 1.5818 27.3212
#
#
#
# Elastic Compliance Matrix: (Units=1/GPa)
#
#
# Indices 1 2 3 4 5 6 
#
# 1 0.017519 0.003563 0.001629 -0.008476 0.013445 -0.016241
# 2 0.003563 0.036966 0.004635 -0.033575 0.020497 -0.031101
# 3 0.001629 0.004635 0.026663 -0.020868 0.018143 -0.021671
# 4 -0.008476 -0.033575 -0.020868 0.092354 -0.042285 0.049944
# 5 0.013445 0.020497 0.018143 -0.042285 0.059971 -0.038965
# 6 -0.016241 -0.031101 -0.021671 0.049944 -0.038965 0.085016
#
#
# Mechanical properties :
#
#
# Convention : Reuss Voigt Hill
#
# Bulk Modulus (GPa) = 9.92030 32.56138 21.24084
# Shear Modulus (GPa) = 15.04055 26.18546 20.61300
#
# Velocity S-wave (km/s) = 2.67904 3.53490 3.13630
# Velocity P-wave (km/s) = 3.78200 5.67439 4.82194
#
# Compressibility (1/GPa) = 0.10080336
#
# Stress axis : x y z
#
# Youngs Moduli (GPa) = 57.08037 27.05181 37.50551
#
# Poissons Ratio (x) = -0.09638 -0.06111
# Poissons Ratio (y) = -0.20337 -0.17385
# Poissons Ratio (z) = -0.09301 -0.12539
#
# Static dielectric constant tensor:
#      x y z
#    x 4.011060 0.526540 -0.276460 
#    y 0.526540 3.729920 0.065070 
#    z -0.276460 0.065070 3.717080 
# 
# 
# High freq. dielectric constant tensor:
#      x y z
#    x 1.817330 0.032180 -0.026620 
#    y 0.032180 1.804140 0.012010 
#    z -0.026620 0.012010 1.822530 
# 
# From -- ./inp_files/196848.got.cif
#   From: 2010.06.25/outbox.cif.g09.slc.cpg/sg2_99_cif.got.tgz:196848.got - 2010.06.27 13:26:56.
