data_PCOD8039130
_publ_section_title
;
Structure prediction by ZEFSAII (Michael W. Deem and Ramdas Pophale) SiO2 
 PCOD8039130
Probable space group: P -1
;
_chemical_formula_sum "Si O2"
_cell_formula_units_Z 16
_cell_length_a 23.860498
_cell_length_b 16.304576
_cell_length_c 11.334724
_cell_angle_alpha 137.479893
_cell_angle_beta 151.036402
_cell_angle_gamma 24.192346
_cell_volume 832.643567
_symmetry_space_group_name_H-M "P -1"
_symmetry_group_IT_number 2
_symmetry_cell_setting 'triclinic'
loop_
_space_group_symop_operation_xyz
x,y,z
-x,-y,-z
loop_
_atom_site_type_symbol
_atom_site_label
_atom_site_fract_x
_atom_site_fract_y
_atom_site_fract_z
Si Si1 0.418471 0.359564 0.029768
Si Si2 0.546649 0.867228 0.617146
Si Si3 0.355415 0.884898 0.477110
Si Si4 0.633659 0.739452 0.390993
Si Si5 0.654865 0.753857 0.033508
Si Si6 0.833551 0.195754 0.986273
Si Si7 0.913275 0.622134 0.183471
Si Si8 0.160087 0.050933 0.535801
O O1 0.391327 0.360055 0.839866
O O2 0.325834 0.316163 0.873432
O O3 0.294567 0.585430 0.075799
O O4 0.648617 0.182999 0.305689
O O5 0.368517 0.969327 0.482146
O O6 0.560797 0.772632 0.424927
O O7 0.505182 0.040305 0.689513
O O8 0.763333 0.680768 0.881778
O O9 0.189430 0.057375 0.455877
O O10 0.567891 0.713852 0.755383
O O11 0.320069 0.782430 0.245202
O O12 0.858971 0.599577 0.664965
O O13 0.867735 0.612230 0.222145
O O14 0.500000 0.000000 0.000000
O O15 0.960506 0.137644 0.270992
O O16 0.000000 0.000000 0.000000
O O17 0.873832 0.799557 0.293247
#
# Coordination Sequence:
#
# PCOD8039130 Si02
#       8
#     2   2   2   2   2   2   2   2
#     4  11  20  35  57  81 114 150 179 224 284 327
#     4  10  22  39  54  81 116 145 182 236 270 332
#     4   9  19  36  56  75 115 147 176 227 277 320
#     4  11  22  34  58  85 108 148 188 221 285 331
#     4  10  18  32  57  88 115 141 172 231 291 335
#     4  10  22  36  54  84 111 146 191 224 272 333
#     4  11  19  34  57  84 112 140 180 226 281 335
#     4  10  19  34  58  82 112 138 181 231 278 331
#
# _framework density 19.215903999999998
#
# number of rings (size 3 to 8) (size 9 to 14) (size 15 to 20)
#    0.000    1.750    5.000    1.125    0.000    7.000 
#    0.000    1.875    0.000    0.750    0.000    0.000 
#    0.000    0.000    0.000    0.000    0.000    0.000 
#
# Total GULP energy -198211.715216 kJ/mol
# GULP energy per Si atom -12388.232201 kJ/mol
# Density = 1.917217 g / cm^3
# Si number density = 19.215904 Si / 1000 Ang^3
#
#
#
# Elastic Constant Matrix: (Units=GPa)
#
#
# Indices 1 2 3 4 5 6 
#
# 1 59.7104 13.5052 28.7645 9.8933 -10.9766 -8.2012
# 2 13.5052 65.1523 24.0173 -0.2582 -4.0566 2.0949
# 3 28.7645 24.0173 102.0827 5.4277 3.3673 6.2440
# 4 9.8933 -0.2582 5.4277 32.9226 -1.9268 1.7370
# 5 -10.9766 -4.0566 3.3673 -1.9268 25.5596 3.6122
# 6 -8.2012 2.0949 6.2440 1.7370 3.6122 21.3608
#
#
#
# Elastic Compliance Matrix: (Units=1/GPa)
#
#
# Indices 1 2 3 4 5 6 
#
# 1 0.024951 -0.002349 -0.007108 -0.006374 0.009267 0.010839
# 2 -0.002349 0.017353 -0.003464 0.001682 0.002636 -0.002174
# 3 -0.007108 -0.003464 0.013099 -0.000030 -0.004561 -0.005444
# 4 -0.006374 0.001682 -0.000030 0.032636 0.000755 -0.005385
# 5 0.009267 0.002636 -0.004561 0.000755 0.044600 -0.002971
# 6 0.010839 -0.002174 -0.005444 -0.005385 -0.002971 0.053721
#
#
# Mechanical properties :
#
#
# Convention : Reuss Voigt Hill
#
# Bulk Modulus (GPa) = 33.82771 39.94661 36.88716
# Shear Modulus (GPa) = 22.51687 26.67916 24.59802
#
# Velocity S-wave (km/s) = 3.42685 3.73015 3.58171
# Velocity P-wave (km/s) = 5.77061 6.27579 6.02849
#
# Compressibility (1/GPa) = 0.02956157
#
# Stress axis : x y z
#
# Youngs Moduli (GPa) = 40.07843 57.62610 76.34217
#
# Poissons Ratio (x) = 0.13535 0.54262
# Poissons Ratio (y) = 0.09413 0.26448
# Poissons Ratio (z) = 0.28487 0.19964
#
# Static dielectric constant tensor:
#      x y z
#    x 3.564480 -0.054980 0.163860 
#    y -0.054980 3.346470 0.184610 
#    z 0.163860 0.184610 4.083990 
# 
# 
# High freq. dielectric constant tensor:
#      x y z
#    x 1.711430 -0.007310 -0.000720 
#    y -0.007310 1.727690 0.002440 
#    z -0.000720 0.002440 1.758710 
# 
# From -- ./inp_files/472198.got.cif
#   From: 2010.06.25/outbox.cif.g09.slc.cpg/sg2_237_cif.got.tgz:472198.got - 2010.06.27 13:26:56.
