data_PCOD8039041
_publ_section_title
;
Structure prediction by ZEFSAII (Michael W. Deem and Ramdas Pophale) SiO2 
 PCOD8039041
Probable space group: P -1
;
_chemical_formula_sum "Si O2"
_cell_formula_units_Z 16
_cell_length_a 15.739578
_cell_length_b 9.094795
_cell_length_c 8.503184
_cell_angle_alpha 68.493032
_cell_angle_beta 137.183652
_cell_angle_gamma 98.005786
_cell_volume 753.327632
_symmetry_space_group_name_H-M "P -1"
_symmetry_group_IT_number 2
_symmetry_cell_setting 'triclinic'
loop_
_space_group_symop_operation_xyz
x,y,z
-x,-y,-z
loop_
_atom_site_type_symbol
_atom_site_label
_atom_site_fract_x
_atom_site_fract_y
_atom_site_fract_z
Si Si1 0.821522 0.070567 0.621422
Si Si2 0.231678 0.759063 0.816747
Si Si3 0.098231 0.549140 0.934761
Si Si4 0.366705 0.386216 0.428442
Si Si5 0.580234 0.108879 0.754737
Si Si6 0.452945 0.831603 0.672315
Si Si7 0.548480 0.498099 0.833577
Si Si8 0.993093 0.261384 0.959407
O O1 0.851399 0.109818 0.464515
O O2 0.668313 0.099506 0.412602
O O3 0.883456 0.886103 0.820331
O O4 0.873286 0.195334 0.756086
O O5 0.137874 0.649914 0.803813
O O6 0.299156 0.850393 0.005487
O O7 0.342219 0.649808 0.898862
O O8 0.031318 0.681507 0.916656
O O9 0.214911 0.421357 0.224292
O O10 0.010922 0.419528 0.818953
O O11 0.441102 0.201144 0.591465
O O12 0.412769 0.455066 0.626414
O O13 0.395834 0.474221 0.274336
O O14 0.598011 0.153631 0.581236
O O15 0.569484 0.922603 0.827850
O O16 0.522106 0.643817 0.866717
#
# Coordination Sequence:
#
# PCOD8039041 Si02
#       8
#     2   2   2   2   2   2   2   2
#     4  11  23  38  54  79 113 143 177 230 276 310
#     4  10  21  36  56  82 112 140 174 225 276 316
#     4  10  19  38  61  78 101 140 189 229 260 314
#     4   8  13  27  52  76 101 132 170 211 255 315
#     4   9  18  32  55  84 109 144 179 206 263 338
#     4  10  18  32  54  80 114 145 174 212 261 330
#     4   8  15  28  49  78 105 135 168 201 259 328
#     4  10  23  39  57  77 101 146 195 223 266 321
#
# _framework density 21.239097999999998
#
# number of rings (size 3 to 8) (size 9 to 14) (size 15 to 20)
#    0.000    2.500    0.000    4.500    0.000    3.000 
#    0.000    2.500    0.000    0.000    0.000    0.000 
#    0.000    0.000    0.000    0.000    0.000    0.000 
#
# Total GULP energy -198222.749704 kJ/mol
# GULP energy per Si atom -12388.921856 kJ/mol
# Density = 2.119076 g / cm^3
# Si number density = 21.239098 Si / 1000 Ang^3
#
#
#
# Elastic Constant Matrix: (Units=GPa)
#
#
# Indices 1 2 3 4 5 6 
#
# 1 59.1010 23.0893 5.1216 -0.0623 4.7691 1.1577
# 2 23.0893 111.3593 20.8804 4.9105 -8.7326 4.3816
# 3 5.1216 20.8804 34.0108 -4.2493 -7.6695 6.1468
# 4 -0.0623 4.9105 -4.2493 13.4661 0.1369 2.8762
# 5 4.7691 -8.7326 -7.6695 0.1369 19.0501 -2.1908
# 6 1.1577 4.3816 6.1468 2.8762 -2.1908 26.8310
#
#
#
# Elastic Compliance Matrix: (Units=1/GPa)
#
#
# Indices 1 2 3 4 5 6 
#
# 1 0.019385 -0.004331 -0.001720 0.001309 -0.007597 -0.000496
# 2 -0.004331 0.011682 -0.006605 -0.006579 0.003921 0.000818
# 3 -0.001720 -0.006605 0.040234 0.016861 0.012461 -0.008854
# 4 0.001309 -0.006579 0.016861 0.084487 0.001483 -0.011781
# 5 -0.007597 0.003921 0.012461 0.001483 0.061393 0.001687
# 6 -0.000496 0.000818 -0.008854 -0.011781 0.001687 0.040587
#
#
# Mechanical properties :
#
#
# Convention : Reuss Voigt Hill
#
# Bulk Modulus (GPa) = 21.74485 33.62819 27.68652
# Shear Modulus (GPa) = 16.75548 22.22811 19.49180
#
# Velocity S-wave (km/s) = 2.81178 3.23858 3.03270
# Velocity P-wave (km/s) = 4.56090 5.46370 5.03259
#
# Compressibility (1/GPa) = 0.04598791
#
# Stress axis : x y z
#
# Youngs Moduli (GPa) = 51.58539 85.60315 24.85490
#
# Poissons Ratio (x) = 0.37073 0.04276
# Poissons Ratio (y) = 0.22340 0.16417
# Poissons Ratio (z) = 0.08875 0.56543
#
# Static dielectric constant tensor:
#      x y z
#    x 3.575950 -0.009090 0.149750 
#    y -0.009090 4.006960 -0.097890 
#    z 0.149750 -0.097890 3.594380 
# 
# 
# High freq. dielectric constant tensor:
#      x y z
#    x 1.817360 0.000390 0.007230 
#    y 0.000390 1.847490 -0.003920 
#    z 0.007230 -0.003920 1.800270 
# 
# From -- ./inp_files/328777.got.cif
#   From: 2010.06.25/outbox.cif.g09.slc.cpg/sg2_165_cif.got.tgz:328777.got - 2010.06.27 13:26:56.
