data_PCOD8039319
_publ_section_title
;
Structure prediction by ZEFSAII (Michael W. Deem and Ramdas Pophale) SiO2 
 PCOD8039319
Probable space group: P -1
;
_chemical_formula_sum "Si O2"
_cell_formula_units_Z 16
_cell_length_a 17.420005
_cell_length_b 17.115198
_cell_length_c 12.091607
_cell_angle_alpha 51.944780
_cell_angle_beta 150.555222
_cell_angle_gamma 147.591758
_cell_volume 847.805343
_symmetry_space_group_name_H-M "P -1"
_symmetry_group_IT_number 2
_symmetry_cell_setting 'triclinic'
loop_
_space_group_symop_operation_xyz
x,y,z
-x,-y,-z
loop_
_atom_site_type_symbol
_atom_site_label
_atom_site_fract_x
_atom_site_fract_y
_atom_site_fract_z
Si Si1 0.692283 0.770641 0.477720
Si Si2 0.283297 0.329381 0.817945
Si Si3 0.650973 0.908179 0.604973
Si Si4 0.105356 0.036693 0.930264
Si Si5 0.286720 0.908216 0.651041
Si Si6 0.263959 0.580909 0.288735
Si Si7 0.812477 0.682618 0.531150
Si Si8 0.345435 0.044494 0.827996
O O1 0.443978 0.660039 0.338509
O O2 0.673259 0.657444 0.486727
O O3 0.697567 0.859360 0.312979
O O4 0.961881 0.905579 0.766302
O O5 0.285820 0.215589 0.955337
O O6 0.336724 0.356743 0.730575
O O7 0.019439 0.252658 0.584786
O O8 0.500000 0.500000 0.000000
O O9 0.399406 0.714142 0.438399
O O10 0.620372 0.002368 0.429995
O O11 0.718307 0.947501 0.786455
O O12 0.887473 0.976301 0.782421
O O13 0.391296 0.036352 0.764780
O O14 0.410040 0.862261 0.870138
O O15 0.197175 0.440099 0.374649
O O16 0.000000 0.500000 0.000000
O O17 0.104984 0.866981 0.734444
#
# Coordination Sequence:
#
# PCOD8039319 Si02
#       8
#     2   2   2   2   2   2   2   2
#     4  11  21  38  55  83 114 148 186 231 283 336
#     4  10  19  32  52  84 110 143 190 232 275 328
#     4   9  16  32  52  78 107 142 182 227 278 318
#     4   9  17  31  52  76 108 142 183 228 270 330
#     4   9  17  31  54  82 106 142 190 231 272 324
#     4  11  22  35  55  84 116 146 185 233 283 332
#     4  11  22  34  58  85 110 147 187 235 284 327
#     4  10  18  33  57  79 111 140 189 234 273 328
#
# _framework density 18.872257000000001
#
# number of rings (size 3 to 8) (size 9 to 14) (size 15 to 20)
#    0.000    2.000    5.000    2.250    3.500    1.000 
#    0.000    0.000    0.000    5.250    0.000    0.000 
#    0.000    0.000    0.000    0.000    0.000    0.000 
#
# Total GULP energy -198335.632765 kJ/mol
# GULP energy per Si atom -12395.977048 kJ/mol
# Density = 1.882930 g / cm^3
# Si number density = 18.872257 Si / 1000 Ang^3
#
#
#
# Elastic Constant Matrix: (Units=GPa)
#
#
# Indices 1 2 3 4 5 6 
#
# 1 58.2321 20.8052 45.4474 3.5681 -15.2573 0.5406
# 2 20.8052 83.7519 51.1206 -3.5094 -14.5596 11.5587
# 3 45.4474 51.1206 131.6985 -13.6715 -25.9041 4.3220
# 4 3.5681 -3.5094 -13.6715 30.6383 4.6322 -3.1044
# 5 -15.2573 -14.5596 -25.9041 4.6322 20.9981 0.9024
# 6 0.5406 11.5587 4.3220 -3.1044 0.9024 20.3676
#
#
#
# Elastic Compliance Matrix: (Units=1/GPa)
#
#
# Indices 1 2 3 4 5 6 
#
# 1 0.026892 -0.000140 -0.007765 -0.008473 0.011768 -0.000799
# 2 -0.000140 0.017624 -0.005491 -0.002321 0.006263 -0.009464
# 3 -0.007765 -0.005491 0.014333 0.005708 0.006938 0.000843
# 4 -0.008473 -0.002321 0.005708 0.037988 -0.009386 0.006537
# 5 0.011768 0.006263 0.006938 -0.009386 0.071573 -0.009940
# 6 -0.000799 -0.009464 0.000843 0.006537 -0.009940 0.055748
#
#
# Mechanical properties :
#
#
# Convention : Reuss Voigt Hill
#
# Bulk Modulus (GPa) = 31.19304 56.49210 43.84257
# Shear Modulus (GPa) = 19.11051 24.82142 21.96597
#
# Velocity S-wave (km/s) = 3.18563 3.63055 3.41534
# Velocity P-wave (km/s) = 5.48592 6.89735 6.23173
#
# Compressibility (1/GPa) = 0.03205844
#
# Stress axis : x y z
#
# Youngs Moduli (GPa) = 37.18518 56.74010 69.76689
#
# Poissons Ratio (x) = 0.00795 0.54171
# Poissons Ratio (y) = 0.00521 0.38311
# Poissons Ratio (z) = 0.28872 0.31157
#
# Static dielectric constant tensor:
#      x y z
#    x 3.246680 0.204110 -0.331340 
#    y 0.204110 3.694760 -0.239050 
#    z -0.331340 -0.239050 3.862050 
# 
# 
# High freq. dielectric constant tensor:
#      x y z
#    x 1.692050 0.017870 -0.014870 
#    y 0.017870 1.735420 -0.009200 
#    z -0.014870 -0.009200 1.734350 
# 
# From -- ./inp_files/176280.got.cif
#   From: 2010.06.25/outbox.cif.g09.slc.cpg/sg2_89_cif.got.tgz:176280.got - 2010.06.27 13:26:56.
