data_PCOD8039092
_publ_section_title
;
Structure prediction by ZEFSAII (Michael W. Deem and Ramdas Pophale) SiO2 
 PCOD8039092
Probable space group: P -1
;
_chemical_formula_sum "Si O2"
_cell_formula_units_Z 16
_cell_length_a 5.164225
_cell_length_b 23.634407
_cell_length_c 9.716655
_cell_angle_alpha 63.951803
_cell_angle_beta 79.107538
_cell_angle_gamma 54.065488
_cell_volume 858.852602
_symmetry_space_group_name_H-M "P -1"
_symmetry_group_IT_number 2
_symmetry_cell_setting 'triclinic'
loop_
_space_group_symop_operation_xyz
x,y,z
-x,-y,-z
loop_
_atom_site_type_symbol
_atom_site_label
_atom_site_fract_x
_atom_site_fract_y
_atom_site_fract_z
Si Si1 0.994194 0.316679 0.484225
Si Si2 0.721076 0.997846 0.596334
Si Si3 0.791554 0.386773 0.720350
Si Si4 0.104242 0.832905 0.722222
Si Si5 0.610882 0.325760 0.031475
Si Si6 0.604506 0.618417 0.710269
Si Si7 0.338894 0.162774 0.474104
Si Si8 0.112704 0.448815 0.769515
O O1 0.965347 0.330952 0.634189
O O2 0.640741 0.366643 0.401196
O O3 0.228928 0.336796 0.374516
O O4 0.143100 0.226976 0.541446
O O5 0.885590 0.914373 0.742424
O O6 0.500000 0.000000 0.500000
O O7 0.496979 0.077704 0.619221
O O8 0.000000 0.000000 0.500000
O O9 0.406817 0.447507 0.671385
O O10 0.938677 0.435394 0.678587
O O11 0.852650 0.335027 0.904910
O O12 0.259566 0.763474 0.889593
O O13 0.383655 0.830087 0.616722
O O14 0.893832 0.823011 0.643743
O O15 0.595800 0.353922 0.157999
O O16 0.255019 0.379911 0.941465
O O17 0.875730 0.528100 0.786522
#
# Coordination Sequence:
#
# PCOD8039092 Si02
#       8
#     2   2   2   2   2   2   2   2
#     4  12  23  38  57  86 106 150 178 236 266 329
#     4   8  16  28  49  79 110 133 164 221 271 309
#     4  10  25  39  56  76 116 146 184 219 289 317
#     4  10  18  32  56  81 106 140 177 219 266 324
#     4  10  23  38  57  82 110 145 181 228 274 327
#     4  12  24  37  63  78 108 138 201 227 275 310
#     4  10  18  33  52  83 111 133 177 223 270 311
#     4  10  24  40  56  79 108 149 183 234 269 325
#
# _framework density 18.629505000000002
#
# number of rings (size 3 to 8) (size 9 to 14) (size 15 to 20)
#    0.750    1.000    2.500    1.875    3.500    3.500 
#    0.000    0.000    0.000    0.750    0.000    0.875 
#    0.000    0.000    0.000    0.000    0.000    0.000 
#
# Total GULP energy -198221.941466 kJ/mol
# GULP energy per Si atom -12388.871342 kJ/mol
# Density = 1.858710 g / cm^3
# Si number density = 18.629505 Si / 1000 Ang^3
#
#
#
# Elastic Constant Matrix: (Units=GPa)
#
#
# Indices 1 2 3 4 5 6 
#
# 1 134.4299 17.7050 19.5020 5.7206 6.1417 8.9341
# 2 17.7050 146.8231 54.6557 -18.9814 11.4877 5.0642
# 3 19.5020 54.6557 53.9743 3.9398 3.4603 0.6860
# 4 5.7206 -18.9814 3.9398 24.0811 -2.1522 1.5402
# 5 6.1417 11.4877 3.4603 -2.1522 10.4936 1.6899
# 6 8.9341 5.0642 0.6860 1.5402 1.6899 23.9940
#
#
#
# Elastic Compliance Matrix: (Units=1/GPa)
#
#
# Indices 1 2 3 4 5 6 
#
# 1 0.008242 0.000306 -0.002888 -0.001437 -0.004071 -0.002672
# 2 0.000306 0.015365 -0.016132 0.014146 -0.008260 -0.003222
# 3 -0.002888 -0.016132 0.036999 -0.018120 0.002726 0.004394
# 4 -0.001437 0.014146 -0.018120 0.056705 0.003902 -0.005847
# 5 -0.004071 -0.008260 0.002726 0.003902 0.107369 -0.004631
# 6 -0.002672 -0.003222 0.004394 -0.005847 -0.004631 0.043928
#
#
# Mechanical properties :
#
#
# Convention : Reuss Voigt Hill
#
# Bulk Modulus (GPa) = 43.14426 57.66140 50.40283
# Shear Modulus (GPa) = 15.93560 27.93806 21.93683
#
# Velocity S-wave (km/s) = 2.92789 3.87675 3.43524
# Velocity P-wave (km/s) = 5.88553 7.14548 6.54589
#
# Compressibility (1/GPa) = 0.02317806
#
# Stress axis : x y z
#
# Youngs Moduli (GPa) = 121.32634 65.08088 27.02794
#
# Poissons Ratio (x) = -0.01993 0.07806
# Poissons Ratio (y) = -0.03715 0.43602
# Poissons Ratio (z) = 0.35042 1.04989
#
# Static dielectric constant tensor:
#      x y z
#    x 3.425450 0.090140 -0.058280 
#    y 0.090140 3.907980 -0.277060 
#    z -0.058280 -0.277060 2.997640 
# 
# 
# High freq. dielectric constant tensor:
#      x y z
#    x 1.742470 0.001360 0.003980 
#    y 0.001360 1.738810 -0.017200 
#    z 0.003980 -0.017200 1.670900 
# 
# From -- ./inp_files/104931.got.cif
#   From: 2010.06.25/outbox.cif.g09.slc.cpg/sg2_53_cif.got.tgz:104931.got - 2010.06.27 13:26:56.
