data_PCOD8039185
_publ_section_title
;
Structure prediction by ZEFSAII (Michael W. Deem and Ramdas Pophale) SiO2 
 PCOD8039185
Probable space group: P -1
;
_chemical_formula_sum "Si O2"
_cell_formula_units_Z 16
_cell_length_a 9.961437
_cell_length_b 13.897686
_cell_length_c 14.412796
_cell_angle_alpha 41.957655
_cell_angle_beta 132.415085
_cell_angle_gamma 150.831428
_cell_volume 648.241652
_symmetry_space_group_name_H-M "P -1"
_symmetry_group_IT_number 2
_symmetry_cell_setting 'triclinic'
loop_
_space_group_symop_operation_xyz
x,y,z
-x,-y,-z
loop_
_atom_site_type_symbol
_atom_site_label
_atom_site_fract_x
_atom_site_fract_y
_atom_site_fract_z
Si Si1 0.265530 0.970133 0.955905
Si Si2 0.405922 0.738673 0.635289
Si Si3 0.982567 0.978307 0.664490
Si Si4 0.488409 0.993051 0.344257
Si Si5 0.918315 0.435540 0.902529
Si Si6 0.754643 0.645264 0.084181
Si Si7 0.476171 0.219948 0.045939
Si Si8 0.944444 0.758914 0.635206
O O1 0.299592 0.821242 0.046288
O O2 0.030728 0.838694 0.018139
O O3 0.517697 0.191041 0.976992
O O4 0.200148 0.029391 0.795303
O O5 0.729522 0.888009 0.671531
O O6 0.364922 0.827865 0.634373
O O7 0.224640 0.489758 0.750346
O O8 0.310331 0.760129 0.478469
O O9 0.861811 0.792633 0.666587
O O10 0.145229 0.203499 0.524674
O O11 0.321437 0.000294 0.191705
O O12 0.722899 0.058041 0.343582
O O13 0.228405 0.577180 0.908488
O O14 0.809126 0.519228 0.746140
O O15 0.000000 0.500000 0.000000
O O16 0.500000 0.500000 0.000000
O O17 0.707802 0.746910 0.062894
#
# Coordination Sequence:
#
# PCOD8039185 Si02
#       8
#     2   2   2   2   2   2   2   2
#     4  12  23  37  61  88 118 152 192 240 296 341
#     4  10  18  32  62  80 113 155 197 232 289 344
#     4  10  18  34  55  87 112 154 192 237 287 347
#     4   9  18  35  53  86 114 152 190 239 286 345
#     4  11  21  39  60  83 112 156 196 232 286 345
#     4  12  19  36  59  87 116 150 194 238 286 349
#     4  11  23  38  58  89 121 146 192 245 288 346
#     4   9  19  33  58  82 115 148 198 234 284 348
#
# _framework density 24.682154000000001
#
# number of rings (size 3 to 8) (size 9 to 14) (size 15 to 20)
#    0.000    1.500    5.000    1.125    0.000    0.500 
#    0.000    1.875    0.000    0.750    0.000    0.000 
#    0.000    0.000    0.000    0.000    0.000    0.000 
#
# Total GULP energy -198323.513111 kJ/mol
# GULP energy per Si atom -12395.219569 kJ/mol
# Density = 2.462598 g / cm^3
# Si number density = 24.682154 Si / 1000 Ang^3
#
#
#
# Elastic Constant Matrix: (Units=GPa)
#
#
# Indices 1 2 3 4 5 6 
#
# 1 102.2427 21.8678 17.8809 -10.5477 5.8406 -22.0566
# 2 21.8678 105.9972 47.9257 -19.2383 1.6151 -8.4849
# 3 17.8809 47.9257 209.4191 -34.8408 1.8330 -17.3177
# 4 -10.5477 -19.2383 -34.8408 32.9742 -8.5904 1.0444
# 5 5.8406 1.6151 1.8330 -8.5904 38.4550 -5.9564
# 6 -22.0566 -8.4849 -17.3177 1.0444 -5.9564 29.3246
#
#
#
# Elastic Compliance Matrix: (Units=1/GPa)
#
#
# Indices 1 2 3 4 5 6 
#
# 1 0.012301 -0.001448 0.000627 0.003561 0.000376 0.009153
# 2 -0.001448 0.011405 -0.001598 0.004742 0.001081 0.001318
# 3 0.000627 -0.001598 0.006467 0.006422 0.001710 0.003947
# 4 0.003561 0.004742 0.006422 0.043340 0.009923 0.008315
# 5 0.000376 0.001081 0.001710 0.009923 0.029148 0.007172
# 6 0.009153 0.001318 0.003947 0.008315 0.007172 0.044859
#
#
# Mechanical properties :
#
#
# Convention : Reuss Voigt Hill
#
# Bulk Modulus (GPa) = 39.47033 65.88975 52.68004
# Shear Modulus (GPa) = 31.09392 42.14972 36.62182
#
# Velocity S-wave (km/s) = 3.55318 4.13692 3.85611
# Velocity P-wave (km/s) = 5.73233 7.04074 6.41995
#
# Compressibility (1/GPa) = 0.02533548
#
# Stress axis : x y z
#
# Youngs Moduli (GPa) = 81.29304 87.67923 154.62919
#
# Poissons Ratio (x) = 0.12697 -0.09697
# Poissons Ratio (y) = 0.11772 0.24709
# Poissons Ratio (z) = -0.05098 0.14011
#
# Static dielectric constant tensor:
#      x y z
#    x 5.112860 0.607330 0.098510 
#    y 0.607330 5.416560 -0.080700 
#    z 0.098510 -0.080700 5.010700 
# 
# 
# High freq. dielectric constant tensor:
#      x y z
#    x 2.019760 -0.002500 -0.006310 
#    y -0.002500 1.939860 -0.026190 
#    z -0.006310 -0.026190 1.995510 
# 
# From -- ./inp_files/311920.got.cif
#   From: 2010.06.25/outbox.cif.g09.slc.cpg/sg2_156_cif.got.tgz:311920.got - 2010.06.27 13:26:56.
