data_PCOD8039294
_publ_section_title
;
Structure prediction by ZEFSAII (Michael W. Deem and Ramdas Pophale) SiO2 
 PCOD8039294
Probable space group: P -1
;
_chemical_formula_sum "Si O2"
_cell_formula_units_Z 16
_cell_length_a 18.909491
_cell_length_b 11.332815
_cell_length_c 12.537022
_cell_angle_alpha 102.155646
_cell_angle_beta 150.062512
_cell_angle_gamma 99.732978
_cell_volume 908.869817
_symmetry_space_group_name_H-M "P -1"
_symmetry_group_IT_number 2
_symmetry_cell_setting 'triclinic'
loop_
_space_group_symop_operation_xyz
x,y,z
-x,-y,-z
loop_
_atom_site_type_symbol
_atom_site_label
_atom_site_fract_x
_atom_site_fract_y
_atom_site_fract_z
Si Si1 0.405162 0.611728 0.803991
Si Si2 0.215692 0.274547 0.615051
Si Si3 0.582260 0.932876 0.650405
Si Si4 0.907288 0.408637 0.519987
Si Si5 0.884722 0.590924 0.797410
Si Si6 0.044614 0.923570 0.961820
Si Si7 0.896203 0.243597 0.272435
Si Si8 0.832722 0.449808 0.916625
O O1 0.339232 0.460922 0.762726
O O2 0.330378 0.554856 0.573675
O O3 0.313496 0.680909 0.743398
O O4 0.651594 0.750147 0.158822
O O5 0.094829 0.138373 0.334927
O O6 0.068799 0.245757 0.505861
O O7 0.402106 0.730632 0.406539
O O8 0.500000 0.000000 0.500000
O O9 0.725141 0.947162 0.756858
O O10 0.698459 0.054511 0.930442
O O11 0.034705 0.603199 0.683659
O O12 0.855709 0.273992 0.341384
O O13 0.051078 0.435126 0.802639
O O14 0.837609 0.560519 0.856524
O O15 0.993959 0.776909 0.937266
O O16 0.044278 0.586517 0.975367
O O17 0.000000 0.000000 0.000000
#
# Coordination Sequence:
#
# PCOD8039294 Si02
#       8
#     2   2   2   2   2   2   2   2
#     4   8  14  28  48  69  92 126 173 199 240 302
#     4   8  15  29  47  68  95 130 163 205 246 296
#     4  11  18  33  54  79 102 134 175 213 254 305
#     4   9  16  28  47  77  98 127 167 216 248 293
#     4   9  18  33  55  76 104 138 168 208 260 308
#     4  10  20  34  52  78 106 132 170 216 256 299
#     4   9  17  28  47  72 104 125 166 214 254 291
#     4  10  18  33  56  78 105 136 171 212 257 307
#
# _framework density 17.604282000000001
#
# number of rings (size 3 to 8) (size 9 to 14) (size 15 to 20)
#    0.000    2.750    2.500    1.500    0.000    1.000 
#    6.750    0.625    2.750    3.750    0.000    0.000 
#    0.000    0.000    0.000    0.000    0.000    0.000 
#
# Total GULP energy -198215.658767 kJ/mol
# GULP energy per Si atom -12388.478673 kJ/mol
# Density = 1.756421 g / cm^3
# Si number density = 17.604282 Si / 1000 Ang^3
#
#
#
# Elastic Constant Matrix: (Units=GPa)
#
#
# Indices 1 2 3 4 5 6 
#
# 1 152.8175 27.3746 67.0579 -26.6269 -6.4336 -11.9223
# 2 27.3746 31.9028 33.1687 -10.0513 -3.8568 11.7102
# 3 67.0579 33.1687 126.7224 -23.0330 6.9805 0.8706
# 4 -26.6269 -10.0513 -23.0330 23.9273 0.3196 0.1332
# 5 -6.4336 -3.8568 6.9805 0.3196 22.1115 0.4937
# 6 -11.9223 11.7102 0.8706 0.1332 0.4937 27.5504
#
#
#
# Elastic Compliance Matrix: (Units=1/GPa)
#
#
# Indices 1 2 3 4 5 6 
#
# 1 0.010874 -0.006553 -0.003099 0.006287 0.002741 0.007510
# 2 -0.006553 0.065890 -0.012908 0.007942 0.014232 -0.030728
# 3 -0.003099 -0.012908 0.014200 0.004881 -0.007792 0.003813
# 4 0.006287 0.007942 0.004881 0.056819 0.000877 -0.001100
# 5 0.002741 0.014232 -0.007792 0.000877 0.051076 -0.005537
# 6 0.007510 -0.030728 0.003813 -0.001100 -0.005537 0.052592
#
#
# Mechanical properties :
#
#
# Convention : Reuss Voigt Hill
#
# Bulk Modulus (GPa) = 21.81318 62.96056 42.38687
# Shear Modulus (GPa) = 16.03330 26.97394 21.50362
#
# Velocity S-wave (km/s) = 3.02116 3.91863 3.49879
# Velocity P-wave (km/s) = 4.95859 7.50441 6.36018
#
# Compressibility (1/GPa) = 0.04584385
#
# Stress axis : x y z
#
# Youngs Moduli (GPa) = 91.96128 15.17688 70.42344
#
# Poissons Ratio (x) = 0.09946 0.21824
# Poissons Ratio (y) = 0.60265 0.90900
# Poissons Ratio (z) = 0.28498 0.19590
#
# Static dielectric constant tensor:
#      x y z
#    x 3.443500 -0.220890 0.132600 
#    y -0.220890 4.126420 -0.437920 
#    z 0.132600 -0.437920 3.811030 
# 
# 
# High freq. dielectric constant tensor:
#      x y z
#    x 1.674620 -0.002630 -0.000720 
#    y -0.002630 1.640580 -0.016460 
#    z -0.000720 -0.016460 1.688400 
# 
# From -- ./inp_files/256805.got.cif
#   From: 2010.06.25/outbox.cif.g09.slc.cpg/sg2_129_cif.got.tgz:256805.got - 2010.06.27 13:26:56.
