data_PCOD8039510
_publ_section_title
;
Structure prediction by ZEFSAII (Michael W. Deem and Ramdas Pophale) SiO2 
 PCOD8039510
Probable space group: P -1
;
_chemical_formula_sum "Si O2"
_cell_formula_units_Z 10
_cell_length_a 12.090412
_cell_length_b 14.520694
_cell_length_c 10.425960
_cell_angle_alpha 123.695407
_cell_angle_beta 35.687629
_cell_angle_gamma 148.471358
_cell_volume 498.405990
_symmetry_space_group_name_H-M "P -1"
_symmetry_group_IT_number 2
_symmetry_cell_setting 'triclinic'
loop_
_space_group_symop_operation_xyz
x,y,z
-x,-y,-z
loop_
_atom_site_type_symbol
_atom_site_label
_atom_site_fract_x
_atom_site_fract_y
_atom_site_fract_z
Si Si1 0.169108 0.090635 0.213320
Si Si2 0.168650 0.623650 0.308612
Si Si3 0.961198 0.209780 0.835735
Si Si4 0.804639 0.131053 0.635305
Si Si5 0.203304 0.543099 0.956486
O O1 0.923275 0.075304 0.412145
O O2 0.952047 0.874032 0.269856
O O3 0.423343 0.201010 0.937205
O O4 0.411196 0.223168 0.215278
O O5 0.096864 0.719647 0.434409
O O6 0.017194 0.482748 0.220106
O O7 0.000000 0.500000 0.500000
O O8 0.992355 0.239439 0.677159
O O9 0.222646 0.420049 0.820463
O O10 0.592917 0.067415 0.121445
O O11 0.000000 0.500000 0.000000
#
# Coordination Sequence:
#
# PCOD8039510 Si02
#       5
#     2   2   2   2   2
#     4   9  21  34  54  82 108 141 178 218 269 316
#     4   9  20  37  55  76 111 146 175 216 269 316
#     4  10  18  34  54  81 112 135 174 226 270 309
#     4  10  18  35  55  78 114 140 172 224 270 313
#     4  10  18  36  56  80 108 141 178 220 266 310
#
# _framework density 20.063965
#
# number of rings (size 3 to 8) (size 9 to 14) (size 15 to 20)
#    1.200    1.200    2.000    1.800    0.000    1.600 
#    3.600    4.000    0.000    2.400    0.000    0.000 
#    0.000    0.000    0.000    0.000    0.000    0.000 
#
# Total GULP energy -123909.064035 kJ/mol
# GULP energy per Si atom -12390.906403 kJ/mol
# Density = 2.001830 g / cm^3
# Si number density = 20.063965 Si / 1000 Ang^3
#
#
#
# Elastic Constant Matrix: (Units=GPa)
#
#
# Indices 1 2 3 4 5 6 
#
# 1 60.4302 27.7511 42.0330 10.8020 12.2968 -30.5389
# 2 27.7511 136.0199 23.6836 29.6144 0.0926 -28.8497
# 3 42.0330 23.6836 76.7804 22.6801 1.1448 -35.8537
# 4 10.8020 29.6144 22.6801 30.7026 -12.3078 -6.1976
# 5 12.2968 0.0926 1.1448 -12.3078 34.7797 2.6890
# 6 -30.5389 -28.8497 -35.8537 -6.1976 2.6890 41.1408
#
#
#
# Elastic Compliance Matrix: (Units=1/GPa)
#
#
# Indices 1 2 3 4 5 6 
#
# 1 0.038647 0.000963 -0.006629 -0.012937 -0.019799 0.022931
# 2 0.000963 0.013099 0.008174 -0.019539 -0.008691 0.014648
# 3 -0.006629 0.008174 0.037820 -0.032610 -0.012758 0.029692
# 4 -0.012937 -0.019539 -0.032610 0.087769 0.039938 -0.041113
# 5 -0.019799 -0.008691 -0.012758 0.039938 0.052597 -0.029332
# 6 0.022931 0.014648 0.029692 -0.041113 -0.029332 0.073200
#
#
# Mechanical properties :
#
#
# Convention : Reuss Voigt Hill
#
# Bulk Modulus (GPa) = 10.57300 51.12953 30.85127
# Shear Modulus (GPa) = 15.16791 33.30880 24.23836
#
# Velocity S-wave (km/s) = 2.75249 4.07889 3.47948
# Velocity P-wave (km/s) = 3.92207 6.90809 5.61713
#
# Compressibility (1/GPa) = 0.09458051
#
# Stress axis : x y z
#
# Youngs Moduli (GPa) = 25.87555 76.34171 26.44089
#
# Poissons Ratio (x) = -0.07354 0.17529
# Poissons Ratio (y) = -0.02493 -0.21612
# Poissons Ratio (z) = 0.17154 -0.62399
#
# Static dielectric constant tensor:
#      x y z
#    x 3.108440 -0.142000 -0.126610 
#    y -0.142000 3.942030 0.290670 
#    z -0.126610 0.290670 3.573510 
# 
# 
# High freq. dielectric constant tensor:
#      x y z
#    x 1.732130 -0.018840 -0.014570 
#    y -0.018840 1.791750 0.013960 
#    z -0.014570 0.013960 1.777350 
# 
# From -- ./inp_files/29942.got.cif
#   From: 2010.06.25/outbox.cif.g09.slc.cpg/sg2_15_cif.got.tgz:29942.got - 2010.06.27 13:26:56.
