data_PCOD8039649
_publ_section_title
;
Structure prediction by ZEFSAII (Michael W. Deem and Ramdas Pophale) SiO2 
 PCOD8039649
Probable space group: P -1
;
_chemical_formula_sum "Si O2"
_cell_formula_units_Z 16
_cell_length_a 8.666817
_cell_length_b 8.097691
_cell_length_c 21.029730
_cell_angle_alpha 86.757552
_cell_angle_beta 31.866859
_cell_angle_gamma 93.301042
_cell_volume 762.168171
_symmetry_space_group_name_H-M "P -1"
_symmetry_group_IT_number 2
_symmetry_cell_setting 'triclinic'
loop_
_space_group_symop_operation_xyz
x,y,z
-x,-y,-z
loop_
_atom_site_type_symbol
_atom_site_label
_atom_site_fract_x
_atom_site_fract_y
_atom_site_fract_z
Si Si1 0.595063 0.304237 0.627356
Si Si2 0.467395 0.303032 0.035390
Si Si3 0.830998 0.823752 0.980251
Si Si4 0.254518 0.371999 0.348083
Si Si5 0.349907 0.022275 0.175907
Si Si6 0.512197 0.947107 0.734414
Si Si7 0.378437 0.521198 0.170281
Si Si8 0.000898 0.275267 0.764054
O O1 0.590788 0.450269 0.677960
O O2 0.902773 0.340713 0.481271
O O3 0.342539 0.318274 0.664109
O O4 0.542551 0.114956 0.678034
O O5 0.201844 0.228143 0.081376
O O6 0.459832 0.485237 0.067190
O O7 0.378939 0.210215 0.136070
O O8 0.789264 0.275596 0.899764
O O9 0.173883 0.880410 0.876800
O O10 0.664433 0.975486 0.048180
O O11 0.663011 0.667466 0.086579
O O12 0.376531 0.209654 0.336295
O O13 0.328286 0.383123 0.246442
O O14 0.070684 0.907087 0.240197
O O15 0.289535 0.008154 0.272772
O O16 0.075796 0.594449 0.265609
#
# Coordination Sequence:
#
# PCOD8039649 Si02
#       8
#     2   2   2   2   2   2   2   2
#     4  11  25  46  65  88 124 169 218 256 308 364
#     4  10  18  34  58  92 127 157 198 253 309 379
#     4  10  21  34  60  94 128 164 196 247 321 379
#     4  11  26  44  65  90 125 170 211 261 305 368
#     4  10  19  36  58  92 127 161 197 256 313 370
#     4  12  23  41  66  92 130 163 210 256 312 371
#     4  10  21  39  59  95 128 153 208 256 313 371
#     4  10  21  38  64  86 125 165 202 256 313 364
#
# _framework density 20.992742
#
# number of rings (size 3 to 8) (size 9 to 14) (size 15 to 20)
#    0.000    1.750    1.250    6.750    3.500    2.000 
#    0.000    0.625    0.000    0.000    0.000    0.000 
#    0.000    0.000    0.000    0.000    0.000    0.000 
#
# Total GULP energy -198271.845688 kJ/mol
# GULP energy per Si atom -12391.990356 kJ/mol
# Density = 2.094496 g / cm^3
# Si number density = 20.992742 Si / 1000 Ang^3
#
#
#
# Elastic Constant Matrix: (Units=GPa)
#
#
# Indices 1 2 3 4 5 6 
#
# 1 72.1943 28.5144 40.8709 -8.6120 -12.8599 10.9808
# 2 28.5144 102.8187 25.5036 1.7651 -3.4357 0.4148
# 3 40.8709 25.5036 65.0738 -6.0953 -10.0305 12.9612
# 4 -8.6120 1.7651 -6.0953 23.0278 3.2525 4.2631
# 5 -12.8599 -3.4357 -10.0305 3.2525 36.8076 -2.8222
# 6 10.9808 0.4148 12.9612 4.2631 -2.8222 23.8041
#
#
#
# Elastic Compliance Matrix: (Units=1/GPa)
#
#
# Indices 1 2 3 4 5 6 
#
# 1 0.024141 -0.003863 -0.011263 0.006837 0.003964 -0.005690
# 2 -0.003863 0.011676 -0.003411 -0.003922 -0.000530 0.004075
# 3 -0.011263 -0.003411 0.026426 0.004594 0.001795 -0.009743
# 4 0.006837 -0.003922 0.004594 0.050593 -0.002341 -0.014925
# 5 0.003964 -0.000530 0.001795 -0.002341 0.029284 0.001095
# 6 -0.005690 0.004075 -0.009743 -0.014925 0.001095 0.052671
#
#
# Mechanical properties :
#
#
# Convention : Reuss Voigt Hill
#
# Bulk Modulus (GPa) = 39.73193 47.76273 43.74733
# Shear Modulus (GPa) = 20.81124 26.40776 23.60950
#
# Velocity S-wave (km/s) = 3.15199 3.55060 3.35722
# Velocity P-wave (km/s) = 5.67577 6.29368 5.99270
#
# Compressibility (1/GPa) = 0.02516867
#
# Stress axis : x y z
#
# Youngs Moduli (GPa) = 41.42350 85.64308 37.84194
#
# Poissons Ratio (x) = 0.33084 0.42623
# Poissons Ratio (y) = 0.16002 0.12907
# Poissons Ratio (z) = 0.46657 0.29210
#
# Static dielectric constant tensor:
#      x y z
#    x 3.633050 0.024380 0.039290 
#    y 0.024380 4.103110 0.056450 
#    z 0.039290 0.056450 3.403560 
# 
# 
# High freq. dielectric constant tensor:
#      x y z
#    x 1.817660 0.000210 0.010060 
#    y 0.000210 1.851230 0.002470 
#    z 0.010060 0.002470 1.791120 
# 
# From -- ./inp_files/179100.got.cif
#   From: 2010.06.25/outbox.cif.g09.slc.cpg/sg2_90_cif.got.tgz:179100.got - 2010.06.27 13:26:56.
