data_PCOD8039197
_publ_section_title
;
Structure prediction by ZEFSAII (Michael W. Deem and Ramdas Pophale) SiO2 
 PCOD8039197
Probable space group: P -1
;
_chemical_formula_sum "Si O2"
_cell_formula_units_Z 14
_cell_length_a 8.143622
_cell_length_b 10.754499
_cell_length_c 12.213951
_cell_angle_alpha 76.321910
_cell_angle_beta 111.150784
_cell_angle_gamma 138.807600
_cell_volume 655.966619
_symmetry_space_group_name_H-M "P -1"
_symmetry_group_IT_number 2
_symmetry_cell_setting 'triclinic'
loop_
_space_group_symop_operation_xyz
x,y,z
-x,-y,-z
loop_
_atom_site_type_symbol
_atom_site_label
_atom_site_fract_x
_atom_site_fract_y
_atom_site_fract_z
Si Si1 0.891942 0.254564 0.741200
Si Si2 0.286180 0.968386 0.657303
Si Si3 0.145521 0.896988 0.871855
Si Si4 0.772943 0.599169 0.001028
Si Si5 0.678901 0.973841 0.576030
Si Si6 0.296626 0.684604 0.704778
Si Si7 0.411909 0.764900 0.956814
O O1 0.596449 0.138962 0.720035
O O2 0.899673 0.141538 0.678884
O O3 0.055279 0.458926 0.686257
O O4 0.009956 0.268851 0.880165
O O5 0.137645 0.943822 0.734318
O O6 0.214966 0.013919 0.520973
O O7 0.186749 0.770328 0.655148
O O8 0.261449 0.816485 0.922983
O O9 0.858509 0.732188 0.890131
O O10 0.314365 0.084602 0.945827
O O11 0.500000 0.500000 0.000000
O O12 0.754222 0.441511 0.990102
O O13 0.500000 0.000000 0.500000
O O14 0.499818 0.770618 0.635055
O O15 0.456547 0.754416 0.841898
#
# Coordination Sequence:
#
# PCOD8039197 Si02
#       7
#     2   2   2   2   2   2   2
#     4   9  16  29  46  67  95 125 157 198 239 278
#     4   9  18  27  45  72  94 123 159 195 240 284
#     4  10  18  33  50  70 103 127 156 205 243 284
#     4  11  22  33  49  74 100 130 165 197 240 295
#     4   8  15  26  42  69  95 121 156 194 240 282
#     4   8  14  25  43  68  96 119 149 193 239 283
#     4   9  18  32  53  74  92 129 164 198 249 285
#
# _framework density 21.342549999999999
#
# number of rings (size 3 to 8) (size 9 to 14) (size 15 to 20)
#    0.000    3.143    0.000    3.857    0.000    8.000 
#    0.000    0.000    0.000    0.857    0.000    5.000 
#    0.000    0.000    0.000    0.000    0.000    2.429 
#
# Total GULP energy -173442.599869 kJ/mol
# GULP energy per Si atom -12388.757134 kJ/mol
# Density = 2.129397 g / cm^3
# Si number density = 21.342550 Si / 1000 Ang^3
#
#
#
# Elastic Constant Matrix: (Units=GPa)
#
#
# Indices 1 2 3 4 5 6 
#
# 1 34.9762 25.3500 26.1215 0.1120 -22.5616 17.3400
# 2 25.3500 125.2181 51.9314 -6.5748 -26.2752 23.0610
# 3 26.1215 51.9314 97.5342 -10.5754 -42.7689 20.0166
# 4 0.1120 -6.5748 -10.5754 30.0309 8.5978 -12.0942
# 5 -22.5616 -26.2752 -42.7689 8.5978 25.3413 -15.1980
# 6 17.3400 23.0610 20.0166 -12.0942 -15.1980 23.0895
#
#
#
# Elastic Compliance Matrix: (Units=1/GPa)
#
#
# Indices 1 2 3 4 5 6 
#
# 1 0.212725 -0.005733 0.103109 -0.090313 0.353167 -0.058259
# 2 -0.005733 0.011505 -0.007828 -0.000184 -0.010940 -0.007697
# 3 0.103109 -0.007828 0.095651 -0.044700 0.255693 -0.007648
# 4 -0.090313 -0.000184 -0.044700 0.081295 -0.155399 0.047053
# 5 0.353167 -0.010940 0.255693 -0.155399 0.813788 -0.021709
# 6 -0.058259 -0.007697 -0.007648 0.047053 -0.021709 0.111736
#
#
# Mechanical properties :
#
#
# Convention : Reuss Voigt Hill
#
# Bulk Modulus (GPa) = 2.00410 51.61493 26.80951
# Shear Modulus (GPa) = 3.80537 25.98071 14.89304
#
# Velocity S-wave (km/s) = 1.33674 3.49280 2.64447
# Velocity P-wave (km/s) = 1.82306 6.36417 4.68115
#
# Compressibility (1/GPa) = 0.49897664
#
# Stress axis : x y z
#
# Youngs Moduli (GPa) = 4.70090 86.91501 10.45465
#
# Poissons Ratio (x) = 0.49831 -1.07797
# Poissons Ratio (y) = 0.02695 0.08184
# Poissons Ratio (z) = -0.48471 0.68039
#
# Static dielectric constant tensor:
#      x y z
#    x 3.449990 0.020290 -0.699800 
#    y 0.020290 4.130330 -0.276060 
#    z -0.699800 -0.276060 4.613080 
# 
# 
# High freq. dielectric constant tensor:
#      x y z
#    x 1.775150 0.004270 -0.035200 
#    y 0.004270 1.848380 -0.012160 
#    z -0.035200 -0.012160 1.839370 
# 
# From -- ./inp_files/224773.got.cif
#   From: 2010.06.25/outbox.cif.g09.slc.cpg/sg2_113_cif.got.tgz:224773.got - 2010.06.27 13:26:56.
