data_PCOD8039320
_publ_section_title
;
Structure prediction by ZEFSAII (Michael W. Deem and Ramdas Pophale) SiO2 
 PCOD8039320
Probable space group: P -1
;
_chemical_formula_sum "Si O2"
_cell_formula_units_Z 14
_cell_length_a 8.610064
_cell_length_b 9.414029
_cell_length_c 13.578962
_cell_angle_alpha 127.693396
_cell_angle_beta 81.254989
_cell_angle_gamma 118.658901
_cell_volume 748.268674
_symmetry_space_group_name_H-M "P -1"
_symmetry_group_IT_number 2
_symmetry_cell_setting 'triclinic'
loop_
_space_group_symop_operation_xyz
x,y,z
-x,-y,-z
loop_
_atom_site_type_symbol
_atom_site_label
_atom_site_fract_x
_atom_site_fract_y
_atom_site_fract_z
Si Si1 0.560896 0.972725 0.090454
Si Si2 0.201094 0.592603 0.281311
Si Si3 0.685102 0.046330 0.725253
Si Si4 0.798501 0.808814 0.927951
Si Si5 0.884038 0.307178 0.315911
Si Si6 0.642173 0.343781 0.506255
Si Si7 0.182988 0.203868 0.294484
O O1 0.394436 0.884696 0.146214
O O2 0.714804 0.189158 0.209659
O O3 0.650020 0.823779 0.016873
O O4 0.500000 0.000000 0.000000
O O5 0.217462 0.763953 0.277068
O O6 0.203426 0.406173 0.141590
O O7 0.359958 0.689310 0.389212
O O8 0.016715 0.509487 0.326056
O O9 0.536476 0.842211 0.598754
O O10 0.835300 0.985972 0.719063
O O11 0.733121 0.809870 0.823510
O O12 0.000000 0.000000 0.000000
O O13 0.820167 0.355735 0.445226
O O14 0.986915 0.180370 0.281502
O O15 0.671963 0.573115 0.578809
#
# Coordination Sequence:
#
# PCOD8039320 Si02
#       7
#     2   2   2   2   2   2   2
#     4  11  20  35  58  81 105 140 186 222 253 325
#     4  10  20  35  58  79 110 142 175 223 274 308
#     4  11  22  32  55  87 112 132 177 234 270 296
#     4  10  18  37  59  74 104 148 184 208 262 331
#     4   9  19  37  60  75 104 150 185 208 261 331
#     4   9  19  37  58  77 106 147 184 212 263 324
#     4  10  18  33  57  80 105 146 180 213 262 326
#
# _framework density 18.709857
#
# number of rings (size 3 to 8) (size 9 to 14) (size 15 to 20)
#    0.000    2.286    4.286    2.571    0.000    0.571 
#    0.000    5.714    6.286    0.000    0.000    0.000 
#    0.000    0.000    0.000    0.000    0.000    0.000 
#
# Total GULP energy -173441.355105 kJ/mol
# GULP energy per Si atom -12388.668222 kJ/mol
# Density = 1.866727 g / cm^3
# Si number density = 18.709857 Si / 1000 Ang^3
#
#
#
# Elastic Constant Matrix: (Units=GPa)
#
#
# Indices 1 2 3 4 5 6 
#
# 1 80.8720 60.5851 31.7446 -3.4411 -5.0119 -9.2422
# 2 60.5851 128.6589 40.9827 -6.3470 -6.0084 -31.0364
# 3 31.7446 40.9827 98.6864 3.2631 -9.0956 -6.5284
# 4 -3.4411 -6.3470 3.2631 23.1428 1.2303 -0.3726
# 5 -5.0119 -6.0084 -9.0956 1.2303 23.9280 0.7864
# 6 -9.2422 -31.0364 -6.5284 -0.3726 0.7864 27.2894
#
#
#
# Elastic Compliance Matrix: (Units=1/GPa)
#
#
# Indices 1 2 3 4 5 6 
#
# 1 0.020302 -0.009822 -0.002718 0.000581 0.000886 -0.004962
# 2 -0.009822 0.017413 -0.003123 0.003988 0.000405 0.015773
# 3 -0.002718 -0.003123 0.012645 -0.003265 0.003674 -0.001598
# 4 0.000581 0.003988 -0.003265 0.045063 -0.002587 0.004641
# 5 0.000886 0.000405 0.003674 -0.002587 0.043597 0.000348
# 6 -0.004962 0.015773 -0.001598 0.004641 0.000348 0.052574
#
#
# Mechanical properties :
#
#
# Convention : Reuss Voigt Hill
#
# Bulk Modulus (GPa) = 52.53305 63.87132 58.20219
# Shear Modulus (GPa) = 21.80891 26.53236 24.17064
#
# Velocity S-wave (km/s) = 3.41785 3.76985 3.59815
# Velocity P-wave (km/s) = 6.61168 7.29115 6.95971
#
# Compressibility (1/GPa) = 0.01903564
#
# Stress axis : x y z
#
# Youngs Moduli (GPa) = 49.25529 57.42909 79.08200
#
# Poissons Ratio (x) = 0.56404 0.21493
# Poissons Ratio (y) = 0.48376 0.24698
# Poissons Ratio (z) = 0.13386 0.17935
#
# Static dielectric constant tensor:
#      x y z
#    x 3.372880 -0.048680 -0.165610 
#    y -0.048680 3.066510 0.030900 
#    z -0.165610 0.030900 3.936730 
# 
# 
# High freq. dielectric constant tensor:
#      x y z
#    x 1.719750 -0.005120 -0.000900 
#    y -0.005120 1.686200 0.004500 
#    z -0.000900 0.004500 1.753010 
# 
# From -- ./inp_files/185375.got.cif
#   From: 2010.06.25/outbox.cif.g09.slc.cpg/sg2_93_cif.got.tgz:185375.got - 2010.06.27 13:26:56.
