data_PCOD8039159
_publ_section_title
;
Structure prediction by ZEFSAII (Michael W. Deem and Ramdas Pophale) SiO2 
 PCOD8039159
Probable space group: P -1
;
_chemical_formula_sum "Si O2"
_cell_formula_units_Z 16
_cell_length_a 22.944869
_cell_length_b 13.825075
_cell_length_c 14.901304
_cell_angle_alpha 30.257890
_cell_angle_beta 20.452735
_cell_angle_gamma 29.688141
_cell_volume 783.480176
_symmetry_space_group_name_H-M "P -1"
_symmetry_group_IT_number 2
_symmetry_cell_setting 'triclinic'
loop_
_space_group_symop_operation_xyz
x,y,z
-x,-y,-z
loop_
_atom_site_type_symbol
_atom_site_label
_atom_site_fract_x
_atom_site_fract_y
_atom_site_fract_z
Si Si1 0.599197 0.208781 0.014881
Si Si2 0.730452 0.566933 0.597721
Si Si3 0.116694 0.605418 0.298631
Si Si4 0.250363 0.708232 0.573363
Si Si5 0.200069 0.144501 0.353516
Si Si6 0.568357 0.637776 0.052835
Si Si7 0.088535 0.433269 0.111457
Si Si8 0.933238 0.858589 0.774077
O O1 0.449214 0.235902 0.287988
O O2 0.687302 0.381117 0.763954
O O3 0.523156 0.230717 0.006572
O O4 0.748487 0.987742 0.985250
O O5 0.800616 0.524686 0.630390
O O6 0.889043 0.594756 0.287047
O O7 0.000000 0.500000 0.500000
O O8 0.980400 0.824360 0.351628
O O9 0.285900 0.584625 0.006658
O O10 0.423711 0.586946 0.362973
O O11 0.074741 0.768629 0.719042
O O12 0.285168 0.904857 0.406363
O O13 0.223951 0.560659 0.808233
O O14 0.146444 0.266258 0.240055
O O15 0.341301 0.220436 0.139467
O O16 0.095205 0.323838 0.094369
O O17 0.000000 0.000000 0.500000
#
# Coordination Sequence:
#
# PCOD8039159 Si02
#       8
#     2   2   2   2   2   2   2   2
#     4  10  18  32  59  82 106 146 186 223 273 321
#     4   9  17  32  54  83 110 140 181 228 268 323
#     4   8  16  31  56  80 105 144 185 222 270 323
#     4  12  23  35  57  84 110 147 182 225 278 326
#     4  10  20  38  58  78 109 148 183 226 275 325
#     4  10  19  34  56  83 109 144 189 225 271 329
#     4  11  22  37  56  83 114 141 182 228 274 329
#     4  12  19  36  56  80 112 144 179 222 276 326
#
# _framework density 20.421703999999998
#
# number of rings (size 3 to 8) (size 9 to 14) (size 15 to 20)
#    0.000    1.750    3.750    1.500    0.000    0.500 
#    0.000    1.875    0.000   25.500    0.000    0.000 
#    0.000    0.000    0.000    0.000    0.000    0.000 
#
# Total GULP energy -198230.242545 kJ/mol
# GULP energy per Si atom -12389.390159 kJ/mol
# Density = 2.037522 g / cm^3
# Si number density = 20.421704 Si / 1000 Ang^3
#
#
#
# Elastic Constant Matrix: (Units=GPa)
#
#
# Indices 1 2 3 4 5 6 
#
# 1 90.5662 14.3466 11.0105 5.3289 -18.6883 17.4487
# 2 14.3466 75.7233 61.8119 33.7127 11.8153 18.0172
# 3 11.0105 61.8119 125.5324 32.9436 8.5671 16.9943
# 4 5.3289 33.7127 32.9436 46.7851 3.7771 3.4183
# 5 -18.6883 11.8153 8.5671 3.7771 23.0631 10.4601
# 6 17.4487 18.0172 16.9943 3.4183 10.4601 19.5202
#
#
#
# Elastic Compliance Matrix: (Units=1/GPa)
#
#
# Indices 1 2 3 4 5 6 
#
# 1 0.035107 -0.000714 0.003510 -0.005944 0.057243 -0.063411
# 2 -0.000714 0.032078 -0.009359 -0.014958 -0.003740 -0.016198
# 3 0.003510 -0.009359 0.014017 -0.003396 0.007608 -0.010185
# 4 -0.005944 -0.014958 -0.003396 0.034535 -0.011648 0.022271
# 5 0.057243 -0.003740 0.007608 -0.011648 0.151211 -0.133328
# 6 -0.063411 -0.016198 -0.010185 0.022271 -0.133328 0.199275
#
#
# Mechanical properties :
#
#
# Convention : Reuss Voigt Hill
#
# Bulk Modulus (GPa) = 14.68944 51.79555 33.24250
# Shear Modulus (GPa) = 9.95935 31.51721 20.73828
#
# Velocity S-wave (km/s) = 2.21075 3.93277 3.19015
# Velocity P-wave (km/s) = 3.70476 6.78530 5.46651
#
# Compressibility (1/GPa) = 0.06807610
#
# Stress axis : x y z
#
# Youngs Moduli (GPa) = 28.48454 31.17399 71.33982
#
# Poissons Ratio (x) = 0.02227 -0.25043
# Poissons Ratio (y) = 0.02035 0.66766
# Poissons Ratio (z) = -0.09999 0.29176
#
# Static dielectric constant tensor:
#      x y z
#    x 3.822190 0.250100 0.001890 
#    y 0.250100 3.960030 0.686360 
#    z 0.001890 0.686360 3.933770 
# 
# 
# High freq. dielectric constant tensor:
#      x y z
#    x 1.810530 0.020920 -0.013450 
#    y 0.020920 1.780750 0.052280 
#    z -0.013450 0.052280 1.783620 
# 
# From -- ./inp_files/345127.got.cif
#   From: 2010.06.25/outbox.cif.g09.slc.cpg/sg2_173_cif.got.tgz:345127.got - 2010.06.27 13:26:56.
