data_PCOD8039002
_publ_section_title
;
Structure prediction by ZEFSAII (Michael W. Deem and Ramdas Pophale) SiO2 
 PCOD8039002
Probable space group: P -1
;
_chemical_formula_sum "Si O2"
_cell_formula_units_Z 16
_cell_length_a 12.488406
_cell_length_b 13.979342
_cell_length_c 11.218386
_cell_angle_alpha 52.731875
_cell_angle_beta 99.088503
_cell_angle_gamma 56.740191
_cell_volume 881.679584
_symmetry_space_group_name_H-M "P -1"
_symmetry_group_IT_number 2
_symmetry_cell_setting 'triclinic'
loop_
_space_group_symop_operation_xyz
x,y,z
-x,-y,-z
loop_
_atom_site_type_symbol
_atom_site_label
_atom_site_fract_x
_atom_site_fract_y
_atom_site_fract_z
Si Si1 0.899001 0.857056 0.309813
Si Si2 0.843864 0.988274 0.528131
Si Si3 0.612520 0.861175 0.893702
Si Si4 0.542948 0.257041 0.063630
Si Si5 0.177515 0.737256 0.599089
Si Si6 0.932072 0.651685 0.272764
Si Si7 0.783028 0.731330 0.523194
Si Si8 0.818756 0.748211 0.778943
O O1 0.914614 0.798619 0.219158
O O2 0.892791 0.752147 0.483295
O O3 0.085915 0.766131 0.440015
O O4 0.703671 0.110411 0.098351
O O5 0.658122 0.158837 0.282007
O O6 0.821802 0.118785 0.517681
O O7 0.861360 0.851387 0.711363
O O8 0.042069 0.819429 0.621004
O O9 0.589209 0.739975 0.968824
O O10 0.690215 0.839115 0.799989
O O11 0.412250 0.104918 0.705796
O O12 0.734520 0.786432 0.085155
O O13 0.395771 0.499659 0.837591
O O14 0.000000 0.500000 0.500000
O O15 0.086151 0.504348 0.303033
O O16 0.720868 0.802713 0.595428
O O17 0.000000 0.500000 0.000000
#
# Coordination Sequence:
#
# PCOD8039002 Si02
#       8
#     2   2   2   2   2   2   2   2
#     4   9  19  33  52  75 108 127 181 216 249 306
#     4  10  21  33  49  80 107 134 177 211 252 325
#     4  11  21  31  53  76 111 142 166 211 265 313
#     4  10  18  32  52  78 105 137 169 213 266 308
#     4  10  18  34  54  73 105 141 170 218 263 290
#     4  10  20  33  50  77 106 139 178 214 255 309
#     4  10  19  34  49  80 107 136 171 209 263 319
#     4  12  20  35  54  76 115 142 164 212 266 322
#
# _framework density 18.147182999999998
#
# number of rings (size 3 to 8) (size 9 to 14) (size 15 to 20)
#    0.000    1.750    5.000    3.000    0.000    5.500 
#    0.000    0.000    0.000    0.750    0.000    1.750 
#    0.000    0.000    0.000    0.000    0.000    0.000 
#
# Total GULP energy -198268.702400 kJ/mol
# GULP energy per Si atom -12391.793900 kJ/mol
# Density = 1.810588 g / cm^3
# Si number density = 18.147183 Si / 1000 Ang^3
#
#
#
# Elastic Constant Matrix: (Units=GPa)
#
#
# Indices 1 2 3 4 5 6 
#
# 1 65.9442 40.1307 42.7302 -4.2233 5.3104 22.8977
# 2 40.1307 86.4441 37.5840 -3.8903 8.4321 27.1572
# 3 42.7302 37.5840 103.1353 -16.4961 18.7870 17.8586
# 4 -4.2233 -3.8903 -16.4961 37.3403 4.2481 1.9958
# 5 5.3104 8.4321 18.7870 4.2481 25.9331 5.1436
# 6 22.8977 27.1572 17.8586 1.9958 5.1436 23.9343
#
#
#
# Elastic Compliance Matrix: (Units=1/GPa)
#
#
# Indices 1 2 3 4 5 6 
#
# 1 0.029048 -0.005115 -0.008286 -0.000594 0.005159 -0.016863
# 2 -0.005115 0.020105 -0.001888 0.001689 -0.001145 -0.016405
# 3 -0.008286 -0.001888 0.017322 0.007864 -0.011312 -0.001081
# 4 -0.000594 0.001689 0.007864 0.031895 -0.009808 -0.007768
# 5 0.005159 -0.001145 -0.011312 -0.009808 0.048636 -0.004830
# 6 -0.016863 -0.016405 -0.001081 -0.007768 -0.004830 0.079020
#
#
# Mechanical properties :
#
#
# Convention : Reuss Voigt Hill
#
# Bulk Modulus (GPa) = 27.85694 55.15706 41.50700
# Shear Modulus (GPa) = 18.61715 26.44676 22.53195
#
# Velocity S-wave (km/s) = 3.20644 3.82166 3.52749
# Velocity P-wave (km/s) = 5.39372 7.06638 6.28594
#
# Compressibility (1/GPa) = 0.03589770
#
# Stress axis : x y z
#
# Youngs Moduli (GPa) = 34.42597 49.73858 57.72868
#
# Poissons Ratio (x) = 0.25442 0.47832
# Poissons Ratio (y) = 0.17609 0.10899
# Poissons Ratio (z) = 0.28524 0.09391
#
# Static dielectric constant tensor:
#      x y z
#    x 2.978540 0.606890 0.236050 
#    y 0.606890 3.427170 -0.195790 
#    z 0.236050 -0.195790 3.418340 
# 
# 
# High freq. dielectric constant tensor:
#      x y z
#    x 1.667340 0.017020 0.028730 
#    y 0.017020 1.705910 -0.017440 
#    z 0.028730 -0.017440 1.702670 
# 
# From -- ./inp_files/430799.got.cif
#   From: 2010.06.25/outbox.cif.g09.slc.cpg/sg2_216_cif.got.tgz:430799.got - 2010.06.27 13:26:56.
