data_PCOD8039496
_publ_section_title
;
Structure prediction by ZEFSAII (Michael W. Deem and Ramdas Pophale) SiO2 
 PCOD8039496
Probable space group: P -1
;
_chemical_formula_sum "Si O2"
_cell_formula_units_Z 16
_cell_length_a 8.689514
_cell_length_b 20.088344
_cell_length_c 9.446951
_cell_angle_alpha 46.229968
_cell_angle_beta 84.194316
_cell_angle_gamma 55.856812
_cell_volume 864.388626
_symmetry_space_group_name_H-M "P -1"
_symmetry_group_IT_number 2
_symmetry_cell_setting 'triclinic'
loop_
_space_group_symop_operation_xyz
x,y,z
-x,-y,-z
loop_
_atom_site_type_symbol
_atom_site_label
_atom_site_fract_x
_atom_site_fract_y
_atom_site_fract_z
Si Si1 0.770794 0.058529 0.385606
Si Si2 0.611102 0.761187 0.667880
Si Si3 0.991890 0.658594 0.104783
Si Si4 0.739203 0.383316 0.294234
Si Si5 0.108576 0.182817 0.376616
Si Si6 0.284142 0.544531 0.503635
Si Si7 0.385783 0.303420 0.943084
Si Si8 0.322845 0.444497 0.189555
O O1 0.631704 0.108540 0.469404
O O2 0.773104 0.961398 0.444551
O O3 0.640869 0.177731 0.111288
O O4 0.000000 0.000000 0.500000
O O5 0.747373 0.799013 0.585198
O O6 0.628774 0.684472 0.646321
O O7 0.699080 0.664556 0.933712
O O8 0.106165 0.640470 0.264690
O O9 0.131521 0.526637 0.198836
O O10 0.760329 0.715339 0.089439
O O11 0.969138 0.756585 0.861781
O O12 0.806019 0.380154 0.451647
O O13 0.521072 0.416950 0.278333
O O14 0.908542 0.247321 0.403004
O O15 0.727982 0.482979 0.059878
O O16 0.500000 0.500000 0.500000
O O17 0.337173 0.415575 0.700730
#
# Coordination Sequence:
#
# PCOD8039496 Si02
#       8
#     2   2   2   2   2   2   2   2
#     4  10  20  36  60  83 114 142 192 239 280 325
#     4   9  19  33  58  85 113 139 185 233 282 332
#     4  10  22  34  59  81 123 144 182 229 282 349
#     4  10  20  32  55  80 119 143 192 226 281 334
#     4  10  21  35  59  89 106 149 187 238 278 325
#     4  12  22  37  54  86 117 154 184 226 282 342
#     4   9  22  36  55  83 111 154 180 231 278 339
#     4  10  18  34  53  86 111 149 178 236 285 327
#
# _framework density 18.510193000000001
#
# number of rings (size 3 to 8) (size 9 to 14) (size 15 to 20)
#    0.750    1.250    2.500    1.500    3.500    1.500 
#    0.000    0.000    0.000    3.000    0.000    0.000 
#    0.000    0.000    0.000    0.000    0.000    0.000 
#
# Total GULP energy -198217.544391 kJ/mol
# GULP energy per Si atom -12388.596524 kJ/mol
# Density = 1.846806 g / cm^3
# Si number density = 18.510193 Si / 1000 Ang^3
#
#
#
# Elastic Constant Matrix: (Units=GPa)
#
#
# Indices 1 2 3 4 5 6 
#
# 1 82.9253 19.2842 27.2009 3.6673 20.0640 -1.8792
# 2 19.2842 76.8510 20.5778 -6.1148 6.6875 12.2848
# 3 27.2009 20.5778 58.4843 9.8054 15.8846 2.1126
# 4 3.6673 -6.1148 9.8054 27.3870 1.8911 2.7002
# 5 20.0640 6.6875 15.8846 1.8911 31.4727 -5.0583
# 6 -1.8792 12.2848 2.1126 2.7002 -5.0583 32.1460
#
#
#
# Elastic Compliance Matrix: (Units=1/GPa)
#
#
# Indices 1 2 3 4 5 6 
#
# 1 0.015875 -0.002368 -0.004550 -0.000639 -0.007111 0.001067
# 2 -0.002368 0.016779 -0.005466 0.006755 -0.000809 -0.006886
# 3 -0.004550 -0.005466 0.024810 -0.008912 -0.007974 -0.000314
# 4 -0.000639 0.006755 -0.008912 0.041840 0.000066 -0.005537
# 5 -0.007111 -0.000809 -0.007974 0.000066 0.041618 0.006961
# 6 0.001067 -0.006886 -0.000314 -0.005537 0.006961 0.035383
#
#
# Mechanical properties :
#
#
# Convention : Reuss Voigt Hill
#
# Bulk Modulus (GPa) = 30.58606 39.15407 34.87007
# Shear Modulus (GPa) = 23.58801 28.28097 25.93449
#
# Velocity S-wave (km/s) = 3.57364 3.91302 3.74718
# Velocity P-wave (km/s) = 5.79549 6.45092 6.13196
#
# Compressibility (1/GPa) = 0.03269463
#
# Stress axis : x y z
#
# Youngs Moduli (GPa) = 62.99119 59.59937 40.30681
#
# Poissons Ratio (x) = 0.14112 0.18341
# Poissons Ratio (y) = 0.14915 0.22033
# Poissons Ratio (z) = 0.28664 0.32579
#
# Static dielectric constant tensor:
#      x y z
#    x 3.428160 -0.052940 0.145400 
#    y -0.052940 3.316210 -0.003100 
#    z 0.145400 -0.003100 3.228460 
# 
# 
# High freq. dielectric constant tensor:
#      x y z
#    x 1.729600 -0.001610 0.012590 
#    y -0.001610 1.705750 -0.006620 
#    z 0.012590 -0.006620 1.681110 
# 
# From -- ./inp_files/221830.got.cif
#   From: 2010.06.25/outbox.cif.g09.slc.cpg/sg2_111_cif.got.tgz:221830.got - 2010.06.27 13:26:56.
