data_PCOD8039359
_publ_section_title
;
Structure prediction by ZEFSAII (Michael W. Deem and Ramdas Pophale) SiO2 
 PCOD8039359
Probable space group: P -1
;
_chemical_formula_sum "Si O2"
_cell_formula_units_Z 16
_cell_length_a 24.868964
_cell_length_b 11.689547
_cell_length_c 12.458651
_cell_angle_alpha 39.286548
_cell_angle_beta 25.348367
_cell_angle_gamma 32.106012
_cell_volume 823.539171
_symmetry_space_group_name_H-M "P -1"
_symmetry_group_IT_number 2
_symmetry_cell_setting 'triclinic'
loop_
_space_group_symop_operation_xyz
x,y,z
-x,-y,-z
loop_
_atom_site_type_symbol
_atom_site_label
_atom_site_fract_x
_atom_site_fract_y
_atom_site_fract_z
Si Si1 0.647017 0.895574 0.180437
Si Si2 0.221609 0.565432 0.045263
Si Si3 0.792350 0.443673 0.161712
Si Si4 0.655659 0.048060 0.272713
Si Si5 0.500486 0.480761 0.707992
Si Si6 0.112378 0.056295 0.896428
Si Si7 0.423223 0.933204 0.041443
Si Si8 0.272105 0.171620 0.353641
O O1 0.747277 0.636006 0.186607
O O2 0.469029 0.003285 0.436865
O O3 0.706940 0.977220 0.108275
O O4 0.668679 0.966609 0.974055
O O5 0.186474 0.505259 0.036335
O O6 0.397341 0.478547 0.801156
O O7 0.128547 0.825488 0.036311
O O8 0.191400 0.431818 0.287440
O O9 0.655017 0.412822 0.423004
O O10 0.937598 0.231520 0.100296
O O11 0.584271 0.298954 0.233956
O O12 0.799952 0.917104 0.183480
O O13 0.530641 0.310633 0.868057
O O14 0.164762 0.113169 0.650289
O O15 0.311212 0.059565 0.249171
O O16 0.574717 0.934453 0.776349
#
# Coordination Sequence:
#
# PCOD8039359 Si02
#       8
#     2   2   2   2   2   2   2   2
#     4  10  19  36  58  80 106 142 193 226 267 322
#     4  10  20  36  56  81 113 147 180 231 267 328
#     4  11  21  35  54  84 112 148 181 219 282 337
#     4   9  20  37  57  78 106 146 188 231 264 327
#     4   9  20  34  57  81 108 146 183 227 277 318
#     4  11  22  37  56  82 118 149 176 227 281 330
#     4  10  18  33  58  85 108 139 183 240 264 324
#     4  10  20  34  56  88 112 142 185 221 285 325
#
# _framework density 19.428341
#
# number of rings (size 3 to 8) (size 9 to 14) (size 15 to 20)
#    0.000    2.000    2.500    1.500    0.000    1.500 
#    2.250    0.000    0.000    0.750    0.000    0.000 
#    0.000    0.000    0.000    0.000    0.000    0.000 
#
# Total GULP energy -198298.797543 kJ/mol
# GULP energy per Si atom -12393.674846 kJ/mol
# Density = 1.938412 g / cm^3
# Si number density = 19.428341 Si / 1000 Ang^3
#
#
#
# Elastic Constant Matrix: (Units=GPa)
#
#
# Indices 1 2 3 4 5 6 
#
# 1 115.0170 41.5287 18.2256 4.5220 15.1382 -0.1028
# 2 41.5287 110.0229 39.0866 1.7314 -0.9527 -17.7207
# 3 18.2256 39.0866 29.4629 -1.7794 5.6692 -7.9495
# 4 4.5220 1.7314 -1.7794 27.0701 -2.1168 -4.1430
# 5 15.1382 -0.9527 5.6692 -2.1168 20.0990 1.0191
# 6 -0.1028 -17.7207 -7.9495 -4.1430 1.0191 19.6979
#
#
#
# Elastic Compliance Matrix: (Units=1/GPa)
#
#
# Indices 1 2 3 4 5 6 
#
# 1 0.011974 -0.005317 -0.000079 -0.003150 -0.009330 -0.004933
# 2 -0.005317 0.021536 -0.025214 0.000083 0.011711 0.008582
# 3 -0.000079 -0.025214 0.074754 0.006339 -0.022058 0.009960
# 4 -0.003150 0.000083 0.006339 0.039860 0.004240 0.010780
# 5 -0.009330 0.011711 -0.022058 0.004240 0.064047 -0.000837
# 6 -0.004933 0.008582 0.009960 0.010780 -0.000837 0.064792
#
#
# Mechanical properties :
#
#
# Convention : Reuss Voigt Hill
#
# Bulk Modulus (GPa) = 21.25671 50.24273 35.74972
# Shear Modulus (GPa) = 14.12969 23.75086 18.94028
#
# Velocity S-wave (km/s) = 2.69972 3.50020 3.12569
# Velocity P-wave (km/s) = 4.54784 6.50014 5.60958
#
# Compressibility (1/GPa) = 0.04704398
#
# Stress axis : x y z
#
# Youngs Moduli (GPa) = 83.51252 46.43394 13.37724
#
# Poissons Ratio (x) = 0.24691 0.00105
# Poissons Ratio (y) = 0.44408 0.33729
# Poissons Ratio (z) = 0.00657 1.17078
#
# Static dielectric constant tensor:
#      x y z
#    x 3.530350 -0.061520 -0.065860 
#    y -0.061520 3.717430 -0.148950 
#    z -0.065860 -0.148950 3.331120 
# 
# 
# High freq. dielectric constant tensor:
#      x y z
#    x 1.745480 -0.006800 -0.004390 
#    y -0.006800 1.764650 -0.010090 
#    z -0.004390 -0.010090 1.727600 
# 
# From -- ./inp_files/163084.got.cif
#   From: 2010.06.25/outbox.cif.g09.slc.cpg/sg2_82_cif.got.tgz:163084.got - 2010.06.27 13:26:56.
