data_PCOD8039556
_publ_section_title
;
Structure prediction by ZEFSAII (Michael W. Deem and Ramdas Pophale) SiO2 
 PCOD8039556
Probable space group: P -1
;
_chemical_formula_sum "Si O2"
_cell_formula_units_Z 14
_cell_length_a 9.144683
_cell_length_b 14.171811
_cell_length_c 10.805260
_cell_angle_alpha 148.129255
_cell_angle_beta 118.961691
_cell_angle_gamma 78.381796
_cell_volume 576.332247
_symmetry_space_group_name_H-M "P -1"
_symmetry_group_IT_number 2
_symmetry_cell_setting 'triclinic'
loop_
_space_group_symop_operation_xyz
x,y,z
-x,-y,-z
loop_
_atom_site_type_symbol
_atom_site_label
_atom_site_fract_x
_atom_site_fract_y
_atom_site_fract_z
Si Si1 0.851421 0.119762 0.114927
Si Si2 0.996606 0.584802 0.284492
Si Si3 0.813242 0.183311 0.898988
Si Si4 0.701020 0.358201 0.722676
Si Si5 0.401271 0.056587 0.656513
Si Si6 0.364264 0.312406 0.391843
Si Si7 0.546323 0.270992 0.177534
O O1 0.663070 0.144593 0.085764
O O2 0.000773 0.259312 0.434590
O O3 0.912926 0.172975 0.056176
O O4 0.814995 0.888370 0.857574
O O5 0.194848 0.663303 0.382494
O O6 0.962433 0.381536 0.113532
O O7 0.837524 0.546550 0.073756
O O8 0.614828 0.189218 0.844052
O O9 0.756026 0.988978 0.566442
O O10 0.525928 0.396168 0.655396
O O11 0.623021 0.159022 0.549477
O O12 0.381800 0.178332 0.901812
O O13 0.439201 0.238475 0.224073
O O14 0.317427 0.493065 0.534574
#
# Coordination Sequence:
#
# PCOD8039556 Si02
#       7
#     2   2   2   2   2   2   2
#     4  11  19  36  59  80 110 149 179 225 274 326
#     4  10  20  30  57  84 113 144 178 223 283 321
#     4   9  18  31  56  82 107 147 184 217 271 331
#     4  10  18  34  56  84 108 144 185 224 270 329
#     4   9  17  34  56  81 108 142 188 226 262 321
#     4  11  20  34  59  86 107 141 191 227 265 326
#     4  10  20  32  58  87 108 136 190 235 264 312
#
# _framework density 24.291543999999998
#
# number of rings (size 3 to 8) (size 9 to 14) (size 15 to 20)
#    0.000    2.000    4.286    1.714    0.000    0.000 
#    0.000    0.714    6.286   10.286    0.000    0.000 
#    0.000    0.000    0.000    0.000    0.000    0.000 
#
# Total GULP energy -173469.378672 kJ/mol
# GULP energy per Si atom -12390.669905 kJ/mol
# Density = 2.423626 g / cm^3
# Si number density = 24.291544 Si / 1000 Ang^3
#
#
#
# Elastic Constant Matrix: (Units=GPa)
#
#
# Indices 1 2 3 4 5 6 
#
# 1 9.3615 13.2512 -3.8825 -6.7913 5.8021 3.7590
# 2 13.2512 87.3233 33.9456 -18.6507 -3.6202 26.4680
# 3 -3.8825 33.9456 111.1125 -33.3711 -3.9358 2.4271
# 4 -6.7913 -18.6507 -33.3711 55.1355 9.4401 -2.5958
# 5 5.8021 -3.6202 -3.9358 9.4401 26.0340 1.7379
# 6 3.7590 26.4680 2.4271 -2.5958 1.7379 29.9577
#
#
#
# Elastic Compliance Matrix: (Units=1/GPa)
#
#
# Indices 1 2 3 4 5 6 
#
# 1 0.301997 -0.060568 0.043238 0.059763 -0.092374 0.022653
# 2 -0.060568 0.030848 -0.013222 -0.009529 0.020620 -0.020605
# 3 0.043238 -0.013222 0.018315 0.014748 -0.014514 0.006892
# 4 0.059763 -0.009529 0.014748 0.035802 -0.025685 0.004317
# 5 -0.092374 0.020620 -0.014514 -0.025685 0.069768 -0.011724
# 6 0.022653 -0.020605 0.006892 0.004317 -0.011724 0.049239
#
#
# Mechanical properties :
#
#
# Convention : Reuss Voigt Hill
#
# Bulk Modulus (GPa) = 3.44759 32.71402 18.08080
# Shear Modulus (GPa) = 7.53287 33.19095 20.36191
#
# Velocity S-wave (km/s) = 1.76288 3.70044 2.89836
# Velocity P-wave (km/s) = 2.35924 5.63508 4.31973
#
# Compressibility (1/GPa) = 0.29005741
#
# Stress axis : x y z
#
# Youngs Moduli (GPa) = 3.31129 32.41716 54.60069
#
# Poissons Ratio (x) = 1.96343 -2.36084
# Poissons Ratio (y) = 0.20056 0.72193
# Poissons Ratio (z) = -0.14317 0.42862
#
# Static dielectric constant tensor:
#      x y z
#    x 3.811920 0.463170 -0.058650 
#    y 0.463170 4.665560 -0.619040 
#    z -0.058650 -0.619040 4.860850 
# 
# 
# High freq. dielectric constant tensor:
#      x y z
#    x 1.920510 0.036260 0.008810 
#    y 0.036260 1.972230 -0.023880 
#    z 0.008810 -0.023880 1.979180 
# 
# From -- ./inp_files/302696.got.cif
#   From: 2010.06.25/outbox.cif.g09.slc.cpg/sg2_152_cif.got.tgz:302696.got - 2010.06.27 13:26:56.
