data_PCOD8039536
_publ_section_title
;
Structure prediction by ZEFSAII (Michael W. Deem and Ramdas Pophale) SiO2 
 PCOD8039536
Probable space group: P -1
;
_chemical_formula_sum "Si O2"
_cell_formula_units_Z 14
_cell_length_a 9.050077
_cell_length_b 14.213157
_cell_length_c 9.160059
_cell_angle_alpha 84.422333
_cell_angle_beta 97.376328
_cell_angle_gamma 144.254264
_cell_volume 682.580492
_symmetry_space_group_name_H-M "P -1"
_symmetry_group_IT_number 2
_symmetry_cell_setting 'triclinic'
loop_
_space_group_symop_operation_xyz
x,y,z
-x,-y,-z
loop_
_atom_site_type_symbol
_atom_site_label
_atom_site_fract_x
_atom_site_fract_y
_atom_site_fract_z
Si Si1 0.898747 0.477302 0.334232
Si Si2 0.769528 0.337533 0.908217
Si Si3 0.651954 0.173027 0.188757
Si Si4 0.594665 0.711998 0.594677
Si Si5 0.177624 0.972570 0.329705
Si Si6 0.102057 0.884286 0.650649
Si Si7 0.668605 0.799479 0.274452
O O1 0.795561 0.330886 0.265138
O O2 0.673062 0.438603 0.332620
O O3 0.000000 0.500000 0.500000
O O4 0.121586 0.639679 0.240050
O O5 0.549212 0.303323 0.861017
O O6 0.654980 0.192528 0.010971
O O7 0.000000 0.500000 0.000000
O O8 0.359894 0.015596 0.229285
O O9 0.797013 0.151153 0.239829
O O10 0.708198 0.871080 0.625421
O O11 0.549245 0.687785 0.418427
O O12 0.797641 0.736139 0.661840
O O13 0.148640 0.892161 0.482025
O O14 0.903303 0.855269 0.239553
O O15 0.242844 0.049403 0.699711
#
# Coordination Sequence:
#
# PCOD8039536 Si02
#       7
#     2   2   2   2   2   2   2
#     4  10  18  34  56  69  92 140 181 197 231 298
#     4  10  21  33  50  74 103 132 172 205 240 295
#     4  10  20  32  49  80 107 125 158 216 256 285
#     4   8  15  30  54  78  93 129 173 206 237 290
#     4   8  16  30  52  77  99 130 165 202 247 297
#     4   9  17  31  53  78 106 123 160 214 257 290
#     4   9  16  31  54  75  98 133 167 200 248 301
#
# _framework density 20.510401000000002
#
# number of rings (size 3 to 8) (size 9 to 14) (size 15 to 20)
#    0.000    2.857    1.429    2.143    0.000    1.143 
#    0.000    1.429    0.000    0.000    0.000    0.000 
#    0.000    0.000    0.000    0.000    0.000    0.000 
#
# Total GULP energy -173484.858267 kJ/mol
# GULP energy per Si atom -12391.775591 kJ/mol
# Density = 2.046372 g / cm^3
# Si number density = 20.510401 Si / 1000 Ang^3
#
#
#
# Elastic Constant Matrix: (Units=GPa)
#
#
# Indices 1 2 3 4 5 6 
#
# 1 129.6238 29.1021 66.1065 -13.9824 18.0826 39.9307
# 2 29.1021 32.8155 28.1623 0.5330 2.1694 28.2354
# 3 66.1065 28.1623 129.3831 -11.7848 12.4075 31.8559
# 4 -13.9824 0.5330 -11.7848 30.6079 12.0978 0.3881
# 5 18.0826 2.1694 12.4075 12.0978 35.1277 2.2571
# 6 39.9307 28.2354 31.8559 0.3881 2.2571 36.2724
#
#
#
# Elastic Compliance Matrix: (Units=1/GPa)
#
#
# Indices 1 2 3 4 5 6 
#
# 1 0.016436 0.004052 -0.002851 0.010596 -0.010182 -0.018224
# 2 0.004052 0.094378 -0.004162 0.000242 -0.001762 -0.074165
# 3 -0.002851 -0.004162 0.011865 0.004936 -0.003919 -0.003851
# 4 0.010596 0.000242 0.004936 0.048692 -0.023000 -0.015277
# 5 -0.010182 -0.001762 -0.003919 -0.023000 0.042247 0.013640
# 6 -0.018224 -0.074165 -0.003851 -0.015277 0.013640 0.108059
#
#
# Mechanical properties :
#
#
# Convention : Reuss Voigt Hill
#
# Bulk Modulus (GPa) = 8.56481 59.84047 34.20264
# Shear Modulus (GPa) = 13.64188 31.63172 22.63680
#
# Velocity S-wave (km/s) = 2.58179 3.93138 3.32576
# Velocity P-wave (km/s) = 3.61558 7.06022 5.60888
#
# Compressibility (1/GPa) = 0.11675681
#
# Stress axis : x y z
#
# Youngs Moduli (GPa) = 60.84117 10.59574 84.27974
#
# Poissons Ratio (x) = -0.04293 0.24032
# Poissons Ratio (y) = -0.24652 0.35074
# Poissons Ratio (z) = 0.17348 0.04410
#
# Static dielectric constant tensor:
#      x y z
#    x 4.035600 0.893790 -0.282240 
#    y 0.893790 3.923910 -0.478390 
#    z -0.282240 -0.478390 4.256990 
# 
# 
# High freq. dielectric constant tensor:
#      x y z
#    x 1.791460 0.042640 0.008370 
#    y 0.042640 1.776820 -0.003490 
#    z 0.008370 -0.003490 1.794520 
# 
# From -- ./inp_files/154700.got.cif
#   From: 2010.06.25/outbox.cif.g09.slc.cpg/sg2_78_cif.got.tgz:154700.got - 2010.06.27 13:26:56.
