data_PCOD8039204
_publ_section_title
;
Structure prediction by ZEFSAII (Michael W. Deem and Ramdas Pophale) SiO2 
 PCOD8039204
Probable space group: P -1
;
_chemical_formula_sum "Si O2"
_cell_formula_units_Z 16
_cell_length_a 11.628656
_cell_length_b 11.307811
_cell_length_c 10.146074
_cell_angle_alpha 57.596081
_cell_angle_beta 62.405702
_cell_angle_gamma 93.930145
_cell_volume 904.416550
_symmetry_space_group_name_H-M "P -1"
_symmetry_group_IT_number 2
_symmetry_cell_setting 'triclinic'
loop_
_space_group_symop_operation_xyz
x,y,z
-x,-y,-z
loop_
_atom_site_type_symbol
_atom_site_label
_atom_site_fract_x
_atom_site_fract_y
_atom_site_fract_z
Si Si1 0.890166 0.326657 0.510273
Si Si2 0.999677 0.215922 0.288547
Si Si3 0.227076 0.119855 0.308510
Si Si4 0.415673 0.021791 0.653906
Si Si5 0.247863 0.182848 0.552741
Si Si6 0.100767 0.849240 0.895600
Si Si7 0.068560 0.335165 0.659189
Si Si8 0.401957 0.964830 0.199182
O O1 0.992639 0.340622 0.322050
O O2 0.882378 0.488920 0.432125
O O3 0.730759 0.199060 0.650295
O O4 0.954760 0.283636 0.631719
O O5 0.962037 0.256105 0.138800
O O6 0.155950 0.213421 0.206717
O O7 0.884418 0.053490 0.499579
O O8 0.283404 0.209048 0.362876
O O9 0.354429 0.104860 0.166305
O O10 0.385073 0.174398 0.556452
O O11 0.505675 0.046898 0.721429
O O12 0.500000 0.000000 0.500000
O O13 0.262137 0.869892 0.832232
O O14 0.211956 0.318899 0.547722
O O15 0.108515 0.018741 0.752293
O O16 0.997916 0.776122 0.115672
O O17 0.500000 0.000000 0.000000
#
# Coordination Sequence:
#
# PCOD8039204 Si02
#       8
#     2   2   2   2   2   2   2   2
#     4  10  22  34  55  73 109 142 165 209 267 321
#     4   9  16  32  51  80 100 132 171 209 269 299
#     4   9  16  30  54  75 105 131 166 220 256 307
#     4  10  18  33  51  77 104 135 174 205 257 302
#     4   9  18  32  56  77 103 137 172 214 257 306
#     4   9  20  30  56  81 103 127 175 228 250 299
#     4  11  20  36  51  80 106 136 171 214 270 301
#     4  11  21  33  53  80 104 133 176 217 248 303
#
# _framework density 17.690963
#
# number of rings (size 3 to 8) (size 9 to 14) (size 15 to 20)
#    0.750    1.500    2.500    1.875    1.750    1.500 
#    0.000    0.625    0.000    2.250    0.000    0.000 
#    0.000    0.000    0.000    0.000    0.000    0.000 
#
# Total GULP energy -198288.686396 kJ/mol
# GULP energy per Si atom -12393.042900 kJ/mol
# Density = 1.765070 g / cm^3
# Si number density = 17.690963 Si / 1000 Ang^3
#
#
#
# Elastic Constant Matrix: (Units=GPa)
#
#
# Indices 1 2 3 4 5 6 
#
# 1 142.5314 64.6025 38.3186 23.2315 -1.6806 0.5763
# 2 64.6025 102.9920 42.2869 33.7441 -0.2972 -10.6317
# 3 38.3186 42.2869 67.7301 30.2042 -2.6910 -1.4472
# 4 23.2315 33.7441 30.2042 29.1747 -1.0397 -2.9694
# 5 -1.6806 -0.2972 -2.6910 -1.0397 24.8581 12.9313
# 6 0.5763 -10.6317 -1.4472 -2.9694 12.9313 33.4599
#
#
#
# Elastic Compliance Matrix: (Units=1/GPa)
#
#
# Indices 1 2 3 4 5 6 
#
# 1 0.010305 -0.006128 -0.002586 0.001338 0.001879 -0.002844
# 2 -0.006128 0.020342 -0.002216 -0.015821 -0.004643 0.006864
# 3 -0.002586 -0.002216 0.029173 -0.025765 0.003449 -0.003017
# 4 0.001338 -0.015821 -0.025765 0.078264 -0.000026 0.000791
# 5 0.001879 -0.004643 0.003449 -0.000026 0.051793 -0.021377
# 6 -0.002844 0.006864 -0.003017 0.000791 -0.021377 0.040318
#
#
# Mechanical properties :
#
#
# Convention : Reuss Voigt Hill
#
# Bulk Modulus (GPa) = 26.34405 67.07438 46.70921
# Shear Modulus (GPa) = 18.88878 28.70156 23.79517
#
# Velocity S-wave (km/s) = 3.27112 4.03225 3.67147
# Velocity P-wave (km/s) = 5.40283 7.72500 6.66581
#
# Compressibility (1/GPa) = 0.03795924
#
# Stress axis : x y z
#
# Youngs Moduli (GPa) = 97.04483 49.15977 34.27769
#
# Poissons Ratio (x) = 0.30125 0.08866
# Poissons Ratio (y) = 0.59470 0.07595
# Poissons Ratio (z) = 0.25101 0.10893
#
# Static dielectric constant tensor:
#      x y z
#    x 3.409260 -0.055520 0.004620 
#    y -0.055520 3.245020 0.378570 
#    z 0.004620 0.378570 3.016690 
# 
# 
# High freq. dielectric constant tensor:
#      x y z
#    x 1.692140 -0.004830 0.008360 
#    y -0.004830 1.668040 0.039320 
#    z 0.008360 0.039320 1.657610 
# 
# From -- ./inp_files/252392.got.cif
#   From: 2010.06.25/outbox.cif.g09.slc.cpg/sg2_127_cif.got.tgz:252392.got - 2010.06.27 13:26:56.
