data_PCOD8039632
_publ_section_title
;
Structure prediction by ZEFSAII (Michael W. Deem and Ramdas Pophale) SiO2 
 PCOD8039632
Probable space group: P -1
;
_chemical_formula_sum "Si O2"
_cell_formula_units_Z 16
_cell_length_a 11.462710
_cell_length_b 9.482662
_cell_length_c 12.334615
_cell_angle_alpha 46.673321
_cell_angle_beta 123.640030
_cell_angle_gamma 112.046319
_cell_volume 811.964628
_symmetry_space_group_name_H-M "P -1"
_symmetry_group_IT_number 2
_symmetry_cell_setting 'triclinic'
loop_
_space_group_symop_operation_xyz
x,y,z
-x,-y,-z
loop_
_atom_site_type_symbol
_atom_site_label
_atom_site_fract_x
_atom_site_fract_y
_atom_site_fract_z
Si Si1 0.436121 0.472612 0.116846
Si Si2 0.764841 0.991254 0.871775
Si Si3 0.364001 0.841968 0.697647
Si Si4 0.019757 0.731920 0.116227
Si Si5 0.682374 0.861825 0.661802
Si Si6 0.144949 0.636052 0.797430
Si Si7 0.012505 0.270823 0.138418
Si Si8 0.519984 0.895565 0.951609
O O1 0.531872 0.348281 0.146194
O O2 0.415066 0.329092 0.285350
O O3 0.276988 0.506798 0.974732
O O4 0.517063 0.664072 0.095941
O O5 0.689322 0.943245 0.745243
O O6 0.661421 0.971247 0.930178
O O7 0.832460 0.208786 0.783484
O O8 0.890521 0.845120 0.043839
O O9 0.202271 0.767195 0.658116
O O10 0.395948 0.946829 0.773929
O O11 0.390678 0.976755 0.537182
O O12 0.984111 0.503133 0.230104
O O13 0.035832 0.810170 0.959400
O O14 0.831661 0.807124 0.715402
O O15 0.089501 0.783001 0.785715
O O16 0.000000 0.500000 0.000000
O O17 0.500000 0.000000 0.000000
#
# Coordination Sequence:
#
# PCOD8039632 Si02
#       8
#     2   2   2   2   2   2   2   2
#     4  11  20  38  63  84 114 157 200 237 281 354
#     4  10  19  33  54  84 114 142 196 238 286 332
#     4  11  23  37  62  86 122 155 197 240 284 353
#     4   9  17  31  56  82 107 147 191 247 270 334
#     4  11  21  37  59  89 113 159 202 233 288 351
#     4  10  18  34  58  86 109 151 199 238 289 340
#     4   9  17  32  57  84 109 147 196 239 283 343
#     4  11  24  37  60  91 115 149 195 249 294 343
#
# _framework density 19.705290999999999
#
# number of rings (size 3 to 8) (size 9 to 14) (size 15 to 20)
#    0.000    1.750    5.000    2.625    3.500    0.500 
#    0.000    1.250    5.500    0.000    0.000    0.000 
#    0.000    0.000    0.000    0.000    0.000    0.000 
#
# Total GULP energy -198223.642035 kJ/mol
# GULP energy per Si atom -12388.977627 kJ/mol
# Density = 1.966044 g / cm^3
# Si number density = 19.705291 Si / 1000 Ang^3
#
#
#
# Elastic Constant Matrix: (Units=GPa)
#
#
# Indices 1 2 3 4 5 6 
#
# 1 132.6332 57.1865 24.5299 2.3955 -21.7882 -2.3083
# 2 57.1865 112.0619 36.4488 1.6592 -14.7320 7.2523
# 3 24.5299 36.4488 61.1531 -0.4105 -15.6199 0.5423
# 4 2.3955 1.6592 -0.4105 15.0379 2.0284 -5.8505
# 5 -21.7882 -14.7320 -15.6199 2.0284 32.6716 -5.9420
# 6 -2.3083 7.2523 0.5423 -5.8505 -5.9420 40.4308
#
#
#
# Elastic Compliance Matrix: (Units=1/GPa)
#
#
# Indices 1 2 3 4 5 6 
#
# 1 0.010536 -0.004785 -0.000049 -0.001054 0.005290 0.002085
# 2 -0.004785 0.013565 -0.006279 -0.002000 -0.000495 -0.002984
# 3 -0.000049 -0.006279 0.022161 0.001060 0.008059 0.002164
# 4 -0.001054 -0.002000 0.001060 0.071330 -0.003696 0.010063
# 5 0.005290 -0.000495 0.008059 -0.003696 0.038991 0.005478
# 6 0.002085 -0.002984 0.002164 0.010063 0.005478 0.027620
#
#
# Mechanical properties :
#
#
# Convention : Reuss Voigt Hill
#
# Bulk Modulus (GPa) = 41.60316 60.24207 50.92261
# Shear Modulus (GPa) = 23.31636 30.14024 26.72830
#
# Velocity S-wave (km/s) = 3.44358 3.91519 3.68693
# Velocity P-wave (km/s) = 6.08025 7.14676 6.63497
#
# Compressibility (1/GPa) = 0.02403664
#
# Stress axis : x y z
#
# Youngs Moduli (GPa) = 94.91316 73.71663 45.12442
#
# Poissons Ratio (x) = 0.35271 0.00220
# Poissons Ratio (y) = 0.45413 0.28336
# Poissons Ratio (z) = 0.00463 0.46290
#
# Static dielectric constant tensor:
#      x y z
#    x 4.254360 -0.033520 -0.260060 
#    y -0.033520 3.721700 -0.088060 
#    z -0.260060 -0.088060 3.198020 
# 
# 
# High freq. dielectric constant tensor:
#      x y z
#    x 1.798560 0.004500 -0.014860 
#    y 0.004500 1.753450 -0.011920 
#    z -0.014860 -0.011920 1.717020 
# 
# From -- ./inp_files/416375.got.cif
#   From: 2010.06.25/outbox.cif.g09.slc.cpg/sg2_209_cif.got.tgz:416375.got - 2010.06.27 13:26:56.
