data_PCOD8039995
_publ_section_title
;
Structure prediction by ZEFSAII (Michael W. Deem and Ramdas Pophale) SiO2 
 PCOD8039995
Probable space group: P -1
;
_chemical_formula_sum "Si O2"
_cell_formula_units_Z 16
_cell_length_a 14.606273
_cell_length_b 10.917498
_cell_length_c 12.287917
_cell_angle_alpha 81.780072
_cell_angle_beta 34.683295
_cell_angle_gamma 108.273039
_cell_volume 710.100027
_symmetry_space_group_name_H-M "P -1"
_symmetry_group_IT_number 2
_symmetry_cell_setting 'triclinic'
loop_
_space_group_symop_operation_xyz
x,y,z
-x,-y,-z
loop_
_atom_site_type_symbol
_atom_site_label
_atom_site_fract_x
_atom_site_fract_y
_atom_site_fract_z
Si Si1 0.657711 0.063658 0.137352
Si Si2 0.377048 0.039429 0.052242
Si Si3 0.095777 0.751884 0.741125
Si Si4 0.364809 0.679934 0.795141
Si Si5 0.344838 0.291886 0.314940
Si Si6 0.983230 0.110740 0.387703
Si Si7 0.468576 0.617098 0.113056
Si Si8 0.836166 0.025196 0.165354
O O1 0.694043 0.232846 0.087577
O O2 0.371919 0.857833 0.471241
O O3 0.840914 0.100751 0.036654
O O4 0.729317 0.065870 0.945527
O O5 0.150690 0.963384 0.354121
O O6 0.580816 0.272033 0.809820
O O7 0.500000 0.000000 0.000000
O O8 0.092510 0.815059 0.618337
O O9 0.039839 0.816944 0.882866
O O10 0.892171 0.523573 0.976967
O O11 0.500302 0.655402 0.737244
O O12 0.548574 0.823984 0.498801
O O13 0.271753 0.396643 0.376411
O O14 0.099136 0.062341 0.573930
O O15 0.528694 0.379624 0.020865
O O16 0.274818 0.281654 0.098666
O O17 0.000000 0.000000 0.000000
#
# Coordination Sequence:
#
# PCOD8039995 Si02
#       8
#     2   2   2   2   2   2   2   2
#     4  11  24  44  66  96 135 173 220 270 326 390
#     4  11  21  39  64  93 134 171 211 268 322 382
#     4  11  22  43  70  93 128 174 222 260 332 394
#     4  11  22  43  71  93 130 178 218 269 331 392
#     4  10  18  35  60  93 124 163 218 264 315 384
#     4  11  20  39  66  91 128 178 213 267 325 387
#     4  10  22  34  60  94 127 171 221 266 323 382
#     4  11  27  44  69  98 129 168 220 282 326 387
#
# _framework density 22.532036999999999
#
# number of rings (size 3 to 8) (size 9 to 14) (size 15 to 20)
#    0.000    1.250    5.000    3.750    1.750    3.500 
#    0.000    6.875    0.000    0.000    0.000    0.000 
#    0.000    0.000    0.000    0.000    0.000    0.000 
#
# Total GULP energy -198403.267258 kJ/mol
# GULP energy per Si atom -12400.204204 kJ/mol
# Density = 2.248075 g / cm^3
# Si number density = 22.532037 Si / 1000 Ang^3
#
#
#
# Elastic Constant Matrix: (Units=GPa)
#
#
# Indices 1 2 3 4 5 6 
#
# 1 113.1623 32.6519 0.0604 6.4867 12.7313 1.9683
# 2 32.6519 157.6253 46.8962 -10.8584 6.8918 -7.4594
# 3 0.0604 46.8962 49.8717 -19.4737 -0.7695 5.1165
# 4 6.4867 -10.8584 -19.4737 39.0910 -1.7814 3.7959
# 5 12.7313 6.8918 -0.7695 -1.7814 28.6589 -1.9444
# 6 1.9683 -7.4594 5.1165 3.7959 -1.9444 42.2640
#
#
#
# Elastic Compliance Matrix: (Units=1/GPa)
#
#
# Indices 1 2 3 4 5 6 
#
# 1 0.010168 -0.002687 0.001992 -0.001503 -0.003995 -0.001238
# 2 -0.002687 0.010220 -0.010993 -0.002592 -0.001488 0.003424
# 3 0.001992 -0.010993 0.037595 0.016259 0.003243 -0.007895
# 4 -0.001503 -0.002592 0.016259 0.033877 0.003478 -0.005239
# 5 -0.003995 -0.001488 0.003243 0.003478 0.037393 0.000939
# 6 -0.001238 0.003424 -0.007895 -0.005239 0.000939 0.025792
#
#
# Mechanical properties :
#
#
# Convention : Reuss Voigt Hill
#
# Bulk Modulus (GPa) = 28.89472 53.31959 41.10716
# Shear Modulus (GPa) = 26.32178 38.07282 32.19730
#
# Velocity S-wave (km/s) = 3.42159 4.11508 3.78426
# Velocity P-wave (km/s) = 5.33492 6.80395 6.11372
#
# Compressibility (1/GPa) = 0.03460840
#
# Stress axis : x y z
#
# Youngs Moduli (GPa) = 98.34686 97.84805 26.59908
#
# Poissons Ratio (x) = 0.26287 -0.05300
# Poissons Ratio (y) = 0.26421 0.29241
# Poissons Ratio (z) = -0.19595 1.07568
#
# Static dielectric constant tensor:
#      x y z
#    x 4.162030 -0.071530 0.145150 
#    y -0.071530 4.420150 -0.231350 
#    z 0.145150 -0.231350 3.744140 
# 
# 
# High freq. dielectric constant tensor:
#      x y z
#    x 1.903940 -0.003970 0.004580 
#    y -0.003970 1.897720 -0.016660 
#    z 0.004580 -0.016660 1.850770 
# 
# From -- ./inp_files/452343.got.cif
#   From: 2010.06.25/outbox.cif.g09.slc.cpg/sg2_227_cif.got.tgz:452343.got - 2010.06.27 13:26:56.
