data_PCOD8039779
_publ_section_title
;
Structure prediction by ZEFSAII (Michael W. Deem and Ramdas Pophale) SiO2 
 PCOD8039779
Probable space group: P -1
;
_chemical_formula_sum "Si O2"
_cell_formula_units_Z 16
_cell_length_a 15.708182
_cell_length_b 8.493627
_cell_length_c 8.483805
_cell_angle_alpha 70.477139
_cell_angle_beta 46.928738
_cell_angle_gamma 87.658296
_cell_volume 749.914783
_symmetry_space_group_name_H-M "P -1"
_symmetry_group_IT_number 2
_symmetry_cell_setting 'triclinic'
loop_
_space_group_symop_operation_xyz
x,y,z
-x,-y,-z
loop_
_atom_site_type_symbol
_atom_site_label
_atom_site_fract_x
_atom_site_fract_y
_atom_site_fract_z
Si Si1 0.836671 0.199313 0.427810
Si Si2 0.788174 0.276658 0.129842
Si Si3 0.450131 0.396424 0.853560
Si Si4 0.037691 0.401111 0.337347
Si Si5 0.699942 0.019245 0.081123
Si Si6 0.803622 0.841504 0.738825
Si Si7 0.485828 0.730562 0.521959
Si Si8 0.592335 0.174627 0.887425
O O1 0.863715 0.240735 0.196375
O O2 0.705343 0.225859 0.611540
O O3 0.927196 0.337592 0.378192
O O4 0.835092 0.000283 0.524123
O O5 0.801919 0.143826 0.019624
O O6 0.645325 0.242872 0.350464
O O7 0.848053 0.473480 0.937247
O O8 0.481224 0.603578 0.721064
O O9 0.470215 0.327099 0.679453
O O10 0.533841 0.337598 0.899007
O O11 0.312843 0.312869 0.113790
O O12 0.079120 0.230855 0.387878
O O13 0.000000 0.500000 0.500000
O O14 0.592365 0.904604 0.366221
O O15 0.637215 0.140989 0.015265
O O16 0.773742 0.912611 0.922208
O O17 0.500000 0.000000 0.000000
#
# Coordination Sequence:
#
# PCOD8039779 Si02
#       8
#     2   2   2   2   2   2   2   2
#     4  11  23  40  68  94 125 172 207 258 315 376
#     4  12  23  42  61  96 131 166 216 257 312 374
#     4  10  18  34  64  96 128 166 204 256 318 378
#     4  12  26  46  67  89 124 166 221 267 312 372
#     4  10  22  37  65  97 131 170 203 256 318 381
#     4  10  21  43  67  92 124 169 210 257 322 370
#     4  10  19  34  60  96 131 165 204 257 317 369
#     4  11  17  36  63  94 126 165 207 251 312 378
#
# _framework density 21.335757999999998
#
# number of rings (size 3 to 8) (size 9 to 14) (size 15 to 20)
#    0.000    1.250    6.250    2.625    0.000    0.000 
#    0.000    6.875    0.000    0.000    0.000    0.000 
#    0.000    0.000    0.000    0.000    0.000    0.000 
#
# Total GULP energy -198333.272419 kJ/mol
# GULP energy per Si atom -12395.829526 kJ/mol
# Density = 2.128720 g / cm^3
# Si number density = 21.335758 Si / 1000 Ang^3
#
#
#
# Elastic Constant Matrix: (Units=GPa)
#
#
# Indices 1 2 3 4 5 6 
#
# 1 130.3666 61.3977 33.7498 1.2801 9.9661 1.4878
# 2 61.3977 78.5465 33.0114 -4.8156 12.3623 -16.4843
# 3 33.7498 33.0114 63.0132 -15.5145 2.9812 -1.8608
# 4 1.2801 -4.8156 -15.5145 33.0552 -8.5947 -5.8356
# 5 9.9661 12.3623 2.9812 -8.5947 33.3225 -0.7198
# 6 1.4878 -16.4843 -1.8608 -5.8356 -0.7198 31.9186
#
#
#
# Elastic Compliance Matrix: (Units=1/GPa)
#
#
# Indices 1 2 3 4 5 6 
#
# 1 0.014121 -0.011551 -0.002996 -0.005328 -0.001213 -0.007800
# 2 -0.011551 0.029414 -0.007938 0.002234 -0.005836 0.015543
# 3 -0.002996 -0.007938 0.024229 0.011473 0.004625 -0.000345
# 4 -0.005328 0.002234 0.011473 0.040596 0.010419 0.009728
# 5 -0.001213 -0.005836 0.004625 0.010419 0.034811 0.000002
# 6 -0.007800 0.015543 -0.000345 0.009728 0.000002 0.041479
#
#
# Mechanical properties :
#
#
# Convention : Reuss Voigt Hill
#
# Bulk Modulus (GPa) = 43.87328 58.69380 51.28354
# Shear Modulus (GPa) = 21.07779 29.24375 25.16077
#
# Velocity S-wave (km/s) = 3.14651 3.70624 3.43779
# Velocity P-wave (km/s) = 5.81452 6.77379 6.31240
#
# Compressibility (1/GPa) = 0.02279292
#
# Stress axis : x y z
#
# Youngs Moduli (GPa) = 70.81864 33.99756 41.27342
#
# Poissons Ratio (x) = 0.39271 0.12367
# Poissons Ratio (y) = 0.81803 0.32761
# Poissons Ratio (z) = 0.21220 0.26986
#
# Static dielectric constant tensor:
#      x y z
#    x 3.823820 -0.145350 0.079840 
#    y -0.145350 3.898950 -0.376360 
#    z 0.079840 -0.376360 4.062200 
# 
# 
# High freq. dielectric constant tensor:
#      x y z
#    x 1.826330 -0.005410 -0.002860 
#    y -0.005410 1.827900 -0.017360 
#    z -0.002860 -0.017360 1.843310 
# 
# From -- ./inp_files/294733.got.cif
#   From: 2010.06.25/outbox.cif.g09.slc.cpg/sg2_148_cif.got.tgz:294733.got - 2010.06.27 13:26:56.
