data_PCOD8039270
_publ_section_title
;
Structure prediction by ZEFSAII (Michael W. Deem and Ramdas Pophale) SiO2 
 PCOD8039270
Probable space group: P -1
;
_chemical_formula_sum "Si O2"
_cell_formula_units_Z 16
_cell_length_a 19.505897
_cell_length_b 8.746786
_cell_length_c 13.042177
_cell_angle_alpha 50.170934
_cell_angle_beta 155.252666
_cell_angle_gamma 122.057263
_cell_volume 706.324730
_symmetry_space_group_name_H-M "P -1"
_symmetry_group_IT_number 2
_symmetry_cell_setting 'triclinic'
loop_
_space_group_symop_operation_xyz
x,y,z
-x,-y,-z
loop_
_atom_site_type_symbol
_atom_site_label
_atom_site_fract_x
_atom_site_fract_y
_atom_site_fract_z
Si Si1 0.649486 0.091210 0.413843
Si Si2 0.099372 0.883365 0.426862
Si Si3 0.718753 0.422519 0.723496
Si Si4 0.108530 0.219003 0.990025
Si Si5 0.552491 0.220594 0.757388
Si Si6 0.777668 0.382528 0.590107
Si Si7 0.148926 0.649676 0.784684
Si Si8 0.052996 0.266541 0.342867
O O1 0.732640 0.113003 0.408047
O O2 0.631594 0.308092 0.355186
O O3 0.474980 0.013711 0.187188
O O4 0.748835 0.925098 0.696366
O O5 0.113868 0.679307 0.603068
O O6 0.945481 0.893968 0.136037
O O7 0.075605 0.064619 0.396801
O O8 0.610361 0.282320 0.697843
O O9 0.623367 0.651168 0.500922
O O10 0.744386 0.332329 0.683576
O O11 0.898295 0.423260 0.018197
O O12 0.178040 0.416574 0.958605
O O13 0.950270 0.261806 0.832185
O O14 0.688667 0.248757 0.014898
O O15 0.784666 0.622118 0.487903
O O16 0.993169 0.770055 0.585882
#
# Coordination Sequence:
#
# PCOD8039270 Si02
#       8
#     2   2   2   2   2   2   2   2
#     4  11  21  35  56  83 113 144 187 230 269 324
#     4  11  21  36  60  85 111 144 181 229 283 329
#     4  10  18  33  55  80 110 144 184 230 274 322
#     4  10  20  36  58  86 111 137 182 237 284 319
#     4  10  21  35  53  78 111 153 187 216 266 331
#     4  10  19  31  53  83 109 136 176 235 284 311
#     4  10  22  38  56  80 116 151 180 219 273 340
#     4  10  19  33  56  84 111 140 183 233 281 321
#
# _framework density 22.652471999999999
#
# number of rings (size 3 to 8) (size 9 to 14) (size 15 to 20)
#    0.000    1.750    0.000    7.875    0.000    1.000 
#    0.000    2.500    0.000    3.750    0.000    0.000 
#    0.000    0.000    0.000    0.000    0.000    0.000 
#
# Total GULP energy -198314.451413 kJ/mol
# GULP energy per Si atom -12394.653213 kJ/mol
# Density = 2.260091 g / cm^3
# Si number density = 22.652472 Si / 1000 Ang^3
#
#
#
# Elastic Constant Matrix: (Units=GPa)
#
#
# Indices 1 2 3 4 5 6 
#
# 1 133.5177 45.4217 28.7225 -0.3373 -29.7000 6.6115
# 2 45.4217 144.4330 6.6449 22.4480 0.6551 0.9722
# 3 28.7225 6.6449 23.3117 -0.8899 -8.8817 2.1961
# 4 -0.3373 22.4480 -0.8899 27.1446 3.7387 1.7182
# 5 -29.7000 0.6551 -8.8817 3.7387 22.1143 2.2882
# 6 6.6115 0.9722 2.1961 1.7182 2.2882 17.8211
#
#
#
# Elastic Compliance Matrix: (Units=1/GPa)
#
#
# Indices 1 2 3 4 5 6 
#
# 1 0.015482 -0.004696 -0.010548 0.001793 0.017071 -0.006553
# 2 -0.004696 0.009526 0.000484 -0.007336 -0.005420 0.002566
# 3 -0.010548 0.000484 0.060214 0.000313 0.010458 -0.004906
# 4 0.001793 -0.007336 0.000313 0.043775 -0.004237 -0.003980
# 5 0.017071 -0.005420 0.010458 -0.004237 0.074935 -0.016539
# 6 -0.006553 0.002566 -0.004906 -0.003980 -0.016539 0.061516
#
#
# Mechanical properties :
#
#
# Convention : Reuss Voigt Hill
#
# Bulk Modulus (GPa) = 17.95259 51.42672 34.68966
# Shear Modulus (GPa) = 15.94722 28.11422 22.03072
#
# Velocity S-wave (km/s) = 2.65617 3.52676 3.12196
# Velocity P-wave (km/s) = 4.16526 6.27183 5.32378
#
# Compressibility (1/GPa) = 0.05570226
#
# Stress axis : x y z
#
# Youngs Moduli (GPa) = 64.58920 104.98062 16.60753
#
# Poissons Ratio (x) = 0.49296 0.17517
# Poissons Ratio (y) = 0.30330 -0.00803
# Poissons Ratio (z) = 0.68127 -0.05079
#
# Static dielectric constant tensor:
#      x y z
#    x 4.241420 -0.012910 -0.147430 
#    y -0.012910 4.444680 0.195560 
#    z -0.147430 0.195560 3.647370 
# 
# 
# High freq. dielectric constant tensor:
#      x y z
#    x 1.901010 0.001970 -0.017480 
#    y 0.001970 1.911880 0.014330 
#    z -0.017480 0.014330 1.841410 
# 
# From -- ./inp_files/278085.got.cif
#   From: 2010.06.25/outbox.cif.g09.slc.cpg/sg2_140_cif.got.tgz:278085.got - 2010.06.27 13:26:56.
