data_PCOD8039412
_publ_section_title
;
Structure prediction by ZEFSAII (Michael W. Deem and Ramdas Pophale) SiO2 
 PCOD8039412
Probable space group: P -1
;
_chemical_formula_sum "Si O2"
_cell_formula_units_Z 14
_cell_length_a 9.403758
_cell_length_b 27.823022
_cell_length_c 11.171869
_cell_angle_alpha 29.867331
_cell_angle_beta 125.980968
_cell_angle_gamma 146.004362
_cell_volume 717.494986
_symmetry_space_group_name_H-M "P -1"
_symmetry_group_IT_number 2
_symmetry_cell_setting 'triclinic'
loop_
_space_group_symop_operation_xyz
x,y,z
-x,-y,-z
loop_
_atom_site_type_symbol
_atom_site_label
_atom_site_fract_x
_atom_site_fract_y
_atom_site_fract_z
Si Si1 0.302996 0.672895 0.550365
Si Si2 0.900598 0.253345 0.366293
Si Si3 0.371648 0.583048 0.995105
Si Si4 0.686336 0.973339 0.969396
Si Si5 0.316706 0.654073 0.057129
Si Si6 0.202276 0.243632 0.359503
Si Si7 0.220074 0.100130 0.055547
O O1 0.542513 0.700277 0.560077
O O2 0.275192 0.639534 0.752557
O O3 0.990689 0.517926 0.672663
O O4 0.424650 0.833576 0.233967
O O5 0.116714 0.394013 0.265678
O O6 0.095643 0.288351 0.284628
O O7 0.687682 0.086399 0.689583
O O8 0.704869 0.246579 0.217377
O O9 0.428492 0.631937 0.055271
O O10 0.666165 0.669297 0.893386
O O11 0.626749 0.881672 0.021704
O O12 0.999615 0.087376 0.933364
O O13 0.541639 0.745801 0.077379
O O14 0.944466 0.055401 0.616414
#
# Coordination Sequence:
#
# PCOD8039412 Si02
#       7
#     2   2   2   2   2   2   2
#     4   8  17  33  54  76 106 140 172 210 263 322
#     4  10  18  33  60  82  98 138 183 226 243 309
#     4   9  19  34  52  81 108 143 169 212 265 325
#     4   9  18  36  55  76 103 143 182 207 263 315
#     4  11  21  33  55  82 112 132 174 221 271 297
#     4   8  17  32  55  76 102 138 182 201 257 312
#     4   9  19  35  55  77 108 142 171 218 265 319
#
# _framework density 19.512332000000001
#
# number of rings (size 3 to 8) (size 9 to 14) (size 15 to 20)
#    0.857    2.000    0.000    3.000    0.000    3.429 
#    0.000    3.571    3.143    0.000    0.000    0.000 
#    0.000    0.000    0.000    0.000    0.000    0.000 
#
# Total GULP energy -173467.975812 kJ/mol
# GULP energy per Si atom -12390.569701 kJ/mol
# Density = 1.946792 g / cm^3
# Si number density = 19.512332 Si / 1000 Ang^3
#
#
#
# Elastic Constant Matrix: (Units=GPa)
#
#
# Indices 1 2 3 4 5 6 
#
# 1 71.6158 31.7101 21.9341 -5.7872 1.9218 -12.5129
# 2 31.7101 91.6635 22.7430 -17.9666 -5.5045 -25.3900
# 3 21.9341 22.7430 130.3148 -11.3626 -1.6029 -3.4783
# 4 -5.7872 -17.9666 -11.3626 22.8822 6.7625 3.4607
# 5 1.9218 -5.5045 -1.6029 6.7625 13.0994 2.3342
# 6 -12.5129 -25.3900 -3.4783 3.4607 2.3342 22.2222
#
#
#
# Elastic Compliance Matrix: (Units=1/GPa)
#
#
# Indices 1 2 3 4 5 6 
#
# 1 0.017664 -0.004328 -0.002061 0.001080 -0.006139 0.005155
# 2 -0.004328 0.020064 -0.001298 0.011273 -0.000218 0.018551
# 3 -0.002061 -0.001298 0.008462 0.003068 -0.000480 -0.001746
# 4 0.001080 0.011273 0.003068 0.061554 -0.028130 0.007337
# 5 -0.006139 -0.000218 -0.000480 -0.028130 0.093250 -0.009195
# 6 0.005155 0.018551 -0.001746 0.007337 -0.009195 0.068648
#
#
# Mechanical properties :
#
#
# Convention : Reuss Voigt Hill
#
# Bulk Modulus (GPa) = 32.45178 49.59651 41.02415
# Shear Modulus (GPa) = 16.93264 26.12123 21.52693
#
# Velocity S-wave (km/s) = 2.94903 3.66280 3.32512
# Velocity P-wave (km/s) = 5.31631 6.58493 5.98434
#
# Compressibility (1/GPa) = 0.03081495
#
# Stress axis : x y z
#
# Youngs Moduli (GPa) = 56.61248 49.84110 118.17331
#
# Poissons Ratio (x) = 0.21573 0.24361
# Poissons Ratio (y) = 0.24504 0.15335
# Poissons Ratio (z) = 0.11671 0.06468
#
# Static dielectric constant tensor:
#      x y z
#    x 3.325290 0.044010 -0.122100 
#    y 0.044010 3.105440 -0.117550 
#    z -0.122100 -0.117550 3.686220 
# 
# 
# High freq. dielectric constant tensor:
#      x y z
#    x 1.741300 -0.000370 -0.008610 
#    y -0.000370 1.718270 -0.017350 
#    z -0.008610 -0.017350 1.766710 
# 
# From -- ./inp_files/407484.got.cif
#   From: 2010.06.25/outbox.cif.g09.slc.cpg/sg2_204_cif.got.tgz:407484.got - 2010.06.27 13:26:56.
