data_PCOD8039213
_publ_section_title
;
Structure prediction by ZEFSAII (Michael W. Deem and Ramdas Pophale) SiO2 
 PCOD8039213
Probable space group: P -1
;
_chemical_formula_sum "Si O2"
_cell_formula_units_Z 14
_cell_length_a 16.027515
_cell_length_b 9.930912
_cell_length_c 13.145064
_cell_angle_alpha 93.050004
_cell_angle_beta 25.659119
_cell_angle_gamma 101.972591
_cell_volume 840.919171
_symmetry_space_group_name_H-M "P -1"
_symmetry_group_IT_number 2
_symmetry_cell_setting 'triclinic'
loop_
_space_group_symop_operation_xyz
x,y,z
-x,-y,-z
loop_
_atom_site_type_symbol
_atom_site_label
_atom_site_fract_x
_atom_site_fract_y
_atom_site_fract_z
Si Si1 0.813799 0.837479 0.939200
Si Si2 0.517320 0.950420 0.366414
Si Si3 0.611261 0.684929 0.786429
Si Si4 0.537709 0.364201 0.827607
Si Si5 0.216717 0.800261 0.534128
Si Si6 0.536382 0.094098 0.151959
Si Si7 0.959036 0.085641 0.642108
O O1 0.970867 0.763570 0.802785
O O2 0.949857 0.992689 0.749254
O O3 0.682117 0.869111 0.177446
O O4 0.665379 0.739740 0.011772
O O5 0.296391 0.833882 0.565012
O O6 0.500000 0.000000 0.500000
O O7 0.583215 0.089257 0.222089
O O8 0.569879 0.529550 0.775514
O O9 0.532239 0.773671 0.795421
O O10 0.855603 0.760083 0.542811
O O11 0.485012 0.668807 0.028999
O O12 0.740436 0.337139 0.563502
O O13 0.351623 0.940205 0.321719
O O14 0.743544 0.109724 0.862301
O O15 0.000000 0.000000 0.500000
#
# Coordination Sequence:
#
# PCOD8039213 Si02
#       7
#     2   2   2   2   2   2   2
#     4  10  18  33  52  77 101 136 173 203 258 303
#     4   8  17  34  53  80 103 120 169 226 257 295
#     4  11  21  33  48  74 108 142 174 205 248 293
#     4  10  22  33  46  74 111 141 169 209 245 298
#     4   9  18  33  52  75  99 135 167 210 253 301
#     4   9  20  31  51  78  96 134 174 208 249 302
#     4  11  18  30  50  74  99 136 171 212 242 296
#
# _framework density 16.648448999999999
#
# number of rings (size 3 to 8) (size 9 to 14) (size 15 to 20)
#    0.857    1.429    4.286    0.000    2.000    2.857 
#    0.000    2.857    0.000    3.429    0.000   18.000 
#    0.000    0.000    0.000    0.000    0.000    0.000 
#
# Total GULP energy -173484.285474 kJ/mol
# GULP energy per Si atom -12391.734677 kJ/mol
# Density = 1.661056 g / cm^3
# Si number density = 16.648449 Si / 1000 Ang^3
#
#
#
# Elastic Constant Matrix: (Units=GPa)
#
#
# Indices 1 2 3 4 5 6 
#
# 1 69.7107 43.9441 41.9479 26.2646 -1.5987 -3.8065
# 2 43.9441 109.7602 37.2981 19.6900 3.3735 -3.8260
# 3 41.9479 37.2981 69.8525 24.8158 -10.7524 -3.0178
# 4 26.2646 19.6900 24.8158 30.8551 -3.8003 -2.8190
# 5 -1.5987 3.3735 -10.7524 -3.8003 27.7668 9.4849
# 6 -3.8065 -3.8260 -3.0178 -2.8190 9.4849 22.1428
#
#
#
# Elastic Compliance Matrix: (Units=1/GPa)
#
#
# Indices 1 2 3 4 5 6 
#
# 1 0.029105 -0.005512 -0.010424 -0.013163 -0.004473 0.002871
# 2 -0.005512 0.013015 -0.003938 -0.000755 -0.004399 0.002553
# 3 -0.010424 -0.003938 0.027684 -0.009969 0.010805 -0.004597
# 4 -0.013163 -0.000755 -0.009969 0.052546 0.001946 0.002104
# 5 -0.004473 -0.004399 0.010805 0.001946 0.047648 -0.020219
# 6 0.002871 0.002553 -0.004597 0.002104 -0.020219 0.054398
#
#
# Mechanical properties :
#
#
# Convention : Reuss Voigt Hill
#
# Bulk Modulus (GPa) = 33.26896 55.07818 44.17357
# Shear Modulus (GPa) = 18.23722 24.56182 21.39952
#
# Velocity S-wave (km/s) = 3.31332 3.84516 3.58910
# Velocity P-wave (km/s) = 5.88762 7.27108 6.61561
#
# Compressibility (1/GPa) = 0.03005804
#
# Stress axis : x y z
#
# Youngs Moduli (GPa) = 34.35781 76.83180 36.12130
#
# Poissons Ratio (x) = 0.42348 0.37651
# Poissons Ratio (y) = 0.18937 0.14226
# Poissons Ratio (z) = 0.35813 0.30259
#
# Static dielectric constant tensor:
#      x y z
#    x 2.888390 -0.053130 -0.245590 
#    y -0.053130 3.055550 0.090800 
#    z -0.245590 0.090800 3.161190 
# 
# 
# High freq. dielectric constant tensor:
#      x y z
#    x 1.620630 -0.003000 -0.019900 
#    y -0.003000 1.629600 0.016130 
#    z -0.019900 0.016130 1.631240 
# 
# From -- ./inp_files/273432.got.cif
#   From: 2010.06.25/outbox.cif.g09.slc.cpg/sg2_137_cif.got.tgz:273432.got - 2010.06.27 13:26:56.
