data_PCOD8039454
_publ_section_title
;
Structure prediction by ZEFSAII (Michael W. Deem and Ramdas Pophale) SiO2 
 PCOD8039454
Probable space group: P -1
;
_chemical_formula_sum "Si O2"
_cell_formula_units_Z 16
_cell_length_a 11.242460
_cell_length_b 13.501851
_cell_length_c 8.404324
_cell_angle_alpha 99.973818
_cell_angle_beta 139.362573
_cell_angle_gamma 62.628700
_cell_volume 702.961307
_symmetry_space_group_name_H-M "P -1"
_symmetry_group_IT_number 2
_symmetry_cell_setting 'triclinic'
loop_
_space_group_symop_operation_xyz
x,y,z
-x,-y,-z
loop_
_atom_site_type_symbol
_atom_site_label
_atom_site_fract_x
_atom_site_fract_y
_atom_site_fract_z
Si Si1 0.960859 0.384016 0.757298
Si Si2 0.468909 0.739408 0.035373
Si Si3 0.607838 0.808836 0.502100
Si Si4 0.938253 0.416649 0.082760
Si Si5 0.007745 0.095895 0.430734
Si Si6 0.649984 0.013398 0.471705
Si Si7 0.195806 0.521662 0.703198
Si Si8 0.314077 0.157730 0.932278
O O1 0.820635 0.409027 0.459096
O O2 0.075233 0.459621 0.890507
O O3 0.144773 0.248439 0.912668
O O4 0.831831 0.409847 0.803664
O O5 0.480545 0.792533 0.228161
O O6 0.579731 0.598984 0.107761
O O7 0.574057 0.779515 0.020795
O O8 0.220866 0.787709 0.770206
O O9 0.442595 0.862221 0.496454
O O10 0.816462 0.684693 0.708553
O O11 0.667734 0.907544 0.561511
O O12 0.826693 0.407921 0.132452
O O13 0.181509 0.128896 0.666928
O O14 0.106838 0.030499 0.345291
O O15 0.000000 0.000000 0.500000
O O16 0.489710 0.040321 0.166173
O O17 0.000000 0.500000 0.500000
#
# Coordination Sequence:
#
# PCOD8039454 Si02
#       8
#     2   2   2   2   2   2   2   2
#     4  10  19  33  65  98 121 166 216 265 329 387
#     4  12  22  41  67  94 130 169 211 273 328 387
#     4  11  21  39  66  92 131 171 216 264 329 387
#     4  10  18  33  63 100 124 163 222 264 322 399
#     4  12  26  40  64  98 128 172 223 266 322 390
#     4  11  24  39  64  97 125 176 218 263 325 386
#     4  10  18  34  62  96 124 167 212 262 327 390
#     4  12  21  43  68  92 129 169 220 267 324 390
#
# _framework density 22.760854999999999
#
# number of rings (size 3 to 8) (size 9 to 14) (size 15 to 20)
#    0.000    1.000    8.750    1.125    0.000    0.500 
#    0.000    0.625    0.000    0.750    0.000    0.000 
#    0.000    0.000    0.000    0.000    0.000    0.000 
#
# Total GULP energy -198237.360303 kJ/mol
# GULP energy per Si atom -12389.835019 kJ/mol
# Density = 2.270905 g / cm^3
# Si number density = 22.760855 Si / 1000 Ang^3
#
#
#
# Elastic Constant Matrix: (Units=GPa)
#
#
# Indices 1 2 3 4 5 6 
#
# 1 110.3711 31.3627 46.7895 2.7741 -17.2998 -41.9642
# 2 31.3627 87.2092 22.5499 -20.3683 10.6551 -31.5790
# 3 46.7895 22.5499 70.9376 -19.7862 -12.7637 -22.5400
# 4 2.7741 -20.3683 -19.7862 36.2109 -15.6326 -3.6026
# 5 -17.2998 10.6551 -12.7637 -15.6326 39.0595 -0.5456
# 6 -41.9642 -31.5790 -22.5400 -3.6026 -0.5456 44.2798
#
#
#
# Elastic Compliance Matrix: (Units=1/GPa)
#
#
# Indices 1 2 3 4 5 6 
#
# 1 0.018158 -0.001523 -0.007681 -0.003154 0.004853 0.012015
# 2 -0.001523 0.020800 0.005451 0.017753 0.002784 0.017644
# 3 -0.007681 0.005451 0.036873 0.034868 0.021373 0.018478
# 4 -0.003154 0.017753 0.034868 0.075811 0.035971 0.034031
# 5 0.004853 0.002784 0.021373 0.035971 0.048666 0.020991
# 6 0.012015 0.017644 0.018478 0.034031 0.020991 0.058987
#
#
# Mechanical properties :
#
#
# Convention : Reuss Voigt Hill
#
# Bulk Modulus (GPa) = 14.63587 52.21357 33.42472
# Shear Modulus (GPa) = 17.26671 35.09775 26.18223
#
# Velocity S-wave (km/s) = 2.75728 3.93112 3.39531
# Velocity P-wave (km/s) = 4.07198 6.60264 5.48525
#
# Compressibility (1/GPa) = 0.06832529
#
# Stress axis : x y z
#
# Youngs Moduli (GPa) = 55.07333 48.07723 27.12011
#
# Poissons Ratio (x) = 0.07320 0.20832
# Poissons Ratio (y) = 0.08385 -0.14784
# Poissons Ratio (z) = 0.42304 -0.26209
#
# Static dielectric constant tensor:
#      x y z
#    x 4.518870 -0.604490 -0.492110 
#    y -0.604490 4.243980 -0.186450 
#    z -0.492110 -0.186450 4.249890 
# 
# 
# High freq. dielectric constant tensor:
#      x y z
#    x 1.890060 -0.035340 -0.029400 
#    y -0.035340 1.909570 -0.024230 
#    z -0.029400 -0.024230 1.875370 
# 
# From -- ./inp_files/273512.got.cif
#   From: 2010.06.25/outbox.cif.g09.slc.cpg/sg2_137_cif.got.tgz:273512.got - 2010.06.27 13:26:56.
