data_PCOD8039517
_publ_section_title
;
Structure prediction by ZEFSAII (Michael W. Deem and Ramdas Pophale) SiO2 
 PCOD8039517
Probable space group: P -1
;
_chemical_formula_sum "Si O2"
_cell_formula_units_Z 16
_cell_length_a 10.125811
_cell_length_b 19.938751
_cell_length_c 22.595239
_cell_angle_alpha 17.291282
_cell_angle_beta 41.140397
_cell_angle_gamma 39.859119
_cell_volume 864.132831
_symmetry_space_group_name_H-M "P -1"
_symmetry_group_IT_number 2
_symmetry_cell_setting 'triclinic'
loop_
_space_group_symop_operation_xyz
x,y,z
-x,-y,-z
loop_
_atom_site_type_symbol
_atom_site_label
_atom_site_fract_x
_atom_site_fract_y
_atom_site_fract_z
Si Si1 0.827953 0.881540 0.475217
Si Si2 0.451770 0.774760 0.638385
Si Si3 0.764718 0.803302 0.066221
Si Si4 0.382705 0.360779 0.085409
Si Si5 0.187700 0.716018 0.942217
Si Si6 0.275328 0.677806 0.540749
Si Si7 0.518702 0.226952 0.718581
Si Si8 0.239906 0.933100 0.460572
O O1 0.697083 0.748013 0.589468
O O2 0.042717 0.715173 0.562832
O O3 0.681673 0.977107 0.500466
O O4 0.891553 0.090039 0.243751
O O5 0.390440 0.771384 0.593475
O O6 0.380753 0.568995 0.866745
O O7 0.654377 0.606572 0.241310
O O8 0.699324 0.821202 0.143593
O O9 0.012219 0.721991 0.045359
O O10 0.689114 0.052821 0.848873
O O11 0.612830 0.232219 0.137150
O O12 0.294853 0.180670 0.228720
O O13 0.246411 0.461560 0.105004
O O14 0.416257 0.809325 0.341872
O O15 0.283611 0.786923 0.509547
O O16 0.500000 0.500000 0.500000
O O17 0.000000 0.000000 0.500000
#
# Coordination Sequence:
#
# PCOD8039517 Si02
#       8
#     2   2   2   2   2   2   2   2
#     4  10  18  34  55  77 107 147 191 229 268 314
#     4  10  21  35  51  74 111 152 191 226 259 322
#     4  10  19  34  59  84 109 142 187 234 285 324
#     4  10  22  35  53  82 116 149 191 223 266 335
#     4  10  18  34  59  83 108 147 191 235 272 320
#     4  11  21  34  55  82 116 147 180 230 281 333
#     4   9  20  36  54  84 111 140 185 237 282 331
#     4  12  23  35  50  80 120 154 184 221 278 335
#
# _framework density 18.515671999999999
#
# number of rings (size 3 to 8) (size 9 to 14) (size 15 to 20)
#    0.000    1.750    3.750    1.500    1.750    1.500 
#    0.000    0.000    0.000    0.750    0.000   30.625 
#    0.000    0.000    0.000    0.000    0.000    0.000 
#
# Total GULP energy -198223.815684 kJ/mol
# GULP energy per Si atom -12388.988480 kJ/mol
# Density = 1.847353 g / cm^3
# Si number density = 18.515672 Si / 1000 Ang^3
#
#
#
# Elastic Constant Matrix: (Units=GPa)
#
#
# Indices 1 2 3 4 5 6 
#
# 1 100.5192 50.1030 33.2554 0.8114 -0.8466 8.4395
# 2 50.1030 122.5791 29.5054 21.1527 -1.5176 -1.3354
# 3 33.2554 29.5054 88.3111 -6.8499 3.2401 -2.2674
# 4 0.8114 21.1527 -6.8499 27.5654 -0.8040 0.0298
# 5 -0.8466 -1.5176 3.2401 -0.8040 26.3902 1.4993
# 6 8.4395 -1.3354 -2.2674 0.0298 1.4993 24.0247
#
#
#
# Elastic Compliance Matrix: (Units=1/GPa)
#
#
# Indices 1 2 3 4 5 6 
#
# 1 0.014363 -0.005610 -0.003481 0.003052 0.000985 -0.005751
# 2 -0.005610 0.013035 -0.003019 -0.010576 0.000482 0.002393
# 3 -0.003481 -0.003019 0.014239 0.005897 -0.001997 0.002516
# 4 0.003052 -0.010576 0.005897 0.045776 0.000227 -0.001174
# 5 0.000985 0.000482 -0.001997 0.000227 0.038369 -0.002902
# 6 -0.005751 0.002393 0.002516 -0.001174 -0.002902 0.044197
#
#
# Mechanical properties :
#
#
# Convention : Reuss Voigt Hill
#
# Bulk Modulus (GPa) = 57.42024 59.68191 58.55107
# Shear Modulus (GPa) = 24.99945 28.83243 26.91594
#
# Velocity S-wave (km/s) = 3.67846 3.95041 3.81686
# Velocity P-wave (km/s) = 7.00860 7.28771 7.14952
#
# Compressibility (1/GPa) = 0.01741546
#
# Stress axis : x y z
#
# Youngs Moduli (GPa) = 69.62439 76.71832 70.23183
#
# Poissons Ratio (x) = 0.43037 0.24451
# Poissons Ratio (y) = 0.39057 0.21204
# Poissons Ratio (z) = 0.24239 0.23162
#
# Static dielectric constant tensor:
#      x y z
#    x 3.166410 -0.018330 0.158640 
#    y -0.018330 3.747640 0.185720 
#    z 0.158640 0.185720 3.650950 
# 
# 
# High freq. dielectric constant tensor:
#      x y z
#    x 1.679750 -0.013040 0.020540 
#    y -0.013040 1.712200 0.012870 
#    z 0.020540 0.012870 1.742480 
# 
# From -- ./inp_files/299714.got.cif
#   From: 2010.06.25/outbox.cif.g09.slc.cpg/sg2_150_cif.got.tgz:299714.got - 2010.06.27 13:26:56.
