data_PCOD8039103
_publ_section_title
;
Structure prediction by ZEFSAII (Michael W. Deem and Ramdas Pophale) SiO2 
 PCOD8039103
Probable space group: P -1
;
_chemical_formula_sum "Si O2"
_cell_formula_units_Z 16
_cell_length_a 8.643156
_cell_length_b 11.612467
_cell_length_c 11.780043
_cell_angle_alpha 52.420397
_cell_angle_beta 60.668482
_cell_angle_gamma 81.380021
_cell_volume 797.701869
_symmetry_space_group_name_H-M "P -1"
_symmetry_group_IT_number 2
_symmetry_cell_setting 'triclinic'
loop_
_space_group_symop_operation_xyz
x,y,z
-x,-y,-z
loop_
_atom_site_type_symbol
_atom_site_label
_atom_site_fract_x
_atom_site_fract_y
_atom_site_fract_z
Si Si1 0.823736 0.754375 0.926172
Si Si2 0.784528 0.398536 0.532603
Si Si3 0.926313 0.979850 0.219038
Si Si4 0.465832 0.825622 0.103972
Si Si5 0.170601 0.340969 0.479005
Si Si6 0.038843 0.428077 0.833159
Si Si7 0.709650 0.573769 0.862678
Si Si8 0.159083 0.846883 0.048128
O O1 0.774696 0.715774 0.836422
O O2 0.648828 0.774844 0.044491
O O3 0.882625 0.614510 0.050652
O O4 0.984603 0.903183 0.784906
O O5 0.618516 0.257913 0.699448
O O6 0.735842 0.538220 0.534182
O O7 0.819641 0.437724 0.362395
O O8 0.959670 0.347246 0.550124
O O9 0.808470 0.826303 0.401272
O O10 0.096149 0.950184 0.103207
O O11 0.793725 0.055068 0.142655
O O12 0.328766 0.782739 0.071762
O O13 0.500000 0.000000 0.000000
O O14 0.271321 0.375625 0.303624
O O15 0.841907 0.462150 0.908467
O O16 0.007343 0.291056 0.837492
O O17 0.500000 0.500000 0.000000
#
# Coordination Sequence:
#
# PCOD8039103 Si02
#       8
#     2   2   2   2   2   2   2   2
#     4  11  23  37  56  86 117 155 191 228 285 343
#     4  10  18  32  56  85 112 144 188 238 289 329
#     4  10  19  34  58  84 110 149 186 231 288 335
#     4  12  21  34  54  85 122 148 187 235 283 341
#     4  10  18  34  58  84 111 145 192 236 282 342
#     4  10  21  38  62  83 112 150 195 240 279 342
#     4  11  23  39  59  81 114 157 193 234 283 340
#     4  10  18  34  57  83 114 144 185 230 289 340
#
# _framework density 20.057617
#
# number of rings (size 3 to 8) (size 9 to 14) (size 15 to 20)
#    0.000    1.500    3.750    3.375    0.000    1.000 
#    0.000    1.250    0.000    8.250    0.000    0.000 
#    0.000    0.000    0.000    0.000    0.000    0.000 
#
# Total GULP energy -198347.626131 kJ/mol
# GULP energy per Si atom -12396.726633 kJ/mol
# Density = 2.001197 g / cm^3
# Si number density = 20.057617 Si / 1000 Ang^3
#
#
#
# Elastic Constant Matrix: (Units=GPa)
#
#
# Indices 1 2 3 4 5 6 
#
# 1 59.4904 14.4359 31.7856 2.3697 0.6303 -10.5707
# 2 14.4359 78.4496 42.0618 -1.4230 -7.5730 4.7411
# 3 31.7856 42.0618 123.4493 -13.4849 -6.8805 -10.3015
# 4 2.3697 -1.4230 -13.4849 31.8204 -3.4119 1.2521
# 5 0.6303 -7.5730 -6.8805 -3.4119 20.2507 -2.3739
# 6 -10.5707 4.7411 -10.3015 1.2521 -2.3739 34.3575
#
#
#
# Elastic Compliance Matrix: (Units=1/GPa)
#
#
# Indices 1 2 3 4 5 6 
#
# 1 0.021064 -0.001898 -0.004993 -0.004315 -0.003181 0.005183
# 2 -0.001898 0.016594 -0.005395 -0.000830 0.003800 -0.004198
# 3 -0.004993 -0.005395 0.012282 0.005606 0.003600 0.002935
# 4 -0.004315 -0.000830 0.005606 0.034910 0.007577 -0.000281
# 5 -0.003181 0.003800 0.003600 0.007577 0.053754 0.003014
# 6 0.005183 -0.004198 0.002935 -0.000281 0.003014 0.032378
#
#
# Mechanical properties :
#
#
# Convention : Reuss Voigt Hill
#
# Bulk Modulus (GPa) = 39.41700 48.66177 44.03938
# Shear Modulus (GPa) = 24.50860 28.82612 26.66736
#
# Velocity S-wave (km/s) = 3.49938 3.79511 3.65024
# Velocity P-wave (km/s) = 6.00184 6.59678 6.30633
#
# Compressibility (1/GPa) = 0.02536977
#
# Stress axis : x y z
#
# Youngs Moduli (GPa) = 47.47382 60.26242 81.41912
#
# Poissons Ratio (x) = 0.11435 0.40654
# Poissons Ratio (y) = 0.09008 0.43923
# Poissons Ratio (z) = 0.23704 0.32509
#
# Static dielectric constant tensor:
#      x y z
#    x 3.674750 -0.040040 0.181650 
#    y -0.040040 3.803750 -0.239540 
#    z 0.181650 -0.239540 3.665680 
# 
# 
# High freq. dielectric constant tensor:
#      x y z
#    x 1.766060 -0.000830 0.011730 
#    y -0.000830 1.776000 -0.015370 
#    z 0.011730 -0.015370 1.775570 
# 
# From -- ./inp_files/258237.got.cif
#   From: 2010.06.25/outbox.cif.g09.slc.cpg/sg2_130_cif.got.tgz:258237.got - 2010.06.27 13:26:56.
