data_PCOD8039361
_publ_section_title
;
Structure prediction by ZEFSAII (Michael W. Deem and Ramdas Pophale) SiO2 
 PCOD8039361
Probable space group: P -1
;
_chemical_formula_sum "Si O2"
_cell_formula_units_Z 16
_cell_length_a 8.783827
_cell_length_b 15.689859
_cell_length_c 10.671823
_cell_angle_alpha 142.883006
_cell_angle_beta 85.748287
_cell_angle_gamma 114.014770
_cell_volume 722.233067
_symmetry_space_group_name_H-M "P -1"
_symmetry_group_IT_number 2
_symmetry_cell_setting 'triclinic'
loop_
_space_group_symop_operation_xyz
x,y,z
-x,-y,-z
loop_
_atom_site_type_symbol
_atom_site_label
_atom_site_fract_x
_atom_site_fract_y
_atom_site_fract_z
Si Si1 0.865867 0.593218 0.372288
Si Si2 0.662276 0.803565 0.041312
Si Si3 0.941452 0.945937 0.797336
Si Si4 0.361009 0.772754 0.161750
Si Si5 0.823798 0.171822 0.980576
Si Si6 0.661432 0.344043 0.304490
Si Si7 0.753677 0.543261 0.771651
Si Si8 0.163225 0.625167 0.232860
O O1 0.827768 0.740232 0.542503
O O2 0.827795 0.521289 0.432261
O O3 0.080175 0.678016 0.412254
O O4 0.726459 0.428603 0.100800
O O5 0.539119 0.740822 0.848639
O O6 0.655304 0.641346 0.905949
O O7 0.579545 0.868916 0.226873
O O8 0.872637 0.963099 0.190729
O O9 0.806478 0.999191 0.819497
O O10 0.000000 0.000000 0.000000
O O11 0.326889 0.787352 0.328723
O O12 0.269501 0.848386 0.173125
O O13 0.718325 0.209169 0.135974
O O14 0.038254 0.331181 0.147081
O O15 0.639904 0.384181 0.494588
O O16 0.751490 0.470005 0.822170
O O17 0.000000 0.500000 0.000000
#
# Coordination Sequence:
#
# PCOD8039361 Si02
#       8
#     2   2   2   2   2   2   2   2
#     4   9  18  34  58  85 108 142 186 232 268 317
#     4   9  21  36  53  81 118 147 170 230 288 325
#     4  11  22  34  56  84 119 142 178 223 283 339
#     4   9  19  40  60  76 111 143 195 233 263 316
#     4   9  18  33  55  80 110 148 175 222 280 330
#     4  10  19  35  58  85 113 142 186 225 276 335
#     4  11  17  28  59  86 106 143 190 226 275 321
#     4  10  18  33  58  86 105 138 199 241 254 307
#
# _framework density 22.153514000000001
#
# number of rings (size 3 to 8) (size 9 to 14) (size 15 to 20)
#    0.000    2.500    3.750    2.250    1.750    1.500 
#    0.000    3.750   11.000    0.000    0.000    0.000 
#    0.000    0.000    0.000    0.000    0.000    0.000 
#
# Total GULP energy -198288.664574 kJ/mol
# GULP energy per Si atom -12393.041536 kJ/mol
# Density = 2.210309 g / cm^3
# Si number density = 22.153514 Si / 1000 Ang^3
#
#
#
# Elastic Constant Matrix: (Units=GPa)
#
#
# Indices 1 2 3 4 5 6 
#
# 1 114.9008 30.7243 24.6274 12.0913 -18.0067 -25.7929
# 2 30.7243 88.6454 29.6893 -3.0131 -14.1742 -14.2021
# 3 24.6274 29.6893 62.1951 11.1184 -20.0971 -19.7004
# 4 12.0913 -3.0131 11.1184 21.6536 -13.6864 -6.2407
# 5 -18.0067 -14.1742 -20.0971 -13.6864 21.1325 8.6345
# 6 -25.7929 -14.2021 -19.7004 -6.2407 8.6345 38.9416
#
#
#
# Elastic Compliance Matrix: (Units=1/GPa)
#
#
# Indices 1 2 3 4 5 6 
#
# 1 0.011524 -0.002591 0.000306 -0.002536 0.004509 0.005437
# 2 -0.002591 0.016750 -0.004812 0.015410 0.013879 0.001350
# 3 0.000306 -0.004812 0.027036 -0.000192 0.019439 0.007784
# 4 -0.002536 0.015410 -0.000192 0.093138 0.066685 0.003983
# 5 0.004509 0.013879 0.019439 0.066685 0.121479 0.001634
# 6 0.005437 0.001350 0.007784 0.003983 0.001634 0.033987
#
#
# Mechanical properties :
#
#
# Convention : Reuss Voigt Hill
#
# Bulk Modulus (GPa) = 24.32144 48.42482 36.37313
# Shear Modulus (GPa) = 15.06871 28.39223 21.73047
#
# Velocity S-wave (km/s) = 2.61088 3.58385 3.13534
# Velocity P-wave (km/s) = 4.48234 6.24752 5.43704
#
# Compressibility (1/GPa) = 0.04111599
#
# Stress axis : x y z
#
# Youngs Moduli (GPa) = 86.77276 59.70150 36.98813
#
# Poissons Ratio (x) = 0.15468 -0.01132
# Poissons Ratio (y) = 0.22482 0.17799
# Poissons Ratio (z) = -0.02655 0.28729
#
# Static dielectric constant tensor:
#      x y z
#    x 4.394050 0.279940 -0.286910 
#    y 0.279940 4.514280 -0.006330 
#    z -0.286910 -0.006330 3.528300 
# 
# 
# High freq. dielectric constant tensor:
#      x y z
#    x 1.878470 0.002950 -0.015030 
#    y 0.002950 1.866730 0.003180 
#    z -0.015030 0.003180 1.835350 
# 
# From -- ./inp_files/399809.got.cif
#   From: 2010.06.25/outbox.cif.g09.slc.cpg/sg2_200_cif.got.tgz:399809.got - 2010.06.27 13:26:56.
