data_PCOD8039089
_publ_section_title
;
Structure prediction by ZEFSAII (Michael W. Deem and Ramdas Pophale) SiO2 
 PCOD8039089
Probable space group: P -1
;
_chemical_formula_sum "Si O2"
_cell_formula_units_Z 14
_cell_length_a 9.588759
_cell_length_b 24.697970
_cell_length_c 8.708466
_cell_angle_alpha 129.028186
_cell_angle_beta 78.025742
_cell_angle_gamma 142.424574
_cell_volume 769.953616
_symmetry_space_group_name_H-M "P -1"
_symmetry_group_IT_number 2
_symmetry_cell_setting 'triclinic'
loop_
_space_group_symop_operation_xyz
x,y,z
-x,-y,-z
loop_
_atom_site_type_symbol
_atom_site_label
_atom_site_fract_x
_atom_site_fract_y
_atom_site_fract_z
Si Si1 0.057906 0.105986 0.663736
Si Si2 0.575043 0.881784 0.165409
Si Si3 0.258298 0.159418 0.174049
Si Si4 0.687269 0.171132 0.163938
Si Si5 0.803047 0.363915 0.605706
Si Si6 0.322329 0.677764 0.092280
Si Si7 0.116803 0.895794 0.988542
O O1 0.405157 0.260364 0.844156
O O2 0.926974 0.093422 0.812100
O O3 0.000000 0.000000 0.500000
O O4 0.871526 0.047389 0.449107
O O5 0.381026 0.776412 0.168313
O O6 0.623329 0.825873 0.980812
O O7 0.423608 0.869771 0.059616
O O8 0.503931 0.270143 0.444702
O O9 0.140213 0.186081 0.209400
O O10 0.000000 0.000000 0.000000
O O11 0.865690 0.316105 0.426124
O O12 0.422195 0.052423 0.131829
O O13 0.896258 0.193472 0.165881
O O14 0.783755 0.344324 0.756064
O O15 0.067598 0.527521 0.794714
#
# Coordination Sequence:
#
# PCOD8039089 Si02
#       7
#     2   2   2   2   2   2   2
#     4  10  18  32  56  80 104 135 176 224 251 307
#     4  10  19  32  57  81 104 134 181 220 257 302
#     4  11  18  32  57  81 101 138 180 219 254 313
#     4  10  22  34  53  82 111 139 169 218 267 317
#     4  10  21  36  56  78 107 137 181 217 266 309
#     4  10  20  34  58  80 102 140 178 225 258 304
#     4  11  20  35  53  82 110 139 172 213 274 306
#
# _framework density 18.182914
#
# number of rings (size 3 to 8) (size 9 to 14) (size 15 to 20)
#    0.000    1.714    5.714    2.571    0.000    2.857 
#    0.000    0.714    0.000    1.714    0.000    0.000 
#    0.000    0.000    0.000    0.000    0.000    0.000 
#
# Total GULP energy -173519.715651 kJ/mol
# GULP energy per Si atom -12394.265404 kJ/mol
# Density = 1.814153 g / cm^3
# Si number density = 18.182914 Si / 1000 Ang^3
#
#
#
# Elastic Constant Matrix: (Units=GPa)
#
#
# Indices 1 2 3 4 5 6 
#
# 1 134.9290 12.7598 42.8130 -2.1730 5.1484 -4.0082
# 2 12.7598 49.9292 19.2493 1.0693 8.1240 -1.5225
# 3 42.8130 19.2493 114.9296 8.7450 17.3351 -2.9468
# 4 -2.1730 1.0693 8.7450 28.9387 4.7528 1.5543
# 5 5.1484 8.1240 17.3351 4.7528 20.7979 -6.4186
# 6 -4.0082 -1.5225 -2.9468 1.5543 -6.4186 20.2315
#
#
#
# Elastic Compliance Matrix: (Units=1/GPa)
#
#
# Indices 1 2 3 4 5 6 
#
# 1 0.008567 -0.001109 -0.003247 0.001406 0.001126 0.001390
# 2 -0.001109 0.022317 -0.002367 0.001035 -0.007081 -0.001211
# 3 -0.003247 -0.002367 0.011635 -0.002298 -0.007893 -0.001454
# 4 0.001406 0.001035 -0.002298 0.037116 -0.009081 -0.005711
# 5 0.001126 -0.007081 -0.007893 -0.009081 0.065391 0.019984
# 6 0.001390 -0.001211 -0.001454 -0.005711 0.019984 0.056179
#
#
# Mechanical properties :
#
#
# Convention : Reuss Voigt Hill
#
# Bulk Modulus (GPa) = 34.39401 49.93690 42.16545
# Shear Modulus (GPa) = 22.28745 28.99133 25.63939
#
# Velocity S-wave (km/s) = 3.50485 3.99736 3.75918
# Velocity P-wave (km/s) = 5.94435 6.98773 6.48705
#
# Compressibility (1/GPa) = 0.02907483
#
# Stress axis : x y z
#
# Youngs Moduli (GPa) = 116.72169 44.80869 85.94718
#
# Poissons Ratio (x) = 0.04968 0.27907
# Poissons Ratio (y) = 0.12940 0.20341
# Poissons Ratio (z) = 0.37900 0.10605
#
# Static dielectric constant tensor:
#      x y z
#    x 3.586000 0.189700 0.154890 
#    y 0.189700 3.568090 -0.268100 
#    z 0.154890 -0.268100 3.802270 
# 
# 
# High freq. dielectric constant tensor:
#      x y z
#    x 1.682710 -0.000730 0.017370 
#    y -0.000730 1.702620 -0.018620 
#    z 0.017370 -0.018620 1.699320 
# 
# From -- ./inp_files/167730.got.cif
#   From: 2010.06.25/outbox.cif.g09.slc.cpg/sg2_84_cif.got.tgz:167730.got - 2010.06.27 13:26:56.
