data_PCOD8039918
_publ_section_title
;
Structure prediction by ZEFSAII (Michael W. Deem and Ramdas Pophale) SiO2 
 PCOD8039918
Probable space group: P -1
;
_chemical_formula_sum "Si O2"
_cell_formula_units_Z 16
_cell_length_a 10.792016
_cell_length_b 19.412101
_cell_length_c 8.496363
_cell_angle_alpha 120.210235
_cell_angle_beta 72.845306
_cell_angle_gamma 148.020445
_cell_volume 780.119353
_symmetry_space_group_name_H-M "P -1"
_symmetry_group_IT_number 2
_symmetry_cell_setting 'triclinic'
loop_
_space_group_symop_operation_xyz
x,y,z
-x,-y,-z
loop_
_atom_site_type_symbol
_atom_site_label
_atom_site_fract_x
_atom_site_fract_y
_atom_site_fract_z
Si Si1 0.784476 0.115283 0.851416
Si Si2 0.590020 0.804651 0.826096
Si Si3 0.602672 0.441337 0.539462
Si Si4 0.385614 0.301237 0.033455
Si Si5 0.706211 0.540627 0.961163
Si Si6 0.342245 0.985863 0.872555
Si Si7 0.052246 0.966806 0.305245
Si Si8 0.823100 0.702893 0.629406
O O1 0.780371 0.020842 0.686803
O O2 0.547170 0.035849 0.775623
O O3 0.770571 0.113347 0.043848
O O4 0.026991 0.286749 0.903374
O O5 0.387557 0.645564 0.626933
O O6 0.637334 0.790219 0.960887
O O7 0.831082 0.928457 0.769019
O O8 0.522150 0.860690 0.954119
O O9 0.693101 0.488471 0.738719
O O10 0.778943 0.584337 0.520075
O O11 0.322685 0.330462 0.498035
O O12 0.304304 0.334794 0.204163
O O13 0.650299 0.450936 0.024470
O O14 0.204152 0.203877 0.842643
O O15 0.500000 0.500000 0.000000
O O16 0.111727 0.875944 0.712872
O O17 0.000000 0.000000 0.500000
#
# Coordination Sequence:
#
# PCOD8039918 Si02
#       8
#     2   2   2   2   2   2   2   2
#     4  10  21  36  62  85 115 163 197 235 292 364
#     4  10  22  35  58  90 117 154 196 246 295 343
#     4  10  20  31  56  93 114 142 198 251 295 327
#     4  11  20  34  56  88 116 157 194 246 299 340
#     4  12  19  36  57  86 120 153 196 244 298 346
#     4  10  19  40  61  82 119 160 202 229 292 370
#     4  11  20  34  58  91 120 144 195 255 297 334
#     4  10  18  35  58  87 114 153 193 246 293 348
#
# _framework density 20.509682999999999
#
# number of rings (size 3 to 8) (size 9 to 14) (size 15 to 20)
#    0.000    1.500    6.250    1.125    1.750    0.000 
#    0.000    1.250    2.750    3.000    0.000    0.000 
#    0.000    0.000    0.000    0.000    0.000    0.000 
#
# Total GULP energy -198277.531339 kJ/mol
# GULP energy per Si atom -12392.345709 kJ/mol
# Density = 2.046300 g / cm^3
# Si number density = 20.509683 Si / 1000 Ang^3
#
#
#
# Elastic Constant Matrix: (Units=GPa)
#
#
# Indices 1 2 3 4 5 6 
#
# 1 79.2446 49.3863 31.5731 -2.2464 -13.3236 0.8198
# 2 49.3863 113.5947 27.5196 5.8432 -11.9071 -10.1742
# 3 31.5731 27.5196 72.5213 9.4068 -13.3432 1.5260
# 4 -2.2464 5.8432 9.4068 30.0189 -4.3533 -0.8919
# 5 -13.3236 -11.9071 -13.3432 -4.3533 28.2191 2.2998
# 6 0.8198 -10.1742 1.5260 -0.8919 2.2998 31.9134
#
#
#
# Elastic Compliance Matrix: (Units=1/GPa)
#
#
# Indices 1 2 3 4 5 6 
#
# 1 0.020709 -0.007607 -0.005886 0.005495 0.004866 -0.002873
# 2 -0.007607 0.012991 -0.001284 -0.002489 0.000549 0.004289
# 3 -0.005886 -0.001284 0.018430 -0.005332 0.004704 -0.001628
# 4 0.005495 -0.002489 -0.005332 0.036555 0.004662 0.000006
# 5 0.004866 0.000549 0.004704 0.004662 0.041155 -0.003010
# 6 -0.002873 0.004289 -0.001628 0.000006 -0.003010 0.033071
#
#
# Mechanical properties :
#
#
# Convention : Reuss Voigt Hill
#
# Bulk Modulus (GPa) = 44.29646 53.59098 48.94372
# Shear Modulus (GPa) = 25.00091 28.48908 26.74499
#
# Velocity S-wave (km/s) = 3.49518 3.73105 3.61504
# Velocity P-wave (km/s) = 6.15898 6.68934 6.42963
#
# Compressibility (1/GPa) = 0.02257517
#
# Stress axis : x y z
#
# Youngs Moduli (GPa) = 48.28799 76.97341 54.25839
#
# Poissons Ratio (x) = 0.58556 0.31938
# Poissons Ratio (y) = 0.36734 0.06969
# Poissons Ratio (z) = 0.28423 0.09886
#
# Static dielectric constant tensor:
#      x y z
#    x 3.553510 -0.187260 -0.043790 
#    y -0.187260 3.702870 -0.119430 
#    z -0.043790 -0.119430 3.280040 
# 
# 
# High freq. dielectric constant tensor:
#      x y z
#    x 1.763570 -0.024130 -0.003320 
#    y -0.024130 1.799730 0.019770 
#    z -0.003320 0.019770 1.792230 
# 
# From -- ./inp_files/283229.got.cif
#   From: 2010.06.25/outbox.cif.g09.slc.cpg/sg2_142_cif.got.tgz:283229.got - 2010.06.27 13:26:56.
