data_PCOD8039115
_publ_section_title
;
Structure prediction by ZEFSAII (Michael W. Deem and Ramdas Pophale) SiO2 
 PCOD8039115
Probable space group: P -1
;
_chemical_formula_sum "Si O2"
_cell_formula_units_Z 14
_cell_length_a 23.003313
_cell_length_b 15.602272
_cell_length_c 8.471966
_cell_angle_alpha 42.915424
_cell_angle_beta 149.539995
_cell_angle_gamma 152.195659
_cell_volume 713.142738
_symmetry_space_group_name_H-M "P -1"
_symmetry_group_IT_number 2
_symmetry_cell_setting 'triclinic'
loop_
_space_group_symop_operation_xyz
x,y,z
-x,-y,-z
loop_
_atom_site_type_symbol
_atom_site_label
_atom_site_fract_x
_atom_site_fract_y
_atom_site_fract_z
Si Si1 0.692605 0.144070 0.310655
Si Si2 0.824878 0.728641 0.549488
Si Si3 0.904748 0.889850 0.203273
Si Si4 0.663765 0.862096 0.498054
Si Si5 0.338505 0.650973 0.215625
Si Si6 0.574887 0.968624 0.587773
Si Si7 0.737664 0.895152 0.280817
O O1 0.762041 0.069868 0.498388
O O2 0.694447 0.140733 0.510739
O O3 0.772964 0.335591 0.163897
O O4 0.500000 0.000000 0.000000
O O5 0.800854 0.722735 0.312303
O O6 0.792660 0.560892 0.754084
O O7 0.697997 0.724209 0.347389
O O8 0.018661 0.923931 0.780260
O O9 0.777817 0.832905 0.847182
O O10 0.060511 0.933619 0.437428
O O11 0.484187 0.707033 0.372918
O O12 0.631573 0.834180 0.273059
O O13 0.420536 0.777782 0.392727
O O14 0.500000 0.000000 0.500000
O O15 0.692055 0.960188 0.955269
#
# Coordination Sequence:
#
# PCOD8039115 Si02
#       7
#     2   2   2   2   2   2   2
#     4   8  17  31  50  75 102 131 168 213 259 299
#     4   9  20  35  53  76 110 135 177 208 265 301
#     4   9  20  36  52  75 105 148 169 208 260 318
#     4  10  18  33  57  76 102 138 178 210 261 305
#     4  10  20  34  53  82 106 133 173 225 254 302
#     4  10  18  32  57  78 102 137 174 215 260 308
#     4  10  19  32  55  78 103 139 175 210 251 319
#
# _framework density 19.631412999999998
#
# number of rings (size 3 to 8) (size 9 to 14) (size 15 to 20)
#    0.857    2.000    0.000    4.714    0.000    2.857 
#    0.000    2.143    0.000    1.714    0.000    0.000 
#    0.000    0.000    0.000    0.000    0.000    0.000 
#
# Total GULP energy -173446.366976 kJ/mol
# GULP energy per Si atom -12389.026213 kJ/mol
# Density = 1.958673 g / cm^3
# Si number density = 19.631413 Si / 1000 Ang^3
#
#
#
# Elastic Constant Matrix: (Units=GPa)
#
#
# Indices 1 2 3 4 5 6 
#
# 1 104.6463 20.5040 8.6330 -13.1532 -18.8192 -2.8156
# 2 20.5040 72.0741 16.8855 -33.9502 -12.1546 16.7817
# 3 8.6330 16.8855 82.3193 -25.5730 -25.8664 7.9374
# 4 -13.1532 -33.9502 -25.5730 32.9622 6.2532 -6.6387
# 5 -18.8192 -12.1546 -25.8664 6.2532 32.7847 -7.7872
# 6 -2.8156 16.7817 7.9374 -6.6387 -7.7872 16.3941
#
#
#
# Elastic Compliance Matrix: (Units=1/GPa)
#
#
# Indices 1 2 3 4 5 6 
#
# 1 0.012483 -0.002850 0.002746 0.004355 0.009863 0.010180
# 2 -0.002850 0.037200 0.008646 0.037801 0.005915 -0.024638
# 3 0.002746 0.008646 0.023649 0.024624 0.018488 -0.001075
# 4 0.004355 0.037801 0.024624 0.085331 0.018068 -0.006732
# 5 0.009863 0.005915 0.018488 0.018068 0.054186 0.019743
# 6 0.010180 -0.024638 -0.001075 -0.006732 0.019743 0.095139
#
#
# Mechanical properties :
#
#
# Convention : Reuss Voigt Hill
#
# Bulk Modulus (GPa) = 11.06006 39.00944 25.03475
# Shear Modulus (GPa) = 15.57420 30.62934 23.10177
#
# Velocity S-wave (km/s) = 2.81967 3.95425 3.43414
# Velocity P-wave (km/s) = 4.03073 6.38453 5.33896
#
# Compressibility (1/GPa) = 0.09041539
#
# Stress axis : x y z
#
# Youngs Moduli (GPa) = 80.10945 26.88163 42.28478
#
# Poissons Ratio (x) = 0.07661 -0.11611
# Poissons Ratio (y) = 0.22832 -0.36558
# Poissons Ratio (z) = -0.21998 -0.23241
#
# Static dielectric constant tensor:
#      x y z
#    x 3.476440 0.051610 -0.151430 
#    y 0.051610 3.319900 -0.591410 
#    z -0.151430 -0.591410 3.948620 
# 
# 
# High freq. dielectric constant tensor:
#      x y z
#    x 1.764340 0.005340 -0.011530 
#    y 0.005340 1.709320 -0.029360 
#    z -0.011530 -0.029360 1.774350 
# 
# From -- ./inp_files/354046.got.cif
#   From: 2010.06.25/outbox.cif.g09.slc.cpg/sg2_178_cif.got.tgz:354046.got - 2010.06.27 13:26:56.
