data_PCOD8039980
_publ_section_title
;
Structure prediction by ZEFSAII (Michael W. Deem and Ramdas Pophale) SiO2 
 PCOD8039980
Probable space group: P -1
;
_chemical_formula_sum "Si O2"
_cell_formula_units_Z 16
_cell_length_a 23.543970
_cell_length_b 12.677724
_cell_length_c 20.699123
_cell_angle_alpha 153.636599
_cell_angle_beta 18.572236
_cell_angle_gamma 144.302212
_cell_volume 843.014378
_symmetry_space_group_name_H-M "P -1"
_symmetry_group_IT_number 2
_symmetry_cell_setting 'triclinic'
loop_
_space_group_symop_operation_xyz
x,y,z
-x,-y,-z
loop_
_atom_site_type_symbol
_atom_site_label
_atom_site_fract_x
_atom_site_fract_y
_atom_site_fract_z
Si Si1 0.598311 0.361147 0.104592
Si Si2 0.956543 0.268951 0.495522
Si Si3 0.453869 0.706714 0.086171
Si Si4 0.394780 0.102710 0.082648
Si Si5 0.947985 0.819296 0.795863
Si Si6 0.997116 0.198699 0.556937
Si Si7 0.451551 0.918658 0.577690
Si Si8 0.662273 0.178422 0.585269
O O1 0.527889 0.219782 0.045396
O O2 0.466590 0.628611 0.406297
O O3 0.800859 0.399817 0.888975
O O4 0.603853 0.180132 0.059924
O O5 0.002592 0.530884 0.596088
O O6 0.006858 0.115152 0.424177
O O7 0.069880 0.130832 0.235237
O O8 0.741740 0.320854 0.740915
O O9 0.524262 0.912604 0.085013
O O10 0.602147 0.449241 0.767355
O O11 0.451707 0.789793 0.207668
O O12 0.184814 0.280900 0.412484
O O13 0.116740 0.918664 0.696518
O O14 0.759147 0.952445 0.107247
O O15 0.000000 0.000000 0.500000
O O16 0.500000 0.000000 0.500000
O O17 0.596793 0.980463 0.504687
#
# Coordination Sequence:
#
# PCOD8039980 Si02
#       8
#     2   2   2   2   2   2   2   2
#     4  10  22  38  55  86 119 147 195 232 284 349
#     4  10  18  35  60  87 119 142 195 246 279 338
#     4  10  18  35  62  85 114 145 193 245 279 333
#     4  10  20  36  61  84 108 155 192 239 282 328
#     4  10  22  36  58  88 114 154 187 237 295 336
#     4  10  20  34  58  87 111 147 194 239 281 331
#     4  12  24  38  57  83 124 153 181 239 294 351
#     4  10  22  36  57  89 113 148 192 233 290 345
#
# _framework density 18.979510000000001
#
# number of rings (size 3 to 8) (size 9 to 14) (size 15 to 20)
#    0.000    1.750    2.500    2.250    3.500    1.500 
#    0.000    0.625    0.000    1.500    0.000    0.000 
#    0.000    0.000    0.000    0.000    0.000    0.000 
#
# Total GULP energy -198245.914685 kJ/mol
# GULP energy per Si atom -12390.369668 kJ/mol
# Density = 1.893631 g / cm^3
# Si number density = 18.979510 Si / 1000 Ang^3
#
#
#
# Elastic Constant Matrix: (Units=GPa)
#
#
# Indices 1 2 3 4 5 6 
#
# 1 92.7515 38.5396 23.4438 0.2338 3.0564 -20.8763
# 2 38.5396 85.9293 36.9274 -4.9238 7.3479 -7.8257
# 3 23.4438 36.9274 100.2587 -12.7642 -0.9026 -4.7718
# 4 0.2338 -4.9238 -12.7642 29.6880 2.0813 4.5954
# 5 3.0564 7.3479 -0.9026 2.0813 23.9446 -9.0203
# 6 -20.8763 -7.8257 -4.7718 4.5954 -9.0203 28.7744
#
#
#
# Elastic Compliance Matrix: (Units=1/GPa)
#
#
# Indices 1 2 3 4 5 6 
#
# 1 0.016273 -0.006229 -0.001402 -0.003940 0.004629 0.011961
# 2 -0.006229 0.016780 -0.004699 0.001645 -0.005726 -0.002793
# 3 -0.001402 -0.004699 0.012612 0.004620 0.001520 -0.000465
# 4 -0.003940 0.001645 0.004620 0.037979 -0.006842 -0.009855
# 5 0.004629 -0.005726 0.001520 -0.006842 0.050761 0.019059
# 6 0.011961 -0.002793 -0.000465 -0.009855 0.019059 0.050143
#
#
# Mechanical properties :
#
#
# Convention : Reuss Voigt Hill
#
# Bulk Modulus (GPa) = 47.60297 52.97346 50.28821
# Shear Modulus (GPa) = 23.12574 28.48330 25.80452
#
# Velocity S-wave (km/s) = 3.49443 3.87814 3.69127
# Velocity P-wave (km/s) = 6.43561 6.92999 6.68737
#
# Compressibility (1/GPa) = 0.02100709
#
# Stress axis : x y z
#
# Youngs Moduli (GPa) = 61.45027 59.59469 79.28692
#
# Poissons Ratio (x) = 0.37119 0.11114
# Poissons Ratio (y) = 0.38275 0.37257
# Poissons Ratio (z) = 0.08614 0.28003
#
# Static dielectric constant tensor:
#      x y z
#    x 3.809100 -0.212640 -0.110330 
#    y -0.212640 3.499040 -0.392710 
#    z -0.110330 -0.392710 3.531380 
# 
# 
# High freq. dielectric constant tensor:
#      x y z
#    x 1.752700 -0.011120 -0.012700 
#    y -0.011120 1.723360 -0.042090 
#    z -0.012700 -0.042090 1.723350 
# 
# From -- ./inp_files/431853.got.cif
#   From: 2010.06.25/outbox.cif.g09.slc.cpg/sg2_216_cif.got.tgz:431853.got - 2010.06.27 13:26:56.
