data_PCOD8039960
_publ_section_title
;
Structure prediction by ZEFSAII (Michael W. Deem and Ramdas Pophale) SiO2 
 PCOD8039960
Probable space group: P -1
;
_chemical_formula_sum "Si O2"
_cell_formula_units_Z 16
_cell_length_a 9.364719
_cell_length_b 8.931115
_cell_length_c 15.167733
_cell_angle_alpha 118.604557
_cell_angle_beta 50.919089
_cell_angle_gamma 134.606305
_cell_volume 699.597889
_symmetry_space_group_name_H-M "P -1"
_symmetry_group_IT_number 2
_symmetry_cell_setting 'triclinic'
loop_
_space_group_symop_operation_xyz
x,y,z
-x,-y,-z
loop_
_atom_site_type_symbol
_atom_site_label
_atom_site_fract_x
_atom_site_fract_y
_atom_site_fract_z
Si Si1 0.110663 0.888826 0.829735
Si Si2 0.509826 0.333447 0.787044
Si Si3 0.760848 0.212509 0.547808
Si Si4 0.213477 0.028956 0.305136
Si Si5 0.437715 0.079038 0.898610
Si Si6 0.647698 0.240205 0.404930
Si Si7 0.695411 0.784662 0.860684
Si Si8 0.171870 0.310127 0.518627
O O1 0.269866 0.122348 0.787849
O O2 0.175453 0.918408 0.917635
O O3 0.171384 0.733182 0.727557
O O4 0.853116 0.791011 0.878466
O O5 0.704132 0.362687 0.656705
O O6 0.558775 0.297984 0.858587
O O7 0.511923 0.539543 0.837144
O O8 0.738335 0.214330 0.453672
O O9 0.015445 0.304154 0.500797
O O10 0.601746 0.971624 0.578933
O O11 0.422028 0.015193 0.203134
O O12 0.979830 0.816746 0.371499
O O13 0.164615 0.084904 0.243782
O O14 0.292476 0.211785 0.399259
O O15 0.431529 0.123813 0.017489
O O16 0.640798 0.443337 0.460477
#
# Coordination Sequence:
#
# PCOD8039960 Si02
#       8
#     2   2   2   2   2   2   2   2
#     4   9  21  37  61  93 113 150 204 247 292 350
#     4   9  20  37  63  88 120 148 202 249 294 349
#     4  10  18  35  59  92 120 146 201 247 289 351
#     4  11  24  39  60  90 125 159 196 243 301 360
#     4  10  22  43  59  85 126 155 198 255 294 342
#     4  10  19  33  62  90 117 155 193 248 294 346
#     4  12  21  39  67  87 115 163 201 244 299 349
#     4  11  21  39  58  81 126 160 191 234 304 360
#
# _framework density 22.870280000000001
#
# number of rings (size 3 to 8) (size 9 to 14) (size 15 to 20)
#    0.750    1.000    1.250    3.750    0.000    0.000 
#    0.000    8.125    0.000    2.250    0.000    0.000 
#    0.000    0.000    0.000    0.000    0.000    0.000 
#
# Total GULP energy -198264.531921 kJ/mol
# GULP energy per Si atom -12391.533245 kJ/mol
# Density = 2.281823 g / cm^3
# Si number density = 22.870280 Si / 1000 Ang^3
#
#
#
# Elastic Constant Matrix: (Units=GPa)
#
#
# Indices 1 2 3 4 5 6 
#
# 1 28.3000 6.0614 10.7186 9.7252 -4.6036 -3.6851
# 2 6.0614 98.2611 45.6438 27.9211 -6.1309 4.0454
# 3 10.7186 45.6438 126.8856 23.0248 3.9792 -4.6760
# 4 9.7252 27.9211 23.0248 28.8331 -6.0987 -2.2112
# 5 -4.6036 -6.1309 3.9792 -6.0987 28.6101 -0.0426
# 6 -3.6851 4.0454 -4.6760 -2.2112 -0.0426 16.4210
#
#
#
# Elastic Compliance Matrix: (Units=1/GPa)
#
#
# Indices 1 2 3 4 5 6 
#
# 1 0.041686 0.001981 -0.001758 -0.013095 0.004595 0.006615
# 2 0.001981 0.015923 -0.003766 -0.013266 0.001417 -0.006333
# 3 -0.001758 -0.003766 0.010439 -0.004621 -0.003523 0.002874
# 4 -0.013095 -0.013266 -0.004621 0.057859 0.008037 0.006825
# 5 0.004595 0.001417 -0.003523 0.008037 0.038200 0.000860
# 6 0.006615 -0.006333 0.002874 0.006825 0.000860 0.065682
#
#
# Mechanical properties :
#
#
# Convention : Reuss Voigt Hill
#
# Bulk Modulus (GPa) = 16.40360 42.03270 29.21815
# Shear Modulus (GPa) = 19.44036 27.50769 23.47403
#
# Velocity S-wave (km/s) = 2.91869 3.47186 3.20722
# Velocity P-wave (km/s) = 4.30654 5.87285 5.14960
#
# Compressibility (1/GPa) = 0.06096222
#
# Stress axis : x y z
#
# Youngs Moduli (GPa) = 23.98863 62.80339 95.79245
#
# Poissons Ratio (x) = -0.12438 0.16839
# Poissons Ratio (y) = -0.04751 0.36072
# Poissons Ratio (z) = 0.04217 0.23650
#
# Static dielectric constant tensor:
#      x y z
#    x 3.775140 -0.111970 0.101590 
#    y -0.111970 4.100550 0.157530 
#    z 0.101590 0.157530 4.149160 
# 
# 
# High freq. dielectric constant tensor:
#      x y z
#    x 1.877930 -0.006630 0.003750 
#    y -0.006630 1.885620 0.016020 
#    z 0.003750 0.016020 1.912360 
# 
# From -- ./inp_files/495578.got.cif
#   From: 2010.06.25/outbox.cif.g09.slc.cpg/sg2_248_cif.got.tgz:495578.got - 2010.06.27 13:26:56.
