data_PCOD8039835
_publ_section_title
;
Structure prediction by ZEFSAII (Michael W. Deem and Ramdas Pophale) SiO2 
 PCOD8039835
Probable space group: P -1
;
_chemical_formula_sum "Si O2"
_cell_formula_units_Z 16
_cell_length_a 9.095274
_cell_length_b 15.390441
_cell_length_c 9.264058
_cell_angle_alpha 61.445729
_cell_angle_beta 97.089384
_cell_angle_gamma 134.139845
_cell_volume 770.981394
_symmetry_space_group_name_H-M "P -1"
_symmetry_group_IT_number 2
_symmetry_cell_setting 'triclinic'
loop_
_space_group_symop_operation_xyz
x,y,z
-x,-y,-z
loop_
_atom_site_type_symbol
_atom_site_label
_atom_site_fract_x
_atom_site_fract_y
_atom_site_fract_z
Si Si1 0.429366 0.244861 0.837414
Si Si2 0.384134 0.324781 0.317640
Si Si3 0.103083 0.462847 0.450965
Si Si4 0.672352 0.591377 0.322897
Si Si5 0.716193 0.212876 0.422020
Si Si6 0.585217 0.811490 0.794819
Si Si7 0.108670 0.904028 0.553150
Si Si8 0.633580 0.882658 0.350566
O O1 0.667816 0.392568 0.700051
O O2 0.271252 0.264762 0.807223
O O3 0.338779 0.116182 0.819011
O O4 0.437168 0.196716 0.030819
O O5 0.561129 0.495375 0.238670
O O6 0.416327 0.302212 0.175547
O O7 0.424367 0.254497 0.488232
O O8 0.141070 0.247506 0.376030
O O9 0.122856 0.375465 0.628038
O O10 0.000000 0.500000 0.500000
O O11 0.954808 0.366808 0.371440
O O12 0.500000 0.500000 0.500000
O O13 0.618174 0.230802 0.267122
O O14 0.732716 0.109953 0.446766
O O15 0.566074 0.144318 0.602583
O O16 0.814651 0.972647 0.646259
O O17 0.148426 0.965696 0.671599
#
# Coordination Sequence:
#
# PCOD8039835 Si02
#       8
#     2   2   2   2   2   2   2   2
#     4  11  22  36  56  86 121 146 178 236 297 321
#     4  10  18  38  60  81 105 151 196 225 268 337
#     4  11  19  37  63  84 110 149 194 230 270 340
#     4  10  19  34  60  85 111 147 193 232 270 341
#     4  10  20  37  62  83 106 153 197 226 271 342
#     4  10  22  38  54  86 120 146 179 237 293 324
#     4  10  20  37  62  82 104 152 202 226 267 340
#     4  10  18  35  56  80 113 148 186 227 275 338
#
# _framework density 20.752770000000002
#
# number of rings (size 3 to 8) (size 9 to 14) (size 15 to 20)
#    0.000    2.000    3.750    5.250    0.000    1.000 
#    0.000    6.250    0.000    0.000    0.000    0.000 
#    0.000    0.000    0.000    0.000    0.000    0.000 
#
# Total GULP energy -198317.625841 kJ/mol
# GULP energy per Si atom -12394.851615 kJ/mol
# Density = 2.070554 g / cm^3
# Si number density = 20.752770 Si / 1000 Ang^3
#
#
#
# Elastic Constant Matrix: (Units=GPa)
#
#
# Indices 1 2 3 4 5 6 
#
# 1 124.8500 30.8466 35.7959 15.8309 5.2221 -10.9837
# 2 30.8466 90.9865 44.7933 28.6702 2.2167 -10.2785
# 3 35.7959 44.7933 87.2507 38.8049 1.6579 -5.2360
# 4 15.8309 28.6702 38.8049 29.2358 -2.0414 -7.8592
# 5 5.2221 2.2167 1.6579 -2.0414 18.1984 5.4349
# 6 -10.9837 -10.2785 -5.2360 -7.8592 5.4349 41.0771
#
#
#
# Elastic Compliance Matrix: (Units=1/GPa)
#
#
# Indices 1 2 3 4 5 6 
#
# 1 0.009569 -0.001660 -0.003657 0.001748 -0.002723 0.002372
# 2 -0.001660 0.016837 -0.002319 -0.012345 -0.003207 0.001536
# 3 -0.003657 -0.002319 0.031113 -0.038531 -0.004521 -0.004366
# 4 0.001748 -0.012345 -0.038531 0.100066 0.012774 0.009922
# 5 -0.002723 -0.003207 -0.004521 0.012774 0.060246 -0.007634
# 6 0.002372 0.001536 -0.004366 0.009922 -0.007634 0.027715
#
#
# Mechanical properties :
#
#
# Convention : Reuss Voigt Hill
#
# Bulk Modulus (GPa) = 23.67074 58.43989 41.05532
# Shear Modulus (GPa) = 18.18842 30.47904 24.33373
#
# Velocity S-wave (km/s) = 2.96367 3.83648 3.42797
# Velocity P-wave (km/s) = 4.81061 6.91708 5.95768
#
# Compressibility (1/GPa) = 0.04224624
#
# Stress axis : x y z
#
# Youngs Moduli (GPa) = 104.50194 59.39382 32.14125
#
# Poissons Ratio (x) = 0.09862 0.11753
# Poissons Ratio (y) = 0.17351 0.07454
# Poissons Ratio (z) = 0.38213 0.13774
#
# Static dielectric constant tensor:
#      x y z
#    x 4.262180 -0.100560 0.043570 
#    y -0.100560 4.355670 0.362140 
#    z 0.043570 0.362140 3.298450 
# 
# 
# High freq. dielectric constant tensor:
#      x y z
#    x 1.827710 -0.009850 -0.003090 
#    y -0.009850 1.823670 0.028030 
#    z -0.003090 0.028030 1.752400 
# 
# From -- ./inp_files/200873.got.cif
#   From: 2010.06.25/outbox.cif.g09.slc.cpg/sg2_101_cif.got.tgz:200873.got - 2010.06.27 13:26:56.
