data_PCOD8039553
_publ_section_title
;
Structure prediction by ZEFSAII (Michael W. Deem and Ramdas Pophale) SiO2 
 PCOD8039553
Probable space group: P -1
;
_chemical_formula_sum "Si O2"
_cell_formula_units_Z 16
_cell_length_a 14.230203
_cell_length_b 9.369767
_cell_length_c 8.962224
_cell_angle_alpha 86.922641
_cell_angle_beta 88.357142
_cell_angle_gamma 127.594048
_cell_volume 942.616781
_symmetry_space_group_name_H-M "P -1"
_symmetry_group_IT_number 2
_symmetry_cell_setting 'triclinic'
loop_
_space_group_symop_operation_xyz
x,y,z
-x,-y,-z
loop_
_atom_site_type_symbol
_atom_site_label
_atom_site_fract_x
_atom_site_fract_y
_atom_site_fract_z
Si Si1 0.769458 0.203243 0.671536
Si Si2 0.433094 0.199234 0.341373
Si Si3 0.824521 0.236295 0.332315
Si Si4 0.467421 0.521710 0.163969
Si Si5 0.610372 0.866713 0.314576
Si Si6 0.058765 0.504817 0.147719
Si Si7 0.379633 0.825234 0.816565
Si Si8 0.695030 0.364011 0.864008
O O1 0.823845 0.279465 0.502375
O O2 0.879453 0.301823 0.779873
O O3 0.685400 0.260119 0.718623
O O4 0.690407 0.987304 0.695404
O O5 0.426517 0.355663 0.280326
O O6 0.451111 0.207928 0.517600
O O7 0.546887 0.231015 0.261809
O O8 0.754150 0.295045 0.240760
O O9 0.958697 0.340868 0.265988
O O10 0.752998 0.019462 0.322014
O O11 0.582856 0.705518 0.220964
O O12 0.358262 0.529942 0.164037
O O13 0.500000 0.500000 0.000000
O O14 0.559004 0.962232 0.229001
O O15 0.163510 0.486862 0.111432
O O16 0.000000 0.500000 0.000000
O O17 0.372523 0.785999 0.994163
#
# Coordination Sequence:
#
# PCOD8039553 Si02
#       8
#     2   2   2   2   2   2   2   2
#     4   9  21  33  59  83 107 137 186 224 272 313
#     4  11  21  36  55  81 114 143 177 220 271 332
#     4   9  18  34  58  85 104 135 181 233 266 312
#     4  12  24  35  52  78 119 148 177 212 271 336
#     4   9  22  36  55  81 110 142 180 225 272 312
#     4  10  18  34  56  83 109 134 180 235 273 304
#     4  10  19  34  59  81 111 135 182 226 275 312
#     4  10  22  35  53  84 111 142 180 221 277 314
#
# _framework density 16.974024
#
# number of rings (size 3 to 8) (size 9 to 14) (size 15 to 20)
#    1.500    0.500    2.500    1.875    3.500    1.000 
#    0.000    0.000    0.000    7.500    0.000    0.000 
#    0.000    0.000    0.000    0.000    0.000    0.000 
#
# Total GULP energy -198232.705216 kJ/mol
# GULP energy per Si atom -12389.544076 kJ/mol
# Density = 1.693539 g / cm^3
# Si number density = 16.974024 Si / 1000 Ang^3
#
#
#
# Elastic Constant Matrix: (Units=GPa)
#
#
# Indices 1 2 3 4 5 6 
#
# 1 65.1610 59.5813 42.6653 -9.5885 -4.4024 -3.7922
# 2 59.5813 99.4532 57.1167 1.8938 -4.6713 -4.1635
# 3 42.6653 57.1167 118.8634 -1.5758 -12.9990 -2.8650
# 4 -9.5885 1.8938 -1.5758 38.1603 2.7951 4.7548
# 5 -4.4024 -4.6713 -12.9990 2.7951 27.9762 -3.2136
# 6 -3.7922 -4.1635 -2.8650 4.7548 -3.2136 29.2403
#
#
#
# Elastic Compliance Matrix: (Units=1/GPa)
#
#
# Indices 1 2 3 4 5 6 
#
# 1 0.038820 -0.021463 -0.003502 0.010704 -0.000186 -0.000126
# 2 -0.021463 0.025863 -0.004827 -0.007035 -0.000424 0.001523
# 3 -0.003502 -0.004827 0.012500 -0.000544 0.004583 0.000675
# 4 0.010704 -0.007035 -0.000544 0.030078 -0.003313 -0.004922
# 5 -0.000186 -0.000424 0.004583 -0.003313 0.038697 0.005156
# 6 -0.000126 0.001523 0.000675 -0.004922 0.005156 0.035833
#
#
# Mechanical properties :
#
#
# Convention : Reuss Voigt Hill
#
# Bulk Modulus (GPa) = 56.82163 66.91158 61.86660
# Shear Modulus (GPa) = 20.22311 27.34966 23.78638
#
# Velocity S-wave (km/s) = 3.45543 4.01841 3.74751
# Velocity P-wave (km/s) = 7.03337 7.81254 7.43317
#
# Compressibility (1/GPa) = 0.01759893
#
# Stress axis : x y z
#
# Youngs Moduli (GPa) = 25.75963 38.66492 80.00211
#
# Poissons Ratio (x) = 0.82988 0.28018
# Poissons Ratio (y) = 0.55289 0.38614
# Poissons Ratio (z) = 0.09021 0.18662
#
# Static dielectric constant tensor:
#      x y z
#    x 2.997490 0.150640 -0.042110 
#    y 0.150640 3.083970 0.000660 
#    z -0.042110 0.000660 3.290030 
# 
# 
# High freq. dielectric constant tensor:
#      x y z
#    x 1.629630 0.018810 -0.002820 
#    y 0.018810 1.639490 0.000580 
#    z -0.002820 0.000580 1.674510 
# 
# From -- ./inp_files/292575.got.cif
#   From: 2010.06.25/outbox.cif.g09.slc.cpg/sg2_147_cif.got.tgz:292575.got - 2010.06.27 13:26:56.
