data_PCOD8039001
_publ_section_title
;
Structure prediction by ZEFSAII (Michael W. Deem and Ramdas Pophale) SiO2 
 PCOD8039001
Probable space group: P -1
;
_chemical_formula_sum "Si O2"
_cell_formula_units_Z 16
_cell_length_a 11.073791
_cell_length_b 10.295287
_cell_length_c 11.406298
_cell_angle_alpha 119.605573
_cell_angle_beta 126.067615
_cell_angle_gamma 81.422033
_cell_volume 895.149756
_symmetry_space_group_name_H-M "P -1"
_symmetry_group_IT_number 2
_symmetry_cell_setting 'triclinic'
loop_
_space_group_symop_operation_xyz
x,y,z
-x,-y,-z
loop_
_atom_site_type_symbol
_atom_site_label
_atom_site_fract_x
_atom_site_fract_y
_atom_site_fract_z
Si Si1 0.434472 0.648911 0.549595
Si Si2 0.920807 0.033438 0.818652
Si Si3 0.429880 0.055818 0.371209
Si Si4 0.948702 0.220130 0.147094
Si Si5 0.096804 0.309891 0.924125
Si Si6 0.595097 0.800721 0.936517
Si Si7 0.616210 0.108267 0.960064
Si Si8 0.095147 0.509449 0.241837
O O1 0.500000 0.500000 0.500000
O O2 0.503518 0.767807 0.540386
O O3 0.486149 0.707961 0.734664
O O4 0.251529 0.617811 0.420957
O O5 0.967751 0.154440 0.794524
O O6 0.745625 0.967365 0.709449
O O7 0.986832 0.133562 0.013481
O O8 0.992829 0.883700 0.766443
O O9 0.500000 0.000000 0.500000
O O10 0.464153 0.956410 0.235632
O O11 0.038940 0.394247 0.266364
O O12 0.772520 0.224586 0.069901
O O13 0.036356 0.394434 0.817120
O O14 0.262354 0.272509 0.977540
O O15 0.120792 0.419232 0.099209
O O16 0.657039 0.971559 0.000855
O O17 0.495250 0.801584 0.996693
#
# Coordination Sequence:
#
# PCOD8039001 Si02
#       8
#     2   2   2   2   2   2   2   2
#     4  11  20  34  54  81 110 139 175 217 267 315
#     4   9  16  28  52  75  96 128 179 219 253 294
#     4  10  20  33  55  81 106 132 173 228 268 301
#     4   9  16  30  51  73  98 132 176 217 250 302
#     4  10  18  32  52  78 104 139 173 218 263 309
#     4  10  19  35  58  78 106 142 182 215 258 319
#     4   9  19  35  57  79 101 141 184 216 254 317
#     4  10  20  30  50  79 109 133 172 220 267 309
#
# _framework density 17.874103999999999
#
# number of rings (size 3 to 8) (size 9 to 14) (size 15 to 20)
#    0.000    2.250    2.500    1.500    3.500    1.000 
#    0.000    1.250    2.750    3.000    0.000    0.000 
#    0.000    0.000    0.000    0.000    0.000    0.000 
#
# Total GULP energy -198299.812520 kJ/mol
# GULP energy per Si atom -12393.738283 kJ/mol
# Density = 1.783342 g / cm^3
# Si number density = 17.874104 Si / 1000 Ang^3
#
#
#
# Elastic Constant Matrix: (Units=GPa)
#
#
# Indices 1 2 3 4 5 6 
#
# 1 93.3686 54.3542 42.9843 3.8325 6.6099 -8.2237
# 2 54.3542 120.4959 47.9619 3.0585 9.4285 -3.6362
# 3 42.9843 47.9619 75.1970 3.0071 20.7107 1.1331
# 4 3.8325 3.0585 3.0071 23.6749 6.3122 9.9911
# 5 6.6099 9.4285 20.7107 6.3122 27.6108 1.8622
# 6 -8.2237 -3.6362 1.1331 9.9911 1.8622 29.6699
#
#
#
# Elastic Compliance Matrix: (Units=1/GPa)
#
#
# Indices 1 2 3 4 5 6 
#
# 1 0.017637 -0.004757 -0.008095 -0.004853 0.004180 0.005987
# 2 -0.004757 0.012637 -0.005647 -0.000720 0.001182 0.000614
# 3 -0.008095 -0.005647 0.025917 0.005068 -0.016422 -0.004602
# 4 -0.004853 -0.000720 0.005068 0.054082 -0.013477 -0.018993
# 5 0.004180 0.001182 -0.016422 -0.013477 0.049988 0.003332
# 6 0.005987 0.000614 -0.004602 -0.018993 0.003332 0.041801
#
#
# Mechanical properties :
#
#
# Convention : Reuss Voigt Hill
#
# Bulk Modulus (GPa) = 52.10207 64.40693 58.25450
# Shear Modulus (GPa) = 20.37021 25.77520 23.07271
#
# Velocity S-wave (km/s) = 3.37953 3.80154 3.59673
# Velocity P-wave (km/s) = 6.66641 7.44183 7.06477
#
# Compressibility (1/GPa) = 0.01919310
#
# Stress axis : x y z
#
# Youngs Moduli (GPa) = 56.70007 79.13411 38.58466
#
# Poissons Ratio (x) = 0.37643 0.31234
# Poissons Ratio (y) = 0.26971 0.21789
# Poissons Ratio (z) = 0.45898 0.44687
#
# Static dielectric constant tensor:
#      x y z
#    x 3.180590 0.062600 0.123030 
#    y 0.062600 3.525530 0.076310 
#    z 0.123030 0.076310 3.106840 
# 
# 
# High freq. dielectric constant tensor:
#      x y z
#    x 1.679970 0.002030 0.028450 
#    y 0.002030 1.698270 0.005450 
#    z 0.028450 0.005450 1.665700 
# 
# From -- ./inp_files/388375.got.cif
#   From: 2010.06.25/outbox.cif.g09.slc.cpg/sg2_195_cif.got.tgz:388375.got - 2010.06.27 13:26:56.
