data_PCOD8039068
_publ_section_title
;
Structure prediction by ZEFSAII (Michael W. Deem and Ramdas Pophale) SiO2 
 PCOD8039068
Probable space group: P -1
;
_chemical_formula_sum "Si O2"
_cell_formula_units_Z 16
_cell_length_a 9.437071
_cell_length_b 9.895749
_cell_length_c 16.558422
_cell_angle_alpha 65.466757
_cell_angle_beta 92.617752
_cell_angle_gamma 42.706906
_cell_volume 784.917867
_symmetry_space_group_name_H-M "P -1"
_symmetry_group_IT_number 2
_symmetry_cell_setting 'triclinic'
loop_
_space_group_symop_operation_xyz
x,y,z
-x,-y,-z
loop_
_atom_site_type_symbol
_atom_site_label
_atom_site_fract_x
_atom_site_fract_y
_atom_site_fract_z
Si Si1 0.394286 0.293181 0.091236
Si Si2 0.586473 0.107235 0.399294
Si Si3 0.678023 0.762575 0.179271
Si Si4 0.181106 0.335843 0.225660
Si Si5 0.816184 0.469420 0.581115
Si Si6 0.113010 0.502132 0.592063
Si Si7 0.816691 0.421758 0.145795
Si Si8 0.218308 0.888425 0.743067
O O1 0.206980 0.421319 0.128385
O O2 0.630178 0.183066 0.157387
O O3 0.470903 0.069770 0.107886
O O4 0.244695 0.520116 0.965215
O O5 0.437005 0.110172 0.342719
O O6 0.414893 0.311455 0.418104
O O7 0.646941 0.189123 0.319434
O O8 0.839675 0.819619 0.515890
O O9 0.613114 0.704480 0.118710
O O10 0.953499 0.600691 0.209049
O O11 0.707853 0.633756 0.291966
O O12 0.100027 0.241050 0.216475
O O13 0.056472 0.374338 0.617043
O O14 0.725908 0.572482 0.460397
O O15 0.935498 0.202611 0.661621
O O16 0.802235 0.269315 0.215729
#
# Coordination Sequence:
#
# PCOD8039068 Si02
#       8
#     2   2   2   2   2   2   2   2
#     4  11  19  38  62  81 105 153 195 223 268 334
#     4  10  19  35  59  86 110 145 190 226 271 333
#     4  10  21  36  56  85 112 142 188 234 270 324
#     4   9  21  34  57  84 112 140 188 233 271 322
#     4  10  18  32  55  83 112 140 183 228 274 321
#     4  10  19  31  59  87 106 143 193 234 261 324
#     4  10  22  39  55  81 122 145 176 238 287 316
#     4  10  21  37  55  85 117 144 182 230 278 335
#
# _framework density 20.384298000000001
#
# number of rings (size 3 to 8) (size 9 to 14) (size 15 to 20)
#    0.750    1.250    2.500    1.500    1.750    0.000 
#    2.250    2.500    0.000    8.250    0.000    0.000 
#    0.000    0.000    0.000    0.000    0.000    0.000 
#
# Total GULP energy -198267.123547 kJ/mol
# GULP energy per Si atom -12391.695222 kJ/mol
# Density = 2.033790 g / cm^3
# Si number density = 20.384298 Si / 1000 Ang^3
#
#
#
# Elastic Constant Matrix: (Units=GPa)
#
#
# Indices 1 2 3 4 5 6 
#
# 1 69.4809 24.6335 35.3093 -0.4176 -18.5184 1.6431
# 2 24.6335 83.2506 34.5404 8.8921 -12.5226 -10.7235
# 3 35.3093 34.5404 91.4180 11.2684 -17.1881 -6.7067
# 4 -0.4176 8.8921 11.2684 31.0628 1.9719 -2.6105
# 5 -18.5184 -12.5226 -17.1881 1.9719 22.4252 -1.0986
# 6 1.6431 -10.7235 -6.7067 -2.6105 -1.0986 19.0931
#
#
#
# Elastic Compliance Matrix: (Units=1/GPa)
#
#
# Indices 1 2 3 4 5 6 
#
# 1 0.021480 -0.003169 -0.005581 0.002114 0.011278 -0.004651
# 2 -0.003169 0.016347 -0.003033 -0.003240 0.004875 0.008226
# 3 -0.005581 -0.003033 0.016529 -0.005292 0.007041 0.004265
# 4 0.002114 -0.003240 -0.005292 0.035576 -0.007219 0.000588
# 5 0.011278 0.004875 0.007041 -0.007219 0.062996 0.006878
# 6 -0.004651 0.008226 0.004265 0.000588 0.006878 0.059369
#
#
# Mechanical properties :
#
#
# Convention : Reuss Voigt Hill
#
# Bulk Modulus (GPa) = 32.47677 48.12399 40.30038
# Shear Modulus (GPa) = 20.31470 24.49397 22.40434
#
# Velocity S-wave (km/s) = 3.16030 3.47018 3.31886
# Velocity P-wave (km/s) = 5.41142 6.30205 5.87364
#
# Compressibility (1/GPa) = 0.03079124
#
# Stress axis : x y z
#
# Youngs Moduli (GPa) = 46.55398 61.17368 60.49936
#
# Poissons Ratio (x) = 0.19386 0.33762
# Poissons Ratio (y) = 0.14753 0.18349
# Poissons Ratio (z) = 0.25980 0.18554
#
# Static dielectric constant tensor:
#      x y z
#    x 3.326630 -0.126150 -0.074910 
#    y -0.126150 3.688090 0.314510 
#    z -0.074910 0.314510 3.708990 
# 
# 
# High freq. dielectric constant tensor:
#      x y z
#    x 1.753800 -0.013660 -0.006300 
#    y -0.013660 1.794030 0.021290 
#    z -0.006300 0.021290 1.803770 
# 
# From -- ./inp_files/557003.got.cif
#   From: 2010.06.25/outbox.cif.g09.slc.cpg/sg2_279_cif.got.tgz:557003.got - 2010.06.27 13:26:56.
