data_PCOD8039245
_publ_section_title
;
Structure prediction by ZEFSAII (Michael W. Deem and Ramdas Pophale) SiO2 
 PCOD8039245
Probable space group: P -1
;
_chemical_formula_sum "Si O2"
_cell_formula_units_Z 16
_cell_length_a 10.902411
_cell_length_b 12.539271
_cell_length_c 12.123311
_cell_angle_alpha 135.150081
_cell_angle_beta 58.834502
_cell_angle_gamma 86.101498
_cell_volume 693.421217
_symmetry_space_group_name_H-M "P -1"
_symmetry_group_IT_number 2
_symmetry_cell_setting 'triclinic'
loop_
_space_group_symop_operation_xyz
x,y,z
-x,-y,-z
loop_
_atom_site_type_symbol
_atom_site_label
_atom_site_fract_x
_atom_site_fract_y
_atom_site_fract_z
Si Si1 0.249742 0.199500 0.356544
Si Si2 0.609409 0.281961 0.438921
Si Si3 0.487510 0.761067 0.027701
Si Si4 0.904607 0.075927 0.349461
Si Si5 0.808864 0.926755 0.919059
Si Si6 0.195929 0.571704 0.204571
Si Si7 0.226863 0.670877 0.028268
Si Si8 0.229878 0.523280 0.515053
O O1 0.302358 0.103013 0.135986
O O2 0.292808 0.347293 0.445674
O O3 0.009492 0.358042 0.610816
O O4 0.391856 0.000920 0.231387
O O5 0.742050 0.142041 0.383726
O O6 0.373019 0.480407 0.730355
O O7 0.692105 0.371632 0.404773
O O8 0.633816 0.126926 0.227815
O O9 0.597126 0.675018 0.033434
O O10 0.307583 0.773630 0.106616
O O11 0.671103 0.582935 0.727685
O O12 0.789397 0.274095 0.633513
O O13 0.094635 0.012580 0.153517
O O14 0.002770 0.862505 0.216062
O O15 0.982674 0.709580 0.750688
O O16 0.200388 0.579745 0.076762
#
# Coordination Sequence:
#
# PCOD8039245 Si02
#       8
#     2   2   2   2   2   2   2   2
#     4  11  22  36  57  88 115 146 183 228 283 336
#     4  10  22  37  56  86 117 148 182 229 276 333
#     4  11  20  34  55  85 114 143 182 234 283 324
#     4  10  18  33  54  79 112 147 178 232 282 322
#     4  10  19  37  57  82 119 146 183 227 279 332
#     4  11  21  34  55  82 117 145 184 237 281 320
#     4  11  21  34  54  85 114 146 188 232 278 325
#     4  10  19  37  57  82 119 144 181 230 284 329
#
# _framework density 23.073998
#
# number of rings (size 3 to 8) (size 9 to 14) (size 15 to 20)
#    0.000    1.500    7.500    3.000    0.000    0.500 
#    2.250    0.000    0.000    0.750    0.000    4.375 
#    0.000    0.000    0.000    0.000    0.000    0.000 
#
# Total GULP energy -198429.646282 kJ/mol
# GULP energy per Si atom -12401.852893 kJ/mol
# Density = 2.302148 g / cm^3
# Si number density = 23.073998 Si / 1000 Ang^3
#
#
#
# Elastic Constant Matrix: (Units=GPa)
#
#
# Indices 1 2 3 4 5 6 
#
# 1 39.7500 27.5318 31.2342 10.9782 -5.2080 -5.8134
# 2 27.5318 121.5507 51.2356 28.5399 1.7142 -4.4323
# 3 31.2342 51.2356 80.7707 20.0129 0.9728 -10.2181
# 4 10.9782 28.5399 20.0129 36.6125 -12.3962 -7.2476
# 5 -5.2080 1.7142 0.9728 -12.3962 15.7093 6.6968
# 6 -5.8134 -4.4323 -10.2181 -7.2476 6.6968 16.1304
#
#
#
# Elastic Compliance Matrix: (Units=1/GPa)
#
#
# Indices 1 2 3 4 5 6 
#
# 1 0.040810 -0.004862 -0.014706 0.006234 0.020616 -0.001701
# 2 -0.004862 0.013760 -0.004107 -0.010969 -0.011141 -0.000876
# 3 -0.014706 -0.004107 0.025059 -0.010116 -0.019502 0.012996
# 4 0.006234 -0.010969 -0.010116 0.055550 0.048776 -0.002467
# 5 0.020616 -0.011141 -0.019502 0.048776 0.128145 -0.039271
# 6 -0.001701 -0.000876 0.012996 -0.002467 -0.039271 0.084569
#
#
# Mechanical properties :
#
#
# Convention : Reuss Voigt Hill
#
# Bulk Modulus (GPa) = 30.97954 51.34164 41.16059
# Shear Modulus (GPa) = 12.31519 22.49510 17.40514
#
# Velocity S-wave (km/s) = 2.31276 3.12574 2.74947
# Velocity P-wave (km/s) = 4.53730 5.94359 5.28741
#
# Compressibility (1/GPa) = 0.03227937
#
# Stress axis : x y z
#
# Youngs Moduli (GPa) = 24.50370 72.67372 39.90652
#
# Poissons Ratio (x) = 0.35331 0.58686
# Poissons Ratio (y) = 0.11913 0.16391
# Poissons Ratio (z) = 0.36035 0.29850
#
# Static dielectric constant tensor:
#      x y z
#    x 3.740340 -0.162910 -0.134110 
#    y -0.162910 4.194150 0.211070 
#    z -0.134110 0.211070 4.116460 
# 
# 
# High freq. dielectric constant tensor:
#      x y z
#    x 1.871210 -0.018370 -0.024410 
#    y -0.018370 1.906210 0.018890 
#    z -0.024410 0.018890 1.908720 
# 
# From -- ./inp_files/424451.got.cif
#   From: 2010.06.25/outbox.cif.g09.slc.cpg/sg2_213_cif.got.tgz:424451.got - 2010.06.27 13:26:56.
