data_PCOD8039065
_publ_section_title
;
Structure prediction by ZEFSAII (Michael W. Deem and Ramdas Pophale) SiO2 
 PCOD8039065
Probable space group: P -1
;
_chemical_formula_sum "Si O2"
_cell_formula_units_Z 16
_cell_length_a 12.407290
_cell_length_b 9.255137
_cell_length_c 9.447422
_cell_angle_alpha 72.115569
_cell_angle_beta 75.335372
_cell_angle_gamma 54.281111
_cell_volume 834.385437
_symmetry_space_group_name_H-M "P -1"
_symmetry_group_IT_number 2
_symmetry_cell_setting 'triclinic'
loop_
_space_group_symop_operation_xyz
x,y,z
-x,-y,-z
loop_
_atom_site_type_symbol
_atom_site_label
_atom_site_fract_x
_atom_site_fract_y
_atom_site_fract_z
Si Si1 0.470999 0.165658 0.226109
Si Si2 0.355141 0.247209 0.702320
Si Si3 0.389782 0.746481 0.405223
Si Si4 0.221083 0.148996 0.362998
Si Si5 0.454414 0.587138 0.717871
Si Si6 0.675304 0.580564 0.045779
Si Si7 0.935307 0.504600 0.871477
Si Si8 0.893102 0.661494 0.390392
O O1 0.346729 0.167343 0.331471
O O2 0.499493 0.286616 0.279604
O O3 0.600920 0.961934 0.237595
O O4 0.440881 0.247925 0.054040
O O5 0.476120 0.258661 0.604629
O O6 0.303482 0.341220 0.842545
O O7 0.231106 0.354418 0.603782
O O8 0.363658 0.673288 0.580618
O O9 0.415528 0.613690 0.305135
O O10 0.267546 0.950329 0.347536
O O11 0.114036 0.301599 0.244623
O O12 0.162783 0.165666 0.537052
O O13 0.366043 0.563070 0.869736
O O14 0.813185 0.480051 0.942902
O O15 0.037404 0.339922 0.780460
O O16 0.000000 0.500000 0.000000
O O17 0.000000 0.500000 0.500000
#
# Coordination Sequence:
#
# PCOD8039065 Si02
#       8
#     2   2   2   2   2   2   2   2
#     4  10  19  32  54  85 111 136 172 220 281 321
#     4  10  18  32  55  81 108 137 177 229 265 317
#     4   9  19  34  54  81 109 139 174 217 279 323
#     4   9  19  34  57  85 107 131 183 230 261 320
#     4  10  19  32  51  80 114 143 169 210 275 337
#     4  10  20  33  51  79 110 146 176 216 268 329
#     4  10  19  35  54  79 105 141 184 227 264 301
#     4  10  19  31  52  82 105 136 179 226 265 302
#
# _framework density 19.175789999999999
#
# number of rings (size 3 to 8) (size 9 to 14) (size 15 to 20)
#    0.000    2.250    1.250    2.250    0.000    3.000 
#    0.000    0.000    0.000    3.750   13.000    0.000 
#    0.000    0.000    0.000    0.000    0.000    0.000 
#
# Total GULP energy -198280.304379 kJ/mol
# GULP energy per Si atom -12392.519024 kJ/mol
# Density = 1.913215 g / cm^3
# Si number density = 19.175790 Si / 1000 Ang^3
#
#
#
# Elastic Constant Matrix: (Units=GPa)
#
#
# Indices 1 2 3 4 5 6 
#
# 1 41.8198 20.6073 13.5598 -1.5811 7.6104 -5.0510
# 2 20.6073 83.5397 15.6217 5.6871 -6.4513 10.2792
# 3 13.5598 15.6217 92.8249 5.6607 -7.1765 -5.6341
# 4 -1.5811 5.6871 5.6607 27.6227 0.1189 2.4066
# 5 7.6104 -6.4513 -7.1765 0.1189 32.9094 0.2150
# 6 -5.0510 10.2792 -5.6341 2.4066 0.2150 27.9593
#
#
#
# Elastic Compliance Matrix: (Units=1/GPa)
#
#
# Indices 1 2 3 4 5 6 
#
# 1 0.032853 -0.009509 -0.003726 0.003913 -0.010343 0.008423
# 2 -0.009509 0.016083 -0.001203 -0.002964 0.005150 -0.007658
# 3 -0.003726 -0.001203 0.012080 -0.002665 0.003254 0.002408
# 4 0.003913 -0.002964 -0.002665 0.037764 -0.002190 -0.001974
# 5 -0.010343 0.005150 0.003254 -0.002190 0.034526 -0.003183
# 6 0.008423 -0.007658 0.002408 -0.001974 -0.003183 0.040783
#
#
# Mechanical properties :
#
#
# Convention : Reuss Voigt Hill
#
# Bulk Modulus (GPa) = 31.11429 35.30689 33.21059
# Shear Modulus (GPa) = 23.39960 28.92466 26.16213
#
# Velocity S-wave (km/s) = 3.49702 3.88802 3.69769
# Velocity P-wave (km/s) = 5.70672 6.21352 5.96550
#
# Compressibility (1/GPa) = 0.03213957
#
# Stress axis : x y z
#
# Youngs Moduli (GPa) = 30.43823 62.17846 82.78136
#
# Poissons Ratio (x) = 0.59125 0.30844
# Poissons Ratio (y) = 0.28944 0.09962
# Poissons Ratio (z) = 0.11341 0.07483
#
# Static dielectric constant tensor:
#      x y z
#    x 3.307730 -0.183210 -0.078450 
#    y -0.183210 3.664130 0.166230 
#    z -0.078450 0.166230 3.814820 
# 
# 
# High freq. dielectric constant tensor:
#      x y z
#    x 1.716420 -0.011160 0.004520 
#    y -0.011160 1.734390 0.010010 
#    z 0.004520 0.010010 1.760910 
# 
# From -- ./inp_files/199693.got.cif
#   From: 2010.06.25/outbox.cif.g09.slc.cpg/sg2_100_cif.got.tgz:199693.got - 2010.06.27 13:26:56.
