data_PCOD8039549
_publ_section_title
;
Structure prediction by ZEFSAII (Michael W. Deem and Ramdas Pophale) SiO2 
 PCOD8039549
Probable space group: P -1
;
_chemical_formula_sum "Si O2"
_cell_formula_units_Z 14
_cell_length_a 15.215322
_cell_length_b 12.782065
_cell_length_c 26.511196
_cell_angle_alpha 30.084108
_cell_angle_beta 19.247287
_cell_angle_gamma 27.017946
_cell_volume 761.931891
_symmetry_space_group_name_H-M "P -1"
_symmetry_group_IT_number 2
_symmetry_cell_setting 'triclinic'
loop_
_space_group_symop_operation_xyz
x,y,z
-x,-y,-z
loop_
_atom_site_type_symbol
_atom_site_label
_atom_site_fract_x
_atom_site_fract_y
_atom_site_fract_z
Si Si1 0.600120 0.802488 0.953100
Si Si2 0.786124 0.507216 0.068920
Si Si3 0.004977 0.852711 0.294115
Si Si4 0.792778 0.046022 0.230196
Si Si5 0.769995 0.660746 0.648508
Si Si6 0.629475 0.409986 0.913188
Si Si7 0.183135 0.825015 0.313027
O O1 0.807128 0.659546 0.947182
O O2 0.613869 0.639861 0.965865
O O3 0.258948 0.926572 0.105708
O O4 0.712472 0.991904 0.796531
O O5 0.455743 0.609469 0.228694
O O6 0.884699 0.254365 0.097347
O O7 0.000000 0.500000 0.000000
O O8 0.735022 0.978563 0.347414
O O9 0.135019 0.572650 0.338399
O O10 0.935160 0.933929 0.356294
O O11 0.060798 0.823320 0.152171
O O12 0.504493 0.123797 0.319068
O O13 0.686691 0.612601 0.769890
O O14 0.040764 0.733925 0.472524
O O15 0.500000 0.500000 0.000000
#
# Coordination Sequence:
#
# PCOD8039549 Si02
#       7
#     2   2   2   2   2   2   2
#     4   9  18  35  50  80 110 140 187 220 250 324
#     4  11  18  31  54  85 115 151 177 204 260 335
#     4   9  18  32  51  77 118 148 175 206 254 323
#     4  10  18  34  56  82 106 139 193 210 261 338
#     4  10  20  36  51  84 113 140 183 219 267 335
#     4  10  22  42  61  74 101 140 189 248 275 300
#     4  11  19  32  53  79 127 146 163 223 268 313
#
# _framework density 18.374345000000002
#
# number of rings (size 3 to 8) (size 9 to 14) (size 15 to 20)
#    0.000    2.286    4.286    4.714    0.000    1.143 
#    7.714    0.714    0.000    0.857    0.000    0.000 
#    0.000    0.000    0.000    0.000    0.000    0.000 
#
# Total GULP energy -173466.081455 kJ/mol
# GULP energy per Si atom -12390.434390 kJ/mol
# Density = 1.833252 g / cm^3
# Si number density = 18.374345 Si / 1000 Ang^3
#
#
#
# Elastic Constant Matrix: (Units=GPa)
#
#
# Indices 1 2 3 4 5 6 
#
# 1 99.6233 35.4523 49.3645 -4.1094 11.4274 0.8622
# 2 35.4523 72.7752 38.8215 -9.1172 4.8104 -13.3782
# 3 49.3645 38.8215 127.3358 -22.8388 13.0248 5.0771
# 4 -4.1094 -9.1172 -22.8388 10.9740 -2.6447 -1.8282
# 5 11.4274 4.8104 13.0248 -2.6447 21.4137 5.1305
# 6 0.8622 -13.3782 5.0771 -1.8282 5.1305 32.1142
#
#
#
# Elastic Compliance Matrix: (Units=1/GPa)
#
#
# Indices 1 2 3 4 5 6 
#
# 1 0.014970 -0.005885 -0.005760 -0.012626 -0.004247 -0.001983
# 2 -0.005885 0.021346 -0.002350 0.012067 -0.001203 0.010301
# 3 -0.005760 -0.002350 0.016309 0.029026 -0.002406 -0.001366
# 4 -0.012626 0.012067 0.029026 0.159293 0.003834 0.009233
# 5 -0.004247 -0.001203 -0.002406 0.003834 0.053157 -0.008281
# 6 -0.001983 0.010301 -0.001366 0.009233 -0.008281 0.037548
#
#
# Mechanical properties :
#
#
# Convention : Reuss Voigt Hill
#
# Bulk Modulus (GPa) = 40.59268 60.77897 50.68582
# Shear Modulus (GPa) = 14.75688 24.64013 19.69850
#
# Velocity S-wave (km/s) = 2.83702 3.66595 3.27779
# Velocity P-wave (km/s) = 5.73337 7.14625 6.47844
#
# Compressibility (1/GPa) = 0.02463499
#
# Stress axis : x y z
#
# Youngs Moduli (GPa) = 66.80038 46.84645 61.31453
#
# Poissons Ratio (x) = 0.27571 0.35318
# Poissons Ratio (y) = 0.39315 0.14407
# Poissons Ratio (z) = 0.38478 0.11008
#
# Static dielectric constant tensor:
#      x y z
#    x 3.482790 -0.391110 -0.111470 
#    y -0.391110 3.280380 -0.156540 
#    z -0.111470 -0.156540 3.307470 
# 
# 
# High freq. dielectric constant tensor:
#      x y z
#    x 1.699540 -0.031650 -0.010190 
#    y -0.031650 1.692070 -0.021940 
#    z -0.010190 -0.021940 1.696090 
# 
# From -- ./inp_files/214610.got.cif
#   From: 2010.06.25/outbox.cif.g09.slc.cpg/sg2_108_cif.got.tgz:214610.got - 2010.06.27 13:26:56.
