data_PCOD8039896
_publ_section_title
;
Structure prediction by ZEFSAII (Michael W. Deem and Ramdas Pophale) SiO2 
 PCOD8039896
Probable space group: P -1
;
_chemical_formula_sum "Si O2"
_cell_formula_units_Z 16
_cell_length_a 13.506110
_cell_length_b 8.645061
_cell_length_c 11.708863
_cell_angle_alpha 94.119572
_cell_angle_beta 127.378535
_cell_angle_gamma 54.301661
_cell_volume 793.293083
_symmetry_space_group_name_H-M "P -1"
_symmetry_group_IT_number 2
_symmetry_cell_setting 'triclinic'
loop_
_space_group_symop_operation_xyz
x,y,z
-x,-y,-z
loop_
_atom_site_type_symbol
_atom_site_label
_atom_site_fract_x
_atom_site_fract_y
_atom_site_fract_z
Si Si1 0.679193 0.798261 0.990041
Si Si2 0.342678 0.744195 0.379489
Si Si3 0.667332 0.041977 0.200928
Si Si4 0.742562 0.960981 0.851954
Si Si5 0.923458 0.056042 0.326103
Si Si6 0.049984 0.772878 0.198337
Si Si7 0.059648 0.412884 0.206797
Si Si8 0.840771 0.890801 0.554063
O O1 0.534137 0.790479 0.904392
O O2 0.625998 0.954338 0.853729
O O3 0.855834 0.565266 0.071972
O O4 0.706884 0.876130 0.127236
O O5 0.500000 0.500000 0.500000
O O6 0.186941 0.766949 0.234133
O O7 0.376573 0.829673 0.299577
O O8 0.298818 0.881657 0.468558
O O9 0.725729 0.164470 0.202365
O O10 0.777283 0.908668 0.383320
O O11 0.867387 0.750541 0.852604
O O12 0.869641 0.953648 0.019254
O O13 0.970852 0.184119 0.312129
O O14 0.000000 0.000000 0.500000
O O15 0.025721 0.837969 0.317070
O O16 0.115581 0.541245 0.230621
O O17 0.138386 0.288807 0.375223
#
# Coordination Sequence:
#
# PCOD8039896 Si02
#       8
#     2   2   2   2   2   2   2   2
#     4  10  20  34  59  87 114 149 187 238 287 331
#     4  10  22  37  57  85 113 148 190 238 293 339
#     4  10  19  36  58  79 117 152 188 235 285 325
#     4  10  20  37  59  84 116 147 191 236 286 345
#     4   9  17  35  56  77 111 158 189 229 271 337
#     4  10  18  35  58  82 111 153 188 230 286 337
#     4  10  20  36  57  91 112 147 198 230 285 345
#     4   9  21  36  58  84 115 151 191 235 283 342
#
# _framework density 20.169089
#
# number of rings (size 3 to 8) (size 9 to 14) (size 15 to 20)
#    0.000    2.250    2.500    1.875    0.000    3.500 
#    0.000    3.125   11.000    0.000    0.000    0.000 
#    0.000    0.000    0.000    0.000    0.000    0.000 
#
# Total GULP energy -198237.717679 kJ/mol
# GULP energy per Si atom -12389.857355 kJ/mol
# Density = 2.012318 g / cm^3
# Si number density = 20.169089 Si / 1000 Ang^3
#
#
#
# Elastic Constant Matrix: (Units=GPa)
#
#
# Indices 1 2 3 4 5 6 
#
# 1 99.2283 30.7072 39.2047 2.6018 -3.8098 -4.5069
# 2 30.7072 68.0724 38.7967 -5.7189 -13.2444 3.3876
# 3 39.2047 38.7967 82.1937 8.4154 -12.7672 0.0511
# 4 2.6018 -5.7189 8.4154 27.9569 3.7648 -1.9555
# 5 -3.8098 -13.2444 -12.7672 3.7648 39.0660 0.6838
# 6 -4.5069 3.3876 0.0511 -1.9555 0.6838 20.5679
#
#
#
# Elastic Compliance Matrix: (Units=1/GPa)
#
#
# Indices 1 2 3 4 5 6 
#
# 1 0.013228 -0.003734 -0.004788 -0.000089 -0.001594 0.003570
# 2 -0.003734 0.023229 -0.009309 0.007097 0.003856 -0.004074
# 3 -0.004788 -0.009309 0.020262 -0.008100 0.003788 -0.000462
# 4 -0.000089 0.007097 -0.008100 0.040430 -0.004195 0.002815
# 5 -0.001594 0.003856 0.003788 -0.004195 0.028433 -0.002338
# 6 0.003570 -0.004074 -0.000462 0.002815 -0.002338 0.050419
#
#
# Mechanical properties :
#
#
# Convention : Reuss Voigt Hill
#
# Bulk Modulus (GPa) = 47.48670 51.87908 49.68289
# Shear Modulus (GPa) = 22.86436 26.90388 24.88412
#
# Velocity S-wave (km/s) = 3.37060 3.65624 3.51632
# Velocity P-wave (km/s) = 6.22441 6.60319 6.41660
#
# Compressibility (1/GPa) = 0.02105853
#
# Stress axis : x y z
#
# Youngs Moduli (GPa) = 75.59623 43.04938 49.35363
#
# Poissons Ratio (x) = 0.16073 0.23630
# Poissons Ratio (y) = 0.28226 0.45942
# Poissons Ratio (z) = 0.36195 0.40073
#
# Static dielectric constant tensor:
#      x y z
#    x 4.371070 0.086710 -0.016500 
#    y 0.086710 3.445690 0.268350 
#    z -0.016500 0.268350 3.579040 
# 
# 
# High freq. dielectric constant tensor:
#      x y z
#    x 1.807900 -0.001530 -0.008240 
#    y -0.001530 1.760740 0.029890 
#    z -0.008240 0.029890 1.775350 
# 
# From -- ./inp_files/225298.got.cif
#   From: 2010.06.25/outbox.cif.g09.slc.cpg/sg2_113_cif.got.tgz:225298.got - 2010.06.27 13:26:56.
