data_PCOD8039791
_publ_section_title
;
Structure prediction by ZEFSAII (Michael W. Deem and Ramdas Pophale) SiO2 
 PCOD8039791
Probable space group: P -1
;
_chemical_formula_sum "Si O2"
_cell_formula_units_Z 14
_cell_length_a 17.194892
_cell_length_b 8.618775
_cell_length_c 14.198473
_cell_angle_alpha 127.223000
_cell_angle_beta 156.764355
_cell_angle_gamma 44.161767
_cell_volume 566.957532
_symmetry_space_group_name_H-M "P -1"
_symmetry_group_IT_number 2
_symmetry_cell_setting 'triclinic'
loop_
_space_group_symop_operation_xyz
x,y,z
-x,-y,-z
loop_
_atom_site_type_symbol
_atom_site_label
_atom_site_fract_x
_atom_site_fract_y
_atom_site_fract_z
Si Si1 0.082818 0.992269 0.867512
Si Si2 0.300541 0.604713 0.504366
Si Si3 0.266072 0.904906 0.783819
Si Si4 0.610914 0.749033 0.942123
Si Si5 0.250987 0.209600 0.283325
Si Si6 0.564128 0.580541 0.201056
Si Si7 0.933379 0.682525 0.675132
O O1 0.934205 0.900599 0.717964
O O2 0.307035 0.789131 0.995086
O O3 0.938326 0.155730 0.680959
O O4 0.123394 0.142894 0.041734
O O5 0.512554 0.637376 0.716748
O O6 0.284399 0.413525 0.356077
O O7 0.344417 0.526289 0.632733
O O8 0.394099 0.884527 0.820650
O O9 0.392811 0.655922 0.890267
O O10 0.000000 0.000000 0.500000
O O11 0.309479 0.085828 0.956220
O O12 0.826209 0.546639 0.162620
O O13 0.104495 0.288757 0.244673
O O14 0.500000 0.000000 0.500000
O O15 0.735560 0.665798 0.391369
#
# Coordination Sequence:
#
# PCOD8039791 Si02
#       7
#     2   2   2   2   2   2   2
#     4  12  22  41  63  89 126 163 206 250 300 365
#     4  10  22  40  62  89 128 162 196 257 304 357
#     4  10  18  34  68  91 113 164 204 242 308 365
#     4  10  20  37  61  93 122 154 206 250 300 367
#     4  11  21  41  65  86 124 165 206 249 301 357
#     4  10  21  41  62  89 127 159 203 252 305 359
#     4  11  20  38  64  88 123 163 200 253 302 353
#
# _framework density 24.693206
#
# number of rings (size 3 to 8) (size 9 to 14) (size 15 to 20)
#    0.000    1.429    7.143    0.857    0.000    0.000 
#    5.143    2.143    0.000    4.286    0.000    0.000 
#    0.000    0.000    0.000    0.000    0.000    0.000 
#
# Total GULP energy -173506.164355 kJ/mol
# GULP energy per Si atom -12393.297454 kJ/mol
# Density = 2.463700 g / cm^3
# Si number density = 24.693206 Si / 1000 Ang^3
#
#
#
# Elastic Constant Matrix: (Units=GPa)
#
#
# Indices 1 2 3 4 5 6 
#
# 1 45.0718 32.1819 29.5555 12.8664 7.8279 -14.3036
# 2 32.1819 229.2839 103.8438 31.1140 10.7372 24.2365
# 3 29.5555 103.8438 150.0716 7.6570 37.0328 20.5765
# 4 12.8664 31.1140 7.6570 82.3473 5.8836 1.0792
# 5 7.8279 10.7372 37.0328 5.8836 25.6995 -0.4309
# 6 -14.3036 24.2365 20.5765 1.0792 -0.4309 28.4525
#
#
#
# Elastic Compliance Matrix: (Units=1/GPa)
#
#
# Indices 1 2 3 4 5 6 
#
# 1 0.044514 -0.003914 -0.012582 -0.005340 0.008019 0.035135
# 2 -0.003914 0.007892 -0.005497 -0.002246 0.006254 -0.004535
# 3 -0.012582 -0.005497 0.021698 0.004145 -0.026387 -0.017891
# 4 -0.005340 -0.002246 0.004145 0.013976 -0.006681 -0.004400
# 5 0.008019 0.006254 -0.026387 -0.006681 0.073730 0.019156
# 6 0.035135 -0.004535 -0.017891 -0.004400 0.019156 0.070068
#
#
# Mechanical properties :
#
#
# Convention : Reuss Voigt Hill
#
# Bulk Modulus (GPa) = 33.20310 83.95443 58.57876
# Shear Modulus (GPa) = 17.48844 44.55627 31.02235
#
# Velocity S-wave (km/s) = 2.66414 4.25242 3.54829
# Velocity P-wave (km/s) = 4.78947 7.62782 6.36878
#
# Compressibility (1/GPa) = 0.03011767
#
# Stress axis : x y z
#
# Youngs Moduli (GPa) = 22.46476 126.71584 46.08757
#
# Poissons Ratio (x) = 0.49603 0.57987
# Poissons Ratio (y) = 0.08794 0.25333
# Poissons Ratio (z) = 0.28265 0.69652
#
# Static dielectric constant tensor:
#      x y z
#    x 3.131350 0.608190 0.649870 
#    y 0.608190 5.930500 0.594640 
#    z 0.649870 0.594640 4.736590 
# 
# 
# High freq. dielectric constant tensor:
#      x y z
#    x 1.945850 0.006990 0.007160 
#    y 0.006990 2.020530 0.011420 
#    z 0.007160 0.011420 2.005370 
# 
# From -- ./inp_files/348555.got.cif
#   From: 2010.06.25/outbox.cif.g09.slc.cpg/sg2_175_cif.got.tgz:348555.got - 2010.06.27 13:26:56.
