data_PCOD8039382
_publ_section_title
;
Structure prediction by ZEFSAII (Michael W. Deem and Ramdas Pophale) SiO2 
 PCOD8039382
Probable space group: P -1
;
_chemical_formula_sum "Si O2"
_cell_formula_units_Z 16
_cell_length_a 15.579353
_cell_length_b 12.180997
_cell_length_c 12.079011
_cell_angle_alpha 138.823447
_cell_angle_beta 53.995008
_cell_angle_gamma 150.593159
_cell_volume 724.514263
_symmetry_space_group_name_H-M "P -1"
_symmetry_group_IT_number 2
_symmetry_cell_setting 'triclinic'
loop_
_space_group_symop_operation_xyz
x,y,z
-x,-y,-z
loop_
_atom_site_type_symbol
_atom_site_label
_atom_site_fract_x
_atom_site_fract_y
_atom_site_fract_z
Si Si1 0.647034 0.474832 0.255750
Si Si2 0.878402 0.481507 0.136507
Si Si3 0.868846 0.075857 0.536214
Si Si4 0.444534 0.086430 0.330514
Si Si5 0.420995 0.088347 0.944727
Si Si6 0.444053 0.745783 0.388650
Si Si7 0.930417 0.652641 0.630892
Si Si8 0.237389 0.916982 0.732086
O O1 0.794699 0.518317 0.148486
O O2 0.526800 0.267424 0.294001
O O3 0.737459 0.763123 0.437121
O O4 0.529338 0.354538 0.142211
O O5 0.973477 0.705566 0.330392
O O6 0.714827 0.172369 0.070331
O O7 0.000000 0.500000 0.000000
O O8 0.953061 0.135310 0.399383
O O9 0.759129 0.110835 0.646093
O O10 0.558040 0.286971 0.503010
O O11 0.443816 0.883668 0.180707
O O12 0.309313 0.037368 0.893402
O O13 0.237927 0.442557 0.279015
O O14 0.500000 0.000000 0.500000
O O15 0.594449 0.818970 0.273577
O O16 0.833995 0.360086 0.443397
O O17 0.065114 0.813018 0.755148
#
# Coordination Sequence:
#
# PCOD8039382 Si02
#       8
#     2   2   2   2   2   2   2   2
#     4  11  25  40  57  90 131 165 197 250 323 375
#     4  11  22  40  61  90 119 159 213 258 298 360
#     4  12  22  38  62  92 126 163 201 256 317 371
#     4  11  20  37  63  88 119 163 209 251 306 372
#     4  11  21  40  59  89 121 159 207 260 301 369
#     4  10  18  33  58  94 117 148 206 271 305 344
#     4  10  19  34  58  94 119 154 213 260 303 365
#     4  10  19  35  61  92 118 158 211 262 307 353
#
# _framework density 22.083763000000001
#
# number of rings (size 3 to 8) (size 9 to 14) (size 15 to 20)
#    0.000    1.250    5.000    4.500    0.000    0.000 
#    2.250    0.625    0.000    0.750    0.000    0.000 
#    0.000    0.000    0.000    0.000    0.000    0.000 
#
# Total GULP energy -198265.368737 kJ/mol
# GULP energy per Si atom -12391.585546 kJ/mol
# Density = 2.203350 g / cm^3
# Si number density = 22.083763 Si / 1000 Ang^3
#
#
#
# Elastic Constant Matrix: (Units=GPa)
#
#
# Indices 1 2 3 4 5 6 
#
# 1 93.5787 27.4629 18.8507 -4.2499 30.2312 22.2962
# 2 27.4629 124.1303 124.1895 7.9468 80.6080 18.7011
# 3 18.8507 124.1895 371.5236 34.9261 228.1325 -8.8342
# 4 -4.2499 7.9468 34.9261 26.3208 23.8583 1.8692
# 5 30.2312 80.6080 228.1325 23.8583 172.9461 -7.2561
# 6 22.2962 18.7011 -8.8342 1.8692 -7.2561 38.0964
#
#
#
# Elastic Compliance Matrix: (Units=1/GPa)
#
#
# Indices 1 2 3 4 5 6 
#
# 1 0.015812 -0.000606 0.004662 0.006254 -0.009917 -0.010071
# 2 -0.000606 0.014746 -0.003992 0.003459 -0.002331 -0.008423
# 3 0.004662 -0.003992 0.016633 -0.001240 -0.020758 -0.000804
# 4 0.006254 0.003459 -0.001240 0.047557 -0.008029 -0.009508
# 5 -0.009917 -0.002331 -0.020758 -0.008029 0.037497 0.009670
# 6 -0.010071 -0.008423 -0.000804 -0.009508 0.009670 0.038400
#
#
# Mechanical properties :
#
#
# Convention : Reuss Voigt Hill
#
# Bulk Modulus (GPa) = 21.13342 103.35986 62.24664
# Shear Modulus (GPa) = 26.83987 75.38797 51.11392
#
# Velocity S-wave (km/s) = 3.48999 5.84905 4.81619
# Velocity P-wave (km/s) = 5.08237 9.61875 7.69256
#
# Compressibility (1/GPa) = 0.04731842
#
# Stress axis : x y z
#
# Youngs Moduli (GPa) = 63.24259 67.81579 60.12095
#
# Poissons Ratio (x) = 0.04111 -0.28030
# Poissons Ratio (y) = 0.03834 0.24003
# Poissons Ratio (z) = -0.29485 0.27075
#
# Static dielectric constant tensor:
#      x y z
#    x 3.656580 -0.036670 0.833980 
#    y -0.036670 3.837490 0.368940 
#    z 0.833980 0.368940 2.996970 
# 
# 
# High freq. dielectric constant tensor:
#      x y z
#    x 1.871150 0.022800 0.029750 
#    y 0.022800 1.873320 -0.007670 
#    z 0.029750 -0.007670 1.829160 
# 
# From -- ./inp_files/186920.got.cif
#   From: 2010.06.25/outbox.cif.g09.slc.cpg/sg2_94_cif.got.tgz:186920.got - 2010.06.27 13:26:56.
