data_PCOD8039520
_publ_section_title
;
Structure prediction by ZEFSAII (Michael W. Deem and Ramdas Pophale) SiO2 
 PCOD8039520
Probable space group: P -1
;
_chemical_formula_sum "Si O2"
_cell_formula_units_Z 12
_cell_length_a 6.658534
_cell_length_b 14.289039
_cell_length_c 9.052067
_cell_angle_alpha 72.622747
_cell_angle_beta 130.759042
_cell_angle_gamma 112.248044
_cell_volume 602.168617
_symmetry_space_group_name_H-M "P -1"
_symmetry_group_IT_number 2
_symmetry_cell_setting 'triclinic'
loop_
_space_group_symop_operation_xyz
x,y,z
-x,-y,-z
loop_
_atom_site_type_symbol
_atom_site_label
_atom_site_fract_x
_atom_site_fract_y
_atom_site_fract_z
Si Si1 0.321821 0.371202 0.581127
Si Si2 0.066807 0.216182 0.773934
Si Si3 0.068241 0.233501 0.108549
Si Si4 0.463036 0.106420 0.880810
Si Si5 0.540684 0.805194 0.455545
Si Si6 0.193155 0.445215 0.202152
O O1 0.185212 0.317119 0.688262
O O2 0.477042 0.299631 0.595931
O O3 0.105896 0.401790 0.347536
O O4 0.514732 0.475750 0.681976
O O5 0.201125 0.127300 0.827524
O O6 0.743077 0.193620 0.601904
O O7 0.138276 0.224678 0.976160
O O8 0.225317 0.170462 0.318471
O O9 0.199350 0.350767 0.148004
O O10 0.743127 0.194717 0.003963
O O11 0.396220 0.103001 0.675579
O O12 0.500000 0.000000 0.000000
O O13 0.000000 0.500000 0.000000
#
# Coordination Sequence:
#
# PCOD8039520 Si02
#       6
#     2   2   2   2   2   2
#     4   9  20  35  53  79 114 150 180 217 266 319
#     4  10  20  37  58  80 109 146 182 224 274 323
#     4  10  22  37  56  84 112 142 186 229 267 322
#     4  10  22  40  59  80 109 143 180 228 282 329
#     4   9  20  38  56  82 115 144 181 224 268 324
#     4  10  18  34  55  78 112 148 182 221 264 316
#
# _framework density 19.927973000000001
#
# number of rings (size 3 to 8) (size 9 to 14) (size 15 to 20)
#    0.000    2.333    0.000    3.000    0.000    9.333 
#    0.000   15.000    0.000    0.000    0.000    0.000 
#    0.000    0.000    0.000    0.000    0.000    0.000 
#
# Total GULP energy -148667.591081 kJ/mol
# GULP energy per Si atom -12388.965923 kJ/mol
# Density = 1.988262 g / cm^3
# Si number density = 19.927973 Si / 1000 Ang^3
#
#
#
# Elastic Constant Matrix: (Units=GPa)
#
#
# Indices 1 2 3 4 5 6 
#
# 1 114.8944 21.1744 51.3306 -5.4501 3.8067 3.7710
# 2 21.1744 55.7835 27.1183 -23.9697 -5.2694 4.6240
# 3 51.3306 27.1183 181.5187 -26.5952 -6.8005 4.7756
# 4 -5.4501 -23.9697 -26.5952 35.7471 3.7738 -3.3100
# 5 3.8067 -5.2694 -6.8005 3.7738 29.9342 -8.6375
# 6 3.7710 4.6240 4.7756 -3.3100 -8.6375 11.0225
#
#
#
# Elastic Compliance Matrix: (Units=1/GPa)
#
#
# Indices 1 2 3 4 5 6 
#
# 1 0.010904 -0.004089 -0.002978 -0.003333 -0.003697 -0.004622
# 2 -0.004089 0.027394 -0.000278 0.017014 0.002237 -0.003110
# 3 -0.002978 -0.000278 0.007099 0.004536 0.001555 0.000641
# 4 -0.003333 0.017014 0.004536 0.042679 0.000606 0.005329
# 5 -0.003697 0.002237 0.001555 0.000606 0.044580 0.034769
# 6 -0.004622 -0.003110 0.000641 0.005329 0.034769 0.122178
#
#
# Mechanical properties :
#
#
# Convention : Reuss Voigt Hill
#
# Bulk Modulus (GPa) = 32.56621 61.27144 46.91882
# Shear Modulus (GPa) = 17.87258 32.17896 25.02577
#
# Velocity S-wave (km/s) = 2.99801 4.02277 3.54759
# Velocity P-wave (km/s) = 5.32555 7.23810 6.35420
#
# Compressibility (1/GPa) = 0.03070667
#
# Stress axis : x y z
#
# Youngs Moduli (GPa) = 91.71215 36.50481 140.87249
#
# Poissons Ratio (x) = 0.14928 0.41946
# Poissons Ratio (y) = 0.37505 0.03911
# Poissons Ratio (z) = 0.27308 0.01013
#
# Static dielectric constant tensor:
#      x y z
#    x 3.428930 0.176270 -0.095190 
#    y 0.176270 3.327220 -0.237840 
#    z -0.095190 -0.237840 4.364100 
# 
# 
# High freq. dielectric constant tensor:
#      x y z
#    x 1.756200 0.004670 -0.011800 
#    y 0.004670 1.762510 -0.019050 
#    z -0.011800 -0.019050 1.809740 
# 
# From -- ./inp_files/29579.got.cif
#   From: 2010.06.25/outbox.cif.g09.slc.cpg/sg2_15_cif.got.tgz:29579.got - 2010.06.27 13:26:56.
