data_PCOD8039375
_publ_section_title
;
Structure prediction by ZEFSAII (Michael W. Deem and Ramdas Pophale) SiO2 
 PCOD8039375
Probable space group: P -1
;
_chemical_formula_sum "Si O2"
_cell_formula_units_Z 16
_cell_length_a 11.897020
_cell_length_b 14.653426
_cell_length_c 9.325720
_cell_angle_alpha 67.634456
_cell_angle_beta 118.220123
_cell_angle_gamma 60.208806
_cell_volume 737.836181
_symmetry_space_group_name_H-M "P -1"
_symmetry_group_IT_number 2
_symmetry_cell_setting 'triclinic'
loop_
_space_group_symop_operation_xyz
x,y,z
-x,-y,-z
loop_
_atom_site_type_symbol
_atom_site_label
_atom_site_fract_x
_atom_site_fract_y
_atom_site_fract_z
Si Si1 0.126419 0.117955 0.701360
Si Si2 0.734770 0.653157 0.739840
Si Si3 0.504075 0.726331 0.082491
Si Si4 0.285075 0.148129 0.541753
Si Si5 0.696672 0.746862 0.968334
Si Si6 0.909489 0.360434 0.691466
Si Si7 0.708236 0.319411 0.147359
Si Si8 0.858938 0.362276 0.970031
O O1 0.182410 0.185539 0.612836
O O2 0.033608 0.207843 0.746346
O O3 0.935732 0.180242 0.462298
O O4 0.350674 0.903602 0.973361
O O5 0.653670 0.774801 0.485061
O O6 0.623034 0.757236 0.760487
O O7 0.688997 0.566920 0.739558
O O8 0.000000 0.500000 0.000000
O O9 0.656211 0.557070 0.374267
O O10 0.679881 0.667226 0.116200
O O11 0.336252 0.766528 0.861280
O O12 0.524485 0.941821 0.793313
O O13 0.107742 0.228573 0.264134
O O14 0.950910 0.628715 0.197778
O O15 0.891410 0.307448 0.857830
O O16 0.500000 0.500000 0.000000
O O17 0.736556 0.356583 0.990371
#
# Coordination Sequence:
#
# PCOD8039375 Si02
#       8
#     2   2   2   2   2   2   2   2
#     4  10  24  43  66  96 124 166 215 260 317 371
#     4  10  18  33  58  90 123 159 211 251 306 370
#     4  11  25  42  65  95 127 171 213 254 315 379
#     4   9  20  38  62  88 128 165 214 257 300 382
#     4  11  22  38  63  96 127 168 210 257 315 376
#     4  12  24  40  62  95 140 161 199 265 327 372
#     4  11  21  46  75  86 121 170 221 264 299 375
#     4  10  23  39  63  97 123 168 212 259 315 371
#
# _framework density 21.685030999999999
#
# number of rings (size 3 to 8) (size 9 to 14) (size 15 to 20)
#    0.000    1.500    3.750    1.875    3.500    4.500 
#    0.000    0.625    0.000    0.000    0.000    0.000 
#    0.000    0.000    0.000    0.000    0.000    0.000 
#
# Total GULP energy -198363.452338 kJ/mol
# GULP energy per Si atom -12397.715771 kJ/mol
# Density = 2.163568 g / cm^3
# Si number density = 21.685031 Si / 1000 Ang^3
#
#
#
# Elastic Constant Matrix: (Units=GPa)
#
#
# Indices 1 2 3 4 5 6 
#
# 1 82.8304 35.8432 23.4437 11.5652 -5.4220 -14.3548
# 2 35.8432 113.1533 25.6170 10.2009 -13.1175 -17.5634
# 3 23.4437 25.6170 61.4660 -1.9382 -2.1459 -10.6181
# 4 11.5652 10.2009 -1.9382 27.9753 -2.6386 -2.9337
# 5 -5.4220 -13.1175 -2.1459 -2.6386 25.9254 4.3653
# 6 -14.3548 -17.5634 -10.6181 -2.9337 4.3653 37.8020
#
#
#
# Elastic Compliance Matrix: (Units=1/GPa)
#
#
# Indices 1 2 3 4 5 6 
#
# 1 0.015949 -0.003054 -0.004465 -0.005448 0.000375 0.002917
# 2 -0.003054 0.011662 -0.003162 -0.002523 0.004292 0.002679
# 3 -0.004465 -0.003162 0.019902 0.004595 -0.000905 0.002886
# 4 -0.005448 -0.002523 0.004595 0.039504 0.001833 0.000904
# 5 0.000375 0.004292 -0.000905 0.001833 0.041398 -0.002756
# 6 0.002917 0.002679 0.002886 0.000904 -0.002756 0.030005
#
#
# Mechanical properties :
#
#
# Convention : Reuss Voigt Hill
#
# Bulk Modulus (GPa) = 38.24074 47.47305 42.85689
# Shear Modulus (GPa) = 26.52529 29.84358 28.18444
#
# Velocity S-wave (km/s) = 3.50123 3.71378 3.60907
# Velocity P-wave (km/s) = 5.83247 6.35053 6.09700
#
# Compressibility (1/GPa) = 0.02615012
#
# Stress axis : x y z
#
# Youngs Moduli (GPa) = 62.70039 85.75071 50.24589
#
# Poissons Ratio (x) = 0.26186 0.22435
# Poissons Ratio (y) = 0.19147 0.15890
# Poissons Ratio (z) = 0.27996 0.27118
#
# Static dielectric constant tensor:
#      x y z
#    x 5.896990 -0.599130 -1.754450 
#    y -0.599130 4.342410 0.539120 
#    z -1.754450 0.539120 5.300960 
# 
# 
# High freq. dielectric constant tensor:
#      x y z
#    x 1.846100 -0.010320 -0.008860 
#    y -0.010320 1.852700 -0.005490 
#    z -0.008860 -0.005490 1.842960 
# 
# From -- ./inp_files/272685.got.cif
#   From: 2010.06.25/outbox.cif.g09.slc.cpg/sg2_137_cif.got.tgz:272685.got - 2010.06.27 13:26:56.
