data_PCOD8039681
_publ_section_title
;
Structure prediction by ZEFSAII (Michael W. Deem and Ramdas Pophale) SiO2 
 PCOD8039681
Probable space group: P -1
;
_chemical_formula_sum "Si O2"
_cell_formula_units_Z 16
_cell_length_a 14.660084
_cell_length_b 28.148399
_cell_length_c 9.427030
_cell_angle_alpha 40.250544
_cell_angle_beta 39.188608
_cell_angle_gamma 19.902657
_cell_volume 825.987173
_symmetry_space_group_name_H-M "P -1"
_symmetry_group_IT_number 2
_symmetry_cell_setting 'triclinic'
loop_
_space_group_symop_operation_xyz
x,y,z
-x,-y,-z
loop_
_atom_site_type_symbol
_atom_site_label
_atom_site_fract_x
_atom_site_fract_y
_atom_site_fract_z
Si Si1 0.036510 0.369302 0.186093
Si Si2 0.253117 0.422101 0.694520
Si Si3 0.974971 0.638275 0.319697
Si Si4 0.341831 0.111012 0.557268
Si Si5 0.809264 0.315894 0.882570
Si Si6 0.181748 0.761330 0.664643
Si Si7 0.779726 0.411276 0.131749
Si Si8 0.572946 0.040424 0.729101
O O1 0.246300 0.232224 0.342602
O O2 0.810023 0.504986 0.252326
O O3 0.888325 0.378812 0.232731
O O4 0.211658 0.354030 0.925925
O O5 0.576644 0.292789 0.564095
O O6 0.047555 0.532447 0.559490
O O7 0.646091 0.798718 0.343224
O O8 0.143292 0.626587 0.230810
O O9 0.087707 0.586860 0.140633
O O10 0.561434 0.025060 0.613365
O O11 0.078252 0.178315 0.778245
O O12 0.500000 0.000000 0.500000
O O13 0.551272 0.434633 0.817253
O O14 0.746438 0.284772 0.152330
O O15 0.140811 0.704834 0.751450
O O16 0.885041 0.932374 0.630330
O O17 0.500000 0.000000 0.000000
#
# Coordination Sequence:
#
# PCOD8039681 Si02
#       8
#     2   2   2   2   2   2   2   2
#     4  11  25  38  58  89 125 161 192 235 306 365
#     4  11  22  43  60  81 128 164 189 239 304 357
#     4  10  18  36  60  85 117 155 195 244 291 341
#     4  11  22  37  57  87 125 153 189 251 302 344
#     4  10  18  34  59  91 116 142 205 257 288 330
#     4  11  19  35  65  90 111 154 203 255 283 339
#     4  11  19  33  63  91 111 146 212 251 284 331
#     4  11  19  33  59  91 113 151 200 242 293 352
#
# _framework density 19.370761999999999
#
# number of rings (size 3 to 8) (size 9 to 14) (size 15 to 20)
#    0.000    1.250    8.750    1.500    0.000    3.500 
#    0.000    0.625    2.750    1.500    0.000    0.000 
#    0.000    0.000    0.000    0.000    0.000    0.000 
#
# Total GULP energy -198390.661238 kJ/mol
# GULP energy per Si atom -12399.416327 kJ/mol
# Density = 1.932667 g / cm^3
# Si number density = 19.370762 Si / 1000 Ang^3
#
#
#
# Elastic Constant Matrix: (Units=GPa)
#
#
# Indices 1 2 3 4 5 6 
#
# 1 44.5697 16.0343 14.1293 -6.9700 10.8934 -7.1441
# 2 16.0343 111.9639 38.0829 9.8284 -5.3275 -20.7164
# 3 14.1293 38.0829 104.5253 6.1335 2.9541 -12.7455
# 4 -6.9700 9.8284 6.1335 30.8334 -3.5702 10.0698
# 5 10.8934 -5.3275 2.9541 -3.5702 23.9146 0.5170
# 6 -7.1441 -20.7164 -12.7455 10.0698 0.5170 27.3493
#
#
#
# Elastic Compliance Matrix: (Units=1/GPa)
#
#
# Indices 1 2 3 4 5 6 
#
# 1 0.029105 -0.004417 -0.002216 0.006580 -0.013008 0.001048
# 2 -0.004417 0.013234 -0.002621 -0.007633 0.003920 0.010385
# 3 -0.002216 -0.002621 0.011580 -0.003514 -0.001620 0.004157
# 4 0.006580 -0.007633 -0.003514 0.044632 0.002879 -0.022189
# 5 -0.013008 0.003920 -0.001620 0.002879 0.049313 -0.003176
# 6 0.001048 0.010385 0.004157 -0.022189 -0.003176 0.054871
#
#
# Mechanical properties :
#
#
# Convention : Reuss Voigt Hill
#
# Bulk Modulus (GPa) = 28.23971 44.17243 36.20607
# Shear Modulus (GPa) = 21.45501 29.27360 25.36430
#
# Velocity S-wave (km/s) = 3.33167 3.89167 3.62251
# Velocity P-wave (km/s) = 5.42312 6.56099 6.01900
#
# Compressibility (1/GPa) = 0.03541112
#
# Stress axis : x y z
#
# Youngs Moduli (GPa) = 34.35895 75.56485 86.35277
#
# Poissons Ratio (x) = 0.33378 0.19132
# Poissons Ratio (y) = 0.15177 0.22633
# Poissons Ratio (z) = 0.07613 0.19805
#
# Static dielectric constant tensor:
#      x y z
#    x 3.384660 0.216250 0.334960 
#    y 0.216250 4.339510 0.089130 
#    z 0.334960 0.089130 3.716030 
# 
# 
# High freq. dielectric constant tensor:
#      x y z
#    x 1.719310 -0.009780 0.033860 
#    y -0.009780 1.759810 0.007320 
#    z 0.033860 0.007320 1.754730 
# 
# From -- ./inp_files/314472.got.cif
#   From: 2010.06.25/outbox.cif.g09.slc.cpg/sg2_158_cif.got.tgz:314472.got - 2010.06.27 13:26:56.
