data_PCOD8039000
_publ_section_title
;
Structure prediction by ZEFSAII (Michael W. Deem and Ramdas Pophale) SiO2 
 PCOD8039000
Probable space group: P -1
;
_chemical_formula_sum "Si O2"
_cell_formula_units_Z 16
_cell_length_a 8.826404
_cell_length_b 8.731941
_cell_length_c 16.332560
_cell_angle_alpha 126.437220
_cell_angle_beta 122.137270
_cell_angle_gamma 48.496962
_cell_volume 738.158539
_symmetry_space_group_name_H-M "P -1"
_symmetry_group_IT_number 2
_symmetry_cell_setting 'triclinic'
loop_
_space_group_symop_operation_xyz
x,y,z
-x,-y,-z
loop_
_atom_site_type_symbol
_atom_site_label
_atom_site_fract_x
_atom_site_fract_y
_atom_site_fract_z
Si Si1 0.669972 0.951453 0.467219
Si Si2 0.457771 0.990562 0.731586
Si Si3 0.710584 0.300075 0.391320
Si Si4 0.479786 0.407279 0.856794
Si Si5 0.090299 0.384123 0.225513
Si Si6 0.809407 0.478263 0.325469
Si Si7 0.841673 0.254419 0.017131
Si Si8 0.243571 0.688520 0.407559
O O1 0.825637 0.689391 0.424274
O O2 0.500000 0.000000 0.500000
O O3 0.542732 0.054744 0.379751
O O4 0.800541 0.074156 0.564256
O O5 0.298365 0.922011 0.702601
O O6 0.683888 0.829164 0.781355
O O7 0.398148 0.241867 0.812298
O O8 0.844323 0.327309 0.366604
O O9 0.479433 0.511186 0.396915
O O10 0.813063 0.285477 0.504069
O O11 0.420258 0.446915 0.755896
O O12 0.354276 0.640806 0.942854
O O13 0.729413 0.297461 0.909016
O O14 0.091538 0.613667 0.299546
O O15 0.980460 0.352036 0.264218
O O16 0.968300 0.382171 0.107951
O O17 0.000000 0.000000 0.000000
#
# Coordination Sequence:
#
# PCOD8039000 Si02
#       8
#     2   2   2   2   2   2   2   2
#     4  10  18  32  52  75 108 150 188 222 268 325
#     4   9  18  34  55  78 109 147 186 222 272 340
#     4   9  17  32  53  77 110 152 184 216 276 333
#     4   9  19  34  58  86 108 142 191 227 278 339
#     4  10  20  32  53  80 108 140 187 229 277 325
#     4  10  20  32  53  84 111 141 186 233 274 322
#     4  10  18  34  59  86 107 142 186 235 281 330
#     4   9  18  32  50  76 109 150 188 218 270 338
#
# _framework density 21.675560000000001
#
# number of rings (size 3 to 8) (size 9 to 14) (size 15 to 20)
#    0.000    2.500    2.500    0.750    0.000    1.000 
#    0.000    0.000    0.000    9.750    0.000    0.000 
#    0.000    0.000    0.000    0.000    0.000    0.000 
#
# Total GULP energy -198232.271649 kJ/mol
# GULP energy per Si atom -12389.516978 kJ/mol
# Density = 2.162623 g / cm^3
# Si number density = 21.675560 Si / 1000 Ang^3
#
#
#
# Elastic Constant Matrix: (Units=GPa)
#
#
# Indices 1 2 3 4 5 6 
#
# 1 69.2298 17.5008 33.1229 3.3307 16.0731 22.9712
# 2 17.5008 71.6409 31.5430 12.4890 8.2998 12.7506
# 3 33.1229 31.5430 104.3829 12.2156 34.4564 12.6967
# 4 3.3307 12.4890 12.2156 25.0416 -5.0829 1.2801
# 5 16.0731 8.2998 34.4564 -5.0829 33.2970 2.3017
# 6 22.9712 12.7506 12.6967 1.2801 2.3017 31.6935
#
#
#
# Elastic Compliance Matrix: (Units=1/GPa)
#
#
# Indices 1 2 3 4 5 6 
#
# 1 0.022374 -0.000566 -0.002440 -0.002289 -0.007490 -0.014375
# 2 -0.000566 0.017885 -0.003204 -0.007354 -0.001640 -0.005085
# 3 -0.002440 -0.003204 0.019561 -0.011496 -0.019821 -0.002875
# 4 -0.002289 -0.007354 -0.011496 0.053841 0.022680 0.005401
# 5 -0.007490 -0.001640 -0.019821 0.022680 0.057413 0.008944
# 6 -0.014375 -0.005085 -0.002875 0.005401 0.008944 0.044301
#
#
# Mechanical properties :
#
#
# Convention : Reuss Voigt Hill
#
# Bulk Modulus (GPa) = 21.09766 45.50966 33.30366
# Shear Modulus (GPa) = 20.52597 28.87887 24.70242
#
# Velocity S-wave (km/s) = 3.08062 3.65406 3.37952
# Velocity P-wave (km/s) = 4.73372 6.23252 5.53410
#
# Compressibility (1/GPa) = 0.04739863
#
# Stress axis : x y z
#
# Youngs Moduli (GPa) = 44.69481 55.91361 51.12325
#
# Poissons Ratio (x) = 0.03166 0.12473
# Poissons Ratio (y) = 0.02530 0.16382
# Poissons Ratio (z) = 0.10905 0.17917
#
# Static dielectric constant tensor:
#      x y z
#    x 3.619110 0.013010 0.369560 
#    y 0.013010 4.022610 0.140990 
#    z 0.369560 0.140990 4.349020 
# 
# 
# High freq. dielectric constant tensor:
#      x y z
#    x 1.813100 -0.014910 0.029220 
#    y -0.014910 1.848070 0.010950 
#    z 0.029220 0.010950 1.852160 
# 
# From -- ./inp_files/202453.got.cif
#   From: 2010.06.25/outbox.cif.g09.slc.cpg/sg2_102_cif.got.tgz:202453.got - 2010.06.27 13:26:56.
