data_PCOD8039621
_publ_section_title
;
Structure prediction by ZEFSAII (Michael W. Deem and Ramdas Pophale) SiO2 
 PCOD8039621
Probable space group: P -1
;
_chemical_formula_sum "Si O2"
_cell_formula_units_Z 16
_cell_length_a 9.361642
_cell_length_b 17.228416
_cell_length_c 11.102566
_cell_angle_alpha 145.599598
_cell_angle_beta 99.733219
_cell_angle_gamma 63.729284
_cell_volume 836.446338
_symmetry_space_group_name_H-M "P -1"
_symmetry_group_IT_number 2
_symmetry_cell_setting 'triclinic'
loop_
_space_group_symop_operation_xyz
x,y,z
-x,-y,-z
loop_
_atom_site_type_symbol
_atom_site_label
_atom_site_fract_x
_atom_site_fract_y
_atom_site_fract_z
Si Si1 0.263718 0.788270 0.552035
Si Si2 0.092439 0.366721 0.739355
Si Si3 0.345456 0.411608 0.685646
Si Si4 0.792630 0.613539 0.619562
Si Si5 0.883795 0.219480 0.886468
Si Si6 0.943641 0.889357 0.472442
Si Si7 0.864594 0.372834 0.508365
Si Si8 0.111679 0.149478 0.055594
O O1 0.451064 0.696688 0.401568
O O2 0.130583 0.824475 0.473325
O O3 0.259671 0.673443 0.506315
O O4 0.220819 0.954283 0.822468
O O5 0.261774 0.358388 0.707700
O O6 0.148653 0.188070 0.570198
O O7 0.959447 0.420196 0.679322
O O8 0.000000 0.500000 0.000000
O O9 0.302027 0.379210 0.505960
O O10 0.281693 0.601326 0.935423
O O11 0.739723 0.535512 0.618517
O O12 0.752003 0.794921 0.872672
O O13 0.000000 0.500000 0.500000
O O14 0.026983 0.163704 0.730575
O O15 0.827900 0.087589 0.720441
O O16 0.968097 0.229239 0.033453
O O17 0.011345 0.216588 0.253698
#
# Coordination Sequence:
#
# PCOD8039621 Si02
#       8
#     2   2   2   2   2   2   2   2
#     4  10  24  35  54  88 118 142 175 241 288 315
#     4  11  20  35  59  84 108 147 188 226 268 338
#     4  12  21  37  58  85 114 143 184 234 286 317
#     4  10  18  34  58  82 107 146 190 222 266 337
#     4  10  18  36  61  79 108 151 190 224 263 336
#     4   9  21  37  57  84 107 149 197 215 270 339
#     4  10  19  38  57  82 108 149 194 220 264 347
#     4  10  18  37  61  80 111 150 187 226 271 331
#
# _framework density 19.128544000000002
#
# number of rings (size 3 to 8) (size 9 to 14) (size 15 to 20)
#    0.000    1.750    6.250    0.375    0.000    1.500 
#    0.000    1.250    0.000    6.750    0.000    0.000 
#    0.000    0.000    0.000    0.000    0.000    0.000 
#
# Total GULP energy -198376.069896 kJ/mol
# GULP energy per Si atom -12398.504369 kJ/mol
# Density = 1.908501 g / cm^3
# Si number density = 19.128544 Si / 1000 Ang^3
#
#
#
# Elastic Constant Matrix: (Units=GPa)
#
#
# Indices 1 2 3 4 5 6 
#
# 1 103.0374 42.4264 52.3866 20.4572 -0.3285 23.3221
# 2 42.4264 73.3283 32.3149 -1.4210 3.6015 26.0720
# 3 52.3866 32.3149 111.0208 -1.0201 8.6196 9.3450
# 4 20.4572 -1.4210 -1.0201 33.7721 7.9829 6.2940
# 5 -0.3285 3.6015 8.6196 7.9829 20.3207 5.5309
# 6 23.3221 26.0720 9.3450 6.2940 5.5309 31.8598
#
#
#
# Elastic Compliance Matrix: (Units=1/GPa)
#
#
# Indices 1 2 3 4 5 6 
#
# 1 0.021905 -0.007411 -0.008809 -0.015785 0.013400 -0.006594
# 2 -0.007411 0.024628 -0.002062 0.009034 -0.002969 -0.015393
# 3 -0.008809 -0.002062 0.014235 0.007206 -0.009799 0.004239
# 4 -0.015785 0.009034 0.007206 0.045543 -0.021950 -0.003138
# 5 0.013400 -0.002969 -0.009799 -0.021950 0.065893 -0.011608
# 6 -0.006594 -0.015393 0.004239 -0.003138 -0.011608 0.050203
#
#
# Mechanical properties :
#
#
# Convention : Reuss Voigt Hill
#
# Bulk Modulus (GPa) = 41.31869 60.18248 50.75058
# Shear Modulus (GPa) = 18.72382 27.87444 23.29913
#
# Velocity S-wave (km/s) = 3.13204 3.82149 3.49381
# Velocity P-wave (km/s) = 5.89296 7.14158 6.54711
#
# Compressibility (1/GPa) = 0.02420212
#
# Stress axis : x y z
#
# Youngs Moduli (GPa) = 45.65162 40.60426 70.25125
#
# Poissons Ratio (x) = 0.30092 0.61887
# Poissons Ratio (y) = 0.33833 0.14487
# Poissons Ratio (z) = 0.40216 0.08374
#
# Static dielectric constant tensor:
#      x y z
#    x 3.283490 0.399470 0.389380 
#    y 0.399470 3.731510 0.165990 
#    z 0.389380 0.165990 3.799440 
# 
# 
# High freq. dielectric constant tensor:
#      x y z
#    x 1.703520 0.025460 0.027410 
#    y 0.025460 1.752110 -0.003620 
#    z 0.027410 -0.003620 1.756510 
# 
# From -- ./inp_files/175373.got.cif
#   From: 2010.06.25/outbox.cif.g09.slc.cpg/sg2_88_cif.got.tgz:175373.got - 2010.06.27 13:26:56.
