data_PCOD8039421
_publ_section_title
;
Structure prediction by ZEFSAII (Michael W. Deem and Ramdas Pophale) SiO2 
 PCOD8039421
Probable space group: P -1
;
_chemical_formula_sum "Si O2"
_cell_formula_units_Z 14
_cell_length_a 7.626083
_cell_length_b 10.387737
_cell_length_c 17.204470
_cell_angle_alpha 54.090631
_cell_angle_beta 43.785368
_cell_angle_gamma 78.287189
_cell_volume 702.284970
_symmetry_space_group_name_H-M "P -1"
_symmetry_group_IT_number 2
_symmetry_cell_setting 'triclinic'
loop_
_space_group_symop_operation_xyz
x,y,z
-x,-y,-z
loop_
_atom_site_type_symbol
_atom_site_label
_atom_site_fract_x
_atom_site_fract_y
_atom_site_fract_z
Si Si1 0.143085 0.211172 0.880413
Si Si2 0.097209 0.565753 0.031716
Si Si3 0.455982 0.029937 0.631202
Si Si4 0.373312 0.128925 0.224376
Si Si5 0.460100 0.896065 0.150720
Si Si6 0.965497 0.125643 0.812910
Si Si7 0.866405 0.213846 0.312556
O O1 0.468743 0.250126 0.773772
O O2 0.043302 0.301319 0.948430
O O3 0.078743 0.268287 0.795352
O O4 0.000000 0.000000 0.000000
O O5 0.025695 0.414689 0.171271
O O6 0.425285 0.672806 0.892812
O O7 0.000000 0.500000 0.000000
O O8 0.667292 0.192855 0.457644
O O9 0.212454 0.072160 0.730104
O O10 0.631279 0.984201 0.658038
O O11 0.318529 0.869653 0.673845
O O12 0.072821 0.121369 0.301538
O O13 0.484714 0.057164 0.140469
O O14 0.150034 0.801389 0.248998
O O15 0.694359 0.959533 0.985406
#
# Coordination Sequence:
#
# PCOD8039421 Si02
#       7
#     2   2   2   2   2   2   2
#     4  10  19  37  59  88 121 154 204 251 309 367
#     4  12  24  41  64  96 132 161 204 271 317 356
#     4  11  22  41  63  88 127 174 209 247 310 386
#     4  12  20  41  66  92 123 167 210 259 311 372
#     4  10  19  31  64  95 111 153 219 253 300 361
#     4  10  18  33  60  89 118 151 209 258 296 359
#     4  11  26  39  58  95 131 167 206 255 318 375
#
# _framework density 19.934926999999998
#
# number of rings (size 3 to 8) (size 9 to 14) (size 15 to 20)
#    0.000    1.143    7.143    1.714    0.000    0.000 
#    2.571    0.714    0.000    0.857    0.000    0.000 
#    0.000    0.000    0.000    0.000    0.000    0.000 
#
# Total GULP energy -173460.463383 kJ/mol
# GULP energy per Si atom -12390.033099 kJ/mol
# Density = 1.988955 g / cm^3
# Si number density = 19.934927 Si / 1000 Ang^3
#
#
#
# Elastic Constant Matrix: (Units=GPa)
#
#
# Indices 1 2 3 4 5 6 
#
# 1 159.2611 43.2708 20.8452 5.7313 6.2413 -0.8316
# 2 43.2708 98.9050 27.6347 20.5825 4.8692 3.7603
# 3 20.8452 27.6347 81.4045 12.1695 10.2785 0.3783
# 4 5.7313 20.5825 12.1695 22.2853 -0.9501 -1.2603
# 5 6.2413 4.8692 10.2785 -0.9501 18.9367 7.5849
# 6 -0.8316 3.7603 0.3783 -1.2603 7.5849 32.4687
#
#
#
# Elastic Compliance Matrix: (Units=1/GPa)
#
#
# Indices 1 2 3 4 5 6 
#
# 1 0.007273 -0.003246 -0.000819 0.001569 -0.001426 0.000966
# 2 -0.003246 0.014732 -0.002243 -0.011711 -0.001324 -0.001908
# 3 -0.000819 -0.002243 0.015260 -0.006310 -0.008472 0.001795
# 4 0.001569 -0.011711 -0.006310 0.059184 0.008142 0.001865
# 5 -0.001426 -0.001324 -0.008472 0.008142 0.064441 -0.014522
# 6 0.000966 -0.001908 0.001795 0.001865 -0.014522 0.034489
#
#
# Mechanical properties :
#
#
# Convention : Reuss Voigt Hill
#
# Bulk Modulus (GPa) = 40.57055 58.11909 49.34482
# Shear Modulus (GPa) = 23.12538 31.25949 27.19244
#
# Velocity S-wave (km/s) = 3.40964 3.96419 3.69733
# Velocity P-wave (km/s) = 5.99137 7.08313 6.56000
#
# Compressibility (1/GPa) = 0.02464842
#
# Stress axis : x y z
#
# Youngs Moduli (GPa) = 137.50287 67.87736 65.52906
#
# Poissons Ratio (x) = 0.22031 0.05370
# Poissons Ratio (y) = 0.44630 0.14700
# Poissons Ratio (z) = 0.11267 0.15227
#
# Static dielectric constant tensor:
#      x y z
#    x 5.233230 0.102570 0.125880 
#    y 0.102570 3.431660 0.240860 
#    z 0.125880 0.240860 3.430400 
# 
# 
# High freq. dielectric constant tensor:
#      x y z
#    x 1.814930 0.005220 -0.000370 
#    y 0.005220 1.758030 0.033900 
#    z -0.000370 0.033900 1.736820 
# 
# From -- ./inp_files/556944.got.cif
#   From: 2010.06.25/outbox.cif.g09.slc.cpg/sg2_279_cif.got.tgz:556944.got - 2010.06.27 13:26:56.
