data_PCOD8039051
_publ_section_title
;
Structure prediction by ZEFSAII (Michael W. Deem and Ramdas Pophale) SiO2 
 PCOD8039051
Probable space group: P -1
;
_chemical_formula_sum "Si O2"
_cell_formula_units_Z 14
_cell_length_a 10.288045
_cell_length_b 14.636558
_cell_length_c 9.171072
_cell_angle_alpha 38.921205
_cell_angle_beta 75.563375
_cell_angle_gamma 63.383803
_cell_volume 763.462705
_symmetry_space_group_name_H-M "P -1"
_symmetry_group_IT_number 2
_symmetry_cell_setting 'triclinic'
loop_
_space_group_symop_operation_xyz
x,y,z
-x,-y,-z
loop_
_atom_site_type_symbol
_atom_site_label
_atom_site_fract_x
_atom_site_fract_y
_atom_site_fract_z
Si Si1 0.492060 0.434849 0.241944
Si Si2 0.416814 0.204724 0.392927
Si Si3 0.795692 0.364375 0.400183
Si Si4 0.637240 0.366376 0.710534
Si Si5 0.645927 0.089648 0.224045
Si Si6 0.147359 0.366981 0.066172
Si Si7 0.055689 0.102759 0.464143
O O1 0.449239 0.284682 0.427672
O O2 0.649622 0.377601 0.343601
O O3 0.359370 0.564357 0.214793
O O4 0.500000 0.500000 0.000000
O O5 0.543910 0.187927 0.262982
O O6 0.260338 0.317953 0.228765
O O7 0.414341 0.039496 0.648724
O O8 0.784382 0.325046 0.623267
O O9 0.930554 0.221995 0.459554
O O10 0.800223 0.539969 0.185162
O O11 0.500000 0.500000 0.500000
O O12 0.623410 0.200142 0.950713
O O13 0.815378 0.017247 0.320031
O O14 0.120258 0.211118 0.215745
O O15 0.000000 0.500000 0.000000
O O16 0.000000 0.000000 0.500000
#
# Coordination Sequence:
#
# PCOD8039051 Si02
#       7
#     2   2   2   2   2   2   2
#     4  11  18  32  60  83 102 139 191 221 251 319
#     4  10  18  32  54  84 103 136 186 229 259 309
#     4  10  20  36  52  79 115 140 175 222 276 318
#     4  10  21  35  53  79 110 145 176 220 280 320
#     4  10  20  34  54  78 113 142 176 223 278 312
#     4   9  18  33  54  76 108 140 177 225 270 314
#     4  10  21  34  56  83 104 142 186 223 264 319
#
# _framework density 18.337503000000002
#
# number of rings (size 3 to 8) (size 9 to 14) (size 15 to 20)
#    0.000    2.000    2.857    1.714    0.000    0.571 
#    0.000    4.286    0.000    8.571    0.000    0.000 
#    0.000    0.000    0.000    0.000    0.000    0.000 
#
# Total GULP energy -173436.365036 kJ/mol
# GULP energy per Si atom -12388.311788 kJ/mol
# Density = 1.829577 g / cm^3
# Si number density = 18.337503 Si / 1000 Ang^3
#
#
#
# Elastic Constant Matrix: (Units=GPa)
#
#
# Indices 1 2 3 4 5 6 
#
# 1 99.8652 47.5539 43.3896 -5.3396 -13.3973 3.2562
# 2 47.5539 108.3688 51.8014 4.0551 -14.4113 2.8391
# 3 43.3896 51.8014 142.2409 -1.3249 -25.9629 2.8555
# 4 -5.3396 4.0551 -1.3249 27.5851 -2.9855 -2.1811
# 5 -13.3973 -14.4113 -25.9629 -2.9855 32.0394 -12.6009
# 6 3.2562 2.8391 2.8555 -2.1811 -12.6009 32.2648
#
#
#
# Elastic Compliance Matrix: (Units=1/GPa)
#
#
# Indices 1 2 3 4 5 6 
#
# 1 0.013692 -0.004911 -0.001913 0.003581 0.002467 0.000425
# 2 -0.004911 0.013121 -0.003129 -0.002942 0.000957 -0.000207
# 3 -0.001913 -0.003129 0.009993 0.001516 0.006981 0.002413
# 4 0.003581 -0.002942 0.001516 0.038613 0.007011 0.005112
# 5 0.002467 0.000957 0.006981 0.007011 0.045837 0.017424
# 6 0.000425 -0.000207 0.002413 0.005112 0.017424 0.037906
#
#
# Mechanical properties :
#
#
# Convention : Reuss Voigt Hill
#
# Bulk Modulus (GPa) = 59.16965 70.66275 64.91620
# Shear Modulus (GPa) = 27.07085 32.22655 29.64870
#
# Velocity S-wave (km/s) = 3.84638 4.19670 4.02535
# Velocity P-wave (km/s) = 7.21548 7.88043 7.55528
#
# Compressibility (1/GPa) = 0.01690056
#
# Stress axis : x y z
#
# Youngs Moduli (GPa) = 73.03740 76.21265 100.06718
#
# Poissons Ratio (x) = 0.37426 0.19143
# Poissons Ratio (y) = 0.35867 0.31311
# Poissons Ratio (z) = 0.13972 0.23847
#
# Static dielectric constant tensor:
#      x y z
#    x 3.607650 -0.165150 -0.495560 
#    y -0.165150 3.337350 -0.599550 
#    z -0.495560 -0.599550 3.323060 
# 
# 
# High freq. dielectric constant tensor:
#      x y z
#    x 1.709070 -0.011200 -0.015060 
#    y -0.011200 1.701870 -0.025290 
#    z -0.015060 -0.025290 1.711120 
# 
# From -- ./inp_files/158191.got.cif
#   From: 2010.06.25/outbox.cif.g09.slc.cpg/sg2_80_cif.got.tgz:158191.got - 2010.06.27 13:26:56.
