data_PCOD8039465
_publ_section_title
;
Structure prediction by ZEFSAII (Michael W. Deem and Ramdas Pophale) SiO2 
 PCOD8039465
Probable space group: P -1
;
_chemical_formula_sum "Si O2"
_cell_formula_units_Z 16
_cell_length_a 11.512823
_cell_length_b 10.260641
_cell_length_c 14.122552
_cell_angle_alpha 29.511414
_cell_angle_beta 62.777766
_cell_angle_gamma 52.447005
_cell_volume 640.031795
_symmetry_space_group_name_H-M "P -1"
_symmetry_group_IT_number 2
_symmetry_cell_setting 'triclinic'
loop_
_space_group_symop_operation_xyz
x,y,z
-x,-y,-z
loop_
_atom_site_type_symbol
_atom_site_label
_atom_site_fract_x
_atom_site_fract_y
_atom_site_fract_z
Si Si1 0.890222 0.789241 0.240983
Si Si2 0.398588 0.396174 0.658328
Si Si3 0.082537 0.325971 0.318145
Si Si4 0.093848 0.975038 0.369949
Si Si5 0.571494 0.187916 0.086202
Si Si6 0.413390 0.099319 0.370117
Si Si7 0.137619 0.739628 0.308820
Si Si8 0.534083 0.449727 0.744171
O O1 0.741248 0.114196 0.089229
O O2 0.853625 0.560658 0.458928
O O3 0.952118 0.646291 0.203585
O O4 0.008928 0.865145 0.199081
O O5 0.500000 0.500000 0.500000
O O6 0.230848 0.667760 0.553928
O O7 0.403865 0.117085 0.778810
O O8 0.471029 0.275197 0.812543
O O9 0.056336 0.050076 0.539529
O O10 0.087138 0.273515 0.234775
O O11 0.235665 0.295882 0.322848
O O12 0.106626 0.993509 0.240053
O O13 0.472415 0.272123 0.166566
O O14 0.494754 0.454680 0.867782
O O15 0.450244 0.777450 0.516956
O O16 0.500000 0.000000 0.500000
O O17 0.289880 0.674653 0.243840
#
# Coordination Sequence:
#
# PCOD8039465 Si02
#       8
#     2   2   2   2   2   2   2   2
#     4  10  20  39  67  95 123 172 222 260 327 391
#     4  12  18  40  67  95 128 168 215 267 327 380
#     4  10  20  35  64  91 126 166 211 266 323 385
#     4  10  18  33  64  93 122 168 216 260 326 385
#     4  12  25  42  68  97 130 170 222 269 319 397
#     4  12  25  43  68  93 130 177 212 269 331 387
#     4  10  19  36  65  93 125 166 219 266 318 384
#     4  12  24  40  68  99 130 169 221 269 326 383
#
# _framework density 24.998756
#
# number of rings (size 3 to 8) (size 9 to 14) (size 15 to 20)
#    0.000    1.000    7.500    1.125    3.500    1.000 
#    0.000    0.000    5.500    1.500    0.000    0.000 
#    0.000    0.000    0.000    0.000    0.000    0.000 
#
# Total GULP energy -198262.619802 kJ/mol
# GULP energy per Si atom -12391.413738 kJ/mol
# Density = 2.494186 g / cm^3
# Si number density = 24.998756 Si / 1000 Ang^3
#
#
#
# Elastic Constant Matrix: (Units=GPa)
#
#
# Indices 1 2 3 4 5 6 
#
# 1 140.7414 37.0656 8.0459 15.1716 16.3865 -2.9993
# 2 37.0656 101.3201 12.8920 27.6695 5.4619 -4.8323
# 3 8.0459 12.8920 59.6204 21.2781 2.2765 -4.5091
# 4 15.1716 27.6695 21.2781 28.1573 1.9798 9.1045
# 5 16.3865 5.4619 2.2765 1.9798 20.8177 9.7563
# 6 -2.9993 -4.8323 -4.5091 9.1045 9.7563 48.4894
#
#
#
# Elastic Compliance Matrix: (Units=1/GPa)
#
#
# Indices 1 2 3 4 5 6 
#
# 1 0.008906 -0.001616 0.001301 -0.004598 -0.007657 0.002915
# 2 -0.001616 0.015919 0.004616 -0.020074 -0.004598 0.006610
# 3 0.001301 0.004616 0.026575 -0.027953 -0.007016 0.009672
# 4 -0.004598 -0.020074 -0.027953 0.085536 0.015043 -0.023971
# 5 -0.007657 -0.004598 -0.007016 0.015043 0.062573 -0.016999
# 6 0.002915 0.006610 0.009672 -0.023971 -0.016999 0.030283
#
#
# Mechanical properties :
#
#
# Convention : Reuss Voigt Hill
#
# Bulk Modulus (GPa) = 16.66624 46.40989 31.53806
# Shear Modulus (GPa) = 20.73063 35.73810 28.23437
#
# Velocity S-wave (km/s) = 2.88282 3.78510 3.36435
# Velocity P-wave (km/s) = 4.21452 6.14067 5.26640
#
# Compressibility (1/GPa) = 0.06000154
#
# Stress axis : x y z
#
# Youngs Moduli (GPa) = 112.28730 62.81868 37.62971
#
# Poissons Ratio (x) = 0.10152 -0.04897
# Poissons Ratio (y) = 0.18147 -0.17369
# Poissons Ratio (z) = -0.14613 -0.28996
#
# Static dielectric constant tensor:
#      x y z
#    x 6.056440 0.346750 -0.604780 
#    y 0.346750 4.823390 0.050680 
#    z -0.604780 0.050680 4.624880 
# 
# 
# High freq. dielectric constant tensor:
#      x y z
#    x 2.021760 0.014830 -0.006480 
#    y 0.014830 2.005830 0.010300 
#    z -0.006480 0.010300 1.954510 
# 
# From -- ./inp_files/518562.got.cif
#   From: 2010.06.25/outbox.cif.g09.slc.cpg/sg2_260_cif.got.tgz:518562.got - 2010.06.27 13:26:56.
