data_PCOD8039219
_publ_section_title
;
Structure prediction by ZEFSAII (Michael W. Deem and Ramdas Pophale) SiO2 
 PCOD8039219
Probable space group: P -1
;
_chemical_formula_sum "Si O2"
_cell_formula_units_Z 14
_cell_length_a 16.575369
_cell_length_b 11.439618
_cell_length_c 16.242884
_cell_angle_alpha 45.594767
_cell_angle_beta 17.766538
_cell_angle_gamma 45.241962
_cell_volume 661.254460
_symmetry_space_group_name_H-M "P -1"
_symmetry_group_IT_number 2
_symmetry_cell_setting 'triclinic'
loop_
_space_group_symop_operation_xyz
x,y,z
-x,-y,-z
loop_
_atom_site_type_symbol
_atom_site_label
_atom_site_fract_x
_atom_site_fract_y
_atom_site_fract_z
Si Si1 0.576522 0.902377 0.556707
Si Si2 0.887357 0.909083 0.805761
Si Si3 0.339083 0.477167 0.383410
Si Si4 0.650781 0.934344 0.802907
Si Si5 0.232495 0.595668 0.252520
Si Si6 0.100727 0.942719 0.119406
Si Si7 0.181007 0.371113 0.110351
O O1 0.576758 0.708736 0.638628
O O2 0.865451 0.935721 0.286975
O O3 0.500000 0.000000 0.500000
O O4 0.362445 0.967946 0.802637
O O5 0.842056 0.732213 0.900418
O O6 0.984582 0.902340 0.809934
O O7 0.105726 0.971333 0.503627
O O8 0.596633 0.034382 0.035932
O O9 0.271191 0.599407 0.311315
O O10 0.085380 0.493972 0.682576
O O11 0.574493 0.529377 0.184263
O O12 0.775569 0.743135 0.792851
O O13 0.500000 0.000000 0.000000
O O14 0.149324 0.780754 0.209227
O O15 0.000000 0.500000 0.500000
O O16 0.500000 0.500000 0.000000
#
# Coordination Sequence:
#
# PCOD8039219 Si02
#       7
#     2   2   2   2   2   2   2
#     4  12  27  47  67  89 120 168 225 273 316 372
#     4  11  22  36  59  90 130 168 206 249 305 382
#     4  12  23  39  63  92 127 164 205 254 319 373
#     4  10  18  33  52  86 133 174 202 229 292 380
#     4  12  21  37  59  94 135 156 197 254 313 379
#     4  12  23  43  67  95 127 168 211 261 323 378
#     4  11  21  35  58  90 127 165 203 246 302 381
#
# _framework density 21.171880000000002
#
# number of rings (size 3 to 8) (size 9 to 14) (size 15 to 20)
#    0.000    0.571    2.857    9.000    0.000    0.000 
#    0.000    0.000    0.000    5.143    0.000    0.000 
#    0.000    0.000    0.000    0.000    0.000    0.000 
#
# Total GULP energy -173566.978439 kJ/mol
# GULP energy per Si atom -12397.641317 kJ/mol
# Density = 2.112369 g / cm^3
# Si number density = 21.171880 Si / 1000 Ang^3
#
#
#
# Elastic Constant Matrix: (Units=GPa)
#
#
# Indices 1 2 3 4 5 6 
#
# 1 108.7156 49.5447 29.1856 0.0573 -3.9014 13.3479
# 2 49.5447 38.4790 26.0024 11.3318 0.3001 10.2508
# 3 29.1856 26.0024 129.7557 14.9928 -16.8494 14.0597
# 4 0.0573 11.3318 14.9928 25.2160 4.7641 1.3868
# 5 -3.9014 0.3001 -16.8494 4.7641 39.2813 -3.6733
# 6 13.3479 10.2508 14.0597 1.3868 -3.6733 36.7755
#
#
#
# Elastic Compliance Matrix: (Units=1/GPa)
#
#
# Indices 1 2 3 4 5 6 
#
# 1 0.028409 -0.042310 -0.000054 0.018757 0.000930 0.000889
# 2 -0.042310 0.097939 -0.004934 -0.039919 -0.003054 -0.008856
# 3 -0.000054 -0.004934 0.010041 -0.004546 0.004722 -0.001801
# 4 0.018757 -0.039919 -0.004546 0.061401 -0.006944 0.003048
# 5 0.000930 -0.003054 0.004722 -0.006944 0.028612 0.001828
# 6 0.000889 -0.008856 -0.001801 0.003048 0.001828 0.030094
#
#
# Mechanical properties :
#
#
# Convention : Reuss Voigt Hill
#
# Bulk Modulus (GPa) = 23.92765 54.04619 38.98692
# Shear Modulus (GPa) = 13.69772 31.73573 22.71672
#
# Velocity S-wave (km/s) = 2.54633 3.87584 3.27917
# Velocity P-wave (km/s) = 4.46892 6.75368 5.72641
#
# Compressibility (1/GPa) = 0.04179265
#
# Stress axis : x y z
#
# Youngs Moduli (GPa) = 35.19994 10.21044 99.58793
#
# Poissons Ratio (x) = 0.43201 0.00538
# Poissons Ratio (y) = 1.48931 0.49139
# Poissons Ratio (z) = 0.00190 0.05038
#
# Static dielectric constant tensor:
#      x y z
#    x 4.127340 0.086600 -0.472420 
#    y 0.086600 3.759810 0.297850 
#    z -0.472420 0.297850 4.259700 
# 
# 
# High freq. dielectric constant tensor:
#      x y z
#    x 1.822980 0.032850 -0.019670 
#    y 0.032850 1.799490 0.016840 
#    z -0.019670 0.016840 1.852520 
# 
# From -- ./inp_files/123787.got.cif
#   From: 2010.06.25/outbox.cif.g09.slc.cpg/sg2_62_cif.got.tgz:123787.got - 2010.06.27 13:26:56.
