data_PCOD8039531
_publ_section_title
;
Structure prediction by ZEFSAII (Michael W. Deem and Ramdas Pophale) SiO2 
 PCOD8039531
Probable space group: P -1
;
_chemical_formula_sum "Si O2"
_cell_formula_units_Z 16
_cell_length_a 14.085113
_cell_length_b 25.600071
_cell_length_c 17.062814
_cell_angle_alpha 18.178662
_cell_angle_beta 31.997172
_cell_angle_gamma 23.324899
_cell_volume 745.068459
_symmetry_space_group_name_H-M "P -1"
_symmetry_group_IT_number 2
_symmetry_cell_setting 'triclinic'
loop_
_space_group_symop_operation_xyz
x,y,z
-x,-y,-z
loop_
_atom_site_type_symbol
_atom_site_label
_atom_site_fract_x
_atom_site_fract_y
_atom_site_fract_z
Si Si1 0.920893 0.517552 0.402269
Si Si2 0.398416 0.225707 0.878763
Si Si3 0.935431 0.442192 0.240285
Si Si4 0.223996 0.967233 0.422003
Si Si5 0.316708 0.287369 0.321082
Si Si6 0.816745 0.852347 0.647605
Si Si7 0.554323 0.467182 0.918131
Si Si8 0.061176 0.206942 0.879150
O O1 0.879756 0.675968 0.273498
O O2 0.146216 0.416817 0.331990
O O3 0.978318 0.307120 0.706037
O O4 0.672142 0.671150 0.306450
O O5 0.271966 0.121790 0.131686
O O6 0.688055 0.055400 0.928536
O O7 0.290574 0.433810 0.718051
O O8 0.180372 0.303121 0.318741
O O9 0.989200 0.254813 0.408691
O O10 0.872926 0.643114 0.947234
O O11 0.471622 0.703092 0.608156
O O12 0.168064 0.012214 0.490672
O O13 0.000000 0.000000 0.500000
O O14 0.542362 0.023833 0.560512
O O15 0.403303 0.418429 0.050133
O O16 0.838772 0.245547 0.018107
O O17 0.500000 0.500000 0.000000
#
# Coordination Sequence:
#
# PCOD8039531 Si02
#       8
#     2   2   2   2   2   2   2   2
#     4  10  19  34  53  77 112 146 192 232 274 344
#     4  10  21  36  55  81 112 153 191 231 279 334
#     4   9  20  34  56  85 110 143 200 238 270 333
#     4  11  21  35  58  89 121 147 183 234 293 341
#     4  11  20  36  58  83 114 149 186 240 286 331
#     4  10  18  34  55  85 116 146 184 239 286 322
#     4  12  22  36  53  85 120 147 181 231 292 347
#     4  11  21  34  53  79 114 154 187 226 284 344
#
# _framework density 21.474537999999999
#
# number of rings (size 3 to 8) (size 9 to 14) (size 15 to 20)
#    0.000    1.500    2.500    6.000    0.000    0.000 
#    0.000    0.000    0.000    0.750    0.000   37.625 
#    0.000    0.000    0.000    0.000    0.000    0.000 
#
# Total GULP energy -198226.296597 kJ/mol
# GULP energy per Si atom -12389.143537 kJ/mol
# Density = 2.142566 g / cm^3
# Si number density = 21.474538 Si / 1000 Ang^3
#
#
#
# Elastic Constant Matrix: (Units=GPa)
#
#
# Indices 1 2 3 4 5 6 
#
# 1 109.0274 64.1807 26.8318 -9.5818 25.0896 12.0660
# 2 64.1807 140.0888 26.2563 -13.8786 11.6487 -7.0826
# 3 26.8318 26.2563 74.3057 -32.1755 14.9341 1.7780
# 4 -9.5818 -13.8786 -32.1755 46.1653 2.6410 0.2208
# 5 25.0896 11.6487 14.9341 2.6410 41.3370 -6.6114
# 6 12.0660 -7.0826 1.7780 0.2208 -6.6114 26.2902
#
#
#
# Elastic Compliance Matrix: (Units=1/GPa)
#
#
# Indices 1 2 3 4 5 6 
#
# 1 0.017856 -0.007677 -0.000559 0.001679 -0.010645 -0.012916
# 2 -0.007677 0.011134 -0.001964 0.000153 0.003424 0.007515
# 3 -0.000559 -0.001964 0.023263 0.016055 -0.009225 -0.004300
# 4 0.001679 0.000153 0.016055 0.033826 -0.009752 -0.004551
# 5 -0.010645 0.003424 -0.009225 -0.009752 0.036139 0.015602
# 6 -0.012916 0.007515 -0.004300 -0.004551 0.015602 0.050242
#
#
# Mechanical properties :
#
#
# Convention : Reuss Voigt Hill
#
# Bulk Modulus (GPa) = 31.39470 61.99549 46.69510
# Shear Modulus (GPa) = 24.57283 36.50203 30.53743
#
# Velocity S-wave (km/s) = 3.38639 4.12731 3.77507
# Velocity P-wave (km/s) = 5.47187 7.18644 6.38695
#
# Compressibility (1/GPa) = 0.03185251
#
# Stress axis : x y z
#
# Youngs Moduli (GPa) = 56.00479 89.81459 42.98697
#
# Poissons Ratio (x) = 0.68952 0.02405
# Poissons Ratio (y) = 0.42996 0.08441
# Poissons Ratio (z) = 0.03133 0.17635
#
# Static dielectric constant tensor:
#      x y z
#    x 4.144090 0.365830 0.228450 
#    y 0.365830 4.166840 -0.461640 
#    z 0.228450 -0.461640 3.982740 
# 
# 
# High freq. dielectric constant tensor:
#      x y z
#    x 1.836600 0.014230 0.031860 
#    y 0.014230 1.847890 -0.030680 
#    z 0.031860 -0.030680 1.821650 
# 
# From -- ./inp_files/255307.got.cif
#   From: 2010.06.25/outbox.cif.g09.slc.cpg/sg2_128_cif.got.tgz:255307.got - 2010.06.27 13:26:56.
