data_PCOD8039478
_publ_section_title
;
Structure prediction by ZEFSAII (Michael W. Deem and Ramdas Pophale) SiO2 
 PCOD8039478
Probable space group: P -1
;
_chemical_formula_sum "Si O2"
_cell_formula_units_Z 16
_cell_length_a 27.002102
_cell_length_b 12.899971
_cell_length_c 19.515922
_cell_angle_alpha 26.801890
_cell_angle_beta 161.661679
_cell_angle_gamma 153.722809
_cell_volume 903.994863
_symmetry_space_group_name_H-M "P -1"
_symmetry_group_IT_number 2
_symmetry_cell_setting 'triclinic'
loop_
_space_group_symop_operation_xyz
x,y,z
-x,-y,-z
loop_
_atom_site_type_symbol
_atom_site_label
_atom_site_fract_x
_atom_site_fract_y
_atom_site_fract_z
Si Si1 0.490870 0.869669 0.781132
Si Si2 0.736632 0.325876 0.777724
Si Si3 0.884207 0.037165 0.919783
Si Si4 0.992275 0.818480 0.856823
Si Si5 0.487707 0.236630 0.380701
Si Si6 0.888397 0.252381 0.658147
Si Si7 0.060518 0.352368 0.609852
Si Si8 0.551778 0.550786 0.930541
O O1 0.305359 0.876951 0.540952
O O2 0.506603 0.748958 0.800144
O O3 0.622177 0.146052 0.791447
O O4 0.531384 0.717781 0.986674
O O5 0.815342 0.594990 0.755343
O O6 0.626002 0.343821 0.556871
O O7 0.883417 0.223004 0.011908
O O8 0.913917 0.245472 0.777412
O O9 0.697497 0.837735 0.785743
O O10 0.917930 0.170356 0.958518
O O11 0.014044 0.896588 0.165299
O O12 0.951416 0.063758 0.639958
O O13 0.520174 0.448525 0.240615
O O14 0.500000 0.000000 0.500000
O O15 0.952460 0.533909 0.549160
O O16 0.000000 0.500000 0.500000
O O17 0.249157 0.368891 0.862752
#
# Coordination Sequence:
#
# PCOD8039478 Si02
#       8
#     2   2   2   2   2   2   2   2
#     4  10  18  34  50  83 109 140 177 230 273 321
#     4  11  22  36  56  81 116 147 179 225 282 328
#     4  11  19  35  54  86 108 138 191 227 268 325
#     4  11  22  37  55  83 113 148 181 223 280 333
#     4  12  17  33  57  82 104 142 189 229 266 318
#     4  10  21  30  59  84 108 138 187 234 269 310
#     4  11  18  35  57  83 108 144 184 231 270 323
#     4  10  19  29  56  82 106 132 190 231 265 311
#
# _framework density 17.699216
#
# number of rings (size 3 to 8) (size 9 to 14) (size 15 to 20)
#    0.000    1.250    7.500    0.000    0.000    0.000 
#    0.000    1.875    0.000    6.000    0.000    0.000 
#    0.000    0.000    0.000    0.000    0.000    0.000 
#
# Total GULP energy -198396.153407 kJ/mol
# GULP energy per Si atom -12399.759588 kJ/mol
# Density = 1.765893 g / cm^3
# Si number density = 17.699216 Si / 1000 Ang^3
#
#
#
# Elastic Constant Matrix: (Units=GPa)
#
#
# Indices 1 2 3 4 5 6 
#
# 1 60.4465 38.0389 24.2680 -9.7477 -7.1876 18.3441
# 2 38.0389 133.2794 40.4805 -9.2361 -12.5806 17.1101
# 3 24.2680 40.4805 82.8147 -7.1921 0.7782 9.5541
# 4 -9.7477 -9.2361 -7.1921 26.7741 8.1108 -5.6481
# 5 -7.1876 -12.5806 0.7782 8.1108 43.9958 -4.4593
# 6 18.3441 17.1101 9.5541 -5.6481 -4.4593 25.7636
#
#
#
# Elastic Compliance Matrix: (Units=1/GPa)
#
#
# Indices 1 2 3 4 5 6 
#
# 1 0.025197 -0.004093 -0.003577 0.003776 0.001006 -0.012894
# 2 -0.004093 0.010235 -0.003571 -0.000019 0.002102 -0.002199
# 3 -0.003577 -0.003571 0.015148 0.002104 -0.002326 -0.000640
# 4 0.003776 -0.000019 0.002104 0.042310 -0.006755 0.004650
# 5 0.001006 0.002102 -0.002326 -0.006755 0.024942 0.001587
# 6 -0.012894 -0.002199 -0.000640 0.004650 0.001587 0.050987
#
#
# Mechanical properties :
#
#
# Convention : Reuss Voigt Hill
#
# Bulk Modulus (GPa) = 35.59106 53.56839 44.57973
# Shear Modulus (GPa) = 24.91682 30.89024 27.90353
#
# Velocity S-wave (km/s) = 3.75613 4.18220 3.97487
# Velocity P-wave (km/s) = 6.24210 7.32480 6.80502
#
# Compressibility (1/GPa) = 0.02809694
#
# Stress axis : x y z
#
# Youngs Moduli (GPa) = 39.68734 97.70069 66.01737
#
# Poissons Ratio (x) = 0.39989 0.23614
# Poissons Ratio (y) = 0.16244 0.23578
# Poissons Ratio (z) = 0.14196 0.34893
#
# Static dielectric constant tensor:
#      x y z
#    x 3.464810 0.412680 -0.036580 
#    y 0.412680 3.235040 -0.113420 
#    z -0.036580 -0.113420 3.491960 
# 
# 
# High freq. dielectric constant tensor:
#      x y z
#    x 1.686300 0.036290 0.002960 
#    y 0.036290 1.650370 -0.012510 
#    z 0.002960 -0.012510 1.695750 
# 
# From -- ./inp_files/256790.got.cif
#   From: 2010.06.25/outbox.cif.g09.slc.cpg/sg2_129_cif.got.tgz:256790.got - 2010.06.27 13:26:56.
