data_PCOD8039488
_publ_section_title
;
Structure prediction by ZEFSAII (Michael W. Deem and Ramdas Pophale) SiO2 
 PCOD8039488
Probable space group: P -1
;
_chemical_formula_sum "Si O2"
_cell_formula_units_Z 16
_cell_length_a 23.370303
_cell_length_b 11.504292
_cell_length_c 10.908793
_cell_angle_alpha 40.714387
_cell_angle_beta 150.752027
_cell_angle_gamma 148.396007
_cell_volume 749.690588
_symmetry_space_group_name_H-M "P -1"
_symmetry_group_IT_number 2
_symmetry_cell_setting 'triclinic'
loop_
_space_group_symop_operation_xyz
x,y,z
-x,-y,-z
loop_
_atom_site_type_symbol
_atom_site_label
_atom_site_fract_x
_atom_site_fract_y
_atom_site_fract_z
Si Si1 0.102368 0.994700 0.347318
Si Si2 0.649506 0.120793 0.752516
Si Si3 0.404236 0.696648 0.088725
Si Si4 0.215441 0.194983 0.148169
Si Si5 0.136515 0.643073 0.727002
Si Si6 0.117423 0.404346 0.125496
Si Si7 0.457788 0.940544 0.761953
Si Si8 0.208844 0.884318 0.196079
O O1 0.199573 0.071240 0.343667
O O2 0.135490 0.206914 0.313418
O O3 0.143079 0.856844 0.613653
O O4 0.931775 0.824185 0.129314
O O5 0.747916 0.390377 0.710782
O O6 0.742200 0.053999 0.905373
O O7 0.500000 0.000000 0.500000
O O8 0.605510 0.043272 0.873596
O O9 0.354640 0.450226 0.215268
O O10 0.526305 0.860960 0.287169
O O11 0.278067 0.728594 0.843868
O O12 0.454714 0.767811 0.985099
O O13 0.237793 0.094489 0.151151
O O14 0.000000 0.500000 0.500000
O O15 0.122155 0.488773 0.931652
O O16 0.961909 0.320763 0.958189
O O17 0.309976 0.823400 0.498452
#
# Coordination Sequence:
#
# PCOD8039488 Si02
#       8
#     2   2   2   2   2   2   2   2
#     4  10  19  32  57  93 129 149 196 248 312 358
#     4  10  21  42  64  81 116 168 207 246 298 355
#     4  11  20  34  57  86 125 157 192 250 308 354
#     4  10  18  34  52  88 124 156 197 248 294 365
#     4  12  19  32  61  94 128 158 182 244 315 356
#     4  11  21  39  63  93 119 155 205 254 296 360
#     4  10  21  37  56  86 117 159 205 241 302 364
#     4  10  22  36  62  85 114 161 207 241 298 357
#
# _framework density 21.342137999999998
#
# number of rings (size 3 to 8) (size 9 to 14) (size 15 to 20)
#    0.000    1.500    3.750    3.375    0.000    0.500 
#    0.000    5.625    5.500    2.250    0.000    0.000 
#    0.000    0.000    0.000    0.000    0.000    0.000 
#
# Total GULP energy -198284.939233 kJ/mol
# GULP energy per Si atom -12392.808702 kJ/mol
# Density = 2.129356 g / cm^3
# Si number density = 21.342138 Si / 1000 Ang^3
#
#
#
# Elastic Constant Matrix: (Units=GPa)
#
#
# Indices 1 2 3 4 5 6 
#
# 1 140.2052 35.7838 11.3235 1.6499 10.1164 10.8066
# 2 35.7838 117.1429 25.9798 13.8302 4.2177 -1.7029
# 3 11.3235 25.9798 44.4354 6.3987 3.0748 -1.9905
# 4 1.6499 13.8302 6.3987 34.6945 -0.9644 -0.5136
# 5 10.1164 4.2177 3.0748 -0.9644 23.2651 3.0023
# 6 10.8066 -1.7029 -1.9905 -0.5136 3.0023 33.4447
#
#
#
# Elastic Compliance Matrix: (Units=1/GPa)
#
#
# Indices 1 2 3 4 5 6 
#
# 1 0.008173 -0.002344 -0.000723 0.000567 -0.002680 -0.002554
# 2 -0.002344 0.010818 -0.005179 -0.003245 -0.000521 0.000997
# 3 -0.000723 -0.005179 0.026377 -0.002812 -0.002572 0.001727
# 4 0.000567 -0.003245 -0.002812 0.030661 0.002014 -0.000226
# 5 -0.002680 -0.000521 -0.002572 0.002014 0.045096 -0.003331
# 6 -0.002554 0.000997 0.001727 -0.000226 -0.003331 0.031174
#
#
# Mechanical properties :
#
#
# Convention : Reuss Voigt Hill
#
# Bulk Modulus (GPa) = 34.63153 49.77310 42.20231
# Shear Modulus (GPa) = 28.02442 33.52726 30.77584
#
# Velocity S-wave (km/s) = 3.62761 3.96781 3.80152
# Velocity P-wave (km/s) = 5.81447 6.66059 6.25186
#
# Compressibility (1/GPa) = 0.02887542
#
# Stress axis : x y z
#
# Youngs Moduli (GPa) = 122.36156 92.44224 37.91138
#
# Poissons Ratio (x) = 0.21665 0.02740
# Poissons Ratio (y) = 0.28678 0.19636
# Poissons Ratio (z) = 0.08845 0.47880
#
# Static dielectric constant tensor:
#      x y z
#    x 4.249830 0.181340 0.154330 
#    y 0.181340 3.991770 0.260530 
#    z 0.154330 0.260530 3.723700 
# 
# 
# High freq. dielectric constant tensor:
#      x y z
#    x 1.836810 0.005820 0.013450 
#    y 0.005820 1.843180 0.025370 
#    z 0.013450 0.025370 1.812880 
# 
# From -- ./inp_files/437383.got.cif
#   From: 2010.06.25/outbox.cif.g09.slc.cpg/sg2_219_cif.got.tgz:437383.got - 2010.06.27 13:26:56.
