data_PCOD8039695
_publ_section_title
;
Structure prediction by ZEFSAII (Michael W. Deem and Ramdas Pophale) SiO2 
 PCOD8039695
Probable space group: P -1
;
_chemical_formula_sum "Si O2"
_cell_formula_units_Z 16
_cell_length_a 11.950753
_cell_length_b 11.031370
_cell_length_c 11.993576
_cell_angle_alpha 48.045663
_cell_angle_beta 46.153617
_cell_angle_gamma 49.832341
_cell_volume 797.767060
_symmetry_space_group_name_H-M "P -1"
_symmetry_group_IT_number 2
_symmetry_cell_setting 'triclinic'
loop_
_space_group_symop_operation_xyz
x,y,z
-x,-y,-z
loop_
_atom_site_type_symbol
_atom_site_label
_atom_site_fract_x
_atom_site_fract_y
_atom_site_fract_z
Si Si1 0.856064 0.339949 0.163536
Si Si2 0.487501 0.382303 0.755977
Si Si3 0.535613 0.843256 0.285418
Si Si4 0.584822 0.766466 0.887112
Si Si5 0.237093 0.456986 0.551028
Si Si6 0.058675 0.380797 0.198413
Si Si7 0.320308 0.902934 0.600733
Si Si8 0.644567 0.741778 0.615969
O O1 0.677676 0.461087 0.255937
O O2 0.835806 0.163816 0.234957
O O3 0.980567 0.296000 0.208479
O O4 0.923674 0.437145 0.962918
O O5 0.488266 0.217333 0.784647
O O6 0.641569 0.434731 0.581222
O O7 0.494235 0.337539 0.910703
O O8 0.702264 0.716030 0.307010
O O9 0.380239 0.853152 0.463498
O O10 0.542274 0.037337 0.153932
O O11 0.763502 0.760921 0.812801
O O12 0.618021 0.675748 0.798026
O O13 0.233508 0.408797 0.452351
O O14 0.054679 0.577383 0.638691
O O15 0.465036 0.803507 0.646372
O O16 0.273505 0.107672 0.526144
#
# Coordination Sequence:
#
# PCOD8039695 Si02
#       8
#     2   2   2   2   2   2   2   2
#     4  10  18  36  57  85 112 145 192 225 284 340
#     4  11  19  34  60  87 106 146 195 237 268 333
#     4  10  18  34  60  83 109 143 192 238 270 325
#     4  10  23  37  54  84 125 147 173 234 301 327
#     4  11  20  36  63  82 106 152 200 229 261 335
#     4  10  22  35  56  86 119 147 175 239 294 332
#     4   9  17  34  60  85 104 150 194 235 262 332
#     4   9  19  35  57  81 113 148 193 226 273 330
#
# _framework density 20.055980000000002
#
# number of rings (size 3 to 8) (size 9 to 14) (size 15 to 20)
#    0.000    2.000    3.750    2.250    0.000    1.000 
#    0.000    6.250    0.000    0.000    0.000    0.000 
#    0.000    0.000    0.000    0.000    0.000    0.000 
#
# Total GULP energy -198352.600150 kJ/mol
# GULP energy per Si atom -12397.037509 kJ/mol
# Density = 2.001033 g / cm^3
# Si number density = 20.055980 Si / 1000 Ang^3
#
#
#
# Elastic Constant Matrix: (Units=GPa)
#
#
# Indices 1 2 3 4 5 6 
#
# 1 72.1818 10.3810 32.1453 0.2270 3.9643 17.5798
# 2 10.3810 44.3157 8.4821 6.6335 1.9673 4.6080
# 3 32.1453 8.4821 62.9478 8.9051 7.3374 -0.9832
# 4 0.2270 6.6335 8.9051 25.8766 1.0400 6.9344
# 5 3.9643 1.9673 7.3374 1.0400 39.6605 3.6163
# 6 17.5798 4.6080 -0.9832 6.9344 3.6163 30.0671
#
#
#
# Elastic Compliance Matrix: (Units=1/GPa)
#
#
# Indices 1 2 3 4 5 6 
#
# 1 0.024406 -0.002842 -0.013896 0.009714 0.001542 -0.016715
# 2 -0.002842 0.024367 -0.000980 -0.005666 -0.000528 -0.000734
# 3 -0.013896 -0.000980 0.025406 -0.011488 -0.004078 0.012245
# 4 0.009714 -0.005666 -0.011488 0.048329 0.001676 -0.016535
# 5 0.001542 -0.000528 -0.004078 0.001676 0.026206 -0.004492
# 6 -0.016715 -0.000734 0.012245 -0.016535 -0.004492 0.047898
#
#
# Mechanical properties :
#
#
# Convention : Reuss Voigt Hill
#
# Bulk Modulus (GPa) = 25.81101 31.27356 28.54229
# Shear Modulus (GPa) = 20.41121 27.68332 24.04727
#
# Velocity S-wave (km/s) = 3.19362 3.71927 3.46642
# Velocity P-wave (km/s) = 5.14746 5.83703 5.50306
#
# Compressibility (1/GPa) = 0.03874315
#
# Stress axis : x y z
#
# Youngs Moduli (GPa) = 40.97271 41.03959 39.36078
#
# Poissons Ratio (x) = 0.11664 0.54694
# Poissons Ratio (y) = 0.11645 0.03859
# Poissons Ratio (z) = 0.56934 0.04024
#
# Static dielectric constant tensor:
#      x y z
#    x 3.645870 0.154230 0.145960 
#    y 0.154230 3.492580 -0.007100 
#    z 0.145960 -0.007100 3.675950 
# 
# 
# High freq. dielectric constant tensor:
#      x y z
#    x 1.769760 0.015590 0.011710 
#    y 0.015590 1.758050 0.000730 
#    z 0.011710 0.000730 1.780400 
# 
# From -- ./inp_files/243043.got.cif
#   From: 2010.06.25/outbox.cif.g09.slc.cpg/sg2_122_cif.got.tgz:243043.got - 2010.06.27 13:26:56.
