data_PCOD8039216
_publ_section_title
;
Structure prediction by ZEFSAII (Michael W. Deem and Ramdas Pophale) SiO2 
 PCOD8039216
Probable space group: P -1
;
_chemical_formula_sum "Si O2"
_cell_formula_units_Z 16
_cell_length_a 13.179541
_cell_length_b 8.779229
_cell_length_c 10.146814
_cell_angle_alpha 121.531373
_cell_angle_beta 95.595059
_cell_angle_gamma 115.570966
_cell_volume 819.048015
_symmetry_space_group_name_H-M "P -1"
_symmetry_group_IT_number 2
_symmetry_cell_setting 'triclinic'
loop_
_space_group_symop_operation_xyz
x,y,z
-x,-y,-z
loop_
_atom_site_type_symbol
_atom_site_label
_atom_site_fract_x
_atom_site_fract_y
_atom_site_fract_z
Si Si1 0.048688 0.904508 0.361715
Si Si2 0.721173 0.645917 0.447126
Si Si3 0.299618 0.727743 0.874315
Si Si4 0.372500 0.660809 0.482085
Si Si5 0.569857 0.782702 0.358018
Si Si6 0.543600 0.942082 0.162630
Si Si7 0.781859 0.251043 0.649142
Si Si8 0.119153 0.513361 0.977597
O O1 0.103095 0.772090 0.371706
O O2 0.930996 0.735846 0.178098
O O3 0.160059 0.113147 0.393623
O O4 0.000000 0.000000 0.500000
O O5 0.756574 0.492017 0.316956
O O6 0.656329 0.547827 0.535266
O O7 0.627026 0.646286 0.333761
O O8 0.189722 0.676615 0.936522
O O9 0.343681 0.931428 0.873956
O O10 0.416403 0.776511 0.996415
O O11 0.435150 0.667639 0.355100
O O12 0.243361 0.640508 0.427956
O O13 0.463434 0.875879 0.678751
O O14 0.566324 0.805823 0.209417
O O15 0.655495 0.014925 0.544747
O O16 0.792745 0.391101 0.841186
O O17 0.000000 0.500000 0.000000
#
# Coordination Sequence:
#
# PCOD8039216 Si02
#       8
#     2   2   2   2   2   2   2   2
#     4  10  19  36  55  77 106 143 181 226 274 312
#     4  10  21  32  53  78 108 146 181 225 275 320
#     4  10  18  33  52  80 111 138 182 220 275 320
#     4  10  18  34  54  79 111 140 183 221 266 330
#     4  10  18  33  54  81 112 141 179 216 280 324
#     4   9  19  31  54  80 107 142 175 224 264 334
#     4   9  19  33  57  82 103 142 186 214 269 325
#     4  10  19  33  59  79 105 144 188 222 265 323
#
# _framework density 19.534873999999999
#
# number of rings (size 3 to 8) (size 9 to 14) (size 15 to 20)
#    0.000    2.250    1.250    3.375    0.000    0.500 
#    0.000    2.500    8.250    0.000    0.000    0.000 
#    0.000    0.000    0.000    0.000    0.000    0.000 
#
# Total GULP energy -198215.309235 kJ/mol
# GULP energy per Si atom -12388.456827 kJ/mol
# Density = 1.949041 g / cm^3
# Si number density = 19.534874 Si / 1000 Ang^3
#
#
#
# Elastic Constant Matrix: (Units=GPa)
#
#
# Indices 1 2 3 4 5 6 
#
# 1 67.4666 49.9147 23.8694 -13.4533 -4.1257 8.8346
# 2 49.9147 127.9506 36.1040 -25.0261 3.4290 0.7447
# 3 23.8694 36.1040 103.6513 -2.6254 4.3184 4.1130
# 4 -13.4533 -25.0261 -2.6254 30.8058 1.2656 0.8753
# 5 -4.1257 3.4290 4.3184 1.2656 25.1691 -4.2855
# 6 8.8346 0.7447 4.1130 0.8753 -4.2855 29.8889
#
#
#
# Elastic Compliance Matrix: (Units=1/GPa)
#
#
# Indices 1 2 3 4 5 6 
#
# 1 0.023127 -0.007680 -0.002498 0.003645 0.004091 -0.005821
# 2 -0.007680 0.012958 -0.002524 0.007018 -0.002653 0.001709
# 3 -0.002498 -0.002524 0.011173 -0.002078 -0.002043 -0.000968
# 4 0.003645 0.007018 -0.002078 0.039747 -0.002423 -0.002478
# 5 0.004091 -0.002653 -0.002043 -0.002423 0.042130 0.005249
# 6 -0.005821 0.001709 -0.000968 -0.002478 0.005249 0.036094
#
#
# Mechanical properties :
#
#
# Convention : Reuss Voigt Hill
#
# Bulk Modulus (GPa) = 45.75932 57.64942 51.70437
# Shear Modulus (GPa) = 25.26295 29.78478 27.52387
#
# Velocity S-wave (km/s) = 3.60004 3.90897 3.75768
# Velocity P-wave (km/s) = 6.38402 7.06743 6.73440
#
# Compressibility (1/GPa) = 0.02185347
#
# Stress axis : x y z
#
# Youngs Moduli (GPa) = 43.23882 77.17400 89.50025
#
# Poissons Ratio (x) = 0.59271 0.22356
# Poissons Ratio (y) = 0.33208 0.22593
# Poissons Ratio (z) = 0.10801 0.19481
#
# Static dielectric constant tensor:
#      x y z
#    x 3.553550 0.217310 0.413430 
#    y 0.217310 3.907930 0.418240 
#    z 0.413430 0.418240 4.655890 
# 
# 
# High freq. dielectric constant tensor:
#      x y z
#    x 1.736750 0.013730 0.006360 
#    y 0.013730 1.752340 0.003170 
#    z 0.006360 0.003170 1.761750 
# 
# From -- ./inp_files/186910.got.cif
#   From: 2010.06.25/outbox.cif.g09.slc.cpg/sg2_94_cif.got.tgz:186910.got - 2010.06.27 13:26:56.
