data_PCOD8039463
_publ_section_title
;
Structure prediction by ZEFSAII (Michael W. Deem and Ramdas Pophale) SiO2 
 PCOD8039463
Probable space group: P -1
;
_chemical_formula_sum "Si O2"
_cell_formula_units_Z 16
_cell_length_a 9.454272
_cell_length_b 14.613099
_cell_length_c 17.613953
_cell_angle_alpha 158.707504
_cell_angle_beta 83.108381
_cell_angle_gamma 97.445081
_cell_volume 876.214998
_symmetry_space_group_name_H-M "P -1"
_symmetry_group_IT_number 2
_symmetry_cell_setting 'triclinic'
loop_
_space_group_symop_operation_xyz
x,y,z
-x,-y,-z
loop_
_atom_site_type_symbol
_atom_site_label
_atom_site_fract_x
_atom_site_fract_y
_atom_site_fract_z
Si Si1 0.329058 0.951653 0.964057
Si Si2 0.667158 0.182103 0.560364
Si Si3 0.071358 0.124775 0.666324
Si Si4 0.431583 0.762947 0.221319
Si Si5 0.579096 0.549942 0.455411
Si Si6 0.588609 0.632357 0.816040
Si Si7 0.683528 0.084349 0.897522
Si Si8 0.825757 0.313060 0.928975
O O1 0.299896 0.659354 0.717053
O O2 0.255247 0.986213 0.077495
O O3 0.500000 0.000000 0.000000
O O4 0.292071 0.152779 0.056390
O O5 0.642074 0.233275 0.689568
O O6 0.670383 0.450849 0.726093
O O7 0.820304 0.065062 0.450715
O O8 0.546726 0.995150 0.386418
O O9 0.959850 0.180455 0.782458
O O10 0.157379 0.384460 0.839781
O O11 0.000000 0.000000 0.500000
O O12 0.313238 0.794244 0.189382
O O13 0.500000 0.500000 0.000000
O O14 0.500000 0.500000 0.500000
O O15 0.469181 0.526215 0.374710
O O16 0.651856 0.824690 0.655018
O O17 0.458306 0.755403 0.964021
O O18 0.805197 0.238808 0.961308
#
# Coordination Sequence:
#
# PCOD8039463 Si02
#       8
#     2   2   2   2   2   2   2   2
#     4   8  16  28  45  75 115 140 173 222 275 339
#     4  11  23  36  57  83 119 151 185 240 294 333
#     4  11  24  43  57  76 116 157 201 236 279 343
#     4  11  21  37  56  86 115 140 189 243 289 339
#     4  10  14  29  50  78 116 148 171 220 287 337
#     4  10  19  29  49  83 116 145 174 230 286 336
#     4  10  18  31  52  82 113 141 185 228 278 340
#     4  11  23  38  61  82 110 156 197 235 283 342
#
# _framework density 18.260358
#
# number of rings (size 3 to 8) (size 9 to 14) (size 15 to 20)
#    0.000    2.000    6.250    1.500    1.750    2.000 
#    0.000    0.000    0.000    0.750    0.000    1.750 
#    0.000    0.000    0.000    0.000    0.000    0.000 
#
# Total GULP energy -198310.412053 kJ/mol
# GULP energy per Si atom -12394.400753 kJ/mol
# Density = 1.821880 g / cm^3
# Si number density = 18.260358 Si / 1000 Ang^3
#
#
#
# Elastic Constant Matrix: (Units=GPa)
#
#
# Indices 1 2 3 4 5 6 
#
# 1 63.3765 35.3697 30.7046 8.1150 -7.8584 -0.2230
# 2 35.3697 125.4735 40.8751 14.9645 -8.4177 10.8962
# 3 30.7046 40.8751 110.4731 3.6848 -9.7831 0.4896
# 4 8.1150 14.9645 3.6848 31.6528 -8.5071 -3.8790
# 5 -7.8584 -8.4177 -9.7831 -8.5071 24.7400 -0.5057
# 6 -0.2230 10.8962 0.4896 -3.8790 -0.5057 20.1264
#
#
#
# Elastic Compliance Matrix: (Units=1/GPa)
#
#
# Indices 1 2 3 4 5 6 
#
# 1 0.020676 -0.004401 -0.003804 -0.001657 0.003046 0.002461
# 2 -0.004401 0.011283 -0.002801 -0.004873 -0.000486 -0.007040
# 3 -0.003804 -0.002801 0.011341 0.002001 0.003045 0.001660
# 4 -0.001657 -0.004873 0.002001 0.038602 0.012092 0.010315
# 5 0.003046 -0.000486 0.003045 0.012092 0.046661 0.003726
# 6 0.002461 -0.007040 0.001660 0.010315 0.003726 0.055566
#
#
# Mechanical properties :
#
#
# Convention : Reuss Voigt Hill
#
# Bulk Modulus (GPa) = 46.97366 57.02465 51.99916
# Shear Modulus (GPa) = 23.44797 28.12876 25.78836
#
# Velocity S-wave (km/s) = 3.58731 3.92909 3.76208
# Velocity P-wave (km/s) = 6.55276 7.20278 6.88544
#
# Compressibility (1/GPa) = 0.02128853
#
# Stress axis : x y z
#
# Youngs Moduli (GPa) = 48.36415 88.63068 88.17419
#
# Poissons Ratio (x) = 0.39006 0.33544
# Poissons Ratio (y) = 0.21285 0.24695
# Poissons Ratio (z) = 0.18399 0.24823
#
# Static dielectric constant tensor:
#      x y z
#    x 2.991880 0.029600 -0.014730 
#    y 0.029600 3.789160 0.266830 
#    z -0.014730 0.266830 4.200460 
# 
# 
# High freq. dielectric constant tensor:
#      x y z
#    x 1.647450 0.004010 -0.003310 
#    y 0.004010 1.719500 -0.000800 
#    z -0.003310 -0.000800 1.732330 
# 
# From -- ./inp_files/561240.got.cif
#   From: 2010.06.25/outbox.cif.g09.slc.cpg/sg2_281_cif.got.tgz:561240.got - 2010.06.27 13:26:56.
