data_PCOD8039210
_publ_section_title
;
Structure prediction by ZEFSAII (Michael W. Deem and Ramdas Pophale) SiO2 
 PCOD8039210
Probable space group: P -1
;
_chemical_formula_sum "Si O2"
_cell_formula_units_Z 16
_cell_length_a 11.949235
_cell_length_b 16.073217
_cell_length_c 12.296839
_cell_angle_alpha 154.933485
_cell_angle_beta 97.280882
_cell_angle_gamma 72.120906
_cell_volume 882.642426
_symmetry_space_group_name_H-M "P -1"
_symmetry_group_IT_number 2
_symmetry_cell_setting 'triclinic'
loop_
_space_group_symop_operation_xyz
x,y,z
-x,-y,-z
loop_
_atom_site_type_symbol
_atom_site_label
_atom_site_fract_x
_atom_site_fract_y
_atom_site_fract_z
Si Si1 0.486127 0.075782 0.312173
Si Si2 0.944357 0.807457 0.189503
Si Si3 0.163831 0.490805 0.220019
Si Si4 0.303589 0.963821 0.284458
Si Si5 0.980565 0.861555 0.495029
Si Si6 0.674893 0.957826 0.380609
Si Si7 0.427142 0.492253 0.649125
Si Si8 0.362841 0.414263 0.317679
O O1 0.558954 0.102301 0.458212
O O2 0.453903 0.280049 0.472170
O O3 0.357215 0.069041 0.324632
O O4 0.573469 0.851405 0.992681
O O5 0.006735 0.738444 0.235645
O O6 0.797611 0.997098 0.414030
O O7 0.942858 0.596275 0.879946
O O8 0.021536 0.900743 0.237430
O O9 0.220430 0.519797 0.375760
O O10 0.096818 0.722038 0.423807
O O11 0.280861 0.305646 0.944298
O O12 0.366241 0.973895 0.419525
O O13 0.152065 0.105470 0.432803
O O14 0.341173 0.710039 0.964407
O O15 0.349656 0.491582 0.531588
O O16 0.559091 0.488783 0.627857
#
# Coordination Sequence:
#
# PCOD8039210 Si02
#       8
#     2   2   2   2   2   2   2   2
#     4  10  19  35  56  76 102 139 171 211 270 306
#     4   8  18  31  49  80 103 131 179 209 239 307
#     4   9  18  32  56  77  98 137 172 218 257 286
#     4  10  21  34  47  79 115 135 165 209 257 327
#     4  10  18  33  52  76 109 140 170 205 256 305
#     4   8  18  34  50  80 107 128 175 216 246 313
#     4  10  21  36  54  76 103 141 169 220 265 300
#     4   9  20  37  56  78 100 125 189 225 247 306
#
# _framework density 18.127386000000001
#
# number of rings (size 3 to 8) (size 9 to 14) (size 15 to 20)
#    0.750    2.000    0.000    1.125    1.750    1.500 
#    4.500    0.625    0.000    1.500    0.000    0.000 
#    0.000    0.000    0.000    0.000    0.000    0.000 
#
# Total GULP energy -198311.246082 kJ/mol
# GULP energy per Si atom -12394.452880 kJ/mol
# Density = 1.808613 g / cm^3
# Si number density = 18.127386 Si / 1000 Ang^3
#
#
#
# Elastic Constant Matrix: (Units=GPa)
#
#
# Indices 1 2 3 4 5 6 
#
# 1 51.5296 43.3947 15.1110 10.0503 9.0038 -5.1113
# 2 43.3947 116.4953 50.4756 11.1865 6.7118 -12.1306
# 3 15.1110 50.4756 64.9164 -1.4506 9.7070 -1.8153
# 4 10.0503 11.1865 -1.4506 29.2473 -0.1469 7.4587
# 5 9.0038 6.7118 9.7070 -0.1469 24.4844 -1.0980
# 6 -5.1113 -12.1306 -1.8153 7.4587 -1.0980 27.3320
#
#
#
# Elastic Compliance Matrix: (Units=1/GPa)
#
#
# Indices 1 2 3 4 5 6 
#
# 1 0.031541 -0.011575 0.002999 -0.006941 -0.009546 0.002471
# 2 -0.011575 0.019768 -0.013259 -0.006153 0.004398 0.007584
# 3 0.002999 -0.013259 0.026214 0.006768 -0.008079 -0.005754
# 4 -0.006941 -0.006153 0.006768 0.043177 0.001128 -0.015317
# 5 -0.009546 0.004398 -0.008079 0.001128 0.046410 0.001187
# 6 0.002471 0.007584 -0.005754 -0.015317 0.001187 0.044261
#
#
# Mechanical properties :
#
#
# Convention : Reuss Voigt Hill
#
# Bulk Modulus (GPa) = 29.53866 50.10042 39.81954
# Shear Modulus (GPa) = 18.77407 24.47671 21.62539
#
# Velocity S-wave (km/s) = 3.22168 3.67858 3.45768
# Velocity P-wave (km/s) = 5.49267 6.76318 6.16076
#
# Compressibility (1/GPa) = 0.03385394
#
# Stress axis : x y z
#
# Youngs Moduli (GPa) = 31.70464 50.58707 38.14735
#
# Poissons Ratio (x) = 0.58554 -0.11442
# Poissons Ratio (y) = 0.36698 0.50580
# Poissons Ratio (z) = -0.09510 0.67074
#
# Static dielectric constant tensor:
#      x y z
#    x 3.274870 -0.122680 0.215670 
#    y -0.122680 3.151060 -0.127140 
#    z 0.215670 -0.127140 3.153950 
# 
# 
# High freq. dielectric constant tensor:
#      x y z
#    x 1.695900 -0.012440 0.021430 
#    y -0.012440 1.691490 -0.001760 
#    z 0.021430 -0.001760 1.680640 
# 
# From -- ./inp_files/432104.got.cif
#   From: 2010.06.25/outbox.cif.g09.slc.cpg/sg2_217_cif.got.tgz:432104.got - 2010.06.27 13:26:56.
