data_PCOD8039925
_publ_section_title
;
Structure prediction by ZEFSAII (Michael W. Deem and Ramdas Pophale) SiO2 
 PCOD8039925
Probable space group: P -1
;
_chemical_formula_sum "Si O2"
_cell_formula_units_Z 16
_cell_length_a 8.102972
_cell_length_b 11.492201
_cell_length_c 13.296933
_cell_angle_alpha 51.735911
_cell_angle_beta 127.559448
_cell_angle_gamma 106.219505
_cell_volume 761.040597
_symmetry_space_group_name_H-M "P -1"
_symmetry_group_IT_number 2
_symmetry_cell_setting 'triclinic'
loop_
_space_group_symop_operation_xyz
x,y,z
-x,-y,-z
loop_
_atom_site_type_symbol
_atom_site_label
_atom_site_fract_x
_atom_site_fract_y
_atom_site_fract_z
Si Si1 0.655497 0.054932 0.394543
Si Si2 0.381441 0.466896 0.264250
Si Si3 0.001246 0.272768 0.985402
Si Si4 0.565425 0.633835 0.889787
Si Si5 0.805021 0.004741 0.687340
Si Si6 0.800242 0.525990 0.482669
Si Si7 0.334098 0.233951 0.545083
Si Si8 0.803265 0.218291 0.745862
O O1 0.611142 0.217802 0.237919
O O2 0.434201 0.007547 0.368936
O O3 0.811234 0.059089 0.545469
O O4 0.759327 0.919898 0.430999
O O5 0.419996 0.397396 0.206176
O O6 0.585755 0.538686 0.332565
O O7 0.342007 0.332031 0.394326
O O8 0.183486 0.598111 0.118381
O O9 0.947414 0.176706 0.919720
O O10 0.208395 0.342647 0.996824
O O11 0.048492 0.156127 0.157783
O O12 0.500000 0.500000 0.000000
O O13 0.888299 0.125469 0.727607
O O14 0.809415 0.676024 0.470458
O O15 0.805794 0.394008 0.635933
O O16 0.000000 0.500000 0.500000
O O17 0.568549 0.192098 0.699731
#
# Coordination Sequence:
#
# PCOD8039925 Si02
#       8
#     2   2   2   2   2   2   2   2
#     4   9  18  37  60  85 120 157 204 247 297 360
#     4  11  21  39  62  87 125 161 206 254 290 361
#     4  11  20  36  59  91 122 162 204 250 302 348
#     4  11  25  39  60  91 126 163 196 249 311 359
#     4   9  18  33  60  92 115 157 207 253 291 345
#     4  11  22  36  61  92 124 162 197 249 313 361
#     4  10  18  37  65  89 118 160 206 251 291 356
#     4  10  18  35  58  89 123 153 207 248 292 359
#
# _framework density 21.023845999999999
#
# number of rings (size 3 to 8) (size 9 to 14) (size 15 to 20)
#    0.000    1.750    2.500    5.250    1.750    0.000 
#    0.000    1.250    0.000    7.500    0.000    0.000 
#    0.000    0.000    0.000    0.000    0.000    0.000 
#
# Total GULP energy -198386.571259 kJ/mol
# GULP energy per Si atom -12399.160704 kJ/mol
# Density = 2.097600 g / cm^3
# Si number density = 21.023846 Si / 1000 Ang^3
#
#
#
# Elastic Constant Matrix: (Units=GPa)
#
#
# Indices 1 2 3 4 5 6 
#
# 1 62.5851 40.1844 36.8514 -5.2491 -1.2364 -15.6772
# 2 40.1844 159.4278 60.2748 -7.5328 -6.3136 -26.1546
# 3 36.8514 60.2748 122.1308 -2.4619 7.6316 -1.6944
# 4 -5.2491 -7.5328 -2.4619 38.0138 -8.8574 -3.0187
# 5 -1.2364 -6.3136 7.6316 -8.8574 20.1702 -1.4855
# 6 -15.6772 -26.1546 -1.6944 -3.0187 -1.4855 24.4442
#
#
#
# Elastic Compliance Matrix: (Units=1/GPa)
#
#
# Indices 1 2 3 4 5 6 
#
# 1 0.025665 -0.000006 -0.007913 0.006413 0.008650 0.017223
# 2 -0.000006 0.011081 -0.005738 0.004848 0.008695 0.012582
# 3 -0.007913 -0.005738 0.013804 -0.004669 -0.010399 -0.011466
# 4 0.006413 0.004848 -0.004669 0.033517 0.019449 0.014298
# 5 0.008650 0.008695 -0.010399 0.019449 0.066822 0.020593
# 6 0.017223 0.012582 -0.011466 0.014298 0.020593 0.067639
#
#
# Mechanical properties :
#
#
# Convention : Reuss Voigt Hill
#
# Bulk Modulus (GPa) = 43.03854 68.75165 55.89509
# Shear Modulus (GPa) = 19.71707 30.31451 25.01579
#
# Velocity S-wave (km/s) = 3.06575 3.80137 3.45320
# Velocity P-wave (km/s) = 5.74869 7.21387 6.52255
#
# Compressibility (1/GPa) = 0.02323499
#
# Stress axis : x y z
#
# Youngs Moduli (GPa) = 38.96422 90.24700 72.44267
#
# Poissons Ratio (x) = 0.00055 0.57326
# Poissons Ratio (y) = 0.00024 0.41566
# Poissons Ratio (z) = 0.30833 0.51782
#
# Static dielectric constant tensor:
#      x y z
#    x 3.345070 -0.075000 0.142420 
#    y -0.075000 4.305560 0.025400 
#    z 0.142420 0.025400 3.995000 
# 
# 
# High freq. dielectric constant tensor:
#      x y z
#    x 1.776100 -0.013990 0.012470 
#    y -0.013990 1.844960 0.004970 
#    z 0.012470 0.004970 1.830600 
# 
# From -- ./inp_files/344616.got.cif
#   From: 2010.06.25/outbox.cif.g09.slc.cpg/sg2_173_cif.got.tgz:344616.got - 2010.06.27 13:26:56.
