data_PCOD8039440
_publ_section_title
;
Structure prediction by ZEFSAII (Michael W. Deem and Ramdas Pophale) SiO2 
 PCOD8039440
Probable space group: P -1
;
_chemical_formula_sum "Si O2"
_cell_formula_units_Z 14
_cell_length_a 9.902699
_cell_length_b 12.140232
_cell_length_c 20.816354
_cell_angle_alpha 19.457113
_cell_angle_beta 127.696048
_cell_angle_gamma 123.259667
_cell_volume 655.840666
_symmetry_space_group_name_H-M "P -1"
_symmetry_group_IT_number 2
_symmetry_cell_setting 'triclinic'
loop_
_space_group_symop_operation_xyz
x,y,z
-x,-y,-z
loop_
_atom_site_type_symbol
_atom_site_label
_atom_site_fract_x
_atom_site_fract_y
_atom_site_fract_z
Si Si1 0.525782 0.530074 0.566284
Si Si2 0.931112 0.325217 0.224237
Si Si3 0.247973 0.139590 0.759625
Si Si4 0.008958 0.613711 0.354351
Si Si5 0.828950 0.581372 0.865788
Si Si6 0.091730 0.424885 0.345135
Si Si7 0.730438 0.905948 0.779199
O O1 0.500000 0.500000 0.500000
O O2 0.428059 0.264590 0.723420
O O3 0.724293 0.453339 0.684144
O O4 0.451764 0.907065 0.355934
O O5 0.112955 0.294968 0.254804
O O6 0.966276 0.493227 0.210615
O O7 0.872885 0.963762 0.415046
O O8 0.772052 0.544084 0.023368
O O9 0.102559 0.251971 0.601362
O O10 0.183034 0.315755 0.711438
O O11 0.273347 0.742765 0.992480
O O12 0.004097 0.632989 0.265246
O O13 0.115385 0.888390 0.266924
O O14 0.718437 0.862652 0.721660
O O15 0.000000 0.500000 0.000000
#
# Coordination Sequence:
#
# PCOD8039440 Si02
#       7
#     2   2   2   2   2   2   2
#     4  11  23  38  57  93 122 150 185 250 304 339
#     4  10  23  39  62  86 115 164 195 238 289 347
#     4  10  19  33  58  89 112 149 199 238 292 328
#     4  10  18  33  61  87 110 154 200 237 279 349
#     4  10  18  35  59  88 112 148 206 245 265 346
#     4  11  23  41  58  85 128 153 192 239 300 354
#     4  10  20  35  63  89 110 152 202 243 280 337
#
# _framework density 21.346647999999998
#
# number of rings (size 3 to 8) (size 9 to 14) (size 15 to 20)
#    0.000    1.714    5.714    1.714    4.000    1.143 
#    0.000    1.429    0.000    0.000    0.000    0.000 
#    0.000    0.000    0.000    0.000    0.000    0.000 
#
# Total GULP energy -173542.163875 kJ/mol
# GULP energy per Si atom -12395.868848 kJ/mol
# Density = 2.129806 g / cm^3
# Si number density = 21.346648 Si / 1000 Ang^3
#
#
#
# Elastic Constant Matrix: (Units=GPa)
#
#
# Indices 1 2 3 4 5 6 
#
# 1 136.1656 46.8813 14.4291 -11.7032 -13.2427 -25.8735
# 2 46.8813 83.0510 5.8384 -11.9392 -5.0311 -30.9233
# 3 14.4291 5.8384 32.7201 -11.5650 -8.4271 -3.7107
# 4 -11.7032 -11.9392 -11.5650 23.8811 -2.2131 -1.2558
# 5 -13.2427 -5.0311 -8.4271 -2.2131 30.9498 -9.5802
# 6 -25.8735 -30.9233 -3.7107 -1.2558 -9.5802 42.4993
#
#
#
# Elastic Compliance Matrix: (Units=1/GPa)
#
#
# Indices 1 2 3 4 5 6 
#
# 1 0.010376 -0.002632 -0.000282 0.004505 0.006077 0.005880
# 2 -0.002632 0.023124 0.008002 0.016250 0.011879 0.019080
# 3 -0.000282 0.008002 0.046618 0.029156 0.020677 0.015243
# 4 0.004505 0.016250 0.029156 0.069969 0.025207 0.024862
# 5 0.006077 0.011879 0.020677 0.025207 0.052551 0.026740
# 6 0.005880 0.019080 0.015243 0.024862 0.026740 0.049085
#
#
# Mechanical properties :
#
#
# Convention : Reuss Voigt Hill
#
# Bulk Modulus (GPa) = 11.07501 42.91491 26.99496
# Shear Modulus (GPa) = 18.40643 31.78524 25.09583
#
# Velocity S-wave (km/s) = 2.93962 3.86295 3.43247
# Velocity P-wave (km/s) = 4.08916 6.32803 5.32753
#
# Compressibility (1/GPa) = 0.09029334
#
# Stress axis : x y z
#
# Youngs Moduli (GPa) = 96.38088 43.24538 21.45095
#
# Poissons Ratio (x) = 0.11382 0.00604
# Poissons Ratio (y) = 0.25367 -0.17164
# Poissons Ratio (z) = 0.02714 -0.34603
#
# Static dielectric constant tensor:
#      x y z
#    x 4.432510 -0.732480 -0.084260 
#    y -0.732480 3.972440 -0.349920 
#    z -0.084260 -0.349920 3.900350 
# 
# 
# High freq. dielectric constant tensor:
#      x y z
#    x 1.833630 -0.036910 -0.017830 
#    y -0.036910 1.815580 -0.027380 
#    z -0.017830 -0.027380 1.822450 
# 
# From -- ./inp_files/252400.got.cif
#   From: 2010.06.25/outbox.cif.g09.slc.cpg/sg2_127_cif.got.tgz:252400.got - 2010.06.27 13:26:56.
