data_PCOD8039916
_publ_section_title
;
Structure prediction by ZEFSAII (Michael W. Deem and Ramdas Pophale) SiO2 
 PCOD8039916
Probable space group: P -1
;
_chemical_formula_sum "Si O2"
_cell_formula_units_Z 16
_cell_length_a 18.560492
_cell_length_b 8.927345
_cell_length_c 9.896505
_cell_angle_alpha 46.077658
_cell_angle_beta 124.717476
_cell_angle_gamma 134.601431
_cell_volume 830.031762
_symmetry_space_group_name_H-M "P -1"
_symmetry_group_IT_number 2
_symmetry_cell_setting 'triclinic'
loop_
_space_group_symop_operation_xyz
x,y,z
-x,-y,-z
loop_
_atom_site_type_symbol
_atom_site_label
_atom_site_fract_x
_atom_site_fract_y
_atom_site_fract_z
Si Si1 0.942142 0.236478 0.034135
Si Si2 0.275987 0.066218 0.405817
Si Si3 0.782535 0.291265 0.665391
Si Si4 0.330990 0.104787 0.744392
Si Si5 0.119512 0.172806 0.267061
Si Si6 0.695028 0.285210 0.846014
Si Si7 0.160448 0.178763 0.595313
Si Si8 0.451773 0.577679 0.284816
O O1 0.024352 0.175480 0.094519
O O2 0.876875 0.023761 0.203896
O O3 0.869791 0.236328 0.840415
O O4 0.000000 0.500000 0.000000
O O5 0.312712 0.029358 0.614190
O O6 0.161838 0.029873 0.315651
O O7 0.358042 0.336556 0.265840
O O8 0.271418 0.865367 0.427282
O O9 0.695024 0.202383 0.743464
O O10 0.833578 0.575100 0.502361
O O11 0.276475 0.256141 0.625779
O O12 0.452879 0.259268 0.815699
O O13 0.278013 0.864638 0.928226
O O14 0.212687 0.443039 0.216997
O O15 0.087757 0.067846 0.453096
O O16 0.588300 0.259381 0.791101
O O17 0.500000 0.500000 0.500000
#
# Coordination Sequence:
#
# PCOD8039916 Si02
#       8
#     2   2   2   2   2   2   2   2
#     4  12  20  35  62  85 106 151 199 224 272 339
#     4   9  21  38  53  81 120 144 181 235 293 318
#     4  11  22  37  56  84 119 146 179 243 284 319
#     4  10  18  37  60  82 107 153 193 225 270 344
#     4   9  19  35  58  79 111 153 184 233 272 338
#     4  10  18  35  58  87 108 145 196 226 272 337
#     4  10  20  36  58  84 113 144 195 228 275 331
#     4   9  18  35  60  80 109 152 190 223 273 343
#
# _framework density 19.276371999999999
#
# number of rings (size 3 to 8) (size 9 to 14) (size 15 to 20)
#    0.000    2.000    3.750    3.000    0.000    0.500 
#    4.500    6.875    0.000    0.000    0.000    0.000 
#    0.000    0.000    0.000    0.000    0.000    0.000 
#
# Total GULP energy -198283.709154 kJ/mol
# GULP energy per Si atom -12392.731822 kJ/mol
# Density = 1.923250 g / cm^3
# Si number density = 19.276372 Si / 1000 Ang^3
#
#
#
# Elastic Constant Matrix: (Units=GPa)
#
#
# Indices 1 2 3 4 5 6 
#
# 1 92.1272 35.7653 28.0707 -0.7202 15.6068 -4.9136
# 2 35.7653 72.9291 36.2531 -1.1567 -5.3717 -17.6477
# 3 28.0707 36.2531 93.9940 -17.7754 2.6586 -5.2268
# 4 -0.7202 -1.1567 -17.7754 18.4419 2.6523 1.5420
# 5 15.6068 -5.3717 2.6586 2.6523 33.0822 3.1229
# 6 -4.9136 -17.6477 -5.2268 1.5420 3.1229 27.8451
#
#
#
# Elastic Compliance Matrix: (Units=1/GPa)
#
#
# Indices 1 2 3 4 5 6 
#
# 1 0.015761 -0.008027 -0.001449 0.000071 -0.008474 -0.001632
# 2 -0.008027 0.025531 -0.008749 -0.009386 0.008187 0.012724
# 3 -0.001449 -0.008749 0.017595 0.017076 -0.003229 -0.003081
# 4 0.000071 -0.009386 0.017076 0.071752 -0.008136 -0.005792
# 5 -0.008474 0.008187 -0.003229 -0.008136 0.036519 -0.000558
# 6 -0.001632 0.012724 -0.003081 -0.005792 -0.000558 0.043494
#
#
# Mechanical properties :
#
#
# Convention : Reuss Voigt Hill
#
# Bulk Modulus (GPa) = 44.56745 51.02540 47.79643
# Shear Modulus (GPa) = 19.64007 26.47126 23.05567
#
# Velocity S-wave (km/s) = 3.19543 3.70976 3.46216
# Velocity P-wave (km/s) = 6.06505 6.69908 6.38993
#
# Compressibility (1/GPa) = 0.02243790
#
# Stress axis : x y z
#
# Youngs Moduli (GPa) = 63.44612 39.16828 56.83350
#
# Poissons Ratio (x) = 0.31442 0.08232
# Poissons Ratio (y) = 0.50931 0.49723
# Poissons Ratio (z) = 0.09190 0.34268
#
# Static dielectric constant tensor:
#      x y z
#    x 16.475470 9.784960 -0.382850 
#    y 9.784960 10.726890 -0.699670 
#    z -0.382850 -0.699670 3.667450 
# 
# 
# High freq. dielectric constant tensor:
#      x y z
#    x 1.764670 0.012860 0.016690 
#    y 0.012860 1.709860 -0.023820 
#    z 0.016690 -0.023820 1.748810 
# 
# From -- ./inp_files/202895.got.cif
#   From: 2010.06.25/outbox.cif.g09.slc.cpg/sg2_102_cif.got.tgz:202895.got - 2010.06.27 13:26:56.
