data_PCOD8039377
_publ_section_title
;
Structure prediction by ZEFSAII (Michael W. Deem and Ramdas Pophale) SiO2 
 PCOD8039377
Probable space group: P -1
;
_chemical_formula_sum "Si O2"
_cell_formula_units_Z 16
_cell_length_a 7.671219
_cell_length_b 7.671222
_cell_length_c 12.910629
_cell_angle_alpha 100.106297
_cell_angle_beta 80.218210
_cell_angle_gamma 65.244699
_cell_volume 653.583301
_symmetry_space_group_name_H-M "P -1"
_symmetry_group_IT_number 2
_symmetry_cell_setting 'triclinic'
loop_
_space_group_symop_operation_xyz
x,y,z
-x,-y,-z
loop_
_atom_site_type_symbol
_atom_site_label
_atom_site_fract_x
_atom_site_fract_y
_atom_site_fract_z
Si Si1 0.700529 0.134029 0.304922
Si Si2 0.946787 0.964292 0.887785
Si Si3 0.576507 0.334571 0.887785
Si Si4 0.636019 0.765338 0.261783
Si Si5 0.339684 0.929565 0.471942
Si Si6 0.996445 0.602198 0.738217
Si Si7 0.957623 0.311626 0.471942
Si Si8 0.329107 0.505452 0.304922
O O1 0.733664 0.148947 0.427726
O O2 0.556383 0.351453 0.295070
O O3 0.902795 0.021331 0.208498
O O4 0.595210 0.992203 0.285302
O O5 0.956490 0.745849 0.856139
O O6 0.724378 0.126927 0.902549
O O7 0.000000 0.000000 0.000000
O O8 0.389710 0.312628 0.856139
O O9 0.687166 0.388706 0.791502
O O10 0.500000 0.500000 0.000000
O O11 0.461743 0.759474 0.354156
O O12 0.854279 0.625063 0.270783
O O13 0.500000 0.000000 0.500000
O O14 0.149667 0.108028 0.458361
O O15 0.793099 0.619488 0.714699
O O16 0.094681 0.684101 0.645844
O O17 0.778779 0.338609 0.572273
O O18 0.000000 0.500000 0.500000
#
# Coordination Sequence:
#
# PCOD8039377 Si02
#       8
#     2   2   2   2   2   2   2   2
#     4  11  22  40  64  93 125 162 201 248 303 361
#     4  12  26  45  64  89 120 158 206 256 302 358
#     4  12  26  45  64  89 120 158 206 256 302 358
#     4  11  22  40  64  93 125 162 201 248 303 361
#     4  10  18  33  58  91 125 160 198 245 299 361
#     4  11  22  40  64  93 125 162 201 248 303 361
#     4  10  18  33  58  91 125 160 198 245 299 361
#     4  11  22  40  64  93 125 162 201 248 303 361
#
# _framework density 24.480429000000001
#
# number of rings (size 3 to 8) (size 9 to 14) (size 15 to 20)
#    0.000    1.000    0.000   12.000    0.000    2.000 
#    0.000   10.000    0.000    0.000    0.000    0.000 
#    0.000    0.000    0.000    0.000    0.000    0.000 
#
# Total GULP energy -198464.194077 kJ/mol
# GULP energy per Si atom -12404.012130 kJ/mol
# Density = 2.442471 g / cm^3
# Si number density = 24.480429 Si / 1000 Ang^3
#
#
#
# Elastic Constant Matrix: (Units=GPa)
#
#
# Indices 1 2 3 4 5 6 
#
# 1 33.7962 5.6663 26.8239 3.4734 7.4125 -23.3001
# 2 5.6663 130.5402 29.1266 4.0286 11.3359 -32.5828
# 3 26.8239 29.1266 154.4539 17.0627 30.8537 1.6330
# 4 3.4734 4.0286 17.0627 44.2977 0.6505 1.5590
# 5 7.4125 11.3359 30.8537 0.6505 42.0732 -2.3501
# 6 -23.3001 -32.5828 1.6330 1.5590 -2.3501 39.5303
#
#
#
# Elastic Compliance Matrix: (Units=1/GPa)
#
#
# Indices 1 2 3 4 5 6 
#
# 1 0.088923 0.017498 -0.018432 -0.003797 -0.003031 0.067567
# 2 0.017498 0.013726 -0.005400 -0.001285 -0.001583 0.021807
# 3 -0.018432 -0.005400 0.012099 -0.002086 -0.005034 -0.016032
# 4 -0.003797 -0.001285 -0.002086 0.023906 0.001950 -0.004038
# 5 -0.003031 -0.001583 -0.005034 0.001950 0.028319 -0.001277
# 6 0.067567 0.021807 -0.016032 -0.004038 -0.001277 0.083842
#
#
# Mechanical properties :
#
#
# Convention : Reuss Voigt Hill
#
# Bulk Modulus (GPa) = 9.79625 49.11375 29.45500
# Shear Modulus (GPa) = 16.80621 42.32515 29.56568
#
# Velocity S-wave (km/s) = 2.62299 4.16256 3.47901
# Velocity P-wave (km/s) = 3.63095 6.57332 5.31001
#
# Compressibility (1/GPa) = 0.10207991
#
# Stress axis : x y z
#
# Youngs Moduli (GPa) = 11.24574 72.85526 82.64963
#
# Poissons Ratio (x) = -1.27481 1.52341
# Poissons Ratio (y) = -0.19678 0.44627
# Poissons Ratio (z) = 0.20728 0.39339
#
# Static dielectric constant tensor:
#      x y z
#    x 4.675120 0.279270 0.112030 
#    y 0.279270 4.230740 0.106140 
#    z 0.112030 0.106140 4.928750 
# 
# 
# High freq. dielectric constant tensor:
#      x y z
#    x 1.996700 0.011910 0.014350 
#    y 0.011910 1.979240 0.007100 
#    z 0.014350 0.007100 1.979230 
# 
# From -- ./inp_files/382273.got.cif
#   From: 2010.06.25/outbox.cif.g09.slc.cpg/sg2_192_cif.got.tgz:382273.got - 2010.06.27 13:26:56.
