data_PCOD8039870
_publ_section_title
;
Structure prediction by ZEFSAII (Michael W. Deem and Ramdas Pophale) SiO2 
 PCOD8039870
Probable space group: P -1
;
_chemical_formula_sum "Si O2"
_cell_formula_units_Z 16
_cell_length_a 11.644808
_cell_length_b 8.936772
_cell_length_c 9.004891
_cell_angle_alpha 103.488914
_cell_angle_beta 81.773484
_cell_angle_gamma 111.290181
_cell_volume 847.306147
_symmetry_space_group_name_H-M "P -1"
_symmetry_group_IT_number 2
_symmetry_cell_setting 'triclinic'
loop_
_space_group_symop_operation_xyz
x,y,z
-x,-y,-z
loop_
_atom_site_type_symbol
_atom_site_label
_atom_site_fract_x
_atom_site_fract_y
_atom_site_fract_z
Si Si1 0.892182 0.623919 0.091431
Si Si2 0.671249 0.331405 0.127636
Si Si3 0.484444 0.665145 0.100431
Si Si4 0.222301 0.800894 0.667945
Si Si5 0.985074 0.545157 0.769769
Si Si6 0.730132 0.829806 0.258806
Si Si7 0.725006 0.404803 0.628644
Si Si8 0.362645 0.434547 0.564683
O O1 0.789605 0.444216 0.039048
O O2 0.837199 0.767627 0.161806
O O3 0.971266 0.603696 0.215004
O O4 0.974123 0.660847 0.935871
O O5 0.701317 0.197345 0.193059
O O6 0.638248 0.459902 0.266482
O O7 0.562912 0.250177 0.009148
O O8 0.616209 0.788550 0.155916
O O9 0.387680 0.630280 0.245055
O O10 0.500000 0.500000 0.000000
O O11 0.292637 0.758859 0.503422
O O12 0.086715 0.662312 0.667426
O O13 0.210278 0.976512 0.687367
O O14 0.856358 0.465325 0.694908
O O15 0.682845 0.752537 0.412236
O O16 0.725443 0.548470 0.547121
O O17 0.500000 0.500000 0.500000
#
# Coordination Sequence:
#
# PCOD8039870 Si02
#       8
#     2   2   2   2   2   2   2   2
#     4   9  18  35  63  86 108 149 196 242 276 334
#     4   9  18  35  55  85 110 145 194 227 281 335
#     4  12  19  35  66  87 110 144 203 243 274 342
#     4  10  24  37  54  85 126 155 179 236 299 342
#     4  10  19  38  63  84 110 151 203 235 277 336
#     4  11  22  37  57  87 122 149 187 237 300 333
#     4  11  21  37  62  87 110 153 200 230 282 343
#     4  10  18  35  57  83 111 150 189 231 276 342
#
# _framework density 18.883375999999998
#
# number of rings (size 3 to 8) (size 9 to 14) (size 15 to 20)
#    0.000    1.750    5.000    1.125    0.000    1.500 
#    0.000    2.500    5.500    0.000    0.000    0.000 
#    0.000    0.000    0.000    0.000    0.000    0.000 
#
# Total GULP energy -198331.885657 kJ/mol
# GULP energy per Si atom -12395.742854 kJ/mol
# Density = 1.884040 g / cm^3
# Si number density = 18.883376 Si / 1000 Ang^3
#
#
#
# Elastic Constant Matrix: (Units=GPa)
#
#
# Indices 1 2 3 4 5 6 
#
# 1 115.2953 30.9501 45.0284 2.6657 6.0732 -14.3723
# 2 30.9501 85.6139 34.6497 2.7063 -3.9410 -23.2284
# 3 45.0284 34.6497 89.9587 -9.1271 -5.7673 -8.3134
# 4 2.6657 2.7063 -9.1271 18.3721 -0.2933 -0.3012
# 5 6.0732 -3.9410 -5.7673 -0.2933 41.9058 -4.4047
# 6 -14.3723 -23.2284 -8.3134 -0.3012 -4.4047 23.3432
#
#
#
# Elastic Compliance Matrix: (Units=1/GPa)
#
#
# Indices 1 2 3 4 5 6 
#
# 1 0.011901 -0.000813 -0.005878 -0.004498 -0.002227 0.003947
# 2 -0.000813 0.019242 -0.005776 -0.005260 0.002890 0.017067
# 3 -0.005878 -0.005776 0.017241 0.010265 0.002477 -0.002627
# 4 -0.004498 -0.005260 0.010265 0.060931 0.001655 -0.003249
# 5 -0.002227 0.002890 0.002477 0.001655 0.025570 0.007233
# 6 0.003947 0.017067 -0.002627 -0.003249 0.007233 0.062640
#
#
# Mechanical properties :
#
#
# Convention : Reuss Voigt Hill
#
# Bulk Modulus (GPa) = 42.64434 56.90271 49.77353
# Shear Modulus (GPa) = 21.71332 28.74018 25.22675
#
# Velocity S-wave (km/s) = 3.39464 3.90549 3.65899
# Velocity P-wave (km/s) = 6.16416 7.10889 6.65331
#
# Compressibility (1/GPa) = 0.02344977
#
# Stress axis : x y z
#
# Youngs Moduli (GPa) = 84.02994 51.97092 58.00205
#
# Poissons Ratio (x) = 0.04223 0.34094
# Poissons Ratio (y) = 0.06828 0.33501
# Poissons Ratio (z) = 0.49394 0.30017
#
# Static dielectric constant tensor:
#      x y z
#    x 3.746910 -0.273180 0.068680 
#    y -0.273180 3.003320 -0.193620 
#    z 0.068680 -0.193620 3.510280 
# 
# 
# High freq. dielectric constant tensor:
#      x y z
#    x 1.754790 -0.014220 -0.006140 
#    y -0.014220 1.688250 -0.023460 
#    z -0.006140 -0.023460 1.739220 
# 
# From -- ./inp_files/171557.got.cif
#   From: 2010.06.25/outbox.cif.g09.slc.cpg/sg2_86_cif.got.tgz:171557.got - 2010.06.27 13:26:56.
