data_PCOD8039346
_publ_section_title
;
Structure prediction by ZEFSAII (Michael W. Deem and Ramdas Pophale) SiO2 
 PCOD8039346
Probable space group: P -1
;
_chemical_formula_sum "Si O2"
_cell_formula_units_Z 16
_cell_length_a 11.740295
_cell_length_b 18.003511
_cell_length_c 7.174819
_cell_angle_alpha 67.313646
_cell_angle_beta 92.566689
_cell_angle_gamma 40.447246
_cell_volume 748.837107
_symmetry_space_group_name_H-M "P -1"
_symmetry_group_IT_number 2
_symmetry_cell_setting 'triclinic'
loop_
_space_group_symop_operation_xyz
x,y,z
-x,-y,-z
loop_
_atom_site_type_symbol
_atom_site_label
_atom_site_fract_x
_atom_site_fract_y
_atom_site_fract_z
Si Si1 0.650050 0.593408 0.380118
Si Si2 0.964484 0.009139 0.771835
Si Si3 0.337039 0.034120 0.373328
Si Si4 0.323212 0.678746 0.126628
Si Si5 0.737682 0.441408 0.208077
Si Si6 0.377570 0.892376 0.207006
Si Si7 0.096775 0.100915 0.629791
Si Si8 0.106091 0.648784 0.098680
O O1 0.742902 0.523271 0.246076
O O2 0.573454 0.730378 0.276400
O O3 0.838114 0.461325 0.665731
O O4 0.445980 0.652669 0.330471
O O5 0.150704 0.841430 0.864006
O O6 0.738606 0.098459 0.661868
O O7 0.980933 0.084502 0.593148
O O8 0.000000 0.000000 0.000000
O O9 0.251977 0.027934 0.539125
O O10 0.500000 0.000000 0.500000
O O11 0.457840 0.914456 0.330991
O O12 0.144182 0.196332 0.103004
O O13 0.498945 0.547533 0.112803
O O14 0.195756 0.675286 0.185409
O O15 0.915515 0.276171 0.466265
O O16 0.774532 0.437515 0.001557
O O17 0.225351 0.019489 0.912313
#
# Coordination Sequence:
#
# PCOD8039346 Si02
#       8
#     2   2   2   2   2   2   2   2
#     4  10  22  33  60  89 124 162 186 237 306 374
#     4  10  18  33  57  94 128 155 189 238 306 378
#     4  11  26  45  64  86 114 163 221 256 289 345
#     4  10  19  33  54  92 129 157 186 231 306 380
#     4   9  21  33  52  89 127 156 196 228 293 379
#     4  11  22  39  62  91 126 158 197 248 312 357
#     4  10  21  39  64  91 124 158 196 254 301 365
#     4  11  21  38  59  86 123 164 197 245 298 353
#
# _framework density 21.366463
#
# number of rings (size 3 to 8) (size 9 to 14) (size 15 to 20)
#    0.750    1.000    3.750    1.500    3.500    3.000 
#    0.000    0.625    0.000    3.750    0.000    0.000 
#    0.000    0.000    0.000    0.000    0.000    0.000 
#
# Total GULP energy -198214.842902 kJ/mol
# GULP energy per Si atom -12388.427681 kJ/mol
# Density = 2.131783 g / cm^3
# Si number density = 21.366463 Si / 1000 Ang^3
#
#
#
# Elastic Constant Matrix: (Units=GPa)
#
#
# Indices 1 2 3 4 5 6 
#
# 1 28.7183 11.1712 9.4259 3.1936 5.8628 9.2196
# 2 11.1712 108.3153 29.6117 -17.8519 -3.4780 20.1893
# 3 9.4259 29.6117 44.5878 5.0748 6.2300 10.3199
# 4 3.1936 -17.8519 5.0748 29.6662 -0.2493 -1.6110
# 5 5.8628 -3.4780 6.2300 -0.2493 19.8222 5.6877
# 6 9.2196 20.1893 10.3199 -1.6110 5.6877 26.0235
#
#
#
# Elastic Compliance Matrix: (Units=1/GPa)
#
#
# Indices 1 2 3 4 5 6 
#
# 1 0.042848 -0.003358 -0.002391 -0.006845 -0.009751 -0.009920
# 2 -0.003358 0.016435 -0.010921 0.011732 0.009947 -0.008677
# 3 -0.002391 -0.010921 0.033705 -0.012302 -0.011286 -0.002341
# 4 -0.006845 0.011732 -0.012302 0.043628 0.008790 -0.001018
# 5 -0.009751 0.009947 -0.011286 0.008790 0.062433 -0.012888
# 6 -0.009920 -0.008677 -0.002341 -0.001018 -0.012888 0.052355
#
#
# Mechanical properties :
#
#
# Convention : Reuss Voigt Hill
#
# Bulk Modulus (GPa) = 16.76502 31.33767 24.05135
# Shear Modulus (GPa) = 16.41347 23.86321 20.13834
#
# Velocity S-wave (km/s) = 2.77463 3.34556 3.07338
# Velocity P-wave (km/s) = 4.25772 5.44264 4.88623
#
# Compressibility (1/GPa) = 0.05964799
#
# Stress axis : x y z
#
# Youngs Moduli (GPa) = 23.33818 60.84674 29.66903
#
# Poissons Ratio (x) = 0.20431 0.07093
# Poissons Ratio (y) = 0.07837 0.32403
# Poissons Ratio (z) = 0.05580 0.66454
#
# Static dielectric constant tensor:
#      x y z
#    x 3.596330 0.131910 -0.031790 
#    y 0.131910 4.029200 -0.144570 
#    z -0.031790 -0.144570 3.768400 
# 
# 
# High freq. dielectric constant tensor:
#      x y z
#    x 1.775440 0.011530 0.002370 
#    y 0.011530 1.858430 -0.005210 
#    z 0.002370 -0.005210 1.832250 
# 
# From -- ./inp_files/277605.got.cif
#   From: 2010.06.25/outbox.cif.g09.slc.cpg/sg2_139_cif.got.tgz:277605.got - 2010.06.27 13:26:56.
