data_PCOD8039751
_publ_section_title
;
Structure prediction by ZEFSAII (Michael W. Deem and Ramdas Pophale) SiO2 
 PCOD8039751
Probable space group: P -1
;
_chemical_formula_sum "Si O2"
_cell_formula_units_Z 14
_cell_length_a 11.477470
_cell_length_b 8.141655
_cell_length_c 7.434903
_cell_angle_alpha 95.323231
_cell_angle_beta 112.767831
_cell_angle_gamma 73.762358
_cell_volume 614.975865
_symmetry_space_group_name_H-M "P -1"
_symmetry_group_IT_number 2
_symmetry_cell_setting 'triclinic'
loop_
_space_group_symop_operation_xyz
x,y,z
-x,-y,-z
loop_
_atom_site_type_symbol
_atom_site_label
_atom_site_fract_x
_atom_site_fract_y
_atom_site_fract_z
Si Si1 0.399999 0.060608 0.288786
Si Si2 0.452149 0.683564 0.695131
Si Si3 0.678880 0.378954 0.728520
Si Si4 0.897908 0.840051 0.761960
Si Si5 0.304064 0.842437 0.961371
Si Si6 0.039217 0.101455 0.800224
Si Si7 0.072429 0.525303 0.225714
O O1 0.436883 0.215463 0.226692
O O2 0.255789 0.104465 0.288749
O O3 0.500000 0.000000 0.500000
O O4 0.415123 0.915978 0.129390
O O5 0.536292 0.487079 0.723923
O O6 0.353883 0.730370 0.470292
O O7 0.364578 0.716222 0.824389
O O8 0.775227 0.488656 0.728373
O O9 0.750626 0.258692 0.923315
O O10 0.931897 0.645699 0.678634
O O11 0.944098 0.978462 0.676999
O O12 0.976422 0.844857 0.994369
O O13 0.187637 0.998995 0.830639
O O14 0.993735 0.290621 0.696078
O O15 0.000000 0.500000 0.000000
#
# Coordination Sequence:
#
# PCOD8039751 Si02
#       7
#     2   2   2   2   2   2   2
#     4  11  20  37  62  90 124 163 203 252 310 367
#     4  11  24  39  61  93 122 162 204 251 311 371
#     4  11  22  40  63  88 122 163 205 253 308 367
#     4   9  17  33  57  90 119 156 209 252 300 367
#     4  11  22  40  62  89 126 158 203 256 308 370
#     4   9  19  33  59  90 114 161 205 250 308 360
#     4  10  18  34  62  89 118 161 210 251 305 368
#
# _framework density 22.765118999999999
#
# number of rings (size 3 to 8) (size 9 to 14) (size 15 to 20)
#    0.000    1.714    2.857    4.286    0.000    0.000 
#    0.000    0.714    0.000    3.429    0.000    0.000 
#    0.000    0.000    0.000    0.000    0.000    0.000 
#
# Total GULP energy -173442.343344 kJ/mol
# GULP energy per Si atom -12388.738810 kJ/mol
# Density = 2.271330 g / cm^3
# Si number density = 22.765119 Si / 1000 Ang^3
#
#
#
# Elastic Constant Matrix: (Units=GPa)
#
#
# Indices 1 2 3 4 5 6 
#
# 1 85.5030 40.1658 52.3981 8.2304 21.1819 -0.1528
# 2 40.1658 146.2906 39.2368 23.2186 6.0602 3.7728
# 3 52.3981 39.2368 78.7404 16.2736 0.8111 -3.9422
# 4 8.2304 23.2186 16.2736 27.8180 6.2307 11.2588
# 5 21.1819 6.0602 0.8111 6.2307 28.0813 9.6435
# 6 -0.1528 3.7728 -3.9422 11.2588 9.6435 39.9978
#
#
#
# Elastic Compliance Matrix: (Units=1/GPa)
#
#
# Indices 1 2 3 4 5 6 
#
# 1 0.031700 -0.003795 -0.021226 0.011372 -0.025457 0.001324
# 2 -0.003795 0.008993 -0.000566 -0.006737 0.002287 0.000427
# 3 -0.021226 -0.000566 0.030477 -0.016394 0.017753 0.003310
# 4 0.011372 -0.006737 -0.016394 0.056454 -0.014607 -0.013306
# 5 -0.025457 0.002287 0.017753 -0.014607 0.060121 -0.008947
# 6 0.001324 0.000427 0.003310 -0.013306 -0.008947 0.031195
#
#
# Mechanical properties :
#
#
# Convention : Reuss Voigt Hill
#
# Bulk Modulus (GPa) = 50.00510 63.79283 56.89897
# Shear Modulus (GPa) = 18.06496 31.09496 24.57996
#
# Velocity S-wave (km/s) = 2.82003 3.69982 3.28947
# Velocity P-wave (km/s) = 5.71111 6.80695 6.28297
#
# Compressibility (1/GPa) = 0.01999796
#
# Stress axis : x y z
#
# Youngs Moduli (GPa) = 31.54556 111.19798 32.81115
#
# Poissons Ratio (x) = 0.42201 0.69644
# Poissons Ratio (y) = 0.11972 0.01856
# Poissons Ratio (z) = 0.66957 0.06289
#
# Static dielectric constant tensor:
#      x y z
#    x 3.837970 0.192460 0.433880 
#    y 0.192460 4.710380 0.343410 
#    z 0.433880 0.343410 3.941470 
# 
# 
# High freq. dielectric constant tensor:
#      x y z
#    x 1.877570 -0.003030 0.035780 
#    y -0.003030 1.915160 0.015340 
#    z 0.035780 0.015340 1.870530 
# 
# From -- ./inp_files/241142.got.cif
#   From: 2010.06.25/outbox.cif.g09.slc.cpg/sg2_121_cif.got.tgz:241142.got - 2010.06.27 13:26:56.
