data_PCOD8039998
_publ_section_title
;
Structure prediction by ZEFSAII (Michael W. Deem and Ramdas Pophale) SiO2 
 PCOD8039998
Probable space group: P -1
;
_chemical_formula_sum "Si O2"
_cell_formula_units_Z 16
_cell_length_a 9.127457
_cell_length_b 14.665380
_cell_length_c 10.672129
_cell_angle_alpha 65.066864
_cell_angle_beta 128.573481
_cell_angle_gamma 143.236987
_cell_volume 659.101417
_symmetry_space_group_name_H-M "P -1"
_symmetry_group_IT_number 2
_symmetry_cell_setting 'triclinic'
loop_
_space_group_symop_operation_xyz
x,y,z
-x,-y,-z
loop_
_atom_site_type_symbol
_atom_site_label
_atom_site_fract_x
_atom_site_fract_y
_atom_site_fract_z
Si Si1 0.256950 0.539297 0.553286
Si Si2 0.212816 0.520436 0.261446
Si Si3 0.147023 0.119817 0.301301
Si Si4 0.212511 0.017074 0.180887
Si Si5 0.065783 0.799065 0.050057
Si Si6 0.552721 0.854260 0.198195
Si Si7 0.557086 0.482360 0.858608
Si Si8 0.566899 0.271904 0.050380
O O1 0.181281 0.463856 0.418727
O O2 0.541342 0.723130 0.571852
O O3 0.319197 0.473160 0.721390
O O4 0.000000 0.500000 0.500000
O O5 0.426554 0.701564 0.277525
O O6 0.314534 0.480560 0.235851
O O7 0.897909 0.429145 0.104114
O O8 0.180021 0.022856 0.308219
O O9 0.044348 0.161349 0.124910
O O10 0.888882 0.006118 0.332865
O O11 0.522355 0.192031 0.202005
O O12 0.149843 0.876612 0.188320
O O13 0.000000 0.000000 0.000000
O O14 0.803828 0.611941 0.017784
O O15 0.363901 0.872774 0.121372
O O16 0.568954 0.853556 0.056456
O O17 0.416271 0.322104 0.932601
#
# Coordination Sequence:
#
# PCOD8039998 Si02
#       8
#     2   2   2   2   2   2   2   2
#     4  11  25  45  60  87 128 174 215 249 303 381
#     4  11  22  39  66  94 128 161 205 258 319 370
#     4  10  22  38  59  85 129 168 201 250 310 365
#     4  10  20  34  56  90 126 165 193 250 311 364
#     4  10  18  35  60  98 125 152 200 259 316 367
#     4  11  19  36  63  97 128 148 206 268 312 364
#     4  10  21  40  66  95 124 162 208 260 314 367
#     4  11  19  37  67  96 129 151 205 264 319 359
#
# _framework density 24.275475
#
# number of rings (size 3 to 8) (size 9 to 14) (size 15 to 20)
#    0.000    1.500    5.000    2.250    0.000    0.500 
#    4.500    5.000    0.000    3.750    0.000    0.000 
#    0.000    0.000    0.000    0.000    0.000    0.000 
#
# Total GULP energy -198215.416134 kJ/mol
# GULP energy per Si atom -12388.463508 kJ/mol
# Density = 2.422022 g / cm^3
# Si number density = 24.275475 Si / 1000 Ang^3
#
#
#
# Elastic Constant Matrix: (Units=GPa)
#
#
# Indices 1 2 3 4 5 6 
#
# 1 99.2958 24.2006 30.2269 8.2446 19.2864 -20.5749
# 2 24.2006 64.9795 15.6041 27.0502 14.5360 -0.4360
# 3 30.2269 15.6041 56.4223 11.6135 9.3817 -0.0279
# 4 8.2446 27.0502 11.6135 23.6736 7.4546 2.4749
# 5 19.2864 14.5360 9.3817 7.4546 33.3953 9.9252
# 6 -20.5749 -0.4360 -0.0279 2.4749 9.9252 44.1293
#
#
#
# Elastic Compliance Matrix: (Units=1/GPa)
#
#
# Indices 1 2 3 4 5 6 
#
# 1 0.016803 -0.004139 -0.007140 0.004442 -0.009783 0.009740
# 2 -0.004139 0.032005 0.001216 -0.034417 -0.004601 0.001352
# 3 -0.007140 0.001216 0.023261 -0.010065 0.000128 -0.002767
# 4 0.004442 -0.034417 -0.010065 0.086247 -0.003305 -0.002369
# 5 -0.009783 -0.004601 0.000128 -0.003305 0.042450 -0.013969
# 6 0.009740 0.001352 -0.002767 -0.002369 -0.013969 0.030488
#
#
# Mechanical properties :
#
#
# Convention : Reuss Voigt Hill
#
# Bulk Modulus (GPa) = 19.25176 40.08454 29.66815
# Shear Modulus (GPa) = 18.60860 30.28405 24.44633
#
# Velocity S-wave (km/s) = 2.77168 3.53585 3.17683
# Velocity P-wave (km/s) = 4.26506 5.76349 5.06994
#
# Compressibility (1/GPa) = 0.05194331
#
# Stress axis : x y z
#
# Youngs Moduli (GPa) = 59.51487 31.24530 42.98993
#
# Poissons Ratio (x) = 0.12932 0.30694
# Poissons Ratio (y) = 0.24632 -0.05228
# Poissons Ratio (z) = 0.42493 -0.03800
#
# Static dielectric constant tensor:
#      x y z
#    x 3.612200 -1.900490 0.347770 
#    y -1.900490 1.908630 1.045810 
#    z 0.347770 1.045810 3.826180 
# 
# 
# High freq. dielectric constant tensor:
#      x y z
#    x 1.977110 0.003990 0.002520 
#    y 0.003990 1.969610 0.024650 
#    z 0.002520 0.024650 1.920450 
# 
# From -- ./inp_files/398991.got.cif
#   From: 2010.06.25/outbox.cif.g09.slc.cpg/sg2_200_cif.got.tgz:398991.got - 2010.06.27 13:26:56.
