data_PCOD8039849
_publ_section_title
;
Structure prediction by ZEFSAII (Michael W. Deem and Ramdas Pophale) SiO2 
 PCOD8039849
Probable space group: P -1
;
_chemical_formula_sum "Si O2"
_cell_formula_units_Z 14
_cell_length_a 8.595093
_cell_length_b 9.405480
_cell_length_c 14.991689
_cell_angle_alpha 69.588543
_cell_angle_beta 142.550947
_cell_angle_gamma 92.452956
_cell_volume 629.705593
_symmetry_space_group_name_H-M "P -1"
_symmetry_group_IT_number 2
_symmetry_cell_setting 'triclinic'
loop_
_space_group_symop_operation_xyz
x,y,z
-x,-y,-z
loop_
_atom_site_type_symbol
_atom_site_label
_atom_site_fract_x
_atom_site_fract_y
_atom_site_fract_z
Si Si1 0.821615 0.957064 0.172929
Si Si2 0.769601 0.469924 0.805758
Si Si3 0.186597 0.590834 0.455960
Si Si4 0.684449 0.973048 0.295352
Si Si5 0.630193 0.661221 0.874635
Si Si6 0.201161 0.876653 0.046450
Si Si7 0.088029 0.647361 0.609217
O O1 0.843374 0.009816 0.273783
O O2 0.018532 0.761702 0.290105
O O3 0.500000 0.000000 0.000000
O O4 0.916566 0.057987 0.121038
O O5 0.524948 0.525104 0.606783
O O6 0.708109 0.618160 0.815908
O O7 0.778012 0.307982 0.896647
O O8 0.082773 0.423868 0.917181
O O9 0.144916 0.609466 0.538891
O O10 0.071512 0.456809 0.397602
O O11 0.511493 0.869787 0.202566
O O12 0.910702 0.847704 0.495072
O O13 0.481989 0.139941 0.214955
O O14 0.386006 0.602054 0.805482
O O15 0.000000 0.000000 0.000000
#
# Coordination Sequence:
#
# PCOD8039849 Si02
#       7
#     2   2   2   2   2   2   2
#     4   9  21  34  59  88 114 143 192 247 280 324
#     4  10  20  35  57  86 116 154 189 231 281 343
#     4   9  17  34  56  85 113 148 192 235 278 332
#     4  10  18  35  56  87 115 148 193 238 278 334
#     4  10  20  31  55  88 119 149 188 232 286 337
#     4  11  20  37  62  83 112 153 198 226 285 348
#     4   9  17  29  58  85 114 150 192 230 278 341
#
# _framework density 22.232612
#
# number of rings (size 3 to 8) (size 9 to 14) (size 15 to 20)
#    0.000    2.286    2.857    0.429    6.000    0.000 
#    0.000    1.429    0.000   13.714    0.000    0.000 
#    0.000    0.000    0.000    0.000    0.000    0.000 
#
# Total GULP energy -173476.846350 kJ/mol
# GULP energy per Si atom -12391.203311 kJ/mol
# Density = 2.218201 g / cm^3
# Si number density = 22.232612 Si / 1000 Ang^3
#
#
#
# Elastic Constant Matrix: (Units=GPa)
#
#
# Indices 1 2 3 4 5 6 
#
# 1 60.1344 28.3024 49.5992 -3.0426 14.3465 -0.1623
# 2 28.3024 101.5257 49.4288 -11.0063 14.9939 -3.8581
# 3 49.5992 49.4288 155.9840 -11.4828 41.4840 16.5613
# 4 -3.0426 -11.0063 -11.4828 37.3712 8.3544 16.5042
# 5 14.3465 14.9939 41.4840 8.3544 46.9387 3.1409
# 6 -0.1623 -3.8581 16.5613 16.5042 3.1409 25.9098
#
#
#
# Elastic Compliance Matrix: (Units=1/GPa)
#
#
# Indices 1 2 3 4 5 6 
#
# 1 0.024535 -0.003208 -0.008499 -0.005657 0.001473 0.008533
# 2 -0.003208 0.012569 -0.002920 0.001469 -0.000909 0.002892
# 3 -0.008499 -0.002920 0.016330 0.014428 -0.012223 -0.018635
# 4 -0.005657 0.001469 0.014428 0.053231 -0.018240 -0.040735
# 5 0.001473 -0.000909 -0.012223 -0.018240 0.034179 0.015162
# 6 0.008533 0.002892 -0.018635 -0.040735 0.015162 0.075100
#
#
# Mechanical properties :
#
#
# Convention : Reuss Voigt Hill
#
# Bulk Modulus (GPa) = 41.35771 63.58945 52.47358
# Shear Modulus (GPa) = 19.74266 34.73151 27.23708
#
# Velocity S-wave (km/s) = 2.98317 3.95674 3.50393
# Velocity P-wave (km/s) = 5.52344 7.03835 6.32640
#
# Compressibility (1/GPa) = 0.02417929
#
# Stress axis : x y z
#
# Youngs Moduli (GPa) = 40.75839 79.55984 61.23725
#
# Poissons Ratio (x) = 0.25525 0.52045
# Poissons Ratio (y) = 0.13076 0.17882
# Poissons Ratio (z) = 0.34640 0.23232
#
# Static dielectric constant tensor:
#      x y z
#    x 4.019380 0.143810 0.450650 
#    y 0.143810 4.011770 0.052500 
#    z 0.450650 0.052500 4.429350 
# 
# 
# High freq. dielectric constant tensor:
#      x y z
#    x 1.841670 -0.003980 0.039910 
#    y -0.003980 1.869690 -0.005030 
#    z 0.039910 -0.005030 1.874830 
# 
# From -- ./inp_files/185249.got.cif
#   From: 2010.06.25/outbox.cif.g09.slc.cpg/sg2_93_cif.got.tgz:185249.got - 2010.06.27 13:26:56.
