data_PCOD8039696
_publ_section_title
;
Structure prediction by ZEFSAII (Michael W. Deem and Ramdas Pophale) SiO2 
 PCOD8039696
Probable space group: P -1
;
_chemical_formula_sum "Si O2"
_cell_formula_units_Z 16
_cell_length_a 26.681743
_cell_length_b 12.852760
_cell_length_c 9.424026
_cell_angle_alpha 42.600750
_cell_angle_beta 37.308146
_cell_angle_gamma 24.766936
_cell_volume 819.377231
_symmetry_space_group_name_H-M "P -1"
_symmetry_group_IT_number 2
_symmetry_cell_setting 'triclinic'
loop_
_space_group_symop_operation_xyz
x,y,z
-x,-y,-z
loop_
_atom_site_type_symbol
_atom_site_label
_atom_site_fract_x
_atom_site_fract_y
_atom_site_fract_z
Si Si1 0.180192 0.461082 0.277642
Si Si2 0.839533 0.282737 0.704066
Si Si3 0.109421 0.174228 0.522561
Si Si4 0.355478 0.693276 0.957841
Si Si5 0.349131 0.834467 0.139402
Si Si6 0.951676 0.276222 0.197821
Si Si7 0.221815 0.311262 0.042785
Si Si8 0.175548 0.135707 0.725029
O O1 0.225251 0.540820 0.189612
O O2 0.270375 0.320524 0.071664
O O3 0.196935 0.285159 0.512268
O O4 0.025723 0.713691 0.327875
O O5 0.729539 0.339880 0.815418
O O6 0.889462 0.345040 0.424402
O O7 0.966214 0.996391 0.756317
O O8 0.100079 0.373258 0.307118
O O9 0.145941 0.094226 0.684569
O O10 0.231031 0.925670 0.404023
O O11 0.330641 0.821228 0.030420
O O12 0.510090 0.427926 0.854240
O O13 0.311599 0.865715 0.753731
O O14 0.337335 0.038221 0.983844
O O15 0.831059 0.482356 0.152350
O O16 0.052958 0.274296 0.969778
#
# Coordination Sequence:
#
# PCOD8039696 Si02
#       8
#     2   2   2   2   2   2   2   2
#     4  11  19  35  57  90 117 136 179 230 286 333
#     4  10  25  33  52  83 126 140 172 237 278 334
#     4   9  18  33  58  88 106 139 182 233 262 328
#     4  10  22  42  53  82 111 149 192 227 271 320
#     4   9  21  38  65  73 106 150 198 230 260 320
#     4  10  19  36  50  85 113 149 177 220 284 329
#     4   9  18  35  59  82 105 148 187 225 270 326
#     4  10  18  34  60  83 111 142 190 224 269 331
#
# _framework density 19.527024999999998
#
# number of rings (size 3 to 8) (size 9 to 14) (size 15 to 20)
#    0.750    1.500    2.500    0.750    7.000    1.500 
#    0.000    1.250    0.000    0.000    0.000    0.000 
#    0.000    0.000    0.000    0.000    0.000    0.000 
#
# Total GULP energy -198311.728063 kJ/mol
# GULP energy per Si atom -12394.483004 kJ/mol
# Density = 1.948258 g / cm^3
# Si number density = 19.527025 Si / 1000 Ang^3
#
#
#
# Elastic Constant Matrix: (Units=GPa)
#
#
# Indices 1 2 3 4 5 6 
#
# 1 97.2402 63.3076 38.3886 -11.4609 20.1855 13.7671
# 2 63.3076 107.1509 43.7319 -7.5992 17.7801 2.3448
# 3 38.3886 43.7319 54.0825 -13.5755 16.6980 -3.6193
# 4 -11.4609 -7.5992 -13.5755 25.1884 -4.4266 7.3624
# 5 20.1855 17.7801 16.6980 -4.4266 19.2994 -1.9746
# 6 13.7671 2.3448 -3.6193 7.3624 -1.9746 34.3180
#
#
#
# Elastic Compliance Matrix: (Units=1/GPa)
#
#
# Indices 1 2 3 4 5 6 
#
# 1 0.022412 -0.008917 -0.004414 0.006355 -0.011059 -0.010847
# 2 -0.008917 0.017975 -0.009075 -0.004215 -0.000114 0.002290
# 3 -0.004414 -0.009075 0.037026 0.011531 -0.016117 0.002895
# 4 0.006355 -0.004215 0.011531 0.050642 -0.002358 -0.012046
# 5 -0.011059 -0.000114 -0.016117 -0.002358 0.077681 0.007720
# 6 -0.010847 0.002290 0.002895 -0.012046 0.007720 0.036668
#
#
# Mechanical properties :
#
#
# Convention : Reuss Voigt Hill
#
# Bulk Modulus (GPa) = 30.67400 61.03665 45.85533
# Shear Modulus (GPa) = 16.77391 23.29752 20.03571
#
# Velocity S-wave (km/s) = 2.93407 3.45786 3.20668
# Velocity P-wave (km/s) = 5.21737 6.87516 6.10282
#
# Compressibility (1/GPa) = 0.03260090
#
# Stress axis : x y z
#
# Youngs Moduli (GPa) = 44.61844 55.63412 27.00831
#
# Poissons Ratio (x) = 0.49609 0.11922
# Poissons Ratio (y) = 0.39786 0.24509
# Poissons Ratio (z) = 0.19696 0.50486
#
# Static dielectric constant tensor:
#      x y z
#    x 3.363270 0.093990 0.263140 
#    y 0.093990 3.460380 -0.068490 
#    z 0.263140 -0.068490 3.418120 
# 
# 
# High freq. dielectric constant tensor:
#      x y z
#    x 1.744740 0.010140 0.027680 
#    y 0.010140 1.752230 -0.012100 
#    z 0.027680 -0.012100 1.741470 
# 
# From -- ./inp_files/352938.got.cif
#   From: 2010.06.25/outbox.cif.g09.slc.cpg/sg2_177_cif.got.tgz:352938.got - 2010.06.27 13:26:56.
