data_PCOD8039128
_publ_section_title
;
Structure prediction by ZEFSAII (Michael W. Deem and Ramdas Pophale) SiO2 
 PCOD8039128
Probable space group: P -1
;
_chemical_formula_sum "Si O2"
_cell_formula_units_Z 16
_cell_length_a 13.410319
_cell_length_b 12.090532
_cell_length_c 12.024187
_cell_angle_alpha 33.147313
_cell_angle_beta 80.176978
_cell_angle_gamma 57.414449
_cell_volume 712.835597
_symmetry_space_group_name_H-M "P -1"
_symmetry_group_IT_number 2
_symmetry_cell_setting 'triclinic'
loop_
_space_group_symop_operation_xyz
x,y,z
-x,-y,-z
loop_
_atom_site_type_symbol
_atom_site_label
_atom_site_fract_x
_atom_site_fract_y
_atom_site_fract_z
Si Si1 0.363251 0.382570 0.129687
Si Si2 0.550340 0.178640 0.459547
Si Si3 0.160943 0.260975 0.117906
Si Si4 0.867994 0.757102 0.107434
Si Si5 0.829357 0.340780 0.504750
Si Si6 0.825241 0.300363 0.294435
Si Si7 0.889678 0.304796 0.913677
Si Si8 0.298186 0.638861 0.280392
O O1 0.472465 0.362996 0.202494
O O2 0.233047 0.476003 0.152833
O O3 0.458813 0.053739 0.341176
O O4 0.285764 0.633725 0.834420
O O5 0.460465 0.395015 0.400553
O O6 0.720368 0.009902 0.588264
O O7 0.165601 0.138429 0.103410
O O8 0.211958 0.412180 0.959368
O O9 0.000000 0.500000 0.000000
O O10 0.854506 0.543290 0.318128
O O11 0.037690 0.590329 0.231791
O O12 0.751140 0.055146 0.952809
O O13 0.782866 0.307743 0.422829
O O14 0.699646 0.480163 0.500641
O O15 0.984209 0.023833 0.783225
O O16 0.000000 0.000000 0.500000
O O17 0.821987 0.295302 0.828396
#
# Coordination Sequence:
#
# PCOD8039128 Si02
#       8
#     2   2   2   2   2   2   2   2
#     4   9  17  34  60  83 114 150 195 243 289 341
#     4   9  19  36  58  83 113 153 193 240 292 353
#     4  10  21  35  59  87 107 146 199 244 297 342
#     4  10  20  34  54  86 119 148 194 246 280 340
#     4  10  20  33  55  89 119 152 193 244 283 338
#     4  10  18  32  57  87 113 144 194 237 288 336
#     4  10  19  35  59  87 111 156 198 237 292 342
#     4  10  22  36  57  82 118 162 195 224 297 357
#
# _framework density 22.445568999999999
#
# number of rings (size 3 to 8) (size 9 to 14) (size 15 to 20)
#    0.000    2.250    1.250    3.000    1.750    2.500 
#    0.000    5.625    5.500    0.750    0.000    0.000 
#    0.000    0.000    0.000    0.000    0.000    0.000 
#
# Total GULP energy -198254.650424 kJ/mol
# GULP energy per Si atom -12390.915651 kJ/mol
# Density = 2.239448 g / cm^3
# Si number density = 22.445569 Si / 1000 Ang^3
#
#
#
# Elastic Constant Matrix: (Units=GPa)
#
#
# Indices 1 2 3 4 5 6 
#
# 1 45.2196 17.6759 29.2410 4.3743 26.9653 5.1709
# 2 17.6759 139.0935 50.6006 5.0151 24.4249 8.3950
# 3 29.2410 50.6006 100.7160 19.4464 31.9156 -3.3021
# 4 4.3743 5.0151 19.4464 42.8781 2.8476 5.4689
# 5 26.9653 24.4249 31.9156 2.8476 48.9167 4.2440
# 6 5.1709 8.3950 -3.3021 5.4689 4.2440 23.4612
#
#
#
# Elastic Compliance Matrix: (Units=1/GPa)
#
#
# Indices 1 2 3 4 5 6 
#
# 1 0.035751 0.000819 -0.006270 0.000957 -0.015520 -0.006471
# 2 0.000819 0.009350 -0.004877 0.001694 -0.001663 -0.004307
# 3 -0.006270 -0.004877 0.017860 -0.007572 -0.006058 0.008502
# 4 0.000957 0.001694 -0.007572 0.027396 0.002732 -0.008763
# 5 -0.015520 -0.001663 -0.006058 0.002732 0.033936 -0.003612
# 6 -0.006471 -0.004307 0.008502 -0.008763 -0.003612 0.049484
#
#
# Mechanical properties :
#
#
# Convention : Reuss Voigt Hill
#
# Bulk Modulus (GPa) = 23.63724 53.34046 38.48885
# Shear Modulus (GPa) = 23.97691 35.55197 29.76444
#
# Velocity S-wave (km/s) = 3.27192 3.98417 3.64548
# Velocity P-wave (km/s) = 4.98274 6.70677 5.90798
#
# Compressibility (1/GPa) = 0.04230613
#
# Stress axis : x y z
#
# Youngs Moduli (GPa) = 27.97137 106.94768 55.99167
#
# Poissons Ratio (x) = -0.08760 0.35106
# Poissons Ratio (y) = -0.02291 0.27306
# Poissons Ratio (z) = 0.17537 0.52155
#
# Static dielectric constant tensor:
#      x y z
#    x 3.960520 0.312370 0.448450 
#    y 0.312370 4.440640 0.274200 
#    z 0.448450 0.274200 4.062240 
# 
# 
# High freq. dielectric constant tensor:
#      x y z
#    x 1.865870 0.023650 0.013670 
#    y 0.023650 1.895820 0.005000 
#    z 0.013670 0.005000 1.882500 
# 
# From -- ./inp_files/432265.got.cif
#   From: 2010.06.25/outbox.cif.g09.slc.cpg/sg2_217_cif.got.tgz:432265.got - 2010.06.27 13:26:56.
