data_PCOD8039257
_publ_section_title
;
Structure prediction by ZEFSAII (Michael W. Deem and Ramdas Pophale) SiO2 
 PCOD8039257
Probable space group: P -1
;
_chemical_formula_sum "Si O2"
_cell_formula_units_Z 16
_cell_length_a 11.450170
_cell_length_b 11.725313
_cell_length_c 11.931515
_cell_angle_alpha 128.041140
_cell_angle_beta 119.207776
_cell_angle_gamma 43.435412
_cell_volume 864.963028
_symmetry_space_group_name_H-M "P -1"
_symmetry_group_IT_number 2
_symmetry_cell_setting 'triclinic'
loop_
_space_group_symop_operation_xyz
x,y,z
-x,-y,-z
loop_
_atom_site_type_symbol
_atom_site_label
_atom_site_fract_x
_atom_site_fract_y
_atom_site_fract_z
Si Si1 0.014922 0.254783 0.326223
Si Si2 0.117771 0.516230 0.146982
Si Si3 0.874105 0.281282 0.906658
Si Si4 0.697486 0.140900 0.818288
Si Si5 0.031104 0.438448 0.655024
Si Si6 0.524508 0.828192 0.959631
Si Si7 0.189231 0.899350 0.902476
Si Si8 0.342472 0.321323 0.837559
O O1 0.994978 0.379491 0.289600
O O2 0.881295 0.210884 0.233321
O O3 0.977938 0.359568 0.488916
O O4 0.211092 0.069361 0.302598
O O5 0.090634 0.695264 0.191642
O O6 0.317555 0.350150 0.135674
O O7 0.074978 0.526371 0.262344
O O8 0.000000 0.500000 0.000000
O O9 0.747212 0.231157 0.807927
O O10 0.781898 0.470483 0.047800
O O11 0.050249 0.118306 0.950055
O O12 0.493535 0.275854 0.800985
O O13 0.772633 0.138099 0.971487
O O14 0.229876 0.288127 0.690036
O O15 0.359522 0.833289 0.874630
O O16 0.567098 0.825699 0.108784
O O17 0.500000 0.000000 0.000000
#
# Coordination Sequence:
#
# PCOD8039257 Si02
#       8
#     2   2   2   2   2   2   2   2
#     4  10  23  39  58  80 113 159 188 228 277 329
#     4  11  21  34  57  83 113 145 185 233 284 335
#     4  10  18  33  54  84 111 141 182 233 290 323
#     4  10  20  34  58  85 110 143 189 241 278 323
#     4  11  22  39  57  80 117 154 192 222 278 342
#     4  10  21  33  57  90 111 142 184 238 285 330
#     4  10  20  35  59  84 115 144 191 234 275 333
#     4  10  20  32  57  86 111 143 185 237 276 331
#
# _framework density 18.497900999999999
#
# number of rings (size 3 to 8) (size 9 to 14) (size 15 to 20)
#    0.000    1.750    2.500    4.125    3.500    2.500 
#    0.000    3.125    0.000    0.000    0.000    0.000 
#    0.000    0.000    0.000    0.000    0.000    0.000 
#
# Total GULP energy -198290.257201 kJ/mol
# GULP energy per Si atom -12393.141075 kJ/mol
# Density = 1.845580 g / cm^3
# Si number density = 18.497901 Si / 1000 Ang^3
#
#
#
# Elastic Constant Matrix: (Units=GPa)
#
#
# Indices 1 2 3 4 5 6 
#
# 1 166.4947 67.6023 48.0792 -1.8967 -5.6522 1.3441
# 2 67.6023 83.5684 26.3324 3.1540 7.6910 -1.6392
# 3 48.0792 26.3324 65.5651 1.9296 -2.2966 6.9210
# 4 -1.8967 3.1540 1.9296 16.9291 4.0452 -1.9697
# 5 -5.6522 7.6910 -2.2966 4.0452 24.3169 0.8792
# 6 1.3441 -1.6392 6.9210 -1.9697 0.8792 39.3260
#
#
#
# Elastic Compliance Matrix: (Units=1/GPa)
#
#
# Indices 1 2 3 4 5 6 
#
# 1 0.010573 -0.007532 -0.004668 0.002176 0.004031 0.000165
# 2 -0.007532 0.019794 -0.002819 -0.002110 -0.007986 0.001651
# 3 -0.004668 -0.002819 0.020388 -0.003339 0.002424 -0.003768
# 4 0.002176 -0.002110 -0.003339 0.062855 -0.009736 0.003791
# 5 0.004031 -0.007986 0.002424 -0.009736 0.046523 -0.002425
# 6 0.000165 0.001651 -0.003768 0.003791 -0.002425 0.026399
#
#
# Mechanical properties :
#
#
# Convention : Reuss Voigt Hill
#
# Bulk Modulus (GPa) = 48.26825 66.62843 57.44834
# Shear Modulus (GPa) = 22.37390 27.68867 25.03128
#
# Velocity S-wave (km/s) = 3.48161 3.87312 3.68257
# Velocity P-wave (km/s) = 6.50482 7.48993 7.01469
#
# Compressibility (1/GPa) = 0.02071755
#
# Stress axis : x y z
#
# Youngs Moduli (GPa) = 94.58372 50.52027 49.04760
#
# Poissons Ratio (x) = 0.38049 0.22898
# Poissons Ratio (y) = 0.71236 0.13826
# Poissons Ratio (z) = 0.44156 0.14241
#
# Static dielectric constant tensor:
#      x y z
#    x 3.870570 -0.036350 -0.048840 
#    y -0.036350 3.979410 -0.038240 
#    z -0.048840 -0.038240 3.030800 
# 
# 
# High freq. dielectric constant tensor:
#      x y z
#    x 1.740310 0.001660 -0.001210 
#    y 0.001660 1.730630 -0.003150 
#    z -0.001210 -0.003150 1.670590 
# 
# From -- ./inp_files/254263.got.cif
#   From: 2010.06.25/outbox.cif.g09.slc.cpg/sg2_128_cif.got.tgz:254263.got - 2010.06.27 13:26:56.
