data_PCOD8039370
_publ_section_title
;
Structure prediction by ZEFSAII (Michael W. Deem and Ramdas Pophale) SiO2 
 PCOD8039370
Probable space group: P -1
;
_chemical_formula_sum "Si O2"
_cell_formula_units_Z 16
_cell_length_a 9.020209
_cell_length_b 13.973424
_cell_length_c 14.889236
_cell_angle_alpha 122.396408
_cell_angle_beta 143.965492
_cell_angle_gamma 51.120933
_cell_volume 857.805912
_symmetry_space_group_name_H-M "P -1"
_symmetry_group_IT_number 2
_symmetry_cell_setting 'triclinic'
loop_
_space_group_symop_operation_xyz
x,y,z
-x,-y,-z
loop_
_atom_site_type_symbol
_atom_site_label
_atom_site_fract_x
_atom_site_fract_y
_atom_site_fract_z
Si Si1 0.053510 0.143382 0.970055
Si Si2 0.280186 0.442928 0.055711
Si Si3 0.061608 0.042076 0.286733
Si Si4 0.720977 0.738099 0.731163
Si Si5 0.557072 0.821947 0.502129
Si Si6 0.503636 0.215657 0.170935
Si Si7 0.219969 0.481533 0.847622
Si Si8 0.487664 0.353708 0.751335
O O1 0.761542 0.252922 0.874034
O O2 0.159774 0.157795 0.129499
O O3 0.268014 0.161557 0.012821
O O4 0.032966 0.012926 0.875309
O O5 0.474952 0.313956 0.128770
O O6 0.450028 0.529336 0.189908
O O7 0.194703 0.423525 0.902188
O O8 0.000000 0.500000 0.000000
O O9 0.193059 0.135239 0.364815
O O10 0.804953 0.110153 0.259187
O O11 0.271170 0.930109 0.391120
O O12 0.537338 0.784533 0.576341
O O13 0.535620 0.725396 0.717712
O O14 0.964132 0.607528 0.766460
O O15 0.622014 0.700893 0.412688
O O16 0.253802 0.390891 0.733629
O O17 0.500000 0.500000 0.000000
#
# Coordination Sequence:
#
# PCOD8039370 Si02
#       8
#     2   2   2   2   2   2   2   2
#     4   9  18  37  62  84 112 142 196 244 276 320
#     4  11  17  35  60  91 113 143 183 243 280 337
#     4  10  22  40  60  77 113 157 200 231 278 339
#     4  10  20  36  57  88 119 143 191 236 288 333
#     4  10  24  41  55  82 118 158 188 234 284 341
#     4  10  20  35  61  88 112 146 191 240 284 332
#     4  10  18  33  58  89 116 144 183 237 282 335
#     4  10  20  37  60  84 121 150 183 232 293 335
#
# _framework density 18.652238000000001
#
# number of rings (size 3 to 8) (size 9 to 14) (size 15 to 20)
#    0.750    1.250    5.000    0.375    3.500    1.500 
#    0.000    4.375    0.000    0.000    0.000    0.000 
#    0.000    0.000    0.000    0.000    0.000    0.000 
#
# Total GULP energy -198268.812652 kJ/mol
# GULP energy per Si atom -12391.800791 kJ/mol
# Density = 1.860978 g / cm^3
# Si number density = 18.652238 Si / 1000 Ang^3
#
#
#
# Elastic Constant Matrix: (Units=GPa)
#
#
# Indices 1 2 3 4 5 6 
#
# 1 110.2479 53.0271 45.3748 0.9397 -14.1834 -15.6644
# 2 53.0271 90.1263 49.6701 6.7521 -1.2104 -13.4059
# 3 45.3748 49.6701 80.3494 15.9770 -25.5110 -5.4485
# 4 0.9397 6.7521 15.9770 30.8553 1.3297 5.5460
# 5 -14.1834 -1.2104 -25.5110 1.3297 31.4675 -7.3712
# 6 -15.6644 -13.4059 -5.4485 5.5460 -7.3712 34.9627
#
#
#
# Elastic Compliance Matrix: (Units=1/GPa)
#
#
# Indices 1 2 3 4 5 6 
#
# 1 0.014548 -0.006618 -0.002306 0.001138 0.005461 0.004592
# 2 -0.006618 0.023726 -0.017075 0.004679 -0.016275 -0.000702
# 3 -0.002306 -0.017075 0.039197 -0.019444 0.032905 0.008550
# 4 0.001138 0.004679 -0.019444 0.044415 -0.019743 -0.011934
# 5 0.005461 -0.016275 0.032905 -0.019743 0.065401 0.018255
# 6 0.004592 -0.000702 0.008550 -0.011934 0.018255 0.037464
#
#
# Mechanical properties :
#
#
# Convention : Reuss Voigt Hill
#
# Bulk Modulus (GPa) = 39.25587 64.09639 51.67613
# Shear Modulus (GPa) = 17.52923 28.30054 22.91489
#
# Velocity S-wave (km/s) = 3.06893 3.89945 3.50885
# Velocity P-wave (km/s) = 5.80083 7.39681 6.64689
#
# Compressibility (1/GPa) = 0.02547389
#
# Stress axis : x y z
#
# Youngs Moduli (GPa) = 68.74013 42.14815 25.51243
#
# Poissons Ratio (x) = 0.27892 0.05882
# Poissons Ratio (y) = 0.45489 0.43562
# Poissons Ratio (z) = 0.15849 0.71968
#
# Static dielectric constant tensor:
#      x y z
#    x 3.911660 -0.185960 -0.417430 
#    y -0.185960 3.594120 0.189420 
#    z -0.417430 0.189420 3.607620 
# 
# 
# High freq. dielectric constant tensor:
#      x y z
#    x 1.719650 -0.017570 -0.005190 
#    y -0.017570 1.721470 -0.002890 
#    z -0.005190 -0.002890 1.709390 
# 
# From -- ./inp_files/504213.got.cif
#   From: 2010.06.25/outbox.cif.g09.slc.cpg/sg2_253_cif.got.tgz:504213.got - 2010.06.27 13:26:56.
