data_PCOD8039264
_publ_section_title
;
Structure prediction by ZEFSAII (Michael W. Deem and Ramdas Pophale) SiO2 
 PCOD8039264
Probable space group: P -1
;
_chemical_formula_sum "Si O2"
_cell_formula_units_Z 14
_cell_length_a 12.098346
_cell_length_b 9.431446
_cell_length_c 22.035925
_cell_angle_alpha 151.794633
_cell_angle_beta 39.593833
_cell_angle_gamma 132.898521
_cell_volume 757.400376
_symmetry_space_group_name_H-M "P -1"
_symmetry_group_IT_number 2
_symmetry_cell_setting 'triclinic'
loop_
_space_group_symop_operation_xyz
x,y,z
-x,-y,-z
loop_
_atom_site_type_symbol
_atom_site_label
_atom_site_fract_x
_atom_site_fract_y
_atom_site_fract_z
Si Si1 0.526522 0.772781 0.849881
Si Si2 0.182337 0.101092 0.610786
Si Si3 0.521389 0.188829 0.838415
Si Si4 0.470239 0.849537 0.320889
Si Si5 0.658734 0.328245 0.219238
Si Si6 0.197155 0.151870 0.341245
Si Si7 0.673077 0.246948 0.467718
O O1 0.549061 0.444727 0.742391
O O2 0.350586 0.799620 0.893636
O O3 0.696676 0.858129 0.770642
O O4 0.500000 0.000000 0.000000
O O5 0.172619 0.467530 0.760307
O O6 0.292439 0.032223 0.477283
O O7 0.282488 0.967541 0.575986
O O8 0.990891 0.977648 0.640195
O O9 0.511210 0.240435 0.790606
O O10 0.367067 0.950682 0.829341
O O11 0.706820 0.051562 0.726166
O O12 0.500000 0.500000 0.000000
O O13 0.638256 0.045132 0.346201
O O14 0.498394 0.560604 0.375080
O O15 0.177851 0.494765 0.504624
#
# Coordination Sequence:
#
# PCOD8039264 Si02
#       7
#     2   2   2   2   2   2   2
#     4  10  18  33  55  77 101 146 192 207 249 325
#     4  11  18  34  57  84 116 128 172 237 279 312
#     4  10  22  39  54  75 108 147 191 215 250 327
#     4  11  18  32  60  79 104 145 179 221 269 313
#     4   9  18  34  55  79 105 143 179 218 265 311
#     4  10  22  34  55  83 111 139 171 230 278 306
#     4   9  17  32  55  84 107 133 177 220 268 318
#
# _framework density 18.484278
#
# number of rings (size 3 to 8) (size 9 to 14) (size 15 to 20)
#    0.000    2.286    4.286    3.000    0.000    5.714 
#    0.000    1.429    0.000    0.000    0.000    0.000 
#    0.000    0.000    0.000    0.000    0.000    0.000 
#
# Total GULP energy -173437.050506 kJ/mol
# GULP energy per Si atom -12388.360750 kJ/mol
# Density = 1.844221 g / cm^3
# Si number density = 18.484278 Si / 1000 Ang^3
#
#
#
# Elastic Constant Matrix: (Units=GPa)
#
#
# Indices 1 2 3 4 5 6 
#
# 1 82.8466 53.8822 33.7220 -8.4900 30.2752 8.7129
# 2 53.8822 113.1235 31.3111 11.4708 14.4721 22.1337
# 3 33.7220 31.3111 60.3504 4.8256 26.9295 12.4320
# 4 -8.4900 11.4708 4.8256 21.8108 -5.6321 8.3886
# 5 30.2752 14.4721 26.9295 -5.6321 30.4357 6.6576
# 6 8.7129 22.1337 12.4320 8.3886 6.6576 42.3603
#
#
#
# Elastic Compliance Matrix: (Units=1/GPa)
#
#
# Indices 1 2 3 4 5 6 
#
# 1 0.029334 -0.012415 -0.003133 0.013256 -0.018410 0.001641
# 2 -0.012415 0.016558 -0.002637 -0.009756 0.005951 -0.004327
# 3 -0.003133 -0.002637 0.033189 -0.014024 -0.027454 -0.000626
# 4 0.013256 -0.009756 -0.014024 0.067832 0.018572 -0.009865
# 5 -0.018410 0.005951 -0.027454 0.018572 0.077630 -0.007144
# 6 0.001641 -0.004327 -0.000626 -0.009865 -0.007144 0.028791
#
#
# Mechanical properties :
#
#
# Convention : Reuss Voigt Hill
#
# Bulk Modulus (GPa) = 23.41338 54.90567 39.15953
# Shear Modulus (GPa) = 16.45060 28.08171 22.26615
#
# Velocity S-wave (km/s) = 2.98649 3.90195 3.47450
# Velocity P-wave (km/s) = 4.95845 7.07593 6.10962
#
# Compressibility (1/GPa) = 0.04271062
#
# Stress axis : x y z
#
# Youngs Moduli (GPa) = 34.09066 60.39402 30.13005
#
# Poissons Ratio (x) = 0.74978 0.09439
# Poissons Ratio (y) = 0.42323 0.07947
# Poissons Ratio (z) = 0.10680 0.15929
#
# Static dielectric constant tensor:
#      x y z
#    x 3.573200 0.255720 0.423510 
#    y 0.255720 3.687700 0.511640 
#    z 0.423510 0.511640 3.445480 
# 
# 
# High freq. dielectric constant tensor:
#      x y z
#    x 1.711790 0.000260 0.027370 
#    y 0.000260 1.720460 0.035350 
#    z 0.027370 0.035350 1.689190 
# 
# From -- ./inp_files/169789.got.cif
#   From: 2010.06.25/outbox.cif.g09.slc.cpg/sg2_85_cif.got.tgz:169789.got - 2010.06.27 13:26:56.
