data_PCOD8039196
_publ_section_title
;
Structure prediction by ZEFSAII (Michael W. Deem and Ramdas Pophale) SiO2 
 PCOD8039196
Probable space group: P -1
;
_chemical_formula_sum "Si O2"
_cell_formula_units_Z 16
_cell_length_a 13.943802
_cell_length_b 16.790238
_cell_length_c 13.903527
_cell_angle_alpha 133.551680
_cell_angle_beta 21.216483
_cell_angle_gamma 132.548731
_cell_volume 846.589332
_symmetry_space_group_name_H-M "P -1"
_symmetry_group_IT_number 2
_symmetry_cell_setting 'triclinic'
loop_
_space_group_symop_operation_xyz
x,y,z
-x,-y,-z
loop_
_atom_site_type_symbol
_atom_site_label
_atom_site_fract_x
_atom_site_fract_y
_atom_site_fract_z
Si Si1 0.232821 0.425432 0.216565
Si Si2 0.568767 0.143385 0.407280
Si Si3 0.150063 0.798997 0.317914
Si Si4 0.173824 0.059801 0.997033
Si Si5 0.669308 0.732191 0.842694
Si Si6 0.876436 0.782883 0.990159
Si Si7 0.210034 0.931829 0.199608
Si Si8 0.132904 0.033119 0.617722
O O1 0.270722 0.375301 0.244988
O O2 0.155458 0.330333 0.132317
O O3 0.000000 0.500000 0.500000
O O4 0.500000 0.500000 0.000000
O O5 0.395145 0.127105 0.456161
O O6 0.864596 0.213959 0.178618
O O7 0.598822 0.016773 0.306915
O O8 0.406147 0.209782 0.689503
O O9 0.858341 0.747317 0.584263
O O10 0.176250 0.813557 0.189104
O O11 0.221218 0.922380 0.397479
O O12 0.362094 0.718046 0.084205
O O13 0.296180 0.161253 0.033214
O O14 0.050044 0.109923 0.059407
O O15 0.949689 0.984660 0.207435
O O16 0.114531 0.920419 0.168092
O O17 0.000000 0.000000 0.500000
O O18 0.500000 0.000000 0.000000
#
# Coordination Sequence:
#
# PCOD8039196 Si02
#       8
#     2   2   2   2   2   2   2   2
#     4  11  23  42  59  77 103 133 171 228 281 317
#     4  12  21  34  47  76 109 142 182 207 242 307
#     4  10  18  33  48  74 107 140 184 214 245 303
#     4  10  20  33  47  73 109 146 177 207 241 298
#     4  10  20  33  55  77 101 138 178 216 261 311
#     4  11  25  33  53  74 102 140 182 213 256 307
#     4  10  20  31  47  70 105 151 189 214 246 294
#     4  10  21  30  49  71 110 152 178 207 252 289
#
# _framework density 18.899363999999998
#
# number of rings (size 3 to 8) (size 9 to 14) (size 15 to 20)
#    0.000    1.500    2.500    4.500    3.500    2.000 
#    0.000    0.000    0.000    0.000    0.000    0.000 
#    0.000   20.000    0.000    0.000    0.000    0.000 
#
# Total GULP energy -198255.888544 kJ/mol
# GULP energy per Si atom -12390.993034 kJ/mol
# Density = 1.885635 g / cm^3
# Si number density = 18.899364 Si / 1000 Ang^3
#
#
#
# Elastic Constant Matrix: (Units=GPa)
#
#
# Indices 1 2 3 4 5 6 
#
# 1 88.3329 22.7815 34.0421 -6.0854 -23.0061 -6.9221
# 2 22.7815 68.7172 36.8691 -0.7386 -9.8972 -4.2989
# 3 34.0421 36.8691 129.4807 -1.9904 -21.3722 -3.9745
# 4 -6.0854 -0.7386 -1.9904 32.3750 -0.8667 -4.8165
# 5 -23.0061 -9.8972 -21.3722 -0.8667 31.5818 -5.3323
# 6 -6.9221 -4.2989 -3.9745 -4.8165 -5.3323 27.3605
#
#
#
# Elastic Compliance Matrix: (Units=1/GPa)
#
#
# Indices 1 2 3 4 5 6 
#
# 1 0.016258 -0.002554 -0.001423 0.004170 0.011281 0.006438
# 2 -0.002554 0.017930 -0.004175 -0.000027 0.001236 0.001801
# 3 -0.001423 -0.004175 0.010130 0.000610 0.004779 0.001494
# 4 0.004170 -0.000027 0.000610 0.033063 0.005713 0.008073
# 5 0.011281 0.001236 0.004779 0.005713 0.045975 0.013708
# 6 0.006438 0.001801 0.001494 0.008073 0.013708 0.042771
#
#
# Mechanical properties :
#
#
# Convention : Reuss Voigt Hill
#
# Bulk Modulus (GPa) = 35.69742 52.65737 44.17740
# Shear Modulus (GPa) = 26.07320 31.11934 28.59627
#
# Velocity S-wave (km/s) = 3.71830 4.06221 3.89405
# Velocity P-wave (km/s) = 6.11257 7.06573 6.60636
#
# Compressibility (1/GPa) = 0.02801323
#
# Stress axis : x y z
#
# Youngs Moduli (GPa) = 61.50850 55.77395 98.71361
#
# Poissons Ratio (x) = 0.14244 0.14051
# Poissons Ratio (y) = 0.15708 0.41213
# Poissons Ratio (z) = 0.08755 0.23285
#
# Static dielectric constant tensor:
#      x y z
#    x 4.453620 -0.087400 -0.076530 
#    y -0.087400 3.166020 -0.052060 
#    z -0.076530 -0.052060 3.587190 
# 
# 
# High freq. dielectric constant tensor:
#      x y z
#    x 1.730360 0.004200 -0.014750 
#    y 0.004200 1.680060 -0.012000 
#    z -0.014750 -0.012000 1.753260 
# 
# From -- ./inp_files/535094.got.cif
#   From: 2010.06.25/outbox.cif.g09.slc.cpg/sg2_268_cif.got.tgz:535094.got - 2010.06.27 13:26:56.
