data_PCOD8039096
_publ_section_title
;
Structure prediction by ZEFSAII (Michael W. Deem and Ramdas Pophale) SiO2 
 PCOD8039096
Probable space group: P -1
;
_chemical_formula_sum "Si O2"
_cell_formula_units_Z 16
_cell_length_a 10.634357
_cell_length_b 9.736848
_cell_length_c 17.063520
_cell_angle_alpha 27.779957
_cell_angle_beta 134.093130
_cell_angle_gamma 137.024945
_cell_volume 554.773701
_symmetry_space_group_name_H-M "P -1"
_symmetry_group_IT_number 2
_symmetry_cell_setting 'triclinic'
loop_
_space_group_symop_operation_xyz
x,y,z
-x,-y,-z
loop_
_atom_site_type_symbol
_atom_site_label
_atom_site_fract_x
_atom_site_fract_y
_atom_site_fract_z
Si Si1 0.116936 0.777493 0.330958
Si Si2 0.311086 0.192065 0.346146
Si Si3 0.722262 0.611965 0.306317
Si Si4 0.750694 0.311169 0.825965
Si Si5 0.210743 0.276059 0.505348
Si Si6 0.360252 0.934418 0.860746
Si Si7 0.175558 0.735780 0.648541
Si Si8 0.838297 0.659741 0.023170
O O1 0.225781 0.535309 0.516448
O O2 0.883647 0.625601 0.304481
O O3 0.163189 0.008537 0.309870
O O4 0.197537 0.012796 0.172766
O O5 0.519207 0.372707 0.311629
O O6 0.225471 0.438839 0.220128
O O7 0.323260 0.941869 0.545252
O O8 0.716554 0.964113 0.142056
O O9 0.688813 0.451008 0.649829
O O10 0.580886 0.986506 0.935738
O O11 0.939195 0.243447 0.931049
O O12 0.349764 0.219197 0.657526
O O13 0.041501 0.386764 0.416634
O O14 0.132382 0.938367 0.598696
O O15 0.251123 0.582433 0.964415
O O16 0.239728 0.477866 0.854608
#
# Coordination Sequence:
#
# PCOD8039096 Si02
#       8
#     2   2   2   2   2   2   2   2
#     4  11  23  40  57  77 112 151 184 221 271 327
#     4  10  19  36  60  81 106 145 190 226 261 320
#     4  10  23  38  57  80 106 148 194 223 257 323
#     4   9  18  30  51  85 115 138 175 227 273 322
#     4   8  13  26  50  80 112 142 173 215 271 326
#     4  10  18  32  56  83 107 141 185 225 268 319
#     4   8  15  30  54  83 110 137 176 225 272 319
#     4  10  21  36  56  85 117 141 169 226 288 322
#
# _framework density 28.840589000000001
#
# number of rings (size 3 to 8) (size 9 to 14) (size 15 to 20)
#    0.000    2.500    0.000    4.500    0.000    4.000 
#    0.000    3.125    0.000   12.000    0.000    0.000 
#    0.000    0.000    0.000    0.000    0.000    0.000 
#
# Total GULP energy -198241.367587 kJ/mol
# GULP energy per Si atom -12390.085474 kJ/mol
# Density = 2.877495 g / cm^3
# Si number density = 28.840589 Si / 1000 Ang^3
#
#
#
# Elastic Constant Matrix: (Units=GPa)
#
#
# Indices 1 2 3 4 5 6 
#
# 1 39.1323 0.3165 -13.0295 -8.0672 5.2551 0.8114
# 2 0.3165 82.8318 5.0320 -18.6438 -3.8696 1.9533
# 3 -13.0295 5.0320 99.0372 -31.8233 -22.6521 -5.6251
# 4 -8.0672 -18.6438 -31.8233 35.9700 0.3738 0.0042
# 5 5.2551 -3.8696 -22.6521 0.3738 26.2175 -0.4451
# 6 0.8114 1.9533 -5.6251 0.0042 -0.4451 29.6763
#
#
#
# Elastic Compliance Matrix: (Units=1/GPa)
#
#
# Indices 1 2 3 4 5 6 
#
# 1 0.032592 0.003568 0.010932 0.018798 0.003188 0.000991
# 2 0.003568 0.014979 0.005289 0.013182 0.005877 0.000005
# 3 0.010932 0.005289 0.024553 0.026713 0.019496 0.004296
# 4 0.018798 0.013182 0.026713 0.062270 0.020437 0.003979
# 5 0.003188 0.005877 0.019496 0.020437 0.054992 0.004043
# 6 0.000991 0.000005 0.004296 0.003979 0.004043 0.034544
#
#
# Mechanical properties :
#
#
# Convention : Reuss Voigt Hill
#
# Bulk Modulus (GPa) = 8.95239 22.84879 15.90059
# Shear Modulus (GPa) = 22.56452 33.61825 28.09139
#
# Velocity S-wave (km/s) = 2.80015 3.41788 3.12432
# Velocity P-wave (km/s) = 3.68311 4.84928 4.30586
#
# Compressibility (1/GPa) = 0.11170205
#
# Stress axis : x y z
#
# Youngs Moduli (GPa) = 30.68237 66.75925 40.72765
#
# Poissons Ratio (x) = -0.23819 -0.44525
# Poissons Ratio (y) = -0.10947 -0.21539
# Poissons Ratio (z) = -0.33543 -0.35306
#
# Static dielectric constant tensor:
#      x y z
#    x 5.177250 -0.489380 -0.215030 
#    y -0.489380 5.419670 -0.056490 
#    z -0.215030 -0.056490 5.489430 
# 
# 
# High freq. dielectric constant tensor:
#      x y z
#    x 2.169320 -0.033060 -0.002010 
#    y -0.033060 2.186790 -0.003860 
#    z -0.002010 -0.003860 2.174300 
# 
# From -- ./inp_files/311659.got.cif
#   From: 2010.06.25/outbox.cif.g09.slc.cpg/sg2_156_cif.got.tgz:311659.got - 2010.06.27 13:26:56.
