data_PCOD8039356
_publ_section_title
;
Structure prediction by ZEFSAII (Michael W. Deem and Ramdas Pophale) SiO2 
 PCOD8039356
Probable space group: P -1
;
_chemical_formula_sum "Si O2"
_cell_formula_units_Z 14
_cell_length_a 12.963192
_cell_length_b 10.015200
_cell_length_c 11.497983
_cell_angle_alpha 122.736949
_cell_angle_beta 80.724831
_cell_angle_gamma 50.537094
_cell_volume 609.702251
_symmetry_space_group_name_H-M "P -1"
_symmetry_group_IT_number 2
_symmetry_cell_setting 'triclinic'
loop_
_space_group_symop_operation_xyz
x,y,z
-x,-y,-z
loop_
_atom_site_type_symbol
_atom_site_label
_atom_site_fract_x
_atom_site_fract_y
_atom_site_fract_z
Si Si1 0.295328 0.534051 0.847992
Si Si2 0.380128 0.322913 0.486746
Si Si3 0.173151 0.413978 0.198583
Si Si4 0.379415 0.733369 0.024453
Si Si5 0.265731 0.123954 0.410394
Si Si6 0.825650 0.597417 0.068108
Si Si7 0.573397 0.665691 0.768825
O O1 0.283704 0.551425 0.717982
O O2 0.133519 0.609698 0.954799
O O3 0.528982 0.190204 0.697232
O O4 0.221025 0.806901 0.035531
O O5 0.250939 0.331832 0.486460
O O6 0.393504 0.416164 0.412620
O O7 0.611311 0.965935 0.320276
O O8 0.223580 0.499216 0.308542
O O9 0.940933 0.653480 0.376480
O O10 0.189695 0.452565 0.081697
O O11 0.349484 0.047277 0.012149
O O12 0.263391 0.042610 0.244416
O O13 0.500000 0.500000 0.000000
O O14 0.549883 0.544642 0.800582
O O15 0.000000 0.500000 0.000000
#
# Coordination Sequence:
#
# PCOD8039356 Si02
#       7
#     2   2   2   2   2   2   2
#     4  10  20  36  56  83 116 147 178 222 277 329
#     4  10  20  34  56  83 110 144 188 228 267 319
#     4  10  19  34  58  85 110 140 189 235 267 313
#     4  10  21  38  55  77 114 149 179 223 280 331
#     4  10  19  35  61  85 107 145 188 228 269 320
#     4  10  18  33  58  84 109 141 186 232 269 316
#     4  10  21  35  54  82 112 144 182 230 276 321
#
# _framework density 22.962026999999999
#
# number of rings (size 3 to 8) (size 9 to 14) (size 15 to 20)
#    0.000    2.000    0.000    7.714    0.000    2.857 
#    0.000    7.857    0.000   10.286    0.000    0.000 
#    0.000    0.000    0.000    0.000    0.000    0.000 
#
# Total GULP energy -173516.214704 kJ/mol
# GULP energy per Si atom -12394.015336 kJ/mol
# Density = 2.290976 g / cm^3
# Si number density = 22.962027 Si / 1000 Ang^3
#
#
#
# Elastic Constant Matrix: (Units=GPa)
#
#
# Indices 1 2 3 4 5 6 
#
# 1 143.1740 30.4396 43.6044 -21.3280 0.5346 -5.3692
# 2 30.4396 70.3773 22.3177 -42.3152 4.6639 10.5532
# 3 43.6044 22.3177 73.5765 -32.6631 5.4851 -1.4272
# 4 -21.3280 -42.3152 -32.6631 44.5931 -12.3148 -9.3675
# 5 0.5346 4.6639 5.4851 -12.3148 44.7144 -12.9145
# 6 -5.3692 10.5532 -1.4272 -9.3675 -12.9145 29.1316
#
#
#
# Elastic Compliance Matrix: (Units=1/GPa)
#
#
# Indices 1 2 3 4 5 6 
#
# 1 0.009264 -0.004664 -0.005571 -0.003334 0.000841 0.002425
# 2 -0.004664 0.039538 0.010830 0.046446 0.008575 0.004084
# 3 -0.005571 0.010830 0.027295 0.031600 0.007091 0.009691
# 4 -0.003334 0.046446 0.031600 0.101858 0.027801 0.029186
# 5 0.000841 0.008575 0.007091 0.027801 0.034493 0.021627
# 6 0.002425 0.004084 0.009691 0.029186 0.021627 0.052742
#
#
# Mechanical properties :
#
#
# Convention : Reuss Voigt Hill
#
# Bulk Modulus (GPa) = 12.93887 53.31680 33.12783
# Shear Modulus (GPa) = 17.25548 36.40556 26.83052
#
# Velocity S-wave (km/s) = 2.74429 3.98611 3.42200
# Velocity P-wave (km/s) = 3.96088 6.66749 5.48380
#
# Compressibility (1/GPa) = 0.07728650
#
# Stress axis : x y z
#
# Youngs Moduli (GPa) = 107.94428 25.29238 36.63613
#
# Poissons Ratio (x) = 0.11797 0.20411
# Poissons Ratio (y) = 0.50349 -0.39678
# Poissons Ratio (z) = 0.60140 -0.27393
#
# Static dielectric constant tensor:
#      x y z
#    x 4.482580 -0.005900 0.043200 
#    y -0.005900 4.076450 -0.426350 
#    z 0.043200 -0.426350 4.099090 
# 
# 
# High freq. dielectric constant tensor:
#      x y z
#    x 1.911020 -0.005500 -0.011570 
#    y -0.005500 1.895580 -0.039890 
#    z -0.011570 -0.039890 1.886360 
# 
# From -- ./inp_files/414283.got.cif
#   From: 2010.06.25/outbox.cif.g09.slc.cpg/sg2_208_cif.got.tgz:414283.got - 2010.06.27 13:26:56.
