data_PCOD8039937
_publ_section_title
;
Structure prediction by ZEFSAII (Michael W. Deem and Ramdas Pophale) SiO2 
 PCOD8039937
Probable space group: P -1
;
_chemical_formula_sum "Si O2"
_cell_formula_units_Z 16
_cell_length_a 7.492580
_cell_length_b 7.698902
_cell_length_c 21.276008
_cell_angle_alpha 132.725959
_cell_angle_beta 46.357762
_cell_angle_gamma 116.055659
_cell_volume 651.469421
_symmetry_space_group_name_H-M "P -1"
_symmetry_group_IT_number 2
_symmetry_cell_setting 'triclinic'
loop_
_space_group_symop_operation_xyz
x,y,z
-x,-y,-z
loop_
_atom_site_type_symbol
_atom_site_label
_atom_site_fract_x
_atom_site_fract_y
_atom_site_fract_z
Si Si1 0.086191 0.475029 0.306954
Si Si2 0.342014 0.499832 0.684776
Si Si3 0.331183 0.906409 0.299915
Si Si4 0.220487 0.972170 0.112762
Si Si5 0.300532 0.425281 0.480883
Si Si6 0.215076 0.016217 0.869164
Si Si7 0.332415 0.318998 0.030091
Si Si8 0.980773 0.242237 0.768252
O O1 0.849016 0.492688 0.324617
O O2 0.973550 0.482335 0.407522
O O3 0.266808 0.688210 0.306321
O O4 0.248210 0.231919 0.198037
O O5 0.618788 0.464546 0.579393
O O6 0.273124 0.278026 0.692293
O O7 0.324363 0.748792 0.787669
O O8 0.606865 0.857536 0.192519
O O9 0.140832 0.935869 0.294173
O O10 0.312700 0.140455 0.403726
O O11 0.493721 0.843032 0.004437
O O12 0.066479 0.825917 0.165520
O O13 0.066823 0.979326 0.087071
O O14 0.500000 0.500000 0.500000
O O15 0.201218 0.153009 0.971842
O O16 0.500000 0.500000 0.000000
O O17 0.131270 0.487369 0.156717
#
# Coordination Sequence:
#
# PCOD8039937 Si02
#       8
#     2   2   2   2   2   2   2   2
#     4   9  18  34  57  88 118 152 198 241 290 352
#     4   8  18  34  58  83 116 154 192 240 294 349
#     4  10  18  35  59  83 118 158 192 239 297 348
#     4  10  21  38  59  87 123 153 198 248 282 346
#     4   9  17  33  60  88 115 155 195 238 297 358
#     4  10  19  37  59  82 118 158 196 240 290 340
#     4  10  20  37  60  82 121 159 199 237 297 342
#     4  10  20  38  58  83 119 157 197 244 293 346
#
# _framework density 24.559864000000001
#
# number of rings (size 3 to 8) (size 9 to 14) (size 15 to 20)
#    0.000    2.500    2.500    1.125    0.000    2.500 
#    2.250    6.875    0.000    0.000    0.000    0.000 
#    0.000    0.000    0.000    0.000    0.000    0.000 
#
# Total GULP energy -198285.577655 kJ/mol
# GULP energy per Si atom -12392.848603 kJ/mol
# Density = 2.450396 g / cm^3
# Si number density = 24.559864 Si / 1000 Ang^3
#
#
#
# Elastic Constant Matrix: (Units=GPa)
#
#
# Indices 1 2 3 4 5 6 
#
# 1 72.2301 6.0845 26.6284 14.4518 17.7957 9.9342
# 2 6.0845 75.1372 16.4860 12.3112 5.0489 25.3219
# 3 26.6284 16.4860 89.4637 19.0967 19.7330 12.9600
# 4 14.4518 12.3112 19.0967 33.7406 10.9912 0.4879
# 5 17.7957 5.0489 19.7330 10.9912 27.0906 5.6409
# 6 9.9342 25.3219 12.9600 0.4879 5.6409 33.4578
#
#
#
# Elastic Compliance Matrix: (Units=1/GPa)
#
#
# Indices 1 2 3 4 5 6 
#
# 1 0.017960 0.001798 -0.002402 -0.004427 -0.007670 -0.004405
# 2 0.001798 0.019677 -0.000682 -0.008029 0.002113 -0.015401
# 3 -0.002402 -0.000682 0.015023 -0.005068 -0.006468 -0.003425
# 4 -0.004427 -0.008029 -0.005068 0.040627 -0.010583 0.010546
# 5 -0.007670 0.002113 -0.006468 -0.010583 0.051682 -0.005376
# 6 -0.004405 -0.015401 -0.003425 0.010546 -0.005376 0.044932
#
#
# Mechanical properties :
#
#
# Convention : Reuss Voigt Hill
#
# Bulk Modulus (GPa) = 19.96519 37.24766 28.60642
# Shear Modulus (GPa) = 23.90403 31.36661 27.63532
#
# Velocity S-wave (km/s) = 3.12315 3.57760 3.35807
# Velocity P-wave (km/s) = 4.59916 5.68020 5.16802
#
# Compressibility (1/GPa) = 0.05008719
#
# Stress axis : x y z
#
# Youngs Moduli (GPa) = 55.67911 50.82105 66.56352
#
# Poissons Ratio (x) = -0.09138 0.15990
# Poissons Ratio (y) = -0.10011 0.04542
# Poissons Ratio (z) = 0.13375 0.03468
#
# Static dielectric constant tensor:
#      x y z
#    x 4.158070 0.344730 -0.437650 
#    y 0.344730 4.852460 -0.309570 
#    z -0.437650 -0.309570 5.910160 
# 
# 
# High freq. dielectric constant tensor:
#      x y z
#    x 1.935420 0.027480 0.015810 
#    y 0.027480 2.004290 -0.019680 
#    z 0.015810 -0.019680 1.977210 
# 
# From -- ./inp_files/606493.got.cif
#   From: 2010.06.25/outbox.cif.g09.slc.cpg/sg2_304_cif.got.tgz:606493.got - 2010.06.27 13:26:56.
