data_PCOD8039714
_publ_section_title
;
Structure prediction by ZEFSAII (Michael W. Deem and Ramdas Pophale) SiO2 
 PCOD8039714
Probable space group: P -1
;
_chemical_formula_sum "Si O2"
_cell_formula_units_Z 10
_cell_length_a 12.800704
_cell_length_b 6.351249
_cell_length_c 5.412695
_cell_angle_alpha 101.572740
_cell_angle_beta 98.602851
_cell_angle_gamma 59.950276
_cell_volume 372.537052
_symmetry_space_group_name_H-M "P -1"
_symmetry_group_IT_number 2
_symmetry_cell_setting 'triclinic'
loop_
_space_group_symop_operation_xyz
x,y,z
-x,-y,-z
loop_
_atom_site_type_symbol
_atom_site_label
_atom_site_fract_x
_atom_site_fract_y
_atom_site_fract_z
Si Si1 0.430903 0.796435 0.060457
Si Si2 0.078834 0.632261 0.789085
Si Si3 0.527275 0.728788 0.581713
Si Si4 0.193928 0.516465 0.299330
Si Si5 0.837837 0.046453 0.880585
O O1 0.454832 0.892959 0.832564
O O2 0.500000 0.500000 0.000000
O O3 0.483246 0.873898 0.337026
O O4 0.288212 0.928770 0.078526
O O5 0.122898 0.495145 0.509642
O O6 0.143580 0.456555 0.010304
O O7 0.112693 0.853894 0.854089
O O8 0.932572 0.760602 0.789863
O O9 0.500000 0.500000 0.500000
O O10 0.664739 0.663288 0.660714
O O11 0.176941 0.791313 0.331785
#
# Coordination Sequence:
#
# PCOD8039714 Si02
#       5
#     2   2   2   2   2
#     4  10  16  21  27  33  38  44  49  55  61  66
#     4   9  17  21  27  33  37  45  49  55  61  65
#     4  10  15  21  28  33  38  44  49  55  61  66
#     4  10  15  23  27  32  39  43  50  55  60  67
#     4   9  17  20  29  30  41  41  52  53  62  65
#
# _framework density 26.842972
#
# number of rings (size 3 to 8) (size 9 to 14) (size 15 to 20)
#    1.200    1.200    4.000    4.200    0.000    0.000 
#    0.000    0.000    0.000    0.000    0.000    0.000 
#    0.000    0.000    0.000    0.000    0.000    0.000 
#
# Total GULP energy -123895.899926 kJ/mol
# GULP energy per Si atom -12389.589993 kJ/mol
# Density = 2.678188 g / cm^3
# Si number density = 26.842972 Si / 1000 Ang^3
#
#
#
# Elastic Constant Matrix: (Units=GPa)
#
#
# Indices 1 2 3 4 5 6 
#
# 1 49.7051 94.7208 61.5628 19.9620 -13.9250 -25.8329
# 2 94.7208 74.5934 71.4972 -19.2764 0.0145 -68.3705
# 3 61.5628 71.4972 282.6110 4.7852 -17.8631 -29.8131
# 4 19.9620 -19.2764 4.7852 35.8406 0.2611 -4.7744
# 5 -13.9250 0.0145 -17.8631 0.2611 40.2959 13.4233
# 6 -25.8329 -68.3705 -29.8131 -4.7744 13.4233 67.5519
#
#
#
# Elastic Compliance Matrix: (Units=1/GPa)
#
#
# Indices 1 2 3 4 5 6 
#
# 1 0.003969 0.012056 -0.002854 0.006530 -0.004546 0.013825
# 2 0.012056 -0.003210 -0.001502 -0.008354 0.003769 -0.000641
# 3 -0.002854 -0.001502 0.004530 0.000052 0.001312 -0.000869
# 4 0.006530 -0.008354 0.000052 0.019020 0.003950 -0.005376
# 5 -0.004546 0.003769 0.001312 0.003950 0.024440 -0.001922
# 6 0.013825 -0.000641 -0.000869 -0.005376 -0.001922 0.019060
#
#
# Mechanical properties :
#
#
# Convention : Reuss Voigt Hill
#
# Bulk Modulus (GPa) = 48.33635 95.83010 72.08322
# Shear Modulus (GPa) = 84.31024 40.67959 62.49492
#
# Velocity S-wave (km/s) = 5.61043 3.89712 4.83034
# Velocity P-wave (km/s) = 7.74696 7.48517 7.61719
#
# Compressibility (1/GPa) = 0.02068837
#
# Stress axis : x y z
#
# Youngs Moduli (GPa) = 251.98372 -311.48643 220.72821
#
# Poissons Ratio (x) = 3.75522 0.62995
# Poissons Ratio (y) = -3.03786 0.33152
# Poissons Ratio (z) = 0.71915 -0.46784
#
# Static dielectric constant tensor:
#      x y z
#    x 4.647490 -0.014330 0.173410 
#    y -0.014330 4.627460 0.219930 
#    z 0.173410 0.219930 6.124220 
# 
# 
# High freq. dielectric constant tensor:
#      x y z
#    x 2.094150 0.001980 0.002070 
#    y 0.001980 2.067650 -0.002670 
#    z 0.002070 -0.002670 2.089680 
# 
# From -- ./inp_files/108041.got.cif
#   From: 2010.06.25/outbox.cif.g09.slc.cpg/sg2_55_cif.got.tgz:108041.got - 2010.06.27 13:26:56.
