data_PCOD8039013
_publ_section_title
;
Structure prediction by ZEFSAII (Michael W. Deem and Ramdas Pophale) SiO2 
 PCOD8039013
Probable space group: P -1
;
_chemical_formula_sum "Si O2"
_cell_formula_units_Z 16
_cell_length_a 12.563967
_cell_length_b 25.042428
_cell_length_c 11.471060
_cell_angle_alpha 154.173860
_cell_angle_beta 49.122830
_cell_angle_gamma 141.278188
_cell_volume 968.272113
_symmetry_space_group_name_H-M "P -1"
_symmetry_group_IT_number 2
_symmetry_cell_setting 'triclinic'
loop_
_space_group_symop_operation_xyz
x,y,z
-x,-y,-z
loop_
_atom_site_type_symbol
_atom_site_label
_atom_site_fract_x
_atom_site_fract_y
_atom_site_fract_z
Si Si1 0.760168 0.626677 0.606866
Si Si2 0.590434 0.836234 0.767449
Si Si3 0.568509 0.605354 0.480939
Si Si4 0.339697 0.374395 0.793863
Si Si5 0.131113 0.826502 0.790267
Si Si6 0.947944 0.592469 0.872897
Si Si7 0.013197 0.467619 0.795124
Si Si8 0.778675 0.273203 0.250826
O O1 0.704452 0.670722 0.617379
O O2 0.609998 0.549896 0.659690
O O3 0.802514 0.506492 0.306885
O O4 0.932541 0.777187 0.833002
O O5 0.540198 0.734121 0.719412
O O6 0.661480 0.775409 0.499354
O O7 0.425162 0.826979 0.822827
O O8 0.740943 0.007811 0.027391
O O9 0.638901 0.568401 0.243788
O O10 0.500000 0.500000 0.000000
O O11 0.163839 0.339796 0.905344
O O12 0.182221 0.817888 0.868294
O O13 0.139246 0.707780 0.470745
O O14 0.835951 0.432994 0.574350
O O15 0.000759 0.577844 0.935958
O O16 0.120645 0.706722 0.900947
O O17 0.000000 0.500000 0.000000
#
# Coordination Sequence:
#
# PCOD8039013 Si02
#       8
#     2   2   2   2   2   2   2   2
#     4   9  18  34  52  80  99 143 177 217 246 318
#     4  10  20  35  52  81 106 141 169 219 267 315
#     4   9  19  32  55  75 108 135 180 211 260 309
#     4  10  20  30  54  80 107 132 177 216 263 307
#     4   9  21  33  54  79 105 138 180 210 268 311
#     4  10  18  32  52  84  98 140 177 221 257 303
#     4   9  18  31  54  77 104 133 179 215 256 305
#     4  10  19  32  58  74 108 137 181 215 259 316
#
# _framework density 16.524280999999998
#
# number of rings (size 3 to 8) (size 9 to 14) (size 15 to 20)
#    1.500    1.000    1.250    1.875    3.500    0.500 
#    0.000    0.625    0.000    4.500    0.000    0.000 
#    0.000    0.000    0.000    0.000    0.000    0.000 
#
# Total GULP energy -198257.364409 kJ/mol
# GULP energy per Si atom -12391.085276 kJ/mol
# Density = 1.648667 g / cm^3
# Si number density = 16.524281 Si / 1000 Ang^3
#
#
#
# Elastic Constant Matrix: (Units=GPa)
#
#
# Indices 1 2 3 4 5 6 
#
# 1 121.0492 47.4774 25.3677 3.8707 5.0062 2.5359
# 2 47.4774 88.0296 35.4438 -6.6996 8.8542 2.9955
# 3 25.3677 35.4438 52.1612 -3.4505 4.8856 -1.2565
# 4 3.8707 -6.6996 -3.4505 30.7180 4.7366 -0.7256
# 5 5.0062 8.8542 4.8856 4.7366 15.4991 -4.3328
# 6 2.5359 2.9955 -1.2565 -0.7256 -4.3328 32.1259
#
#
#
# Elastic Compliance Matrix: (Units=1/GPa)
#
#
# Indices 1 2 3 4 5 6 
#
# 1 0.010831 -0.005382 -0.001902 -0.002909 0.000963 -0.000363
# 2 -0.005382 0.019459 -0.009515 0.005134 -0.008737 -0.002824
# 3 -0.001902 -0.009515 0.026939 0.001608 -0.002430 0.001800
# 4 -0.002909 0.005134 0.001608 0.036344 -0.013956 -0.001248
# 5 0.000963 -0.008737 -0.002430 -0.013956 0.077235 0.010745
# 6 -0.000363 -0.002824 0.001800 -0.001248 0.010745 0.032911
#
#
# Mechanical properties :
#
#
# Convention : Reuss Voigt Hill
#
# Bulk Modulus (GPa) = 42.31638 53.09087 47.70363
# Shear Modulus (GPa) = 20.39189 25.86532 23.12861
#
# Velocity S-wave (km/s) = 3.51672 3.96067 3.74528
# Velocity P-wave (km/s) = 6.49261 7.28798 6.90176
#
# Compressibility (1/GPa) = 0.02363151
#
# Stress axis : x y z
#
# Youngs Moduli (GPa) = 92.32448 51.38934 37.12032
#
# Poissons Ratio (x) = 0.27657 0.07061
# Poissons Ratio (y) = 0.49687 0.35321
# Poissons Ratio (z) = 0.17561 0.48899
#
# Static dielectric constant tensor:
#      x y z
#    x 3.210860 0.034030 -0.077080 
#    y 0.034030 2.949270 -0.112090 
#    z -0.077080 -0.112090 2.816490 
# 
# 
# High freq. dielectric constant tensor:
#      x y z
#    x 1.651720 0.000810 -0.003440 
#    y 0.000810 1.624280 -0.008330 
#    z -0.003440 -0.008330 1.598900 
# 
# From -- ./inp_files/438919.got.cif
#   From: 2010.06.25/outbox.cif.g09.slc.cpg/sg2_220_cif.got.tgz:438919.got - 2010.06.27 13:26:56.
