data_PCOD8039242
_publ_section_title
;
Structure prediction by ZEFSAII (Michael W. Deem and Ramdas Pophale) SiO2 
 PCOD8039242
Probable space group: P -1
;
_chemical_formula_sum "Si O2"
_cell_formula_units_Z 14
_cell_length_a 16.243079
_cell_length_b 16.650137
_cell_length_c 9.624127
_cell_angle_alpha 135.547142
_cell_angle_beta 144.816712
_cell_angle_gamma 32.843803
_cell_volume 810.307649
_symmetry_space_group_name_H-M "P -1"
_symmetry_group_IT_number 2
_symmetry_cell_setting 'triclinic'
loop_
_space_group_symop_operation_xyz
x,y,z
-x,-y,-z
loop_
_atom_site_type_symbol
_atom_site_label
_atom_site_fract_x
_atom_site_fract_y
_atom_site_fract_z
Si Si1 0.628781 0.553175 0.889567
Si Si2 0.608030 0.314016 0.534706
Si Si3 0.637760 0.063888 0.395932
Si Si4 0.759061 0.926611 0.672619
Si Si5 0.034111 0.750600 0.071086
Si Si6 0.692277 0.934339 0.018992
Si Si7 0.475819 0.169930 0.783508
O O1 0.546388 0.468276 0.709282
O O2 0.533144 0.648356 0.734802
O O3 0.592073 0.663601 0.097276
O O4 0.850768 0.426466 0.014077
O O5 0.607265 0.215375 0.527209
O O6 0.817623 0.225425 0.653159
O O7 0.784922 0.961608 0.595439
O O8 0.727037 0.965443 0.258500
O O9 0.437802 0.111090 0.212638
O O10 0.943381 0.839187 0.910362
O O11 0.700749 0.823072 0.460318
O O12 0.598295 0.088586 0.715582
O O13 0.887662 0.802359 0.055243
O O14 0.595295 0.082044 0.976983
#
# Coordination Sequence:
#
# PCOD8039242 Si02
#       7
#     2   2   2   2   2   2   2
#     4   9  18  35  56  72 104 142 178 203 253 311
#     4   9  19  34  55  75 106 139 172 210 257 308
#     4  10  18  33  54  77 111 131 166 221 268 290
#     4   9  19  31  53  81 104 130 174 217 258 300
#     4   9  19  35  53  81 101 134 182 206 250 317
#     4   9  18  32  57  80  96 138 181 213 249 296
#     4   9  16  34  56  75 100 143 176 204 252 317
#
# _framework density 17.277387999999998
#
# number of rings (size 3 to 8) (size 9 to 14) (size 15 to 20)
#    0.857    2.000    1.429    0.857    0.000    1.714 
#    0.000    1.429    3.143    0.000    0.000    0.000 
#    0.000    0.000    0.000    0.000    0.000    0.000 
#
# Total GULP energy -173465.833730 kJ/mol
# GULP energy per Si atom -12390.416695 kJ/mol
# Density = 1.723806 g / cm^3
# Si number density = 17.277388 Si / 1000 Ang^3
#
#
#
# Elastic Constant Matrix: (Units=GPa)
#
#
# Indices 1 2 3 4 5 6 
#
# 1 73.2219 33.6346 34.7528 -2.2985 -10.0280 3.1301
# 2 33.6346 85.2828 49.3824 7.7917 0.1394 -4.5777
# 3 34.7528 49.3824 51.3775 7.5554 -11.7132 4.5278
# 4 -2.2985 7.7917 7.5554 40.2669 4.1796 -2.5695
# 5 -10.0280 0.1394 -11.7132 4.1796 25.9637 -1.0665
# 6 3.1301 -4.5777 4.5278 -2.5695 -1.0665 18.9427
#
#
#
# Elastic Compliance Matrix: (Units=1/GPa)
#
#
# Indices 1 2 3 4 5 6 
#
# 1 0.020729 -0.000428 -0.013945 0.003790 0.001123 0.000382
# 2 -0.000428 0.036313 -0.041030 0.003747 -0.018730 0.018107
# 3 -0.013945 -0.041030 0.079822 -0.012836 0.031817 -0.026641
# 4 0.003790 0.003747 -0.012836 0.028051 -0.008589 0.006669
# 5 0.001123 -0.018730 0.031817 -0.008589 0.054358 -0.010422
# 6 0.000382 0.018107 -0.026641 0.006669 -0.010422 0.063789
#
#
# Mechanical properties :
#
#
# Convention : Reuss Voigt Hill
#
# Bulk Modulus (GPa) = 38.37622 49.49130 43.93376
# Shear Modulus (GPa) = 12.42070 23.17549 17.79810
#
# Velocity S-wave (km/s) = 2.68414 3.66645 3.21306
# Velocity P-wave (km/s) = 5.64501 6.82870 6.26488
#
# Compressibility (1/GPa) = 0.02605781
#
# Stress axis : x y z
#
# Youngs Moduli (GPa) = 48.24206 27.53847 12.52787
#
# Poissons Ratio (x) = 0.01179 0.17470
# Poissons Ratio (y) = 0.02066 0.51402
# Poissons Ratio (z) = 0.67273 1.12990
#
# Static dielectric constant tensor:
#      x y z
#    x 2.995430 0.052680 -0.063730 
#    y 0.052680 3.102680 -0.040680 
#    z -0.063730 -0.040680 3.204260 
# 
# 
# High freq. dielectric constant tensor:
#      x y z
#    x 1.637550 0.006910 -0.004820 
#    y 0.006910 1.656420 -0.001420 
#    z -0.004820 -0.001420 1.668930 
# 
# From -- ./inp_files/255176.got.cif
#   From: 2010.06.25/outbox.cif.g09.slc.cpg/sg2_128_cif.got.tgz:255176.got - 2010.06.27 13:26:56.
