data_PCOD8039630
_publ_section_title
;
Structure prediction by ZEFSAII (Michael W. Deem and Ramdas Pophale) SiO2 
 PCOD8039630
Probable space group: P -1
;
_chemical_formula_sum "Si O2"
_cell_formula_units_Z 12
_cell_length_a 14.605694
_cell_length_b 9.552791
_cell_length_c 14.836106
_cell_angle_alpha 107.461792
_cell_angle_beta 160.002001
_cell_angle_gamma 83.360750
_cell_volume 580.891541
_symmetry_space_group_name_H-M "P -1"
_symmetry_group_IT_number 2
_symmetry_cell_setting 'triclinic'
loop_
_space_group_symop_operation_xyz
x,y,z
-x,-y,-z
loop_
_atom_site_type_symbol
_atom_site_label
_atom_site_fract_x
_atom_site_fract_y
_atom_site_fract_z
Si Si1 0.058440 0.556490 0.353467
Si Si2 0.832707 0.293489 0.697825
Si Si3 0.445001 0.906730 0.837406
Si Si4 0.356929 0.340694 0.599262
Si Si5 0.430334 0.606444 0.385426
Si Si6 0.905257 0.019011 0.620109
O O1 0.276704 0.665913 0.490695
O O2 0.168044 0.708423 0.557658
O O3 0.135502 0.415939 0.431940
O O4 0.696825 0.472369 0.978430
O O5 0.583669 0.245701 0.539839
O O6 0.922060 0.148372 0.739016
O O7 0.111869 0.478526 0.017763
O O8 0.340322 0.000085 0.686536
O O9 0.500000 0.000000 0.000000
O O10 0.758204 0.911806 0.097586
O O11 0.331598 0.307887 0.460986
O O12 0.217745 0.162494 0.484536
O O13 0.500000 0.500000 0.500000
#
# Coordination Sequence:
#
# PCOD8039630 Si02
#       6
#     2   2   2   2   2   2
#     4  10  20  39  62  84 117 165 201 234 299 364
#     4   9  20  34  57  84 118 164 206 238 280 355
#     4  11  23  44  68  88 113 157 206 246 297 377
#     4  11  22  38  59  91 128 158 193 249 301 342
#     4  10  18  34  58  85 118 165 212 231 275 359
#     4  11  24  40  61  93 125 151 195 258 310 341
#
# _framework density 20.657900999999999
#
# number of rings (size 3 to 8) (size 9 to 14) (size 15 to 20)
#    0.000    1.667    1.667    4.500    2.333    0.667 
#    0.000    5.833    0.000    0.000    0.000    0.000 
#    0.000    0.000    0.000    0.000    0.000    0.000 
#
# Total GULP energy -148692.072271 kJ/mol
# GULP energy per Si atom -12391.006023 kJ/mol
# Density = 2.061088 g / cm^3
# Si number density = 20.657901 Si / 1000 Ang^3
#
#
#
# Elastic Constant Matrix: (Units=GPa)
#
#
# Indices 1 2 3 4 5 6 
#
# 1 69.6287 42.0044 26.8077 4.1116 -12.7055 -18.3760
# 2 42.0044 146.3895 24.3265 -4.7062 -8.1882 -5.2444
# 3 26.8077 24.3265 66.1364 -9.7333 -8.3867 -14.2781
# 4 4.1116 -4.7062 -9.7333 38.7898 -2.5186 -1.0316
# 5 -12.7055 -8.1882 -8.3867 -2.5186 23.8757 3.5474
# 6 -18.3760 -5.2444 -14.2781 -1.0316 3.5474 31.5620
#
#
#
# Elastic Compliance Matrix: (Units=1/GPa)
#
#
# Indices 1 2 3 4 5 6 
#
# 1 0.023600 -0.005287 -0.005200 -0.003732 0.007101 0.009590
# 2 -0.005287 0.008527 -0.001276 0.001224 0.000121 -0.002212
# 3 -0.005200 -0.001276 0.020260 0.005871 0.003684 0.005704
# 4 -0.003732 0.001224 0.005871 0.028042 0.003271 0.001236
# 5 0.007101 0.000121 0.003684 0.003271 0.047251 0.000617
# 6 0.009590 -0.002212 0.005704 0.001236 0.000617 0.039451
#
#
# Mechanical properties :
#
#
# Convention : Reuss Voigt Hill
#
# Bulk Modulus (GPa) = 34.64749 52.04799 43.34774
# Shear Modulus (GPa) = 24.96553 31.44658 28.20605
#
# Velocity S-wave (km/s) = 3.48015 3.90584 3.69912
# Velocity P-wave (km/s) = 5.74082 6.75209 6.26689
#
# Compressibility (1/GPa) = 0.02886212
#
# Stress axis : x y z
#
# Youngs Moduli (GPa) = 42.37246 117.27593 49.35917
#
# Poissons Ratio (x) = 0.62003 0.25666
# Poissons Ratio (y) = 0.22402 0.06296
# Poissons Ratio (z) = 0.22033 0.14959
#
# Static dielectric constant tensor:
#      x y z
#    x 3.817710 -0.190640 0.250680 
#    y -0.190640 3.697280 -0.188820 
#    z 0.250680 -0.188820 3.157710 
# 
# 
# High freq. dielectric constant tensor:
#      x y z
#    x 1.794730 -0.016590 -0.016330 
#    y -0.016590 1.810010 -0.012980 
#    z -0.016330 -0.012980 1.805900 
# 
# From -- ./inp_files/28410.got.cif
#   From: 2010.06.25/outbox.cif.g09.slc.cpg/sg2_15_cif.got.tgz:28410.got - 2010.06.27 13:26:56.
