data_PCOD8039913
_publ_section_title
;
Structure prediction by ZEFSAII (Michael W. Deem and Ramdas Pophale) SiO2 
 PCOD8039913
Probable space group: P -1
;
_chemical_formula_sum "Si O2"
_cell_formula_units_Z 16
_cell_length_a 9.104647
_cell_length_b 13.226068
_cell_length_c 16.786501
_cell_angle_alpha 152.727290
_cell_angle_beta 77.165538
_cell_angle_gamma 112.897126
_cell_volume 815.823032
_symmetry_space_group_name_H-M "P -1"
_symmetry_group_IT_number 2
_symmetry_cell_setting 'triclinic'
loop_
_space_group_symop_operation_xyz
x,y,z
-x,-y,-z
loop_
_atom_site_type_symbol
_atom_site_label
_atom_site_fract_x
_atom_site_fract_y
_atom_site_fract_z
Si Si1 0.125373 0.986456 0.700244
Si Si2 0.045225 0.525954 0.603186
Si Si3 0.317160 0.821300 0.299690
Si Si4 0.003417 0.348172 0.031039
Si Si5 0.899492 0.758148 0.890016
Si Si6 0.307078 0.015426 0.864123
Si Si7 0.339433 0.715661 0.042780
Si Si8 0.628530 0.788536 0.309493
O O1 0.957773 0.725714 0.537809
O O2 0.065368 0.201401 0.858579
O O3 0.233354 0.981666 0.760345
O O4 0.236455 0.018596 0.631214
O O5 0.000000 0.500000 0.500000
O O6 0.891207 0.543054 0.682338
O O7 0.221254 0.769037 0.756982
O O8 0.442868 0.724814 0.256665
O O9 0.345638 0.083921 0.517148
O O10 0.130260 0.631511 0.210818
O O11 0.340521 0.835286 0.211946
O O12 0.994290 0.238689 0.042736
O O13 0.822920 0.322042 0.012456
O O14 0.722998 0.759405 0.935354
O O15 0.000000 0.000000 0.000000
O O16 0.503085 0.092057 0.890892
O O17 0.351591 0.460235 0.867240
#
# Coordination Sequence:
#
# PCOD8039913 Si02
#       8
#     2   2   2   2   2   2   2   2
#     4  10  18  35  58  86 114 156 206 245 297 347
#     4   9  18  34  61  89 112 145 199 259 296 341
#     4  11  23  39  60  92 121 160 212 241 296 360
#     4  11  23  38  60  87 125 165 192 248 308 363
#     4   9  18  37  61  84 109 149 208 242 289 358
#     4   9  19  36  61  83 117 155 199 253 293 350
#     4  12  23  41  57  89 133 160 196 246 308 357
#     4  11  22  37  65  88 117 160 206 257 290 352
#
# _framework density 19.612098
#
# number of rings (size 3 to 8) (size 9 to 14) (size 15 to 20)
#    0.000    1.750    2.500    3.750    0.000    1.500 
#    2.250    3.125    0.000    0.000    0.000    0.000 
#    0.000    0.000    0.000    0.000    0.000    0.000 
#
# Total GULP energy -198278.875368 kJ/mol
# GULP energy per Si atom -12392.429711 kJ/mol
# Density = 1.956746 g / cm^3
# Si number density = 19.612098 Si / 1000 Ang^3
#
#
#
# Elastic Constant Matrix: (Units=GPa)
#
#
# Indices 1 2 3 4 5 6 
#
# 1 107.1031 27.4446 24.0030 -6.8348 15.0253 21.0708
# 2 27.4446 74.7336 33.4772 -9.8650 6.6004 25.1445
# 3 24.0030 33.4772 90.2501 -13.8838 -1.5900 11.9410
# 4 -6.8348 -9.8650 -13.8838 37.9327 10.0261 2.1472
# 5 15.0253 6.6004 -1.5900 10.0261 19.8979 2.8055
# 6 21.0708 25.1445 11.9410 2.1472 2.8055 22.4491
#
#
#
# Elastic Compliance Matrix: (Units=1/GPa)
#
#
# Indices 1 2 3 4 5 6 
#
# 1 0.014176 0.002441 -0.002028 0.006694 -0.013080 -0.013966
# 2 0.002441 0.027342 -0.005501 0.010506 -0.012496 -0.029433
# 3 -0.002028 -0.005501 0.014117 0.002523 0.003225 -0.000088
# 4 0.006694 0.010506 0.002523 0.039010 -0.025178 -0.019978
# 5 -0.013080 -0.012496 0.003225 -0.025178 0.074738 0.017626
# 6 -0.013966 -0.029433 -0.000088 -0.019978 0.017626 0.090376
#
#
# Mechanical properties :
#
#
# Convention : Reuss Voigt Hill
#
# Bulk Modulus (GPa) = 21.99866 49.10404 35.55135
# Shear Modulus (GPa) = 17.53840 28.53339 23.03590
#
# Velocity S-wave (km/s) = 2.99367 3.81844 3.43093
# Velocity P-wave (km/s) = 4.81567 6.67327 5.81907
#
# Compressibility (1/GPa) = 0.04545731
#
# Stress axis : x y z
#
# Youngs Moduli (GPa) = 70.54336 36.57355 70.83676
#
# Poissons Ratio (x) = -0.08926 0.14368
# Poissons Ratio (y) = -0.17216 0.38967
# Poissons Ratio (z) = 0.14308 0.20119
#
# Static dielectric constant tensor:
#      x y z
#    x 3.452840 0.389920 -0.200260 
#    y 0.389920 3.874530 0.001070 
#    z -0.200260 0.001070 3.940810 
# 
# 
# High freq. dielectric constant tensor:
#      x y z
#    x 1.728380 0.024010 -0.014350 
#    y 0.024010 1.771390 -0.003050 
#    z -0.014350 -0.003050 1.774790 
# 
# From -- ./inp_files/245999.got.cif
#   From: 2010.06.25/outbox.cif.g09.slc.cpg/sg2_123_cif.got.tgz:245999.got - 2010.06.27 13:26:56.
