data_PCOD8039601
_publ_section_title
;
Structure prediction by ZEFSAII (Michael W. Deem and Ramdas Pophale) SiO2 
 PCOD8039601
Probable space group: P -1
;
_chemical_formula_sum "Si O2"
_cell_formula_units_Z 16
_cell_length_a 14.283419
_cell_length_b 13.457883
_cell_length_c 6.642571
_cell_angle_alpha 115.842710
_cell_angle_beta 117.865131
_cell_angle_gamma 43.586280
_cell_volume 768.264332
_symmetry_space_group_name_H-M "P -1"
_symmetry_group_IT_number 2
_symmetry_cell_setting 'triclinic'
loop_
_space_group_symop_operation_xyz
x,y,z
-x,-y,-z
loop_
_atom_site_type_symbol
_atom_site_label
_atom_site_fract_x
_atom_site_fract_y
_atom_site_fract_z
Si Si1 0.409316 0.585700 0.289162
Si Si2 0.524728 0.314321 0.914104
Si Si3 0.711883 0.680591 0.323385
Si Si4 0.888555 0.172053 0.888529
Si Si5 0.185981 0.959901 0.014211
Si Si6 0.932612 0.355141 0.343453
Si Si7 0.810692 0.796080 0.786251
Si Si8 0.098626 0.346994 0.847185
O O1 0.500000 0.500000 0.500000
O O2 0.454829 0.665213 0.283227
O O3 0.242020 0.704705 0.277686
O O4 0.429599 0.469339 0.060553
O O5 0.447862 0.249458 0.805509
O O6 0.678251 0.197833 0.075199
O O7 0.791093 0.521450 0.357155
O O8 0.702538 0.784767 0.568636
O O9 0.785978 0.667703 0.181476
O O10 0.859756 0.069190 0.851469
O O11 0.900367 0.249972 0.159152
O O12 0.040124 0.066217 0.829479
O O13 0.235254 0.050280 0.192369
O O14 0.034154 0.339114 0.261789
O O15 0.009064 0.319144 0.604051
O O16 0.812821 0.783925 0.018116
O O17 0.000000 0.500000 0.000000
#
# Coordination Sequence:
#
# PCOD8039601 Si02
#       8
#     2   2   2   2   2   2   2   2
#     4  10  21  40  63  90 119 152 196 249 291 344
#     4  10  22  40  58  87 124 153 197 242 294 353
#     4  11  20  34  57  85 116 155 191 245 301 335
#     4   9  18  39  64  85 114 157 197 237 295 353
#     4   9  20  39  60  82 120 161 192 236 292 358
#     4  10  18  34  57  88 115 145 196 250 295 336
#     4  10  20  36  55  86 118 151 200 241 287 352
#     4  11  19  33  56  87 120 150 198 249 289 343
#
# _framework density 20.826163999999999
#
# number of rings (size 3 to 8) (size 9 to 14) (size 15 to 20)
#    0.000    2.000    3.750    0.750    0.000    1.500 
#    4.500   10.625    0.000    0.000    0.000    0.000 
#    0.000    0.000    0.000    0.000    0.000    0.000 
#
# Total GULP energy -198212.230233 kJ/mol
# GULP energy per Si atom -12388.264390 kJ/mol
# Density = 2.077876 g / cm^3
# Si number density = 20.826164 Si / 1000 Ang^3
#
#
#
# Elastic Constant Matrix: (Units=GPa)
#
#
# Indices 1 2 3 4 5 6 
#
# 1 103.2870 49.9852 47.4771 -13.1842 16.5106 1.2563
# 2 49.9852 112.3783 22.7850 -18.7859 8.0480 -11.4540
# 3 47.4771 22.7850 89.3255 -21.5907 -0.7778 11.4018
# 4 -13.1842 -18.7859 -21.5907 21.1731 1.3189 13.2690
# 5 16.5106 8.0480 -0.7778 1.3189 25.6915 2.4270
# 6 1.2563 -11.4540 11.4018 13.2690 2.4270 37.6007
#
#
#
# Elastic Compliance Matrix: (Units=1/GPa)
#
#
# Indices 1 2 3 4 5 6 
#
# 1 0.017881 -0.005830 -0.009809 -0.005392 -0.009982 0.003148
# 2 -0.005830 0.012759 0.002339 0.010242 -0.000686 -0.000198
# 3 -0.009809 0.002339 0.027160 0.035992 0.006464 -0.020314
# 4 -0.005392 0.010242 0.035992 0.121251 -0.000118 -0.050395
# 5 -0.009982 -0.000686 0.006464 -0.000118 0.046206 -0.004777
# 6 0.003148 -0.000198 -0.020314 -0.050395 -0.004777 0.050682
#
#
# Mechanical properties :
#
#
# Convention : Reuss Voigt Hill
#
# Bulk Modulus (GPa) = 32.05053 60.60949 46.33001
# Shear Modulus (GPa) = 15.97756 29.20930 22.59343
#
# Velocity S-wave (km/s) = 2.77282 3.74910 3.29729
# Velocity P-wave (km/s) = 5.06698 6.92147 6.06552
#
# Compressibility (1/GPa) = 0.03120073
#
# Stress axis : x y z
#
# Youngs Moduli (GPa) = 55.92483 78.37887 36.81818
#
# Poissons Ratio (x) = 0.45697 0.36114
# Poissons Ratio (y) = 0.32605 -0.08612
# Poissons Ratio (z) = 0.54855 -0.18334
#
# Static dielectric constant tensor:
#      x y z
#    x 3.861140 -0.092700 0.152680 
#    y -0.092700 3.915490 -0.003450 
#    z 0.152680 -0.003450 3.505290 
# 
# 
# High freq. dielectric constant tensor:
#      x y z
#    x 1.813700 0.001200 0.021890 
#    y 0.001200 1.820110 0.000350 
#    z 0.021890 0.000350 1.774880 
# 
# From -- ./inp_files/98629.got.cif
#   From: 2010.06.25/outbox.cif.g09.slc.cpg/sg2_50_cif.got.tgz:98629.got - 2010.06.27 13:26:56.
