data_PCOD8039494
_publ_section_title
;
Structure prediction by ZEFSAII (Michael W. Deem and Ramdas Pophale) SiO2 
 PCOD8039494
Probable space group: P -1
;
_chemical_formula_sum "Si O2"
_cell_formula_units_Z 16
_cell_length_a 10.332070
_cell_length_b 17.559190
_cell_length_c 21.305977
_cell_angle_alpha 151.677507
_cell_angle_beta 145.245631
_cell_angle_gamma 54.970302
_cell_volume 871.821445
_symmetry_space_group_name_H-M "P -1"
_symmetry_group_IT_number 2
_symmetry_cell_setting 'triclinic'
loop_
_space_group_symop_operation_xyz
x,y,z
-x,-y,-z
loop_
_atom_site_type_symbol
_atom_site_label
_atom_site_fract_x
_atom_site_fract_y
_atom_site_fract_z
Si Si1 0.172129 0.236755 0.142737
Si Si2 0.298706 0.186722 0.646571
Si Si3 0.862627 0.217174 0.560961
Si Si4 0.503986 0.642837 0.518532
Si Si5 0.603662 0.127189 0.823526
Si Si6 0.555650 0.353915 0.737579
Si Si7 0.240450 0.144707 0.347342
Si Si8 0.047509 0.747641 0.233315
O O1 0.390257 0.418967 0.320696
O O2 0.298849 0.229756 0.253507
O O3 0.909666 0.251364 0.063360
O O4 0.071646 0.040059 0.920701
O O5 0.542598 0.245887 0.836516
O O6 0.431911 0.293856 0.713376
O O7 0.121686 0.264257 0.658304
O O8 0.107361 0.956876 0.395198
O O9 0.743765 0.328927 0.561581
O O10 0.951949 0.293947 0.722876
O O11 0.637012 0.982532 0.300035
O O12 0.678229 0.710451 0.573436
O O13 0.568163 0.940598 0.637509
O O14 0.298830 0.261591 0.519835
O O15 0.745554 0.275447 0.742840
O O16 0.738451 0.585332 0.970396
#
# Coordination Sequence:
#
# PCOD8039494 Si02
#       8
#     2   2   2   2   2   2   2   2
#     4   9  19  31  57  82  99 132 180 235 262 295
#     4  11  21  35  51  77 119 143 170 209 264 328
#     4  10  20  36  52  76 116 144 167 215 269 318
#     4  10  18  34  53  83 103 132 180 226 267 303
#     4   8  17  32  51  75 101 141 168 209 263 300
#     4  11  21  32  53  81 104 147 180 211 260 311
#     4   9  18  32  50  76 105 131 168 225 259 299
#     4  10  20  34  52  75 109 145 178 217 251 310
#
# _framework density 18.352381999999999
#
# number of rings (size 3 to 8) (size 9 to 14) (size 15 to 20)
#    0.750    1.500    3.750    2.250    1.750    1.500 
#    2.250    0.000    0.000    0.750    0.000    2.625 
#    0.000    0.000    0.000    0.000    0.000    0.000 
#
# Total GULP energy -198234.094592 kJ/mol
# GULP energy per Si atom -12389.630912 kJ/mol
# Density = 1.831061 g / cm^3
# Si number density = 18.352382 Si / 1000 Ang^3
#
#
#
# Elastic Constant Matrix: (Units=GPa)
#
#
# Indices 1 2 3 4 5 6 
#
# 1 77.1308 7.6670 6.8274 -1.7163 11.8123 8.6122
# 2 7.6670 35.9400 2.1127 -4.9404 2.0393 13.8246
# 3 6.8274 2.1127 84.1949 -9.9726 -1.2833 5.1903
# 4 -1.7163 -4.9404 -9.9726 21.3928 5.6317 0.0907
# 5 11.8123 2.0393 -1.2833 5.6317 15.4625 4.1129
# 6 8.6122 13.8246 5.1903 0.0907 4.1129 21.1955
#
#
#
# Elastic Compliance Matrix: (Units=1/GPa)
#
#
# Indices 1 2 3 4 5 6 
#
# 1 0.015447 -0.000768 -0.000753 0.003978 -0.012357 -0.003211
# 2 -0.000768 0.039173 0.001851 0.010328 -0.001415 -0.025461
# 3 -0.000753 0.001851 0.012901 0.006350 0.000186 -0.004124
# 4 0.003978 0.010328 0.006350 0.058691 -0.023775 -0.005545
# 5 -0.012357 -0.001415 0.000186 -0.023775 0.085806 -0.010650
# 6 -0.003211 -0.025461 -0.004124 -0.005545 -0.010650 0.068191
#
#
# Mechanical properties :
#
#
# Convention : Reuss Voigt Hill
#
# Bulk Modulus (GPa) = 14.66692 25.60888 20.13790
# Shear Modulus (GPa) = 16.54112 23.65407 20.09759
#
# Velocity S-wave (km/s) = 3.00543 3.59400 3.31281
# Velocity P-wave (km/s) = 4.47802 5.58629 5.06258
#
# Compressibility (1/GPa) = 0.06818065
#
# Stress axis : x y z
#
# Youngs Moduli (GPa) = 64.73604 25.52782 77.51384
#
# Poissons Ratio (x) = 0.01961 0.05834
# Poissons Ratio (y) = 0.04974 -0.14345
# Poissons Ratio (z) = 0.04872 -0.04724
#
# Static dielectric constant tensor:
#      x y z
#    x 3.073570 0.132660 0.049060 
#    y 0.132660 3.115240 -0.057470 
#    z 0.049060 -0.057470 3.569880 
# 
# 
# High freq. dielectric constant tensor:
#      x y z
#    x 1.676190 0.023730 0.011010 
#    y 0.023730 1.685220 0.001380 
#    z 0.011010 0.001380 1.726630 
# 
# From -- ./inp_files/590766.got.cif
#   From: 2010.06.25/outbox.cif.g09.slc.cpg/sg2_296_cif.got.tgz:590766.got - 2010.06.27 13:26:56.
