data_PCOD8039794
_publ_section_title
;
Structure prediction by ZEFSAII (Michael W. Deem and Ramdas Pophale) SiO2 
 PCOD8039794
Probable space group: P -1
;
_chemical_formula_sum "Si O2"
_cell_formula_units_Z 14
_cell_length_a 9.314193
_cell_length_b 9.253982
_cell_length_c 9.092401
_cell_angle_alpha 63.280167
_cell_angle_beta 75.334212
_cell_angle_gamma 63.125216
_cell_volume 623.185874
_symmetry_space_group_name_H-M "P -1"
_symmetry_group_IT_number 2
_symmetry_cell_setting 'triclinic'
loop_
_space_group_symop_operation_xyz
x,y,z
-x,-y,-z
loop_
_atom_site_type_symbol
_atom_site_label
_atom_site_fract_x
_atom_site_fract_y
_atom_site_fract_z
Si Si1 0.735502 0.581640 0.588115
Si Si2 0.791530 0.248217 0.323397
Si Si3 0.540366 0.083523 0.094059
Si Si4 0.488887 0.600013 0.209243
Si Si5 0.996895 0.707605 0.517302
Si Si6 0.118008 0.002335 0.838776
Si Si7 0.565069 0.152437 0.611018
O O1 0.647123 0.478063 0.752706
O O2 0.844321 0.461775 0.485717
O O3 0.600483 0.749384 0.474543
O O4 0.849628 0.650458 0.623539
O O5 0.661592 0.448237 0.268177
O O6 0.957129 0.219905 0.377607
O O7 0.832497 0.181880 0.176789
O O8 0.717152 0.122178 0.481597
O O9 0.727539 0.982395 0.132367
O O10 0.431304 0.041775 0.265489
O O11 0.496056 0.291272 0.988191
O O12 0.500000 0.000000 0.000000
O O13 0.427414 0.732312 0.302379
O O14 0.961539 0.839002 0.327642
O O15 0.000000 0.000000 0.000000
#
# Coordination Sequence:
#
# PCOD8039794 Si02
#       7
#     2   2   2   2   2   2   2
#     4  10  18  34  68  96 128 165 216 264 320 383
#     4  11  23  41  71  97 128 176 223 270 316 390
#     4  10  23  41  68  95 134 172 209 271 336 381
#     4  10  19  40  68  98 127 168 217 269 327 378
#     4  11  21  39  66 100 131 172 217 263 328 393
#     4  12  27  44  62  95 140 175 216 272 336 384
#     4  10  18  40  67  99 126 166 218 270 316 386
#
# _framework density 22.465209000000002
#
# number of rings (size 3 to 8) (size 9 to 14) (size 15 to 20)
#    0.000    1.429    4.286    2.143    2.000    1.143 
#    0.000    0.000    3.143   11.143    0.000    0.000 
#    0.000    0.000    0.000    0.000    0.000    0.000 
#
# Total GULP energy -173541.190230 kJ/mol
# GULP energy per Si atom -12395.799302 kJ/mol
# Density = 2.241408 g / cm^3
# Si number density = 22.465209 Si / 1000 Ang^3
#
#
#
# Elastic Constant Matrix: (Units=GPa)
#
#
# Indices 1 2 3 4 5 6 
#
# 1 173.1480 49.6788 68.5731 -11.0837 6.6232 24.6379
# 2 49.6788 49.6981 57.8208 -3.2448 -13.0144 14.1987
# 3 68.5731 57.8208 124.5497 -23.3602 -20.5382 16.1403
# 4 -11.0837 -3.2448 -23.3602 45.3390 14.5720 -8.0368
# 5 6.6232 -13.0144 -20.5382 14.5720 34.5274 -4.2075
# 6 24.6379 14.1987 16.1403 -8.0368 -4.2075 21.9587
#
#
#
# Elastic Compliance Matrix: (Units=1/GPa)
#
#
# Indices 1 2 3 4 5 6 
#
# 1 0.010109 -0.008444 -0.001802 0.002569 -0.007903 -0.005132
# 2 -0.008444 0.064534 -0.023500 -0.018438 0.017509 -0.018374
# 3 -0.001802 -0.023500 0.021140 0.009479 0.000706 0.005283
# 4 0.002569 -0.018438 0.009479 0.032854 -0.014285 0.011359
# 5 -0.007903 0.017509 0.000706 -0.014285 0.043544 0.000143
# 6 -0.005132 -0.018374 0.005283 0.011359 0.000143 0.063480
#
#
# Mechanical properties :
#
#
# Convention : Reuss Voigt Hill
#
# Bulk Modulus (GPa) = 35.34729 77.72681 56.53705
# Shear Modulus (GPa) = 15.99576 31.78655 23.89115
#
# Velocity S-wave (km/s) = 2.67127 3.76563 3.26463
# Velocity P-wave (km/s) = 5.02819 7.31987 6.27945
#
# Compressibility (1/GPa) = 0.02829071
#
# Stress axis : x y z
#
# Youngs Moduli (GPa) = 98.92384 15.49579 47.30336
#
# Poissons Ratio (x) = 0.13085 0.08523
# Poissons Ratio (y) = 0.83535 1.11162
# Poissons Ratio (z) = 0.17824 0.36415
#
# Static dielectric constant tensor:
#      x y z
#    x 4.278170 0.235240 -0.111180 
#    y 0.235240 4.033000 -0.380220 
#    z -0.111180 -0.380220 4.321380 
# 
# 
# High freq. dielectric constant tensor:
#      x y z
#    x 1.902110 0.009180 0.002220 
#    y 0.009180 1.874960 -0.017540 
#    z 0.002220 -0.017540 1.872780 
# 
# From -- ./inp_files/157322.got.cif
#   From: 2010.06.25/outbox.cif.g09.slc.cpg/sg2_79_cif.got.tgz:157322.got - 2010.06.27 13:26:56.
