data_PCOD8039885
_publ_section_title
;
Structure prediction by ZEFSAII (Michael W. Deem and Ramdas Pophale) SiO2 
 PCOD8039885
Probable space group: P -1
;
_chemical_formula_sum "Si O2"
_cell_formula_units_Z 14
_cell_length_a 8.446845
_cell_length_b 12.276239
_cell_length_c 11.393631
_cell_angle_alpha 68.524785
_cell_angle_beta 79.941523
_cell_angle_gamma 32.193622
_cell_volume 563.578907
_symmetry_space_group_name_H-M "P -1"
_symmetry_group_IT_number 2
_symmetry_cell_setting 'triclinic'
loop_
_space_group_symop_operation_xyz
x,y,z
-x,-y,-z
loop_
_atom_site_type_symbol
_atom_site_label
_atom_site_fract_x
_atom_site_fract_y
_atom_site_fract_z
Si Si1 0.562666 0.595950 0.781446
Si Si2 0.413198 0.300792 0.014697
Si Si3 0.710326 0.913029 0.376451
Si Si4 0.940668 0.154556 0.835318
Si Si5 0.844210 0.022034 0.727784
Si Si6 0.840927 0.764523 0.836978
Si Si7 0.449995 0.223375 0.480079
O O1 0.647729 0.612830 0.880340
O O2 0.196913 0.817072 0.722502
O O3 0.702841 0.580001 0.657768
O O4 0.707078 0.375034 0.858379
O O5 0.295597 0.239939 0.046214
O O6 0.783121 0.077374 0.029443
O O7 0.206833 0.506854 0.871268
O O8 0.905673 0.848690 0.273230
O O9 0.803030 0.719149 0.469112
O O10 0.346524 0.131631 0.300419
O O11 0.715763 0.991283 0.459772
O O12 0.755112 0.172184 0.779305
O O13 0.801205 0.920323 0.830115
O O14 0.617170 0.181412 0.584578
#
# Coordination Sequence:
#
# PCOD8039885 Si02
#       7
#     2   2   2   2   2   2   2
#     4  11  21  35  55  82 110 144 174 217 269 318
#     4   9  19  39  59  79 103 140 181 225 260 314
#     4   9  18  35  58  79 104 142 181 221 261 313
#     4  10  21  36  52  83 112 140 177 215 269 319
#     4  10  21  36  54  81 110 142 174 220 265 322
#     4   9  17  37  63  75 104 143 178 220 273 304
#     4  10  18  35  58  77 107 143 180 219 263 310
#
# _framework density 24.841241
#
# number of rings (size 3 to 8) (size 9 to 14) (size 15 to 20)
#    0.000    2.286    4.286    0.429    0.000    3.429 
#    0.000   13.571    0.000    0.000    0.000    0.000 
#    0.000    0.000    0.000    0.000    0.000    0.000 
#
# Total GULP energy -173506.931224 kJ/mol
# GULP energy per Si atom -12393.352230 kJ/mol
# Density = 2.478470 g / cm^3
# Si number density = 24.841241 Si / 1000 Ang^3
#
#
#
# Elastic Constant Matrix: (Units=GPa)
#
#
# Indices 1 2 3 4 5 6 
#
# 1 116.2238 34.7636 23.5089 -3.6840 14.4357 23.7498
# 2 34.7636 67.7764 11.4737 -13.5776 -1.6073 29.1487
# 3 23.5089 11.4737 69.8617 -13.1914 11.0865 12.8311
# 4 -3.6840 -13.5776 -13.1914 28.5126 5.6022 -13.1680
# 5 14.4357 -1.6073 11.0865 5.6022 13.1668 -1.5266
# 6 23.7498 29.1487 12.8311 -13.1680 -1.5266 36.2510
#
#
#
# Elastic Compliance Matrix: (Units=1/GPa)
#
#
# Indices 1 2 3 4 5 6 
#
# 1 0.013054 -0.004748 -0.000243 -0.000163 -0.015237 -0.005350
# 2 -0.004748 0.024477 0.000187 0.003087 0.004947 -0.015307
# 3 -0.000243 0.000187 0.021176 0.012660 -0.023377 -0.003872
# 4 -0.000163 0.003087 0.012660 0.053860 -0.031701 0.011373
# 5 -0.015237 0.004947 -0.023377 -0.031701 0.127373 0.008127
# 6 -0.005350 -0.015307 -0.003872 0.011373 0.008127 0.049243
#
#
# Mechanical properties :
#
#
# Convention : Reuss Voigt Hill
#
# Bulk Modulus (GPa) = 20.36691 43.70604 32.03648
# Shear Modulus (GPa) = 15.86511 27.86044 21.86278
#
# Velocity S-wave (km/s) = 2.52991 3.35257 2.96987
# Velocity P-wave (km/s) = 4.09275 5.71128 4.96836
#
# Compressibility (1/GPa) = 0.04909925
#
# Stress axis : x y z
#
# Youngs Moduli (GPa) = 76.60500 40.85471 47.22219
#
# Poissons Ratio (x) = 0.19397 0.01149
# Poissons Ratio (y) = 0.36370 -0.00883
# Poissons Ratio (z) = 0.01864 -0.00764
#
# Static dielectric constant tensor:
#      x y z
#    x 4.812780 0.211460 -0.146260 
#    y 0.211460 4.086610 -0.354760 
#    z -0.146260 -0.354760 4.509710 
# 
# 
# High freq. dielectric constant tensor:
#      x y z
#    x 2.009270 0.017050 -0.015330 
#    y 0.017050 1.953260 -0.013320 
#    z -0.015330 -0.013320 1.987090 
# 
# From -- ./inp_files/251386.got.cif
#   From: 2010.06.25/outbox.cif.g09.slc.cpg/sg2_126_cif.got.tgz:251386.got - 2010.06.27 13:26:56.
