data_PCOD8039170
_publ_section_title
;
Structure prediction by ZEFSAII (Michael W. Deem and Ramdas Pophale) SiO2 
 PCOD8039170
Probable space group: P -1
;
_chemical_formula_sum "Si O2"
_cell_formula_units_Z 16
_cell_length_a 21.031449
_cell_length_b 23.984736
_cell_length_c 9.800788
_cell_angle_alpha 143.392623
_cell_angle_beta 148.008704
_cell_angle_gamma 17.335293
_cell_volume 779.687485
_symmetry_space_group_name_H-M "P -1"
_symmetry_group_IT_number 2
_symmetry_cell_setting 'triclinic'
loop_
_space_group_symop_operation_xyz
x,y,z
-x,-y,-z
loop_
_atom_site_type_symbol
_atom_site_label
_atom_site_fract_x
_atom_site_fract_y
_atom_site_fract_z
Si Si1 0.774636 0.792046 0.812210
Si Si2 0.885584 0.019802 0.474567
Si Si3 0.286872 0.011734 0.123987
Si Si4 0.609119 0.324909 0.384943
Si Si5 0.726669 0.615242 0.085044
Si Si6 0.743276 0.967035 0.313291
Si Si7 0.772201 0.683881 0.031742
Si Si8 0.746120 0.906364 0.490883
O O1 0.717582 0.885432 0.753824
O O2 0.989202 0.574699 0.742286
O O3 0.543290 0.892407 0.638923
O O4 0.859008 0.808179 0.116389
O O5 0.173609 0.842512 0.655965
O O6 0.731820 0.218385 0.549036
O O7 0.809196 0.025091 0.488793
O O8 0.833519 0.985987 0.184172
O O9 0.156917 0.106785 0.222228
O O10 0.572531 0.795819 0.243266
O O11 0.500000 0.500000 0.500000
O O12 0.379097 0.414093 0.123163
O O13 0.691125 0.661278 0.949791
O O14 0.842734 0.891700 0.500735
O O15 0.455219 0.147311 0.149166
O O16 0.835217 0.739085 0.328608
O O17 0.000000 0.500000 0.000000
#
# Coordination Sequence:
#
# PCOD8039170 Si02
#       8
#     2   2   2   2   2   2   2   2
#     4  10  19  34  55  77 113 150 184 218 258 319
#     4   9  19  36  57  82 108 135 182 239 272 316
#     4  10  20  37  52  81 121 143 183 223 268 331
#     4  10  18  32  60  84  99 137 184 237 283 309
#     4  11  20  35  57  85 110 140 185 232 270 323
#     4  10  18  36  52  79 113 144 184 227 260 324
#     4  11  20  34  53  82 114 145 188 223 259 325
#     4  11  21  34  55  80 120 157 175 213 277 326
#
# _framework density 20.521042999999999
#
# number of rings (size 3 to 8) (size 9 to 14) (size 15 to 20)
#    0.000    1.750    5.000    4.875    0.000    0.500 
#    2.250    0.000    0.000    6.750    0.000    8.750 
#    0.000    0.000    0.000    0.000    0.000    0.000 
#
# Total GULP energy -198228.009986 kJ/mol
# GULP energy per Si atom -12389.250624 kJ/mol
# Density = 2.047434 g / cm^3
# Si number density = 20.521043 Si / 1000 Ang^3
#
#
#
# Elastic Constant Matrix: (Units=GPa)
#
#
# Indices 1 2 3 4 5 6 
#
# 1 142.5536 16.7898 39.1908 12.8775 -13.1383 15.1812
# 2 16.7898 104.8311 16.0324 14.8366 -0.3668 2.5167
# 3 39.1908 16.0324 40.8945 10.7086 -14.9933 0.8039
# 4 12.8775 14.8366 10.7086 19.3770 -5.6419 2.3815
# 5 -13.1383 -0.3668 -14.9933 -5.6419 29.9690 2.2282
# 6 15.1812 2.5167 0.8039 2.3815 2.2282 36.8969
#
#
#
# Elastic Compliance Matrix: (Units=1/GPa)
#
#
# Indices 1 2 3 4 5 6 
#
# 1 0.010085 0.000077 -0.009392 -0.001156 -0.000207 -0.003863
# 2 0.000077 0.011122 -0.003590 -0.007459 -0.003027 -0.000048
# 3 -0.009392 -0.003590 0.043211 -0.010827 0.015199 0.002949
# 4 -0.001156 -0.007459 -0.010827 0.066465 0.006756 -0.003478
# 5 -0.000207 -0.003027 0.015199 0.006756 0.042342 -0.003033
# 6 -0.003863 -0.000048 0.002949 -0.003478 -0.003033 0.029038
#
#
# Mechanical properties :
#
#
# Convention : Reuss Voigt Hill
#
# Bulk Modulus (GPa) = 25.90121 48.03389 36.96755
# Shear Modulus (GPa) = 20.75199 31.66633 26.20916
#
# Velocity S-wave (km/s) = 3.18347 3.93251 3.57765
# Velocity P-wave (km/s) = 5.11486 6.63909 5.92618
#
# Compressibility (1/GPa) = 0.03860823
#
# Stress axis : x y z
#
# Youngs Moduli (GPa) = 99.16152 89.91207 23.14237
#
# Poissons Ratio (x) = -0.00691 0.21735
# Poissons Ratio (y) = -0.00762 0.08307
# Poissons Ratio (z) = 0.93131 0.32274
#
# Static dielectric constant tensor:
#      x y z
#    x 3.917150 0.049560 0.044220 
#    y 0.049560 3.861930 0.093700 
#    z 0.044220 0.093700 3.254250 
# 
# 
# High freq. dielectric constant tensor:
#      x y z
#    x 1.814360 0.007840 0.007530 
#    y 0.007840 1.805020 0.007100 
#    z 0.007530 0.007100 1.744150 
# 
# From -- ./inp_files/338158.got.cif
#   From: 2010.06.25/outbox.cif.g09.slc.cpg/sg2_170_cif.got.tgz:338158.got - 2010.06.27 13:26:56.
