data_PCOD8039619
_publ_section_title
;
Structure prediction by ZEFSAII (Michael W. Deem and Ramdas Pophale) SiO2 
 PCOD8039619
Probable space group: P -1
;
_chemical_formula_sum "Si O2"
_cell_formula_units_Z 14
_cell_length_a 16.407319
_cell_length_b 16.788630
_cell_length_c 9.634622
_cell_angle_alpha 46.327830
_cell_angle_beta 145.980112
_cell_angle_gamma 147.189782
_cell_volume 804.397368
_symmetry_space_group_name_H-M "P -1"
_symmetry_group_IT_number 2
_symmetry_cell_setting 'triclinic'
loop_
_space_group_symop_operation_xyz
x,y,z
-x,-y,-z
loop_
_atom_site_type_symbol
_atom_site_label
_atom_site_fract_x
_atom_site_fract_y
_atom_site_fract_z
Si Si1 0.147292 0.818926 0.517643
Si Si2 0.678523 0.325706 0.739464
Si Si3 0.503252 0.897378 0.025188
Si Si4 0.282755 0.116553 0.317632
Si Si5 0.029953 0.887084 0.024797
Si Si6 0.975589 0.661664 0.742322
Si Si7 0.079873 0.919062 0.738055
O O1 0.001312 0.694556 0.574503
O O2 0.222689 0.976973 0.489208
O O3 0.335138 0.834223 0.748795
O O4 0.045801 0.783275 0.266201
O O5 0.553208 0.241531 0.803301
O O6 0.517629 0.246033 0.484281
O O7 0.779880 0.494721 0.689021
O O8 0.838899 0.309987 0.964378
O O9 0.701100 0.979107 0.126460
O O10 0.500000 0.000000 0.000000
O O11 0.187396 0.173665 0.190865
O O12 0.190135 0.056404 0.104512
O O13 0.074076 0.883061 0.933899
O O14 0.949035 0.764299 0.658875
O O15 0.000000 0.000000 0.500000
#
# Coordination Sequence:
#
# PCOD8039619 Si02
#       7
#     2   2   2   2   2   2   2
#     4   9  16  33  54  73 104 140 185 215 260 322
#     4  10  18  34  58  81 107 144 188 221 260 335
#     4  11  17  33  57  80 103 145 186 221 262 323
#     4   9  16  34  55  75 107 148 179 218 275 319
#     4   9  20  31  56  79 111 136 184 231 267 316
#     4  10  20  33  57  83 107 144 185 223 269 322
#     4  12  22  34  57  86 111 138 185 234 271 314
#
# _framework density 17.404332
#
# number of rings (size 3 to 8) (size 9 to 14) (size 15 to 20)
#    0.857    1.143    4.286    1.714    0.000    0.571 
#    0.000    3.571    3.143    2.571    0.000    0.000 
#    0.000    0.000    0.000    0.000    0.000    0.000 
#
# Total GULP energy -173474.890045 kJ/mol
# GULP energy per Si atom -12391.063575 kJ/mol
# Density = 1.736472 g / cm^3
# Si number density = 17.404332 Si / 1000 Ang^3
#
#
#
# Elastic Constant Matrix: (Units=GPa)
#
#
# Indices 1 2 3 4 5 6 
#
# 1 89.8683 28.8489 39.8258 -7.0805 -10.2294 6.4242
# 2 28.8489 97.7839 34.4637 -9.5929 -3.0397 14.1707
# 3 39.8258 34.4637 99.1676 -1.8283 -5.5714 5.8907
# 4 -7.0805 -9.5929 -1.8283 23.7838 1.8921 2.5741
# 5 -10.2294 -3.0397 -5.5714 1.8921 23.9818 -2.9686
# 6 6.4242 14.1707 5.8907 2.5741 -2.9686 20.1584
#
#
#
# Elastic Compliance Matrix: (Units=1/GPa)
#
#
# Indices 1 2 3 4 5 6 
#
# 1 0.014775 -0.001978 -0.004841 0.003049 0.004484 -0.001633
# 2 -0.001978 0.013872 -0.003463 0.005839 -0.001474 -0.009072
# 3 -0.004841 -0.003463 0.013211 -0.001936 0.000777 0.000478
# 4 0.003049 0.005839 -0.001936 0.046621 -0.003446 -0.010971
# 5 0.004484 -0.001474 0.000777 -0.003446 0.044669 0.006398
# 6 -0.001633 -0.009072 0.000478 -0.010971 0.006398 0.058708
#
#
# Mechanical properties :
#
#
# Convention : Reuss Voigt Hill
#
# Bulk Modulus (GPa) = 46.95999 54.78852 50.87425
# Shear Modulus (GPa) = 22.77711 25.83024 24.30368
#
# Velocity S-wave (km/s) = 3.62153 3.85662 3.74092
# Velocity P-wave (km/s) = 6.67290 7.16795 6.92485
#
# Compressibility (1/GPa) = 0.02129472
#
# Stress axis : x y z
#
# Youngs Moduli (GPa) = 67.68182 72.08537 75.69293
#
# Poissons Ratio (x) = 0.14256 0.36645
# Poissons Ratio (y) = 0.13385 0.26213
# Poissons Ratio (z) = 0.32766 0.24964
#
# Static dielectric constant tensor:
#      x y z
#    x 3.025980 0.144980 0.103710 
#    y 0.144980 3.136700 -0.007880 
#    z 0.103710 -0.007880 3.540480 
# 
# 
# High freq. dielectric constant tensor:
#      x y z
#    x 1.641040 0.015900 0.006150 
#    y 0.015900 1.643470 -0.001360 
#    z 0.006150 -0.001360 1.690000 
# 
# From -- ./inp_files/311088.got.cif
#   From: 2010.06.25/outbox.cif.g09.slc.cpg/sg2_156_cif.got.tgz:311088.got - 2010.06.27 13:26:56.
