data_PCOD8039028
_publ_section_title
;
Structure prediction by ZEFSAII (Michael W. Deem and Ramdas Pophale) SiO2 
 PCOD8039028
Probable space group: P -1
;
_chemical_formula_sum "Si O2"
_cell_formula_units_Z 16
_cell_length_a 25.398361
_cell_length_b 14.147581
_cell_length_c 22.277443
_cell_angle_alpha 31.841553
_cell_angle_beta 9.813718
_cell_angle_gamma 32.352559
_cell_volume 717.175878
_symmetry_space_group_name_H-M "P -1"
_symmetry_group_IT_number 2
_symmetry_cell_setting 'triclinic'
loop_
_space_group_symop_operation_xyz
x,y,z
-x,-y,-z
loop_
_atom_site_type_symbol
_atom_site_label
_atom_site_fract_x
_atom_site_fract_y
_atom_site_fract_z
Si Si1 0.682562 0.105796 0.287595
Si Si2 0.961387 0.629983 0.320370
Si Si3 0.937312 0.161647 0.186633
Si Si4 0.544787 0.306212 0.653820
Si Si5 0.889419 0.510765 0.256031
Si Si6 0.365141 0.968556 0.103543
Si Si7 0.466568 0.018102 0.354496
Si Si8 0.444948 0.558259 0.209157
O O1 0.500000 0.000000 0.500000
O O2 0.531702 0.112080 0.518968
O O3 0.775687 0.298704 0.057344
O O4 0.000000 0.000000 0.000000
O O5 0.714197 0.785256 0.540498
O O6 0.762792 0.484601 0.591299
O O7 0.199923 0.529026 0.154465
O O8 0.787779 0.299436 0.329822
O O9 0.666653 0.066800 0.508898
O O10 0.099909 0.282907 0.888637
O O11 0.156773 0.001827 0.060670
O O12 0.676004 0.406717 0.508148
O O13 0.229227 0.410994 0.929876
O O14 0.491403 0.103268 0.841099
O O15 0.728781 0.519163 0.496798
O O16 0.467223 0.769514 0.073853
O O17 0.000000 0.000000 0.500000
O O18 0.500000 0.000000 0.000000
#
# Coordination Sequence:
#
# PCOD8039028 Si02
#       8
#     2   2   2   2   2   2   2   2
#     4  10  18  32  53  80 119 161 199 242 300 350
#     4  11  22  36  58  90 124 164 204 256 307 362
#     4  12  24  39  63  91 126 177 209 242 306 375
#     4  12  24  43  64  90 127 165 207 262 311 378
#     4  12  23  40  62  95 130 158 205 259 315 384
#     4  12  23  44  66  92 123 157 207 267 327 368
#     4  11  22  39  57  86 131 169 213 249 292 372
#     4  12  22  37  64  92 123 157 206 258 324 366
#
# _framework density 22.309732
#
# number of rings (size 3 to 8) (size 9 to 14) (size 15 to 20)
#    0.000    0.500    2.500    9.000    0.000    0.000 
#    0.000    0.000    0.000    4.500    0.000    0.000 
#    0.000    0.000    0.000    0.000    0.000    0.000 
#
# Total GULP energy -198251.175881 kJ/mol
# GULP energy per Si atom -12390.698493 kJ/mol
# Density = 2.225895 g / cm^3
# Si number density = 22.309732 Si / 1000 Ang^3
#
#
#
# Elastic Constant Matrix: (Units=GPa)
#
#
# Indices 1 2 3 4 5 6 
#
# 1 50.4853 4.3745 26.8996 -3.0342 -26.3730 4.5971
# 2 4.3745 124.4473 28.6089 15.7168 -13.8784 -11.1625
# 3 26.8996 28.6089 89.2586 26.2593 -45.5569 -5.3350
# 4 -3.0342 15.7168 26.2593 54.9030 -3.2739 -5.7348
# 5 -26.3730 -13.8784 -45.5569 -3.2739 49.4661 0.4018
# 6 4.5971 -11.1625 -5.3350 -5.7348 0.4018 29.3728
#
#
#
# Elastic Compliance Matrix: (Units=1/GPa)
#
#
# Indices 1 2 3 4 5 6 
#
# 1 0.028850 0.000384 -0.003985 0.003637 0.012096 -0.004549
# 2 0.000384 0.008984 -0.002153 -0.001199 0.000641 0.002720
# 3 -0.003985 -0.002153 0.027925 -0.011390 0.022216 0.002350
# 4 0.003637 -0.001199 -0.011390 0.023945 -0.007316 0.001682
# 5 0.012096 0.000641 0.022216 -0.007316 0.046818 0.000317
# 6 -0.004549 0.002720 0.002350 0.001682 0.000317 0.036542
#
#
# Mechanical properties :
#
#
# Convention : Reuss Voigt Hill
#
# Bulk Modulus (GPa) = 18.43336 42.66192 30.54764
# Shear Modulus (GPa) = 24.67251 40.36892 32.52072
#
# Velocity S-wave (km/s) = 3.32913 4.25841 3.82212
# Velocity P-wave (km/s) = 4.80186 6.58352 5.76197
#
# Compressibility (1/GPa) = 0.05424948
#
# Stress axis : x y z
#
# Youngs Moduli (GPa) = 34.66249 111.31170 35.81076
#
# Poissons Ratio (x) = -0.04271 0.14272
# Poissons Ratio (y) = -0.01330 0.07709
# Poissons Ratio (z) = 0.13814 0.23961
#
# Static dielectric constant tensor:
#      x y z
#    x 3.818520 -0.040880 -0.270420 
#    y -0.040880 3.933170 0.042170 
#    z -0.270420 0.042170 3.945300 
# 
# 
# High freq. dielectric constant tensor:
#      x y z
#    x 1.864300 0.002560 -0.034460 
#    y 0.002560 1.892010 0.028680 
#    z -0.034460 0.028680 1.886320 
# 
# From -- ./inp_files/614414.got.cif
#   From: 2010.06.25/outbox.cif.g09.slc.cpg/sg2_308_cif.got.tgz:614414.got - 2010.06.27 13:26:56.
