data_PCOD8039309
_publ_section_title
;
Structure prediction by ZEFSAII (Michael W. Deem and Ramdas Pophale) SiO2 
 PCOD8039309
Probable space group: P -1
;
_chemical_formula_sum "Si O2"
_cell_formula_units_Z 16
_cell_length_a 10.751657
_cell_length_b 8.988776
_cell_length_c 14.156175
_cell_angle_alpha 137.338832
_cell_angle_beta 104.035099
_cell_angle_gamma 88.936757
_cell_volume 872.471051
_symmetry_space_group_name_H-M "P -1"
_symmetry_group_IT_number 2
_symmetry_cell_setting 'triclinic'
loop_
_space_group_symop_operation_xyz
x,y,z
-x,-y,-z
loop_
_atom_site_type_symbol
_atom_site_label
_atom_site_fract_x
_atom_site_fract_y
_atom_site_fract_z
Si Si1 0.796530 0.290450 0.094007
Si Si2 0.108703 0.922250 0.547524
Si Si3 0.926034 0.577511 0.712915
Si Si4 0.793478 0.838575 0.963555
Si Si5 0.872709 0.298075 0.898343
Si Si6 0.361179 0.508520 0.097251
Si Si7 0.996904 0.915899 0.728901
Si Si8 0.655024 0.656834 0.192081
O O1 0.688976 0.439116 0.146665
O O2 0.919458 0.407094 0.235985
O O3 0.851020 0.274056 0.993240
O O4 0.734549 0.036266 0.999932
O O5 0.143439 0.688302 0.412358
O O6 0.064320 0.871873 0.623945
O O7 0.243331 0.113865 0.652047
O O8 0.000000 0.000000 0.500000
O O9 0.918082 0.681987 0.655112
O O10 0.866151 0.722626 0.844226
O O11 0.665935 0.664294 0.901031
O O12 0.898110 0.934251 0.109561
O O13 0.743593 0.338216 0.841504
O O14 0.894151 0.064908 0.751468
O O15 0.000000 0.500000 0.000000
O O16 0.509204 0.665666 0.203801
O O17 0.339745 0.365311 0.929931
#
# Coordination Sequence:
#
# PCOD8039309 Si02
#       8
#     2   2   2   2   2   2   2   2
#     4  10  18  33  56  84 118 139 192 235 283 334
#     4  12  24  37  58  85 120 155 189 232 292 345
#     4  11  21  35  57  89 118 149 184 241 293 342
#     4  11  19  35  60  90 110 153 190 244 284 333
#     4  11  17  31  58  87 110 141 186 246 277 329
#     4  10  21  34  62  84 113 150 197 237 292 324
#     4  11  20  36  57  86 117 147 194 237 288 333
#     4  10  21  40  53  86 117 155 189 241 282 346
#
# _framework density 18.338718
#
# number of rings (size 3 to 8) (size 9 to 14) (size 15 to 20)
#    0.000    1.250    6.250    1.875    1.750    0.500 
#    0.000    0.625    0.000    0.750    0.000    0.000 
#    0.000    0.000    0.000    0.000    0.000    0.000 
#
# Total GULP energy -198366.551073 kJ/mol
# GULP energy per Si atom -12397.909442 kJ/mol
# Density = 1.829698 g / cm^3
# Si number density = 18.338718 Si / 1000 Ang^3
#
#
#
# Elastic Constant Matrix: (Units=GPa)
#
#
# Indices 1 2 3 4 5 6 
#
# 1 93.5235 44.6050 29.4012 11.8037 14.7811 -6.2038
# 2 44.6050 133.6660 39.5953 20.7572 4.6517 3.5996
# 3 29.4012 39.5953 78.2294 15.7714 5.5725 -4.2352
# 4 11.8037 20.7572 15.7714 29.5374 1.8189 -6.6961
# 5 14.7811 4.6517 5.5725 1.8189 27.1007 4.6609
# 6 -6.2038 3.5996 -4.2352 -6.6961 4.6609 25.5446
#
#
#
# Elastic Compliance Matrix: (Units=1/GPa)
#
#
# Indices 1 2 3 4 5 6 
#
# 1 0.015100 -0.004084 -0.002761 -0.000024 -0.007862 0.005213
# 2 -0.004084 0.010686 -0.003207 -0.005405 0.002251 -0.004857
# 3 -0.002761 -0.003207 0.016646 -0.005129 -0.001268 0.001428
# 4 -0.000024 -0.005405 -0.005129 0.043252 -0.002933 0.011778
# 5 -0.007862 0.002251 -0.001268 -0.002933 0.043164 -0.011082
# 6 0.005213 -0.004857 0.001428 0.011778 -0.011082 0.046444
#
#
# Mechanical properties :
#
#
# Convention : Reuss Voigt Hill
#
# Bulk Modulus (GPa) = 44.78939 59.18022 51.98481
# Shear Modulus (GPa) = 24.65013 29.22435 26.93724
#
# Velocity S-wave (km/s) = 3.67025 3.99631 3.83675
# Velocity P-wave (km/s) = 6.51440 7.32357 6.93080
#
# Compressibility (1/GPa) = 0.02232672
#
# Stress axis : x y z
#
# Youngs Moduli (GPa) = 66.22679 93.57958 60.07621
#
# Poissons Ratio (x) = 0.38219 0.16585
# Poissons Ratio (y) = 0.27048 0.19269
# Poissons Ratio (z) = 0.18283 0.30015
#
# Static dielectric constant tensor:
#      x y z
#    x 3.287660 -0.068350 -0.090270 
#    y -0.068350 3.809690 0.141980 
#    z -0.090270 0.141980 3.168570 
# 
# 
# High freq. dielectric constant tensor:
#      x y z
#    x 1.692710 0.001990 -0.013490 
#    y 0.001990 1.735320 0.010960 
#    z -0.013490 0.010960 1.682640 
# 
# From -- ./inp_files/345443.got.cif
#   From: 2010.06.25/outbox.cif.g09.slc.cpg/sg2_173_cif.got.tgz:345443.got - 2010.06.27 13:26:56.
