data_PCOD8039473
_publ_section_title
;
Structure prediction by ZEFSAII (Michael W. Deem and Ramdas Pophale) SiO2 
 PCOD8039473
Probable space group: P -1
;
_chemical_formula_sum "Si O2"
_cell_formula_units_Z 16
_cell_length_a 9.921891
_cell_length_b 17.090739
_cell_length_c 8.291620
_cell_angle_alpha 146.481190
_cell_angle_beta 80.060220
_cell_angle_gamma 95.238219
_cell_volume 761.184676
_symmetry_space_group_name_H-M "P -1"
_symmetry_group_IT_number 2
_symmetry_cell_setting 'triclinic'
loop_
_space_group_symop_operation_xyz
x,y,z
-x,-y,-z
loop_
_atom_site_type_symbol
_atom_site_label
_atom_site_fract_x
_atom_site_fract_y
_atom_site_fract_z
Si Si1 0.043437 0.951673 0.650132
Si Si2 0.952083 0.510885 0.847693
Si Si3 0.774174 0.957679 0.508958
Si Si4 0.292247 0.350989 0.034975
Si Si5 0.906252 0.199746 0.305279
Si Si6 0.669940 0.218518 0.159422
Si Si7 0.472917 0.475706 0.650434
Si Si8 0.788898 0.451192 0.321011
O O1 0.086846 0.821349 0.538923
O O2 0.907207 0.916444 0.522742
O O3 0.172009 0.971884 0.543000
O O4 0.016091 0.092454 0.005483
O O5 0.058848 0.583910 0.838046
O O6 0.804411 0.600976 0.014768
O O7 0.944206 0.353747 0.511336
O O8 0.000000 0.500000 0.000000
O O9 0.693997 0.819993 0.250566
O O10 0.660150 0.069448 0.811830
O O11 0.439911 0.413822 0.079577
O O12 0.224381 0.414844 0.323976
O O13 0.751634 0.183596 0.248570
O O14 0.524768 0.309061 0.390849
O O15 0.756272 0.311204 0.182133
O O16 0.500000 0.500000 0.500000
O O17 0.308320 0.511677 0.755998
#
# Coordination Sequence:
#
# PCOD8039473 Si02
#       8
#     2   2   2   2   2   2   2   2
#     4   9  20  30  48  75 123 141 175 214 283 325
#     4  12  23  31  55  88 113 134 184 235 273 314
#     4  10  19  30  52  85 109 141 178 230 265 315
#     4  10  19  35  58  82 112 138 185 223 272 321
#     4  10  18  34  48  77 112 152 171 218 276 328
#     4   9  18  33  57  76 106 146 184 215 274 323
#     4   8  17  38  56  77 105 150 185 219 264 334
#     4  10  21  37  57  78 110 149 186 218 272 332
#
# _framework density 21.019866
#
# number of rings (size 3 to 8) (size 9 to 14) (size 15 to 20)
#    0.000    2.500    2.500    1.875    7.000    0.000 
#    0.000    6.250    0.000    0.000    0.000   23.625 
#    0.000    0.000    0.000    0.000    0.000    0.000 
#
# Total GULP energy -198290.065703 kJ/mol
# GULP energy per Si atom -12393.129106 kJ/mol
# Density = 2.097202 g / cm^3
# Si number density = 21.019866 Si / 1000 Ang^3
#
#
#
# Elastic Constant Matrix: (Units=GPa)
#
#
# Indices 1 2 3 4 5 6 
#
# 1 62.3450 19.6190 17.1671 1.6382 9.0350 -23.1000
# 2 19.6190 67.4957 5.8167 -0.6775 2.8477 -17.5952
# 3 17.1671 5.8167 99.0487 16.5806 14.5339 2.1261
# 4 1.6382 -0.6775 16.5806 30.3864 -4.9544 2.9677
# 5 9.0350 2.8477 14.5339 -4.9544 18.4622 2.0296
# 6 -23.1000 -17.5952 2.1261 2.9677 2.0296 23.4218
#
#
#
# Elastic Compliance Matrix: (Units=1/GPa)
#
#
# Indices 1 2 3 4 5 6 
#
# 1 0.032860 0.000788 -0.002312 -0.007306 -0.020289 0.035894
# 2 0.000788 0.018921 -0.000568 -0.001662 -0.005027 0.015689
# 3 -0.002312 -0.000568 0.013874 -0.009242 -0.011990 -0.001757
# 4 -0.007306 -0.001662 -0.009242 0.043805 0.024544 -0.015293
# 5 -0.020289 -0.005027 -0.011990 0.024544 0.084537 -0.033134
# 6 0.035894 0.015689 -0.001757 -0.015293 -0.033134 0.094851
#
#
# Mechanical properties :
#
#
# Convention : Reuss Voigt Hill
#
# Bulk Modulus (GPa) = 16.26808 34.89943 25.58376
# Shear Modulus (GPa) = 15.94774 26.87317 21.41046
#
# Velocity S-wave (km/s) = 2.75744 3.57944 3.19499
# Velocity P-wave (km/s) = 4.23015 5.80709 5.08018
#
# Compressibility (1/GPa) = 0.06147007
#
# Stress axis : x y z
#
# Youngs Moduli (GPa) = 30.43178 52.85105 72.07562
#
# Poissons Ratio (x) = -0.04162 0.16664
# Poissons Ratio (y) = -0.02397 0.04097
# Poissons Ratio (z) = 0.07036 0.03005
#
# Static dielectric constant tensor:
#      x y z
#    x 4.598960 -0.560310 0.111970 
#    y -0.560310 3.728610 0.039500 
#    z 0.111970 0.039500 4.036780 
# 
# 
# High freq. dielectric constant tensor:
#      x y z
#    x 1.799300 -0.032340 0.006980 
#    y -0.032340 1.805630 0.006150 
#    z 0.006980 0.006150 1.826220 
# 
# From -- ./inp_files/278597.got.cif
#   From: 2010.06.25/outbox.cif.g09.slc.cpg/sg2_140_cif.got.tgz:278597.got - 2010.06.27 13:26:56.
