data_PCOD8039788
_publ_section_title
;
Structure prediction by ZEFSAII (Michael W. Deem and Ramdas Pophale) SiO2 
 PCOD8039788
Probable space group: P -1
;
_chemical_formula_sum "Si O2"
_cell_formula_units_Z 16
_cell_length_a 9.097058
_cell_length_b 13.461555
_cell_length_c 12.310203
_cell_angle_alpha 77.141935
_cell_angle_beta 123.315999
_cell_angle_gamma 58.071638
_cell_volume 738.250205
_symmetry_space_group_name_H-M "P -1"
_symmetry_group_IT_number 2
_symmetry_cell_setting 'triclinic'
loop_
_space_group_symop_operation_xyz
x,y,z
-x,-y,-z
loop_
_atom_site_type_symbol
_atom_site_label
_atom_site_fract_x
_atom_site_fract_y
_atom_site_fract_z
Si Si1 0.107930 0.228971 0.089381
Si Si2 0.256860 0.142318 0.585293
Si Si3 0.698266 0.147606 0.086455
Si Si4 0.775589 0.612711 0.481917
Si Si5 0.826044 0.871090 0.202618
Si Si6 0.081736 0.354341 0.845010
Si Si7 0.221502 0.808671 0.114181
Si Si8 0.175124 0.695596 0.823077
O O1 0.981910 0.289839 0.144225
O O2 0.459309 0.055914 0.281453
O O3 0.017365 0.369426 0.944478
O O4 0.971019 0.202248 0.969265
O O5 0.354615 0.213945 0.609062
O O6 0.125808 0.173169 0.640632
O O7 0.993819 0.251432 0.367721
O O8 0.838667 0.174392 0.207365
O O9 0.916136 0.948997 0.200627
O O10 0.606540 0.244216 0.914481
O O11 0.424165 0.223093 0.015079
O O12 0.913017 0.525004 0.677311
O O13 0.490328 0.672243 0.340082
O O14 0.000000 0.500000 0.500000
O O15 0.009861 0.705515 0.245604
O O16 0.500000 0.000000 0.000000
O O17 0.000000 0.000000 0.000000
O O18 0.500000 0.500000 0.000000
#
# Coordination Sequence:
#
# PCOD8039788 Si02
#       8
#     2   2   2   2   2   2   2   2
#     4  11  24  43  67  91 133 173 221 275 320 394
#     4  12  22  42  70  95 130 181 223 255 329 402
#     4  10  20  39  64  92 129 174 216 265 324 389
#     4  12  22  37  67 103 134 173 212 266 339 396
#     4  10  18  34  67 100 128 160 212 267 327 388
#     4  11  21  39  69 101 133 168 214 273 338 380
#     4  11  21  37  62  96 134 169 215 267 328 397
#     4  11  27  45  66  93 131 177 228 278 322 381
#
# _framework density 21.67287
#
# number of rings (size 3 to 8) (size 9 to 14) (size 15 to 20)
#    0.000    1.000    6.250    2.625    1.750    1.000 
#    0.000    3.750    0.000    0.000    0.000    0.000 
#    0.000    0.000    0.000    0.000    0.000    0.000 
#
# Total GULP energy -198260.580209 kJ/mol
# GULP energy per Si atom -12391.286263 kJ/mol
# Density = 2.162354 g / cm^3
# Si number density = 21.672870 Si / 1000 Ang^3
#
#
#
# Elastic Constant Matrix: (Units=GPa)
#
#
# Indices 1 2 3 4 5 6 
#
# 1 90.4635 10.3909 34.6460 8.0605 -23.2061 -5.3590
# 2 10.3909 44.3902 12.9502 6.1687 -4.0106 -4.0649
# 3 34.6460 12.9502 131.8835 11.1276 -9.5172 -15.3021
# 4 8.0605 6.1687 11.1276 32.9212 1.0780 -3.7880
# 5 -23.2061 -4.0106 -9.5172 1.0780 43.1234 3.7240
# 6 -5.3590 -4.0649 -15.3021 -3.7880 3.7240 32.8648
#
#
#
# Elastic Compliance Matrix: (Units=1/GPa)
#
#
# Indices 1 2 3 4 5 6 
#
# 1 0.014365 -0.001551 -0.002939 -0.002498 0.007026 -0.000302
# 2 -0.001551 0.024022 -0.001401 -0.003504 0.001045 0.001544
# 3 -0.002939 -0.001401 0.009025 -0.001684 0.000033 0.003352
# 4 -0.002498 -0.003504 -0.001684 0.032599 -0.003071 0.002481
# 5 0.007026 0.001045 0.000033 -0.003071 0.027338 -0.002162
# 6 -0.000302 0.001544 0.003352 0.002481 -0.002162 0.032661
#
#
# Mechanical properties :
#
#
# Convention : Reuss Voigt Hill
#
# Bulk Modulus (GPa) = 28.06570 42.52347 35.29458
# Shear Modulus (GPa) = 30.54954 35.69855 33.12404
#
# Velocity S-wave (km/s) = 3.75850 4.06292 3.91367
# Velocity P-wave (km/s) = 5.64030 6.45546 6.06159
#
# Compressibility (1/GPa) = 0.03563068
#
# Stress axis : x y z
#
# Youngs Moduli (GPa) = 69.61469 41.62841 110.79853
#
# Poissons Ratio (x) = 0.06456 0.32559
# Poissons Ratio (y) = 0.10797 0.15525
# Poissons Ratio (z) = 0.20457 0.05833
#
# Static dielectric constant tensor:
#      x y z
#    x 3.995920 0.294930 -0.148430 
#    y 0.294930 3.841910 -0.011560 
#    z -0.148430 -0.011560 3.865270 
# 
# 
# High freq. dielectric constant tensor:
#      x y z
#    x 1.855790 0.005180 -0.013750 
#    y 0.005180 1.831390 0.004270 
#    z -0.013750 0.004270 1.845730 
# 
# From -- ./inp_files/329496.got.cif
#   From: 2010.06.25/outbox.cif.g09.slc.cpg/sg2_165_cif.got.tgz:329496.got - 2010.06.27 13:26:56.
