data_PCOD8039452
_publ_section_title
;
Structure prediction by ZEFSAII (Michael W. Deem and Ramdas Pophale) SiO2 
 PCOD8039452
Probable space group: P -1
;
_chemical_formula_sum "Si O2"
_cell_formula_units_Z 16
_cell_length_a 11.184071
_cell_length_b 10.406631
_cell_length_c 13.459182
_cell_angle_alpha 59.314381
_cell_angle_beta 56.169195
_cell_angle_gamma 103.342740
_cell_volume 775.708198
_symmetry_space_group_name_H-M "P -1"
_symmetry_group_IT_number 2
_symmetry_cell_setting 'triclinic'
loop_
_space_group_symop_operation_xyz
x,y,z
-x,-y,-z
loop_
_atom_site_type_symbol
_atom_site_label
_atom_site_fract_x
_atom_site_fract_y
_atom_site_fract_z
Si Si1 0.307265 0.772770 0.727856
Si Si2 0.449526 0.797650 0.860005
Si Si3 0.260817 0.773045 0.218923
Si Si4 0.282014 0.216544 0.989651
Si Si5 0.869747 0.085184 0.640396
Si Si6 0.228205 0.909067 0.997023
Si Si7 0.293885 0.494686 0.231283
Si Si8 0.955194 0.683066 0.028086
O O1 0.375341 0.724707 0.810469
O O2 0.201316 0.574130 0.780432
O O3 0.500000 0.000000 0.500000
O O4 0.140427 0.773548 0.833435
O O5 0.689355 0.924558 0.705909
O O6 0.412402 0.943949 0.850702
O O7 0.319333 0.588393 0.074116
O O8 0.246312 0.584377 0.301605
O O9 0.169239 0.772782 0.362035
O O10 0.128739 0.740716 0.200121
O O11 0.500000 0.000000 0.000000
O O12 0.498733 0.432320 0.854696
O O13 0.162139 0.269608 0.986963
O O14 0.317916 0.131702 0.912709
O O15 0.148229 0.037480 0.208741
O O16 0.095227 0.235205 0.425004
O O17 0.046927 0.805127 0.042669
#
# Coordination Sequence:
#
# PCOD8039452 Si02
#       8
#     2   2   2   2   2   2   2   2
#     4  10  23  42  62  79 102 141 196 242 275 321
#     4   9  18  35  56  81 112 139 187 240 270 312
#     4  10  14  29  49  77 116 145 179 223 264 315
#     4  10  19  35  53  83 124 145 175 222 276 340
#     4  10  18  29  52  82 111 151 184 219 273 328
#     4   9  16  32  57  81 115 149 176 215 277 332
#     4  10  18  30  53  81 112 149 182 221 275 329
#     4  10  22  38  59  81 107 151 186 228 281 326
#
# _framework density 20.626313
#
# number of rings (size 3 to 8) (size 9 to 14) (size 15 to 20)
#    0.000    2.250    5.000    0.750    0.000    5.000 
#    0.000    6.250    0.000   12.000    0.000    0.000 
#    0.000    0.000    0.000    0.000    0.000    0.000 
#
# Total GULP energy -198250.510627 kJ/mol
# GULP energy per Si atom -12390.656914 kJ/mol
# Density = 2.057937 g / cm^3
# Si number density = 20.626313 Si / 1000 Ang^3
#
#
#
# Elastic Constant Matrix: (Units=GPa)
#
#
# Indices 1 2 3 4 5 6 
#
# 1 138.7047 20.2019 46.7815 -0.0666 -12.4980 10.3877
# 2 20.2019 36.6724 21.3153 -2.9086 -2.2027 12.9977
# 3 46.7815 21.3153 148.5105 -15.7319 -15.5030 10.0787
# 4 -0.0666 -2.9086 -15.7319 15.1321 4.8174 1.0856
# 5 -12.4980 -2.2027 -15.5030 4.8174 17.7896 -1.8128
# 6 10.3877 12.9977 10.0787 1.0856 -1.8128 26.8187
#
#
#
# Elastic Compliance Matrix: (Units=1/GPa)
#
#
# Indices 1 2 3 4 5 6 
#
# 1 0.008970 -0.003562 -0.002240 -0.004574 0.005109 -0.000376
# 2 -0.003562 0.036778 -0.002779 0.006501 -0.003753 -0.015917
# 3 -0.002240 -0.002779 0.009154 0.007855 0.003802 -0.001287
# 4 -0.004574 0.006501 0.007855 0.082073 -0.018697 -0.008917
# 5 0.005109 -0.003753 0.003802 -0.018697 0.068097 0.003771
# 6 -0.000376 -0.015917 -0.001287 -0.008917 0.003771 0.046247
#
#
# Mechanical properties :
#
#
# Convention : Reuss Voigt Hill
#
# Bulk Modulus (GPa) = 26.49781 55.60945 41.05363
# Shear Modulus (GPa) = 17.78968 27.65401 22.72184
#
# Velocity S-wave (km/s) = 2.93998 3.66555 3.32263
# Velocity P-wave (km/s) = 4.93955 6.70328 5.88783
#
# Compressibility (1/GPa) = 0.03773897
#
# Stress axis : x y z
#
# Youngs Moduli (GPa) = 111.48048 27.19026 109.23786
#
# Poissons Ratio (x) = 0.09686 0.24470
# Poissons Ratio (y) = 0.39711 0.30363
# Poissons Ratio (z) = 0.24972 0.07558
#
# Static dielectric constant tensor:
#      x y z
#    x 3.820850 0.217800 -0.175230 
#    y 0.217800 3.803840 -0.087600 
#    z -0.175230 -0.087600 3.573110 
# 
# 
# High freq. dielectric constant tensor:
#      x y z
#    x 1.808870 0.010580 -0.015120 
#    y 0.010580 1.798310 -0.007330 
#    z -0.015120 -0.007330 1.777320 
# 
# From -- ./inp_files/518838.got.cif
#   From: 2010.06.25/outbox.cif.g09.slc.cpg/sg2_260_cif.got.tgz:518838.got - 2010.06.27 13:26:56.
