data_PCOD8039570
_publ_section_title
;
Structure prediction by ZEFSAII (Michael W. Deem and Ramdas Pophale) SiO2 
 PCOD8039570
Probable space group: P -1
;
_chemical_formula_sum "Si O2"
_cell_formula_units_Z 14
_cell_length_a 11.831851
_cell_length_b 15.609320
_cell_length_c 13.727414
_cell_angle_alpha 18.113429
_cell_angle_beta 48.455819
_cell_angle_gamma 48.660913
_cell_volume 584.951708
_symmetry_space_group_name_H-M "P -1"
_symmetry_group_IT_number 2
_symmetry_cell_setting 'triclinic'
loop_
_space_group_symop_operation_xyz
x,y,z
-x,-y,-z
loop_
_atom_site_type_symbol
_atom_site_label
_atom_site_fract_x
_atom_site_fract_y
_atom_site_fract_z
Si Si1 0.373289 0.776924 0.631143
Si Si2 0.935879 0.184319 0.137106
Si Si3 0.066865 0.588937 0.764330
Si Si4 0.706281 0.731500 0.495040
Si Si5 0.989364 0.890516 0.234261
Si Si6 0.374400 0.367076 0.903713
Si Si7 0.706673 0.324280 0.762959
O O1 0.540026 0.705157 0.664973
O O2 0.342440 0.518143 0.862229
O O3 0.245151 0.815251 0.745927
O O4 0.363981 0.043012 0.277703
O O5 0.966690 0.150450 0.040382
O O6 0.030313 0.920261 0.421917
O O7 0.991485 0.459975 0.852664
O O8 0.247987 0.491446 0.763694
O O9 0.000000 0.500000 0.000000
O O10 0.844519 0.711301 0.517624
O O11 0.752003 0.508747 0.626375
O O12 0.688404 0.027827 0.135972
O O13 0.152515 0.700257 0.368653
O O14 0.000000 0.000000 0.000000
O O15 0.539766 0.430364 0.698715
#
# Coordination Sequence:
#
# PCOD8039570 Si02
#       7
#     2   2   2   2   2   2   2
#     4  10  18  34  56  91 116 147 192 236 293 357
#     4  12  24  36  61  93 118 155 201 234 290 363
#     4  12  22  39  61  90 123 153 188 243 305 350
#     4   9  19  34  60  82 113 154 192 240 293 337
#     4  10  23  43  61  84 121 161 199 243 285 339
#     4  10  19  35  60  84 119 152 186 240 298 341
#     4   9  19  36  59  83 110 158 199 231 285 347
#
# _framework density 23.933599000000001
#
# number of rings (size 3 to 8) (size 9 to 14) (size 15 to 20)
#    0.000    1.714    2.857    1.714    0.000    5.143 
#    0.000    1.429    0.000   12.000    0.000    0.000 
#    0.000    0.000    0.000    0.000    0.000    0.000 
#
# Total GULP energy -173525.259451 kJ/mol
# GULP energy per Si atom -12394.661389 kJ/mol
# Density = 2.387912 g / cm^3
# Si number density = 23.933599 Si / 1000 Ang^3
#
#
#
# Elastic Constant Matrix: (Units=GPa)
#
#
# Indices 1 2 3 4 5 6 
#
# 1 139.8037 74.1418 -2.2967 8.1186 -31.8393 -34.7186
# 2 74.1418 145.3185 5.9573 -8.4063 -19.5568 -32.8161
# 3 -2.2967 5.9573 49.0448 -19.3295 -18.0152 3.3535
# 4 8.1186 -8.4063 -19.3295 32.4981 4.7772 -5.6569
# 5 -31.8393 -19.5568 -18.0152 4.7772 31.5733 0.0994
# 6 -34.7186 -32.8161 3.3535 -5.6569 0.0994 54.6602
#
#
#
# Elastic Compliance Matrix: (Units=1/GPa)
#
#
# Indices 1 2 3 4 5 6 
#
# 1 0.014909 -0.004492 0.005498 -0.002876 0.015806 0.006110
# 2 -0.004492 0.010522 0.000711 0.004701 0.001670 0.003904
# 3 0.005498 0.000711 0.035877 0.017248 0.023835 0.003460
# 4 -0.002876 0.004701 0.017248 0.043247 0.003296 0.004407
# 5 0.015806 0.001670 0.023835 0.003296 0.061716 0.009809
# 6 0.006110 0.003904 0.003460 0.004407 0.009809 0.024745
#
#
# Mechanical properties :
#
#
# Convention : Reuss Voigt Hill
#
# Bulk Modulus (GPa) = 15.44563 54.41909 34.93236
# Shear Modulus (GPa) = 23.90473 40.83728 32.37100
#
# Velocity S-wave (km/s) = 3.16380 4.13519 3.68167
# Velocity P-wave (km/s) = 4.45126 6.75178 5.71840
#
# Compressibility (1/GPa) = 0.06474325
#
# Stress axis : x y z
#
# Youngs Moduli (GPa) = 67.07273 95.03656 27.87293
#
# Poissons Ratio (x) = 0.42687 -0.15325
# Poissons Ratio (y) = 0.30127 -0.01981
# Poissons Ratio (z) = -0.36879 -0.06754
#
# Static dielectric constant tensor:
#      x y z
#    x 5.232250 -1.185660 -0.440570 
#    y -1.185660 4.899530 -0.058940 
#    z -0.440570 -0.058940 4.202870 
# 
# 
# High freq. dielectric constant tensor:
#      x y z
#    x 1.948650 -0.038330 -0.016720 
#    y -0.038330 1.947050 -0.022380 
#    z -0.016720 -0.022380 1.949390 
# 
# From -- ./inp_files/83881.got.cif
#   From: 2010.06.25/outbox.cif.g09.slc.cpg/sg2_42_cif.got.tgz:83881.got - 2010.06.27 13:26:56.
