data_PCOD8039281
_publ_section_title
;
Structure prediction by ZEFSAII (Michael W. Deem and Ramdas Pophale) SiO2 
 PCOD8039281
Probable space group: P -1
;
_chemical_formula_sum "Si O2"
_cell_formula_units_Z 16
_cell_length_a 10.955292
_cell_length_b 12.749567
_cell_length_c 8.636546
_cell_angle_alpha 69.241300
_cell_angle_beta 55.972863
_cell_angle_gamma 51.533206
_cell_volume 782.741995
_symmetry_space_group_name_H-M "P -1"
_symmetry_group_IT_number 2
_symmetry_cell_setting 'triclinic'
loop_
_space_group_symop_operation_xyz
x,y,z
-x,-y,-z
loop_
_atom_site_type_symbol
_atom_site_label
_atom_site_fract_x
_atom_site_fract_y
_atom_site_fract_z
Si Si1 0.209502 0.754833 0.764943
Si Si2 0.560708 0.547932 0.791612
Si Si3 0.036800 0.304241 0.856379
Si Si4 0.283665 0.180022 0.461565
Si Si5 0.757435 0.615557 0.834040
Si Si6 0.599074 0.113027 0.486953
Si Si7 0.679059 0.680036 0.198667
Si Si8 0.695526 0.438072 0.449954
O O1 0.399919 0.639755 0.748058
O O2 0.226724 0.883157 0.678345
O O3 0.180855 0.708361 0.640511
O O4 0.062754 0.766946 0.978858
O O5 0.635598 0.627750 0.772730
O O6 0.705019 0.429180 0.636435
O O7 0.500000 0.500000 0.000000
O O8 0.135426 0.228330 0.671168
O O9 0.176233 0.282974 0.899141
O O10 0.912673 0.462297 0.827894
O O11 0.194603 0.282652 0.324806
O O12 0.459525 0.164334 0.417715
O O13 0.333123 0.037428 0.436011
O O14 0.650311 0.673646 0.039378
O O15 0.506128 0.208175 0.652679
O O16 0.757526 0.534946 0.297076
O O17 0.500000 0.500000 0.500000
#
# Coordination Sequence:
#
# PCOD8039281 Si02
#       8
#     2   2   2   2   2   2   2   2
#     4  11  20  36  61  86 116 155 193 236 293 356
#     4  11  19  32  55  93 118 144 194 242 296 339
#     4  11  23  38  57  91 121 154 189 240 308 348
#     4  10  23  40  59  84 119 156 197 246 286 341
#     4  12  21  36  61  91 118 148 196 251 291 340
#     4  10  21  41  62  81 114 163 201 232 285 361
#     4  11  21  38  61  88 118 156 197 234 298 355
#     4  10  18  33  55  85 117 150 186 235 294 342
#
# _framework density 20.440964000000001
#
# number of rings (size 3 to 8) (size 9 to 14) (size 15 to 20)
#    0.000    1.250    6.250    2.250    0.000    1.000 
#    0.000    0.000    0.000    0.750    0.000    0.000 
#    0.000    0.000    0.000    0.000    0.000    0.000 
#
# Total GULP energy -198234.521269 kJ/mol
# GULP energy per Si atom -12389.657579 kJ/mol
# Density = 2.039444 g / cm^3
# Si number density = 20.440964 Si / 1000 Ang^3
#
#
#
# Elastic Constant Matrix: (Units=GPa)
#
#
# Indices 1 2 3 4 5 6 
#
# 1 52.7407 18.8109 43.9245 -4.5895 -3.1852 16.8033
# 2 18.8109 88.9458 51.1204 -3.0858 0.5170 17.5283
# 3 43.9245 51.1204 141.9843 -6.8318 6.9024 19.1093
# 4 -4.5895 -3.0858 -6.8318 20.9145 9.4046 0.5048
# 5 -3.1852 0.5170 6.9024 9.4046 42.0073 1.2813
# 6 16.8033 17.5283 19.1093 0.5048 1.2813 24.0996
#
#
#
# Elastic Compliance Matrix: (Units=1/GPa)
#
#
# Indices 1 2 3 4 5 6 
#
# 1 0.030677 0.001301 -0.007751 0.003282 0.003350 -0.016436
# 2 0.001301 0.015410 -0.004824 0.000839 0.000768 -0.008348
# 3 -0.007751 -0.004824 0.011463 0.002688 -0.003011 -0.000073
# 4 0.003282 0.000839 0.002688 0.055246 -0.012403 -0.005528
# 5 0.003350 0.000768 -0.003011 -0.012403 0.027373 -0.001702
# 6 -0.016436 -0.008348 -0.000073 -0.005528 -0.001702 0.059290
#
#
# Mechanical properties :
#
#
# Convention : Reuss Voigt Hill
#
# Bulk Modulus (GPa) = 28.57087 56.82026 42.69556
# Shear Modulus (GPa) = 21.39705 28.72527 25.06116
#
# Velocity S-wave (km/s) = 3.23890 3.75277 3.50526
# Velocity P-wave (km/s) = 5.29102 6.82901 6.10861
#
# Compressibility (1/GPa) = 0.03500069
#
# Stress axis : x y z
#
# Youngs Moduli (GPa) = 32.59774 64.89235 87.23422
#
# Poissons Ratio (x) = -0.08440 0.67619
# Poissons Ratio (y) = -0.04240 0.42082
# Poissons Ratio (z) = 0.25268 0.31304
#
# Static dielectric constant tensor:
#      x y z
#    x 5.939610 3.765590 -2.991460 
#    y 3.765590 8.641970 -4.366210 
#    z -2.991460 -4.366210 7.685180 
# 
# 
# High freq. dielectric constant tensor:
#      x y z
#    x 1.784090 0.034350 -0.002100 
#    y 0.034350 1.771480 0.000350 
#    z -0.002100 0.000350 1.812280 
# 
# From -- ./inp_files/262278.got.cif
#   From: 2010.06.25/outbox.cif.g09.slc.cpg/sg2_132_cif.got.tgz:262278.got - 2010.06.27 13:26:56.
