data_PCOD8039644
_publ_section_title
;
Structure prediction by ZEFSAII (Michael W. Deem and Ramdas Pophale) SiO2 
 PCOD8039644
Probable space group: P -1
;
_chemical_formula_sum "Si O2"
_cell_formula_units_Z 16
_cell_length_a 20.911303
_cell_length_b 12.223894
_cell_length_c 17.918807
_cell_angle_alpha 29.413494
_cell_angle_beta 150.817762
_cell_angle_gamma 159.156014
_cell_volume 753.434234
_symmetry_space_group_name_H-M "P -1"
_symmetry_group_IT_number 2
_symmetry_cell_setting 'triclinic'
loop_
_space_group_symop_operation_xyz
x,y,z
-x,-y,-z
loop_
_atom_site_type_symbol
_atom_site_label
_atom_site_fract_x
_atom_site_fract_y
_atom_site_fract_z
Si Si1 0.134929 0.375039 0.420460
Si Si2 0.690308 0.888751 0.626819
Si Si3 0.428592 0.706804 0.180934
Si Si4 0.807933 0.301952 0.154279
Si Si5 0.454842 0.595226 0.713113
Si Si6 0.492999 0.785641 0.935539
Si Si7 0.450511 0.988194 0.299276
Si Si8 0.077870 0.267915 0.859075
O O1 0.264894 0.496813 0.554135
O O2 0.277274 0.595450 0.364985
O O3 0.996756 0.414159 0.253771
O O4 0.000000 0.000000 0.500000
O O5 0.611799 0.602941 0.658311
O O6 0.602706 0.754215 0.700927
O O7 0.642076 0.074124 0.435737
O O8 0.918029 0.140824 0.712417
O O9 0.611176 0.917852 0.185355
O O10 0.466126 0.920954 0.160482
O O11 0.237725 0.547189 0.036416
O O12 0.852818 0.427148 0.209401
O O13 0.551072 0.853991 0.724091
O O14 0.395551 0.273458 0.871794
O O15 0.271646 0.429125 0.919122
O O16 0.572592 0.893452 0.868543
O O17 0.000000 0.000000 0.000000
#
# Coordination Sequence:
#
# PCOD8039644 Si02
#       8
#     2   2   2   2   2   2   2   2
#     4  11  22  38  64  88 116 157 205 249 285 357
#     4  11  20  38  63  91 114 151 212 248 296 346
#     4  10  20  36  61  88 121 153 190 254 301 352
#     4  10  18  34  58  90 112 144 203 248 292 339
#     4  11  21  41  62  86 122 161 205 244 290 360
#     4  11  24  40  59  88 127 161 195 243 311 352
#     4  11  25  40  59  88 127 164 193 245 303 358
#     4  11  19  34  62  90 110 150 204 252 282 350
#
# _framework density 21.236091999999999
#
# number of rings (size 3 to 8) (size 9 to 14) (size 15 to 20)
#    0.000    1.250    2.500    7.125    0.000    1.000 
#    0.000    3.750    0.000    0.000    0.000    0.000 
#    0.000    0.000    0.000    0.000    0.000    0.000 
#
# Total GULP energy -198259.659977 kJ/mol
# GULP energy per Si atom -12391.228749 kJ/mol
# Density = 2.118776 g / cm^3
# Si number density = 21.236092 Si / 1000 Ang^3
#
#
#
# Elastic Constant Matrix: (Units=GPa)
#
#
# Indices 1 2 3 4 5 6 
#
# 1 64.2725 30.9146 26.9090 -1.9135 -3.4035 -0.1282
# 2 30.9146 86.7027 22.3010 6.9123 3.3438 3.2416
# 3 26.9090 22.3010 95.9312 8.4117 3.4610 12.1615
# 4 -1.9135 6.9123 8.4117 36.3765 5.8235 9.7630
# 5 -3.4035 3.3438 3.4610 5.8235 34.8266 -3.1978
# 6 -0.1282 3.2416 12.1615 9.7630 -3.1978 28.7199
#
#
#
# Elastic Compliance Matrix: (Units=1/GPa)
#
#
# Indices 1 2 3 4 5 6 
#
# 1 0.021077 -0.006627 -0.005005 0.002372 0.003026 0.002492
# 2 -0.006627 0.014471 -0.001170 -0.002441 -0.001560 -0.000511
# 3 -0.005005 -0.001170 0.012937 -0.001353 -0.001906 -0.005121
# 4 0.002372 -0.002441 -0.001353 0.032194 -0.005768 -0.010727
# 5 0.003026 -0.001560 -0.001906 -0.005768 0.030900 0.006398
# 6 0.002492 -0.000511 -0.005121 -0.010727 0.006398 0.041415
#
#
# Mechanical properties :
#
#
# Convention : Reuss Voigt Hill
#
# Bulk Modulus (GPa) = 43.70323 45.23950 44.47136
# Shear Modulus (GPa) = 26.84902 31.10338 28.97620
#
# Velocity S-wave (km/s) = 3.55957 3.83122 3.69789
# Velocity P-wave (km/s) = 6.12523 6.39690 6.26254
#
# Compressibility (1/GPa) = 0.02288161
#
# Stress axis : x y z
#
# Youngs Moduli (GPa) = 47.44397 69.10161 77.30021
#
# Poissons Ratio (x) = 0.45794 0.38687
# Poissons Ratio (y) = 0.31441 0.09045
# Poissons Ratio (z) = 0.23745 0.08086
#
# Static dielectric constant tensor:
#      x y z
#    x 2.950080 -0.241260 -0.237060 
#    y -0.241260 3.978990 -0.063250 
#    z -0.237060 -0.063250 3.540450 
# 
# 
# High freq. dielectric constant tensor:
#      x y z
#    x 1.798300 -0.007580 0.023520 
#    y -0.007580 1.837920 0.004190 
#    z 0.023520 0.004190 1.832790 
# 
# From -- ./inp_files/218865.got.cif
#   From: 2010.06.25/outbox.cif.g09.slc.cpg/sg2_110_cif.got.tgz:218865.got - 2010.06.27 13:26:56.
