data_PCOD8039105
_publ_section_title
;
Structure prediction by ZEFSAII (Michael W. Deem and Ramdas Pophale) SiO2 
 PCOD8039105
Probable space group: P -1
;
_chemical_formula_sum "Si O2"
_cell_formula_units_Z 14
_cell_length_a 18.768288
_cell_length_b 7.337233
_cell_length_c 15.831036
_cell_angle_alpha 69.571867
_cell_angle_beta 157.219674
_cell_angle_gamma 97.390408
_cell_volume 669.604012
_symmetry_space_group_name_H-M "P -1"
_symmetry_group_IT_number 2
_symmetry_cell_setting 'triclinic'
loop_
_space_group_symop_operation_xyz
x,y,z
-x,-y,-z
loop_
_atom_site_type_symbol
_atom_site_label
_atom_site_fract_x
_atom_site_fract_y
_atom_site_fract_z
Si Si1 0.434078 0.321288 0.988372
Si Si2 0.668393 0.114264 0.126423
Si Si3 0.455475 0.361791 0.690280
Si Si4 0.977849 0.248902 0.527629
Si Si5 0.404346 0.990031 0.630716
Si Si6 0.195690 0.020897 0.968322
Si Si7 0.108056 0.895492 0.223314
O O1 0.171424 0.473202 0.692916
O O2 0.500000 0.500000 0.000000
O O3 0.504450 0.135356 0.018762
O O4 0.560787 0.198372 0.231732
O O5 0.854956 0.133698 0.372644
O O6 0.539232 0.321574 0.884744
O O7 0.783806 0.872250 0.238695
O O8 0.326393 0.231278 0.553790
O O9 0.291428 0.629502 0.452643
O O10 0.665963 0.243723 0.874997
O O11 0.011725 0.187935 0.673533
O O12 0.221982 0.027138 0.359637
O O13 0.631870 0.899284 0.844906
O O14 0.083514 0.050790 0.930281
O O15 0.000000 0.000000 0.000000
#
# Coordination Sequence:
#
# PCOD8039105 Si02
#       7
#     2   2   2   2   2   2   2
#     4  10  18  32  56  85 126 164 201 245 279 351
#     4   9  16  30  55  82 119 163 196 233 286 354
#     4   9  22  44  59  94 133 156 208 262 307 376
#     4   9  16  30  55  82 119 163 196 233 286 354
#     4  10  24  44  59  94 133 161 206 265 311 360
#     4   9  22  44  59  94 133 156 208 262 307 376
#     4  12  24  44  73  89 113 167 210 262 337 377
#
# _framework density 20.907879999999999
#
# number of rings (size 3 to 8) (size 9 to 14) (size 15 to 20)
#    0.857    1.429    0.000    4.286    0.000    2.857 
#    5.143    0.000    0.000    0.000    0.000    0.000 
#    0.000    0.000    0.000    0.000    0.000    0.000 
#
# Total GULP energy -173482.675819 kJ/mol
# GULP energy per Si atom -12391.619701 kJ/mol
# Density = 2.086029 g / cm^3
# Si number density = 20.907880 Si / 1000 Ang^3
#
#
#
# Elastic Constant Matrix: (Units=GPa)
#
#
# Indices 1 2 3 4 5 6 
#
# 1 143.3045 19.9495 61.0087 4.3965 -3.4457 -13.0913
# 2 19.9495 47.3424 10.8669 5.0830 -0.0214 0.1285
# 3 61.0087 10.8669 102.8166 1.2594 -12.5493 -3.2709
# 4 4.3965 5.0830 1.2594 31.5665 -12.6022 7.7729
# 5 -3.4457 -0.0214 -12.5493 -12.6022 38.8052 -3.4840
# 6 -13.0913 0.1285 -3.2709 7.7729 -3.4840 20.1750
#
#
#
# Elastic Compliance Matrix: (Units=1/GPa)
#
#
# Indices 1 2 3 4 5 6 
#
# 1 0.010553 -0.002796 -0.005873 -0.002998 -0.001323 0.006840
# 2 -0.002796 0.022931 -0.000977 -0.003764 -0.001863 -0.000990
# 3 -0.005873 -0.000977 0.013792 0.002734 0.004663 -0.001817
# 4 -0.002998 -0.003764 0.002734 0.041416 0.012698 -0.015242
# 5 -0.001323 -0.001863 0.004663 0.012698 0.031321 0.000426
# 6 0.006840 -0.000990 -0.001817 -0.015242 0.000426 0.059662
#
#
# Mechanical properties :
#
#
# Convention : Reuss Voigt Hill
#
# Bulk Modulus (GPa) = 35.73624 53.01262 44.37443
# Shear Modulus (GPa) = 24.00423 31.55190 27.77807
#
# Velocity S-wave (km/s) = 3.39203 3.88892 3.64894
# Velocity P-wave (km/s) = 5.69829 6.75095 6.24683
#
# Compressibility (1/GPa) = 0.02798280
#
# Stress axis : x y z
#
# Youngs Moduli (GPa) = 94.76119 43.60869 72.50375
#
# Poissons Ratio (x) = 0.12193 0.42585
# Poissons Ratio (y) = 0.26495 0.07086
# Poissons Ratio (z) = 0.55658 0.04262
#
# Static dielectric constant tensor:
#      x y z
#    x 4.489340 -0.489990 0.780920 
#    y -0.489990 3.773330 -0.140730 
#    z 0.780920 -0.140730 4.044350 
# 
# 
# High freq. dielectric constant tensor:
#      x y z
#    x 1.816250 -0.013120 0.026020 
#    y -0.013120 1.828250 0.010730 
#    z 0.026020 0.010730 1.812250 
# 
# From -- ./inp_files/537300.got.cif
#   From: 2010.06.25/outbox.cif.g09.slc.cpg/sg2_269_cif.got.tgz:537300.got - 2010.06.27 13:26:56.
