data_PCOD8039562
_publ_section_title
;
Structure prediction by ZEFSAII (Michael W. Deem and Ramdas Pophale) SiO2 
 PCOD8039562
Probable space group: P -1
;
_chemical_formula_sum "Si O2"
_cell_formula_units_Z 16
_cell_length_a 22.088333
_cell_length_b 12.490699
_cell_length_c 9.166702
_cell_angle_alpha 118.219909
_cell_angle_beta 128.783067
_cell_angle_gamma 24.262730
_cell_volume 771.123085
_symmetry_space_group_name_H-M "P -1"
_symmetry_group_IT_number 2
_symmetry_cell_setting 'triclinic'
loop_
_space_group_symop_operation_xyz
x,y,z
-x,-y,-z
loop_
_atom_site_type_symbol
_atom_site_label
_atom_site_fract_x
_atom_site_fract_y
_atom_site_fract_z
Si Si1 0.150979 0.209216 0.799599
Si Si2 0.907830 0.041829 0.001811
Si Si3 0.662050 0.180593 0.666154
Si Si4 0.312471 0.485862 0.849698
Si Si5 0.817860 0.590547 0.380934
Si Si6 0.961307 0.382086 0.140349
Si Si7 0.561214 0.286171 0.899213
Si Si8 0.411767 0.873377 0.725573
O O1 0.153787 0.350068 0.933266
O O2 0.270869 0.017112 0.717020
O O3 0.957230 0.437602 0.614204
O O4 0.236387 0.019942 0.943770
O O5 0.726257 0.232243 0.792662
O O6 0.855555 0.189572 0.164765
O O7 0.046347 0.735308 0.037792
O O8 0.000000 0.000000 0.000000
O O9 0.545143 0.300890 0.429985
O O10 0.551997 0.300914 0.720994
O O11 0.838093 0.851432 0.707785
O O12 0.433028 0.364380 0.822078
O O13 0.413149 0.334633 0.059002
O O14 0.255614 0.432200 0.681039
O O15 0.906912 0.438993 0.262513
O O16 0.660632 0.907510 0.329425
O O17 0.500000 0.500000 0.000000
#
# Coordination Sequence:
#
# PCOD8039562 Si02
#       8
#     2   2   2   2   2   2   2   2
#     4  10  19  36  64  84 110 153 198 227 288 339
#     4  10  18  34  56  87 114 141 187 242 283 323
#     4  10  19  37  59  77 120 148 193 232 272 343
#     4  11  22  35  60  84 120 151 187 234 297 328
#     4  11  17  37  60  87 118 141 194 244 284 333
#     4   9  17  33  60  87 107 143 192 246 269 329
#     4  11  23  41  55  83 117 159 188 227 286 358
#     4  10  20  36  58  92 109 152 191 241 281 338
#
# _framework density 20.748957999999998
#
# number of rings (size 3 to 8) (size 9 to 14) (size 15 to 20)
#    0.750    1.000    5.000    1.125    0.000    1.000 
#    2.250    1.250    5.500    0.000    0.000    0.000 
#    0.000    0.000    0.000    0.000    0.000    0.000 
#
# Total GULP energy -198216.026749 kJ/mol
# GULP energy per Si atom -12388.501672 kJ/mol
# Density = 2.070173 g / cm^3
# Si number density = 20.748958 Si / 1000 Ang^3
#
#
#
# Elastic Constant Matrix: (Units=GPa)
#
#
# Indices 1 2 3 4 5 6 
#
# 1 106.1574 26.5937 40.0244 6.7444 17.0277 -5.0494
# 2 26.5937 36.1731 11.8134 -1.6310 6.9180 3.0461
# 3 40.0244 11.8134 60.2371 7.7775 9.8132 5.1584
# 4 6.7444 -1.6310 7.7775 24.4016 6.0436 -1.3280
# 5 17.0277 6.9180 9.8132 6.0436 23.3506 10.2930
# 6 -5.0494 3.0461 5.1584 -1.3280 10.2930 31.6512
#
#
#
# Elastic Compliance Matrix: (Units=1/GPa)
#
#
# Indices 1 2 3 4 5 6 
#
# 1 0.016637 -0.008216 -0.008602 0.000443 -0.009739 0.008032
# 2 -0.008216 0.035436 -0.001324 0.005950 -0.004219 -0.002884
# 3 -0.008602 -0.001324 0.023686 -0.005721 0.000639 -0.005553
# 4 0.000443 0.005950 -0.005721 0.047228 -0.015138 0.007335
# 5 -0.009739 -0.004219 0.000639 -0.015138 0.064972 -0.023016
# 6 0.008032 -0.002884 -0.005553 0.007335 -0.023016 0.041851
#
#
# Mechanical properties :
#
#
# Convention : Reuss Voigt Hill
#
# Bulk Modulus (GPa) = 25.33249 39.93672 32.63461
# Shear Modulus (GPa) = 17.90489 24.15641 21.03065
#
# Velocity S-wave (km/s) = 2.94075 3.41577 3.18713
# Velocity P-wave (km/s) = 4.87506 5.90305 5.41352
#
# Compressibility (1/GPa) = 0.03947499
#
# Stress axis : x y z
#
# Youngs Moduli (GPa) = 60.10557 28.22010 42.21835
#
# Poissons Ratio (x) = 0.23186 0.36316
# Poissons Ratio (y) = 0.49384 0.05590
# Poissons Ratio (z) = 0.51703 0.03737
#
# Static dielectric constant tensor:
#      x y z
#    x 5.035440 -0.140810 -0.574560 
#    y -0.140810 4.029040 0.216650 
#    z -0.574560 0.216650 3.817700 
# 
# 
# High freq. dielectric constant tensor:
#      x y z
#    x 1.796800 0.004030 0.016490 
#    y 0.004030 1.828030 0.019290 
#    z 0.016490 0.019290 1.772670 
# 
# From -- ./inp_files/345530.got.cif
#   From: 2010.06.25/outbox.cif.g09.slc.cpg/sg2_173_cif.got.tgz:345530.got - 2010.06.27 13:26:56.
