data_PCOD8039402
_publ_section_title
;
Structure prediction by ZEFSAII (Michael W. Deem and Ramdas Pophale) SiO2 
 PCOD8039402
Probable space group: P -1
;
_chemical_formula_sum "Si O2"
_cell_formula_units_Z 14
_cell_length_a 12.399230
_cell_length_b 12.242791
_cell_length_c 9.258275
_cell_angle_alpha 48.331276
_cell_angle_beta 126.459943
_cell_angle_gamma 96.678660
_cell_volume 747.960516
_symmetry_space_group_name_H-M "P -1"
_symmetry_group_IT_number 2
_symmetry_cell_setting 'triclinic'
loop_
_space_group_symop_operation_xyz
x,y,z
-x,-y,-z
loop_
_atom_site_type_symbol
_atom_site_label
_atom_site_fract_x
_atom_site_fract_y
_atom_site_fract_z
Si Si1 0.143774 0.284437 0.566314
Si Si2 0.876103 0.530332 0.997214
Si Si3 0.360291 0.753982 0.228076
Si Si4 0.313558 0.457184 0.405534
Si Si5 0.311493 0.083956 0.430569
Si Si6 0.839632 0.001795 0.369403
Si Si7 0.657189 0.974936 0.825503
O O1 0.222419 0.395890 0.489596
O O2 0.167476 0.150135 0.582266
O O3 0.961541 0.412617 0.307330
O O4 0.216821 0.196701 0.852684
O O5 0.763579 0.476146 0.872203
O O6 0.781827 0.718717 0.806689
O O7 0.000000 0.500000 0.000000
O O8 0.334877 0.597329 0.386504
O O9 0.530441 0.701496 0.364916
O O10 0.314023 0.877905 0.217354
O O11 0.265837 0.831909 0.941621
O O12 0.224981 0.998596 0.522153
O O13 0.484576 0.011757 0.688953
O O14 0.312144 0.031670 0.312700
O O15 0.000000 0.000000 0.500000
#
# Coordination Sequence:
#
# PCOD8039402 Si02
#       7
#     2   2   2   2   2   2   2
#     4  10  20  36  59  84 114 148 197 232 285 333
#     4  10  18  33  59  85 109 149 187 242 272 333
#     4  10  20  33  57  87 112 148 195 235 282 330
#     4  10  18  33  60  83 114 147 193 242 274 333
#     4  11  21  38  63  82 120 151 190 233 291 340
#     4  11  21  35  59  87 112 150 195 241 274 333
#     4  10  22  39  59  88 115 154 187 232 289 350
#
# _framework density 18.717563999999999
#
# number of rings (size 3 to 8) (size 9 to 14) (size 15 to 20)
#    0.000    1.714    4.286    1.714    2.000    2.857 
#    0.000    2.857    6.286    3.429    0.000    0.000 
#    0.000    0.000    0.000    0.000    0.000    0.000 
#
# Total GULP energy -173470.621111 kJ/mol
# GULP energy per Si atom -12390.758651 kJ/mol
# Density = 1.867496 g / cm^3
# Si number density = 18.717564 Si / 1000 Ang^3
#
#
#
# Elastic Constant Matrix: (Units=GPa)
#
#
# Indices 1 2 3 4 5 6 
#
# 1 81.2403 30.3715 30.0292 13.0501 0.2528 0.9567
# 2 30.3715 79.5121 29.3553 6.2748 -8.4509 -3.5382
# 3 30.0292 29.3553 138.5784 16.7279 15.8452 -7.1136
# 4 13.0501 6.2748 16.7279 26.4097 0.8777 4.8476
# 5 0.2528 -8.4509 15.8452 0.8777 28.3174 -0.0581
# 6 0.9567 -3.5382 -7.1136 4.8476 -0.0581 21.9182
#
#
#
# Elastic Compliance Matrix: (Units=1/GPa)
#
#
# Indices 1 2 3 4 5 6 
#
# 1 0.015680 -0.005051 -0.001668 -0.005314 -0.000551 -0.000867
# 2 -0.005051 0.016426 -0.003041 -0.000053 0.006654 0.001914
# 3 -0.001668 -0.003041 0.009746 -0.005130 -0.006179 0.003863
# 4 -0.005314 -0.000053 -0.005130 0.045829 0.001458 -0.011574
# 5 -0.000551 0.006654 -0.006179 0.001458 0.040715 -0.001122
# 6 -0.000867 0.001914 0.003863 -0.011574 -0.001122 0.049782
#
#
# Mechanical properties :
#
#
# Convention : Reuss Voigt Hill
#
# Bulk Modulus (GPa) = 44.78126 53.20476 48.99301
# Shear Modulus (GPa) = 24.37364 29.30071 26.83718
#
# Velocity S-wave (km/s) = 3.61249 3.96082 3.79066
# Velocity P-wave (km/s) = 6.43248 7.02881 6.73725
#
# Compressibility (1/GPa) = 0.02233077
#
# Stress axis : x y z
#
# Youngs Moduli (GPa) = 63.77730 60.88084 102.60849
#
# Poissons Ratio (x) = 0.30753 0.17112
# Poissons Ratio (y) = 0.32216 0.31204
# Poissons Ratio (z) = 0.10636 0.18514
#
# Static dielectric constant tensor:
#      x y z
#    x 3.187240 0.158410 0.353250 
#    y 0.158410 3.538700 0.175340 
#    z 0.353250 0.175340 4.271200 
# 
# 
# High freq. dielectric constant tensor:
#      x y z
#    x 1.691350 0.011530 0.020730 
#    y 0.011530 1.726490 0.000000 
#    z 0.020730 0.000000 1.752270 
# 
# From -- ./inp_files/174475.got.cif
#   From: 2010.06.25/outbox.cif.g09.slc.cpg/sg2_88_cif.got.tgz:174475.got - 2010.06.27 13:26:56.
