data_PCOD8039684
_publ_section_title
;
Structure prediction by ZEFSAII (Michael W. Deem and Ramdas Pophale) SiO2 
 PCOD8039684
Probable space group: P -1
;
_chemical_formula_sum "Si O2"
_cell_formula_units_Z 16
_cell_length_a 13.658389
_cell_length_b 9.203723
_cell_length_c 11.827174
_cell_angle_alpha 129.667984
_cell_angle_beta 58.160283
_cell_angle_gamma 136.446936
_cell_volume 782.627604
_symmetry_space_group_name_H-M "P -1"
_symmetry_group_IT_number 2
_symmetry_cell_setting 'triclinic'
loop_
_space_group_symop_operation_xyz
x,y,z
-x,-y,-z
loop_
_atom_site_type_symbol
_atom_site_label
_atom_site_fract_x
_atom_site_fract_y
_atom_site_fract_z
Si Si1 0.909667 0.961735 0.243854
Si Si2 0.153501 0.726475 0.489877
Si Si3 0.802636 0.590774 0.320963
Si Si4 0.766048 0.589386 0.737978
Si Si5 0.433751 0.745129 0.863139
Si Si6 0.901238 0.275622 0.732188
Si Si7 0.302511 0.238234 0.335023
Si Si8 0.229367 0.446717 0.026540
O O1 0.874857 0.805383 0.297203
O O2 0.808861 0.053065 0.348397
O O3 0.883417 0.822547 0.075922
O O4 0.070385 0.190194 0.265470
O O5 0.260891 0.654924 0.406162
O O6 0.152317 0.802531 0.400829
O O7 0.000000 0.500000 0.500000
O O8 0.689575 0.345369 0.202035
O O9 0.724408 0.631461 0.487915
O O10 0.926614 0.577040 0.289974
O O11 0.674976 0.637399 0.737892
O O12 0.718735 0.551523 0.878443
O O13 0.551487 0.734380 0.721164
O O14 0.367592 0.569697 0.922897
O O15 0.500000 0.000000 0.000000
O O16 0.851590 0.432921 0.882343
O O17 0.827269 0.037695 0.731636
#
# Coordination Sequence:
#
# PCOD8039684 Si02
#       8
#     2   2   2   2   2   2   2   2
#     4  10  18  34  59  91 125 153 199 251 312 355
#     4   9  18  33  56  90 124 156 190 255 310 352
#     4  11  22  37  65  96 119 155 210 256 304 355
#     4  10  21  36  59  90 123 160 200 251 306 360
#     4  11  25  43  60  87 128 169 202 247 305 366
#     4  11  20  37  65  95 121 153 205 262 304 356
#     4  12  22  40  64  91 126 161 203 254 301 362
#     4  10  23  39  61  88 126 166 200 245 309 367
#
# _framework density 20.443950000000001
#
# number of rings (size 3 to 8) (size 9 to 14) (size 15 to 20)
#    0.000    1.500    3.750    2.625    0.000    3.500 
#    0.000    1.250    0.000    3.750    0.000    0.000 
#    0.000    0.000    0.000    0.000    0.000    0.000 
#
# Total GULP energy -198291.905887 kJ/mol
# GULP energy per Si atom -12393.244118 kJ/mol
# Density = 2.039742 g / cm^3
# Si number density = 20.443950 Si / 1000 Ang^3
#
#
#
# Elastic Constant Matrix: (Units=GPa)
#
#
# Indices 1 2 3 4 5 6 
#
# 1 76.8211 30.7276 27.0884 2.3335 -0.9604 -1.4999
# 2 30.7276 60.6517 33.1317 3.8256 0.6533 -0.4376
# 3 27.0884 33.1317 121.0047 11.1528 -1.9079 0.6641
# 4 2.3335 3.8256 11.1528 42.7801 0.8097 -1.0603
# 5 -0.9604 0.6533 -1.9079 0.8097 20.0670 -5.3219
# 6 -1.4999 -0.4376 0.6641 -1.0603 -5.3219 33.3007
#
#
#
# Elastic Compliance Matrix: (Units=1/GPa)
#
#
# Indices 1 2 3 4 5 6 
#
# 1 0.016646 -0.007541 -0.001668 0.000202 0.001105 0.000867
# 2 -0.007541 0.022835 -0.004549 -0.000420 -0.001577 -0.000214
# 3 -0.001668 -0.004549 0.010100 -0.002161 0.001053 -0.000237
# 4 0.000202 -0.000420 -0.002161 0.024000 -0.000977 0.000655
# 5 0.001105 -0.001577 0.001053 -0.000977 0.052287 0.008333
# 6 0.000867 -0.000214 -0.000237 0.000655 0.008333 0.031423
#
#
# Mechanical properties :
#
#
# Convention : Reuss Voigt Hill
#
# Bulk Modulus (GPa) = 45.31854 48.93032 47.12443
# Shear Modulus (GPa) = 26.01977 30.39820 28.20899
#
# Velocity S-wave (km/s) = 3.57141 3.86022 3.71862
# Velocity P-wave (km/s) = 6.26275 6.62226 6.44501
#
# Compressibility (1/GPa) = 0.02206602
#
# Stress axis : x y z
#
# Youngs Moduli (GPa) = 60.07398 43.79264 99.00841
#
# Poissons Ratio (x) = 0.33023 0.16511
# Poissons Ratio (y) = 0.45300 0.45041
# Poissons Ratio (z) = 0.10018 0.19922
#
# Static dielectric constant tensor:
#      x y z
#    x 3.593700 -0.214750 -0.156290 
#    y -0.214750 3.791950 0.100300 
#    z -0.156290 0.100300 4.011350 
# 
# 
# High freq. dielectric constant tensor:
#      x y z
#    x 1.770040 -0.018020 -0.008000 
#    y -0.018020 1.795310 -0.002920 
#    z -0.008000 -0.002920 1.814850 
# 
# From -- ./inp_files/190787.got.cif
#   From: 2010.06.25/outbox.cif.g09.slc.cpg/sg2_96_cif.got.tgz:190787.got - 2010.06.27 13:26:56.
