data_PCOD8039487
_publ_section_title
;
Structure prediction by ZEFSAII (Michael W. Deem and Ramdas Pophale) SiO2 
 PCOD8039487
Probable space group: P -1
;
_chemical_formula_sum "Si O2"
_cell_formula_units_Z 16
_cell_length_a 11.807289
_cell_length_b 22.144953
_cell_length_c 22.020096
_cell_angle_alpha 161.512731
_cell_angle_beta 30.579166
_cell_angle_gamma 149.555899
_cell_volume 890.866811
_symmetry_space_group_name_H-M "P -1"
_symmetry_group_IT_number 2
_symmetry_cell_setting 'triclinic'
loop_
_space_group_symop_operation_xyz
x,y,z
-x,-y,-z
loop_
_atom_site_type_symbol
_atom_site_label
_atom_site_fract_x
_atom_site_fract_y
_atom_site_fract_z
Si Si1 0.508974 0.322980 0.783410
Si Si2 0.703634 0.572790 0.818694
Si Si3 0.088060 0.204826 0.581749
Si Si4 0.738150 0.139891 0.781677
Si Si5 0.512025 0.440969 0.225756
Si Si6 0.266281 0.924010 0.477921
Si Si7 0.030097 0.392947 0.445735
Si Si8 0.362354 0.009787 0.736353
O O1 0.555625 0.415625 0.783994
O O2 0.706659 0.229573 0.629334
O O3 0.272118 0.136729 0.709524
O O4 0.500000 0.500000 0.000000
O O5 0.564275 0.512021 0.761520
O O6 0.962016 0.540904 0.667046
O O7 0.731672 0.797714 0.037976
O O8 0.331780 0.369171 0.629853
O O9 0.916634 0.261961 0.764641
O O10 0.971820 0.186055 0.551077
O O11 0.127188 0.990881 0.369676
O O12 0.514521 0.005019 0.721306
O O13 0.657863 0.280971 0.000937
O O14 0.288763 0.368071 0.303867
O O15 0.488698 0.984749 0.387841
O O16 0.000000 0.500000 0.500000
O O17 0.857332 0.177816 0.333526
#
# Coordination Sequence:
#
# PCOD8039487 Si02
#       8
#     2   2   2   2   2   2   2   2
#     4  11  21  36  57  83 107 139 179 226 281 312
#     4  10  20  33  56  82 112 141 177 227 268 322
#     4  10  20  34  52  77 111 145 173 218 269 320
#     4   9  19  30  50  76 108 146 172 215 264 322
#     4  10  21  33  52  82 112 146 177 209 265 331
#     4  10  22  35  56  82 109 138 180 225 269 327
#     4  10  20  32  52  78 113 149 178 217 263 319
#     4  10  18  34  52  81 112 140 179 219 267 316
#
# _framework density 17.960037
#
# number of rings (size 3 to 8) (size 9 to 14) (size 15 to 20)
#    0.000    2.000    2.500    1.875    3.500    6.500 
#    0.000    0.000    0.000    0.750    0.000    2.625 
#    0.000    0.000    0.000    0.000    0.000    0.000 
#
# Total GULP energy -198217.556397 kJ/mol
# GULP energy per Si atom -12388.597275 kJ/mol
# Density = 1.791916 g / cm^3
# Si number density = 17.960037 Si / 1000 Ang^3
#
#
#
# Elastic Constant Matrix: (Units=GPa)
#
#
# Indices 1 2 3 4 5 6 
#
# 1 70.9125 24.4972 19.5550 8.7734 1.7603 4.6769
# 2 24.4972 80.9819 26.7262 8.0769 -3.3443 12.4951
# 3 19.5550 26.7262 106.6648 5.3018 -1.9775 7.4655
# 4 8.7734 8.0769 5.3018 27.2652 3.0115 -4.7144
# 5 1.7603 -3.3443 -1.9775 3.0115 24.3635 5.1229
# 6 4.6769 12.4951 7.4655 -4.7144 5.1229 20.4343
#
#
#
# Elastic Compliance Matrix: (Units=1/GPa)
#
#
# Indices 1 2 3 4 5 6 
#
# 1 0.016533 -0.003839 -0.001792 -0.003962 -0.001078 -0.001425
# 2 -0.003839 0.016832 -0.002330 -0.005858 0.005497 -0.011292
# 3 -0.001792 -0.002330 0.010574 -0.001413 0.001412 -0.002708
# 4 -0.003962 -0.005858 -0.001413 0.044092 -0.009790 0.017632
# 5 -0.001078 0.005497 0.001412 -0.009790 0.046914 -0.017650
# 6 -0.001425 -0.011292 -0.002708 0.017632 -0.017650 0.065650
#
#
# Mechanical properties :
#
#
# Convention : Reuss Voigt Hill
#
# Bulk Modulus (GPa) = 35.69462 44.45736 40.07599
# Shear Modulus (GPa) = 22.13784 26.93131 24.53458
#
# Velocity S-wave (km/s) = 3.51467 3.87656 3.70004
# Velocity P-wave (km/s) = 6.03226 6.69658 6.37308
#
# Compressibility (1/GPa) = 0.02801542
#
# Stress axis : x y z
#
# Youngs Moduli (GPa) = 60.48368 59.40906 94.57527
#
# Poissons Ratio (x) = 0.22809 0.16952
# Poissons Ratio (y) = 0.23221 0.22039
# Poissons Ratio (z) = 0.10841 0.13844
#
# Static dielectric constant tensor:
#      x y z
#    x 3.220310 0.007590 -0.043790 
#    y 0.007590 3.243630 -0.108540 
#    z -0.043790 -0.108540 3.682450 
# 
# 
# High freq. dielectric constant tensor:
#      x y z
#    x 1.670570 -0.000030 -0.002560 
#    y -0.000030 1.673430 0.010650 
#    z -0.002560 0.010650 1.712880 
# 
# From -- ./inp_files/423555.got.cif
#   From: 2010.06.25/outbox.cif.g09.slc.cpg/sg2_212_cif.got.tgz:423555.got - 2010.06.27 13:26:56.
