data_PCOD8039030
_publ_section_title
;
Structure prediction by ZEFSAII (Michael W. Deem and Ramdas Pophale) SiO2 
 PCOD8039030
Probable space group: P -1
;
_chemical_formula_sum "Si O2"
_cell_formula_units_Z 16
_cell_length_a 10.273116
_cell_length_b 10.985433
_cell_length_c 16.049488
_cell_angle_alpha 39.230689
_cell_angle_beta 125.968557
_cell_angle_gamma 100.727807
_cell_volume 788.972471
_symmetry_space_group_name_H-M "P -1"
_symmetry_group_IT_number 2
_symmetry_cell_setting 'triclinic'
loop_
_space_group_symop_operation_xyz
x,y,z
-x,-y,-z
loop_
_atom_site_type_symbol
_atom_site_label
_atom_site_fract_x
_atom_site_fract_y
_atom_site_fract_z
Si Si1 0.843371 0.308378 0.859298
Si Si2 0.181732 0.599905 0.465394
Si Si3 0.961746 0.700157 0.492390
Si Si4 0.577337 0.800500 0.476068
Si Si5 0.516451 0.546797 0.715866
Si Si6 0.336378 0.524195 0.823638
Si Si7 0.342220 0.874979 0.750221
Si Si8 0.781710 0.081649 0.810753
O O1 0.762212 0.554332 0.655108
O O2 0.737119 0.350925 0.886700
O O3 0.793287 0.145951 0.875632
O O4 0.070526 0.184536 0.014281
O O5 0.157221 0.419442 0.500019
O O6 0.389774 0.480564 0.647887
O O7 0.147740 0.790305 0.287943
O O8 0.025691 0.727362 0.410859
O O9 0.147697 0.551298 0.699095
O O10 0.826253 0.947941 0.347958
O O11 0.491347 0.782854 0.542962
O O12 0.429042 0.854305 0.318215
O O13 0.626952 0.994310 0.384400
O O14 0.461050 0.566370 0.780668
O O15 0.278710 0.711977 0.773810
O O16 0.465992 0.274035 0.044306
#
# Coordination Sequence:
#
# PCOD8039030 Si02
#       8
#     2   2   2   2   2   2   2   2
#     4   9  19  30  53  82 110 146 174 218 280 334
#     4   9  19  35  57  85 118 144 182 221 279 345
#     4  10  21  38  56  83 115 150 182 229 278 331
#     4   9  20  34  54  83 108 143 178 233 272 326
#     4   8  19  38  57  80 118 140 179 229 277 328
#     4  10  23  42  55  83 108 148 199 232 265 332
#     4  11  23  37  63  78 110 152 190 233 278 314
#     4  10  18  32  53  82 114 142 180 222 274 335
#
# _framework density 20.279541999999999
#
# number of rings (size 3 to 8) (size 9 to 14) (size 15 to 20)
#    0.750    1.750    0.000    1.500    3.500    3.500 
#    0.000    1.875    0.000    0.750    0.000    0.000 
#    0.000    0.000    0.000    0.000    0.000    0.000 
#
# Total GULP energy -198225.979698 kJ/mol
# GULP energy per Si atom -12389.123731 kJ/mol
# Density = 2.023338 g / cm^3
# Si number density = 20.279542 Si / 1000 Ang^3
#
#
#
# Elastic Constant Matrix: (Units=GPa)
#
#
# Indices 1 2 3 4 5 6 
#
# 1 62.7074 15.5040 17.7770 -13.6475 -4.7353 -6.6676
# 2 15.5040 59.9080 24.4326 -6.8957 5.3951 -11.2154
# 3 17.7770 24.4326 92.2489 -20.6271 12.1164 -7.6459
# 4 -13.6475 -6.8957 -20.6271 23.7495 -3.5591 2.1084
# 5 -4.7353 5.3951 12.1164 -3.5591 18.2287 -2.5059
# 6 -6.6676 -11.2154 -7.6459 2.1084 -2.5059 27.0227
#
#
#
# Elastic Compliance Matrix: (Units=1/GPa)
#
#
# Indices 1 2 3 4 5 6 
#
# 1 0.020778 -0.003780 -0.001701 0.010603 0.010156 0.003191
# 2 -0.003780 0.020691 -0.003882 -0.000661 -0.003794 0.006256
# 3 -0.001701 -0.003882 0.015532 0.010182 -0.007509 0.000873
# 4 0.010603 -0.000661 0.010182 0.057875 0.007677 0.001419
# 5 0.010156 -0.003794 -0.007509 0.007677 0.065701 0.004300
# 6 0.003191 0.006256 0.000873 0.001419 0.004300 0.040925
#
#
# Mechanical properties :
#
#
# Convention : Reuss Voigt Hill
#
# Bulk Modulus (GPa) = 26.12849 36.69903 31.41376
# Shear Modulus (GPa) = 19.76390 24.27690 22.02040
#
# Velocity S-wave (km/s) = 3.12520 3.46369 3.29879
# Velocity P-wave (km/s) = 5.09261 5.84226 5.48027
#
# Compressibility (1/GPa) = 0.03827241
#
# Stress axis : x y z
#
# Youngs Moduli (GPa) = 48.12797 48.33075 64.38463
#
# Poissons Ratio (x) = 0.18269 0.10954
# Poissons Ratio (y) = 0.18193 0.24997
# Poissons Ratio (z) = 0.08188 0.18764
#
# Static dielectric constant tensor:
#      x y z
#    x 3.685020 -0.053240 0.056740 
#    y -0.053240 3.346640 0.022550 
#    z 0.056740 0.022550 3.689340 
# 
# 
# High freq. dielectric constant tensor:
#      x y z
#    x 1.793360 -0.008100 0.005610 
#    y -0.008100 1.763910 0.000340 
#    z 0.005610 0.000340 1.788140 
# 
# From -- ./inp_files/280706.got.cif
#   From: 2010.06.25/outbox.cif.g09.slc.cpg/sg2_141_cif.got.tgz:280706.got - 2010.06.27 13:26:56.
