data_PCOD8039481
_publ_section_title
;
Structure prediction by ZEFSAII (Michael W. Deem and Ramdas Pophale) SiO2 
 PCOD8039481
Probable space group: P -1
;
_chemical_formula_sum "Si O2"
_cell_formula_units_Z 16
_cell_length_a 22.646822
_cell_length_b 13.137849
_cell_length_c 8.397907
_cell_angle_alpha 101.164023
_cell_angle_beta 63.691513
_cell_angle_gamma 154.327466
_cell_volume 822.846555
_symmetry_space_group_name_H-M "P -1"
_symmetry_group_IT_number 2
_symmetry_cell_setting 'triclinic'
loop_
_space_group_symop_operation_xyz
x,y,z
-x,-y,-z
loop_
_atom_site_type_symbol
_atom_site_label
_atom_site_fract_x
_atom_site_fract_y
_atom_site_fract_z
Si Si1 0.645958 0.782412 0.326330
Si Si2 0.897555 0.847886 0.332711
Si Si3 0.204926 0.834069 0.503341
Si Si4 0.839472 0.630383 0.631992
Si Si5 0.206244 0.208699 0.871502
Si Si6 0.974609 0.310989 0.604680
Si Si7 0.462499 0.703546 0.938195
Si Si8 0.603103 0.747917 0.017265
O O1 0.500000 0.500000 0.500000
O O2 0.803460 0.930576 0.155588
O O3 0.567288 0.708601 0.233619
O O4 0.711214 0.979271 0.397840
O O5 0.804788 0.631762 0.499803
O O6 0.767817 0.713499 0.319424
O O7 0.992630 0.072842 0.394444
O O8 0.028014 0.978566 0.100113
O O9 0.098632 0.761533 0.501520
O O10 0.074081 0.554362 0.640065
O O11 0.358688 0.997777 0.270950
O O12 0.883521 0.573928 0.545338
O O13 0.667314 0.393504 0.879372
O O14 0.370273 0.489792 0.861879
O O15 0.811453 0.038157 0.825553
O O16 0.520432 0.729050 0.034855
O O17 0.500000 0.500000 0.000000
#
# Coordination Sequence:
#
# PCOD8039481 Si02
#       8
#     2   2   2   2   2   2   2   2
#     4  12  21  33  61  86 113 150 188 240 289 340
#     4   9  20  31  53  81 120 142 186 239 290 347
#     4  10  22  40  58  85 117 153 201 231 288 346
#     4  10  20  34  57  83 112 157 189 234 295 337
#     4  10  18  34  51  84 115 146 184 244 292 333
#     4  10  22  41  60  80 119 159 189 241 284 349
#     4  10  21  36  56  86 116 149 193 242 283 341
#     4  11  22  37  59  88 120 145 193 243 292 342
#
# _framework density 19.444694999999999
#
# number of rings (size 3 to 8) (size 9 to 14) (size 15 to 20)
#    0.000    1.750    2.500    2.250    5.250    1.000 
#    0.000    0.000    0.000    3.000    0.000    0.000 
#    0.000    0.000    0.000    0.000    0.000    0.000 
#
# Total GULP energy -198322.340034 kJ/mol
# GULP energy per Si atom -12395.146252 kJ/mol
# Density = 1.940044 g / cm^3
# Si number density = 19.444695 Si / 1000 Ang^3
#
#
#
# Elastic Constant Matrix: (Units=GPa)
#
#
# Indices 1 2 3 4 5 6 
#
# 1 82.2231 37.1676 38.0656 10.2209 0.1032 5.7435
# 2 37.1676 113.8403 55.2637 5.8208 10.8246 -1.3493
# 3 38.0656 55.2637 86.1650 0.3031 8.4997 -2.7887
# 4 10.2209 5.8208 0.3031 31.8106 6.4603 6.5629
# 5 0.1032 10.8246 8.4997 6.4603 29.8012 7.8145
# 6 5.7435 -1.3493 -2.7887 6.5629 7.8145 30.0824
#
#
#
# Elastic Compliance Matrix: (Units=1/GPa)
#
#
# Indices 1 2 3 4 5 6 
#
# 1 0.017356 -0.002774 -0.006503 -0.005157 0.005027 -0.004222
# 2 -0.002774 0.013492 -0.007077 -0.001213 -0.003009 0.001525
# 3 -0.006503 -0.007077 0.019558 0.003472 -0.004568 0.003166
# 4 -0.005157 -0.001213 0.003472 0.035681 -0.007033 -0.004705
# 5 0.005027 -0.003009 -0.004568 -0.007033 0.040192 -0.010425
# 6 -0.004222 0.001525 0.003166 -0.004705 -0.010425 0.038145
#
#
# Mechanical properties :
#
#
# Convention : Reuss Voigt Hill
#
# Bulk Modulus (GPa) = 56.50286 60.35803 58.43045
# Shear Modulus (GPa) = 24.62668 28.45429 26.54049
#
# Velocity S-wave (km/s) = 3.56265 3.82952 3.69849
# Velocity P-wave (km/s) = 6.78562 7.11772 6.95365
#
# Compressibility (1/GPa) = 0.01769822
#
# Stress axis : x y z
#
# Youngs Moduli (GPa) = 57.61650 74.11850 51.12918
#
# Poissons Ratio (x) = 0.20563 0.33247
# Poissons Ratio (y) = 0.15985 0.36185
# Poissons Ratio (z) = 0.37466 0.52455
#
# Static dielectric constant tensor:
#      x y z
#    x 4.126330 0.248690 -0.013950 
#    y 0.248690 3.444260 0.088770 
#    z -0.013950 0.088770 3.702200 
# 
# 
# High freq. dielectric constant tensor:
#      x y z
#    x 1.760170 0.013880 -0.007410 
#    y 0.013880 1.734020 0.009830 
#    z -0.007410 0.009830 1.762460 
# 
# From -- ./inp_files/272094.got.cif
#   From: 2010.06.25/outbox.cif.g09.slc.cpg/sg2_137_cif.got.tgz:272094.got - 2010.06.27 13:26:56.
