data_PCOD8039101
_publ_section_title
;
Structure prediction by ZEFSAII (Michael W. Deem and Ramdas Pophale) SiO2 
 PCOD8039101
Probable space group: P -1
;
_chemical_formula_sum "Si O2"
_cell_formula_units_Z 16
_cell_length_a 12.496281
_cell_length_b 13.538609
_cell_length_c 16.595325
_cell_angle_alpha 157.066701
_cell_angle_beta 131.968625
_cell_angle_gamma 47.333399
_cell_volume 794.655781
_symmetry_space_group_name_H-M "P -1"
_symmetry_group_IT_number 2
_symmetry_cell_setting 'triclinic'
loop_
_space_group_symop_operation_xyz
x,y,z
-x,-y,-z
loop_
_atom_site_type_symbol
_atom_site_label
_atom_site_fract_x
_atom_site_fract_y
_atom_site_fract_z
Si Si1 0.294749 0.882234 0.560273
Si Si2 0.883397 0.074824 0.877840
Si Si3 0.779497 0.045446 0.235509
Si Si4 0.582750 0.553934 0.503283
Si Si5 0.848529 0.805640 0.812910
Si Si6 0.959151 0.732685 0.516942
Si Si7 0.904778 0.483826 0.859934
Si Si8 0.165113 0.384873 0.793308
O O1 0.252683 0.898398 0.644672
O O2 0.460260 0.714548 0.501869
O O3 0.180123 0.751691 0.354518
O O4 0.286042 0.175430 0.744831
O O5 0.810413 0.023898 0.887992
O O6 0.790028 0.337217 0.986264
O O7 0.876582 0.840463 0.638145
O O8 0.054869 0.099278 0.996434
O O9 0.664220 0.268980 0.295650
O O10 0.944013 0.069610 0.316773
O O11 0.777807 0.749770 0.987712
O O12 0.500000 0.500000 0.500000
O O13 0.700694 0.731711 0.717751
O O14 0.947137 0.552253 0.630410
O O15 0.842229 0.724322 0.382051
O O16 0.007509 0.433011 0.795100
O O17 0.000000 0.500000 0.000000
#
# Coordination Sequence:
#
# PCOD8039101 Si02
#       8
#     2   2   2   2   2   2   2   2
#     4  11  22  36  51  79 122 151 182 227 276 336
#     4  10  20  34  60  84 111 141 187 241 275 322
#     4  10  19  34  54  82 111 149 184 223 280 333
#     4   9  21  38  59  79 117 154 179 221 277 342
#     4   9  20  38  56  85 111 144 189 227 280 327
#     4  10  18  32  56  84 110 141 180 236 288 322
#     4  12  21  32  56  82 115 146 186 237 282 326
#     4  11  21  32  53  85 112 145 185 233 284 327
#
# _framework density 20.134505000000001
#
# number of rings (size 3 to 8) (size 9 to 14) (size 15 to 20)
#    0.000    1.750    3.750    1.500    1.750    0.500 
#    0.000    4.375    0.000    0.750    0.000    0.000 
#    0.000    0.000    0.000    0.000    0.000    0.000 
#
# Total GULP energy -198284.905803 kJ/mol
# GULP energy per Si atom -12392.806613 kJ/mol
# Density = 2.008868 g / cm^3
# Si number density = 20.134505 Si / 1000 Ang^3
#
#
#
# Elastic Constant Matrix: (Units=GPa)
#
#
# Indices 1 2 3 4 5 6 
#
# 1 46.3966 24.5148 17.1925 -0.8077 7.7724 1.6554
# 2 24.5148 111.6772 29.4909 25.3599 -3.1505 -2.7841
# 3 17.1925 29.4909 81.4426 6.9770 -10.7137 -1.8746
# 4 -0.8077 25.3599 6.9770 36.6396 5.2421 -2.2546
# 5 7.7724 -3.1505 -10.7137 5.2421 31.3998 4.1289
# 6 1.6554 -2.7841 -1.8746 -2.2546 4.1289 24.8827
#
#
#
# Elastic Compliance Matrix: (Units=1/GPa)
#
#
# Indices 1 2 3 4 5 6 
#
# 1 0.029584 -0.007168 -0.005870 0.008321 -0.011359 -0.000574
# 2 -0.007168 0.013341 -0.001964 -0.009572 0.004003 0.000290
# 3 -0.005870 -0.001964 0.015374 -0.002698 0.006961 -0.000071
# 4 0.008321 -0.009572 -0.002698 0.036303 -0.010421 0.003191
# 5 -0.011359 0.004003 0.006961 -0.010421 0.039944 -0.005844
# 6 -0.000574 0.000290 -0.000071 0.003191 -0.005844 0.041513
#
#
# Mechanical properties :
#
#
# Convention : Reuss Voigt Hill
#
# Bulk Modulus (GPa) = 35.34313 42.43475 38.88894
# Shear Modulus (GPa) = 23.20246 29.80563 26.50404
#
# Velocity S-wave (km/s) = 3.39834 3.85167 3.63209
# Velocity P-wave (km/s) = 5.74369 6.39546 6.07832
#
# Compressibility (1/GPa) = 0.02829405
#
# Stress axis : x y z
#
# Youngs Moduli (GPa) = 33.80192 74.95960 65.04429
#
# Poissons Ratio (x) = 0.53735 0.38179
# Poissons Ratio (y) = 0.24231 0.12776
# Poissons Ratio (z) = 0.19841 0.14723
#
# Static dielectric constant tensor:
#      x y z
#    x 3.375070 -0.009700 -0.019910 
#    y -0.009700 4.024620 0.386000 
#    z -0.019910 0.386000 3.808990 
# 
# 
# High freq. dielectric constant tensor:
#      x y z
#    x 1.747210 0.021650 -0.004090 
#    y 0.021650 1.777940 0.026940 
#    z -0.004090 0.026940 1.786710 
# 
# From -- ./inp_files/117868.got.cif
#   From: 2010.06.25/outbox.cif.g09.slc.cpg/sg2_59_cif.got.tgz:117868.got - 2010.06.27 13:26:56.
