data_PCOD8039990
_publ_section_title
;
Structure prediction by ZEFSAII (Michael W. Deem and Ramdas Pophale) SiO2 
 PCOD8039990
Probable space group: P -1
;
_chemical_formula_sum "Si O2"
_cell_formula_units_Z 16
_cell_length_a 11.690078
_cell_length_b 9.131224
_cell_length_c 9.186250
_cell_angle_alpha 113.576167
_cell_angle_beta 103.249675
_cell_angle_gamma 59.201941
_cell_volume 771.620644
_symmetry_space_group_name_H-M "P -1"
_symmetry_group_IT_number 2
_symmetry_cell_setting 'triclinic'
loop_
_space_group_symop_operation_xyz
x,y,z
-x,-y,-z
loop_
_atom_site_type_symbol
_atom_site_label
_atom_site_fract_x
_atom_site_fract_y
_atom_site_fract_z
Si Si1 0.595238 0.382583 0.708508
Si Si2 0.802199 0.451189 0.926129
Si Si3 0.796203 0.675590 0.751413
Si Si4 0.394937 0.324056 0.798515
Si Si5 0.384686 0.721393 0.628285
Si Si6 0.195231 0.562602 0.602380
Si Si7 0.503724 0.047055 0.184351
Si Si8 0.002635 0.807741 0.887463
O O1 0.745165 0.333524 0.777791
O O2 0.513116 0.373653 0.820027
O O3 0.523694 0.575937 0.682849
O O4 0.604387 0.247089 0.528636
O O5 0.844202 0.561587 0.869794
O O6 0.675376 0.588350 0.036889
O O7 0.927082 0.323166 0.008453
O O8 0.851093 0.527130 0.576098
O O9 0.637269 0.789999 0.739832
O O10 0.858573 0.815463 0.827546
O O11 0.290596 0.394184 0.663879
O O12 0.461851 0.110136 0.751445
O O13 0.267051 0.674248 0.606489
O O14 0.372000 0.907471 0.761577
O O15 0.076594 0.716541 0.722418
O O16 0.500000 0.000000 0.000000
O O17 0.000000 0.000000 0.000000
#
# Coordination Sequence:
#
# PCOD8039990 Si02
#       8
#     2   2   2   2   2   2   2   2
#     4  10  18  35  60  91 124 165 208 251 321 385
#     4  11  21  42  64  89 124 174 216 258 324 381
#     4  12  23  44  67  93 130 177 213 259 325 382
#     4  10  22  35  61 100 132 168 201 261 322 390
#     4  10  19  36  62  93 130 161 206 257 320 388
#     4  10  23  45  70  90 130 173 216 261 324 390
#     4  12  23  36  63 101 139 164 207 262 322 384
#     4  11  28  45  66  93 124 167 228 279 310 370
#
# _framework density 20.735578
#
# number of rings (size 3 to 8) (size 9 to 14) (size 15 to 20)
#    0.000    1.250    3.750    2.625    3.500    3.000 
#    0.000    0.625    0.000    0.000    0.000    0.000 
#    0.000    0.000    0.000    0.000    0.000    0.000 
#
# Total GULP energy -198247.639867 kJ/mol
# GULP energy per Si atom -12390.477492 kJ/mol
# Density = 2.068838 g / cm^3
# Si number density = 20.735578 Si / 1000 Ang^3
#
#
#
# Elastic Constant Matrix: (Units=GPa)
#
#
# Indices 1 2 3 4 5 6 
#
# 1 99.1893 36.6260 50.8989 7.7528 11.1723 19.7976
# 2 36.6260 86.0019 44.0726 5.4953 -3.6299 10.6303
# 3 50.8989 44.0726 118.5156 12.1478 -1.8837 23.8680
# 4 7.7528 5.4953 12.1478 28.9894 6.7314 2.5176
# 5 11.1723 -3.6299 -1.8837 6.7314 39.6394 5.5917
# 6 19.7976 10.6303 23.8680 2.5176 5.5917 23.0924
#
#
#
# Elastic Compliance Matrix: (Units=1/GPa)
#
#
# Indices 1 2 3 4 5 6 
#
# 1 0.015205 -0.003867 -0.003859 -0.000266 -0.003890 -0.006297
# 2 -0.003867 0.015472 -0.003914 -0.000815 0.002498 -0.000278
# 3 -0.003859 -0.003914 0.013980 -0.004041 0.003453 -0.009735
# 4 -0.000266 -0.000815 -0.004041 0.037824 -0.006944 0.002338
# 5 -0.003890 0.002498 0.003453 -0.006944 0.028974 -0.007643
# 6 -0.006297 -0.000278 -0.009735 0.002338 -0.007643 0.060489
#
#
# Mechanical properties :
#
#
# Convention : Reuss Voigt Hill
#
# Bulk Modulus (GPa) = 46.77535 62.98908 54.88221
# Shear Modulus (GPa) = 24.70980 29.81818 27.26399
#
# Velocity S-wave (km/s) = 3.45579 3.79624 3.63001
# Velocity P-wave (km/s) = 6.20728 7.04688 6.64036
#
# Compressibility (1/GPa) = 0.02137878
#
# Stress axis : x y z
#
# Youngs Moduli (GPa) = 65.76600 64.63309 71.53119
#
# Poissons Ratio (x) = 0.24994 0.27601
# Poissons Ratio (y) = 0.25432 0.27994
# Poissons Ratio (z) = 0.25377 0.25295
#
# Static dielectric constant tensor:
#      x y z
#    x 3.720050 0.149930 -0.064750 
#    y 0.149930 3.606050 -0.049360 
#    z -0.064750 -0.049360 3.940610 
# 
# 
# High freq. dielectric constant tensor:
#      x y z
#    x 1.809350 0.021090 0.001320 
#    y 0.021090 1.789370 -0.008320 
#    z 0.001320 -0.008320 1.827950 
# 
# From -- ./inp_files/185686.got.cif
#   From: 2010.06.25/outbox.cif.g09.slc.cpg/sg2_93_cif.got.tgz:185686.got - 2010.06.27 13:26:56.
