data_PCOD8039583
_publ_section_title
;
Structure prediction by ZEFSAII (Michael W. Deem and Ramdas Pophale) SiO2 
 PCOD8039583
Probable space group: P -1
;
_chemical_formula_sum "Si O2"
_cell_formula_units_Z 14
_cell_length_a 20.469348
_cell_length_b 8.973788
_cell_length_c 10.248315
_cell_angle_alpha 136.998635
_cell_angle_beta 38.740321
_cell_angle_gamma 145.497419
_cell_volume 646.141593
_symmetry_space_group_name_H-M "P -1"
_symmetry_group_IT_number 2
_symmetry_cell_setting 'triclinic'
loop_
_space_group_symop_operation_xyz
x,y,z
-x,-y,-z
loop_
_atom_site_type_symbol
_atom_site_label
_atom_site_fract_x
_atom_site_fract_y
_atom_site_fract_z
Si Si1 0.860751 0.052058 0.326788
Si Si2 0.660046 0.878600 0.743991
Si Si3 0.287653 0.084966 0.781843
Si Si4 0.138180 0.443478 0.062903
Si Si5 0.443908 0.703341 0.562009
Si Si6 0.255345 0.863193 0.958317
Si Si7 0.401803 0.677533 0.904062
O O1 0.014669 0.297304 0.256540
O O2 0.789276 0.065722 0.571423
O O3 0.812640 0.094692 0.292608
O O4 0.837862 0.764039 0.169569
O O5 0.604856 0.571836 0.609654
O O6 0.539576 0.905603 0.915111
O O7 0.686939 0.905406 0.873300
O O8 0.408790 0.071344 0.569231
O O9 0.333287 0.393942 0.906360
O O10 0.218158 0.952355 0.944333
O O11 0.127241 0.591901 0.050433
O O12 0.275457 0.687996 0.081598
O O13 0.449667 0.654320 0.675049
O O14 0.359359 0.806644 0.722987
#
# Coordination Sequence:
#
# PCOD8039583 Si02
#       7
#     2   2   2   2   2   2   2
#     4  10  18  38  64  74 106 159 183 220 274 327
#     4  11  19  35  63  81 109 146 184 226 276 319
#     4  10  18  34  57  82 114 146 180 226 279 322
#     4   9  20  35  57  85 105 147 191 221 270 331
#     4  10  18  37  55  81 113 148 178 227 268 333
#     4  11  23  32  55  90 115 137 181 235 276 324
#     4   9  17  35  59  82 106 146 186 225 261 330
#
# _framework density 21.667079999999999
#
# number of rings (size 3 to 8) (size 9 to 14) (size 15 to 20)
#    0.000    2.000    5.714    1.286    0.000    5.714 
#    0.000    0.000    3.143    7.714    0.000    0.000 
#    0.000    0.000    0.000    0.000    0.000    0.000 
#
# Total GULP energy -173497.360439 kJ/mol
# GULP energy per Si atom -12392.668603 kJ/mol
# Density = 2.161776 g / cm^3
# Si number density = 21.667080 Si / 1000 Ang^3
#
#
#
# Elastic Constant Matrix: (Units=GPa)
#
#
# Indices 1 2 3 4 5 6 
#
# 1 75.2406 37.8505 31.0824 -10.7924 19.8685 -3.9368
# 2 37.8505 90.9051 27.8067 -21.7045 4.7863 10.8165
# 3 31.0824 27.8067 96.9023 -0.1125 2.4276 -0.3822
# 4 -10.7924 -21.7045 -0.1125 25.1631 2.7897 3.9234
# 5 19.8685 4.7863 2.4276 2.7897 32.7863 -12.6614
# 6 -3.9368 10.8165 -0.3822 3.9234 -12.6614 44.5054
#
#
#
# Elastic Compliance Matrix: (Units=1/GPa)
#
#
# Indices 1 2 3 4 5 6 
#
# 1 0.022721 -0.005298 -0.005423 0.006858 -0.013656 -0.001239
# 2 -0.005298 0.019241 -0.003743 0.015894 -0.003611 -0.007605
# 3 -0.005423 -0.003743 0.013027 -0.006336 0.004305 0.002325
# 4 0.006858 0.015894 -0.006336 0.060229 -0.016245 -0.013242
# 5 -0.013656 -0.003611 0.004305 -0.016245 0.045843 0.014181
# 6 -0.001239 -0.007605 0.002325 -0.013242 0.014181 0.029430
#
#
# Mechanical properties :
#
#
# Convention : Reuss Voigt Hill
#
# Bulk Modulus (GPa) = 38.36981 50.72525 44.54753
# Shear Modulus (GPa) = 21.91974 31.57818 26.74896
#
# Velocity S-wave (km/s) = 3.18411 3.82177 3.51742
# Velocity P-wave (km/s) = 5.59154 6.55260 6.09106
#
# Compressibility (1/GPa) = 0.02606216
#
# Stress axis : x y z
#
# Youngs Moduli (GPa) = 44.01234 51.97183 76.76320
#
# Poissons Ratio (x) = 0.27534 0.41625
# Poissons Ratio (y) = 0.23317 0.28733
# Poissons Ratio (z) = 0.23866 0.19454
#
# Static dielectric constant tensor:
#      x y z
#    x 3.946390 0.125530 -0.187960 
#    y 0.125530 4.049370 -0.028070 
#    z -0.187960 -0.028070 3.911950 
# 
# 
# High freq. dielectric constant tensor:
#      x y z
#    x 1.832080 0.004070 -0.008720 
#    y 0.004070 1.868380 0.007480 
#    z -0.008720 0.007480 1.851520 
# 
# From -- ./inp_files/178666.got.cif
#   From: 2010.06.25/outbox.cif.g09.slc.cpg/sg2_90_cif.got.tgz:178666.got - 2010.06.27 13:26:56.
