data_PCOD8039235
_publ_section_title
;
Structure prediction by ZEFSAII (Michael W. Deem and Ramdas Pophale) SiO2 
 PCOD8039235
Probable space group: P -1
;
_chemical_formula_sum "Si O2"
_cell_formula_units_Z 16
_cell_length_a 14.684537
_cell_length_b 20.731329
_cell_length_c 8.933539
_cell_angle_alpha 63.939306
_cell_angle_beta 118.912842
_cell_angle_gamma 160.839646
_cell_volume 779.931088
_symmetry_space_group_name_H-M "P -1"
_symmetry_group_IT_number 2
_symmetry_cell_setting 'triclinic'
loop_
_space_group_symop_operation_xyz
x,y,z
-x,-y,-z
loop_
_atom_site_type_symbol
_atom_site_label
_atom_site_fract_x
_atom_site_fract_y
_atom_site_fract_z
Si Si1 0.024473 0.303794 0.085923
Si Si2 0.921105 0.366824 0.740666
Si Si3 0.068063 0.392489 0.354195
Si Si4 0.422443 0.396800 0.681504
Si Si5 0.308698 0.185263 0.627539
Si Si6 0.124181 0.881040 0.419422
Si Si7 0.696503 0.258836 0.360942
Si Si8 0.375085 0.069928 0.748206
O O1 0.056679 0.373779 0.186848
O O2 0.303164 0.431833 0.167193
O O3 0.747596 0.075255 0.105931
O O4 0.002212 0.339472 0.886812
O O5 0.768778 0.261803 0.567004
O O6 0.710972 0.271132 0.788772
O O7 0.206840 0.596407 0.709464
O O8 0.399399 0.617007 0.442456
O O9 0.939543 0.243520 0.492974
O O10 0.857963 0.324095 0.287007
O O11 0.500000 0.500000 0.500000
O O12 0.336256 0.260284 0.705838
O O13 0.164101 0.263016 0.708651
O O14 0.322813 0.109796 0.759814
O O15 0.000000 0.000000 0.500000
O O16 0.352407 0.038787 0.305951
O O17 0.223589 0.977940 0.559214
#
# Coordination Sequence:
#
# PCOD8039235 Si02
#       8
#     2   2   2   2   2   2   2   2
#     4  10  21  35  59  86 113 143 182 243 281 322
#     4  10  21  36  56  84 115 147 187 229 283 327
#     4  10  20  35  57  86 111 144 188 229 281 327
#     4  11  18  35  55  86 113 144 185 232 287 327
#     4  11  18  28  55  87 113 137 184 236 273 324
#     4  10  19  34  57  81 111 150 188 222 276 341
#     4  10  21  37  57  81 112 155 188 221 274 347
#     4  10  18  33  53  83 114 143 183 232 281 322
#
# _framework density 20.514633
#
# number of rings (size 3 to 8) (size 9 to 14) (size 15 to 20)
#    0.000    1.750    6.250    0.750    0.000    0.500 
#    0.000    0.625    0.000    0.750    0.000    0.000 
#    0.000    0.000    0.000    0.000    0.000    0.000 
#
# Total GULP energy -198279.696702 kJ/mol
# GULP energy per Si atom -12392.481044 kJ/mol
# Density = 2.046794 g / cm^3
# Si number density = 20.514633 Si / 1000 Ang^3
#
#
#
# Elastic Constant Matrix: (Units=GPa)
#
#
# Indices 1 2 3 4 5 6 
#
# 1 72.3462 31.3749 10.1052 -6.8657 13.4034 9.5449
# 2 31.3749 132.1626 28.7827 -19.3247 5.4485 20.9983
# 3 10.1052 28.7827 70.0753 -13.7050 23.6486 1.5662
# 4 -6.8657 -19.3247 -13.7050 16.4724 -0.8964 4.0859
# 5 13.4034 5.4485 23.6486 -0.8964 22.6571 -0.7006
# 6 9.5449 20.9983 1.5662 4.0859 -0.7006 45.3728
#
#
#
# Elastic Compliance Matrix: (Units=1/GPa)
#
#
# Indices 1 2 3 4 5 6 
#
# 1 0.018736 -0.003140 0.005961 0.009133 -0.016306 -0.003768
# 2 -0.003140 0.011303 -0.002569 0.011284 0.002098 -0.005466
# 3 0.005961 -0.002569 0.030859 0.024233 -0.034278 -0.003842
# 4 0.009133 0.011284 0.024233 0.100625 -0.029970 -0.017504
# 5 -0.016306 0.002098 -0.034278 -0.029970 0.088108 0.007702
# 6 -0.003768 -0.005466 -0.003842 -0.017504 0.007702 0.027190
#
#
# Mechanical properties :
#
#
# Convention : Reuss Voigt Hill
#
# Bulk Modulus (GPa) = 16.28582 46.12330 31.20456
# Shear Modulus (GPa) = 16.84723 30.52189 23.68456
#
# Velocity S-wave (km/s) = 2.86882 3.86140 3.40151
# Velocity P-wave (km/s) = 4.35079 6.51249 5.53813
#
# Compressibility (1/GPa) = 0.06140309
#
# Stress axis : x y z
#
# Youngs Moduli (GPa) = 53.37250 88.47104 32.40531
#
# Poissons Ratio (x) = 0.27778 -0.19316
# Poissons Ratio (y) = 0.16758 0.08324
# Poissons Ratio (z) = -0.31815 0.22726
#
# Static dielectric constant tensor:
#      x y z
#    x 3.755080 0.169820 0.233490 
#    y 0.169820 4.177510 -0.022240 
#    z 0.233490 -0.022240 3.198000 
# 
# 
# High freq. dielectric constant tensor:
#      x y z
#    x 1.798900 0.005380 0.028980 
#    y 0.005380 1.827130 -0.009480 
#    z 0.028980 -0.009480 1.739880 
# 
# From -- ./inp_files/269466.got.cif
#   From: 2010.06.25/outbox.cif.g09.slc.cpg/sg2_135_cif.got.tgz:269466.got - 2010.06.27 13:26:56.
