data_PCOD8039430
_publ_section_title
;
Structure prediction by ZEFSAII (Michael W. Deem and Ramdas Pophale) SiO2 
 PCOD8039430
Probable space group: P -1
;
_chemical_formula_sum "Si O2"
_cell_formula_units_Z 16
_cell_length_a 15.589061
_cell_length_b 12.239197
_cell_length_c 9.623528
_cell_angle_alpha 76.840017
_cell_angle_beta 50.228876
_cell_angle_gamma 38.824763
_cell_volume 731.956800
_symmetry_space_group_name_H-M "P -1"
_symmetry_group_IT_number 2
_symmetry_cell_setting 'triclinic'
loop_
_space_group_symop_operation_xyz
x,y,z
-x,-y,-z
loop_
_atom_site_type_symbol
_atom_site_label
_atom_site_fract_x
_atom_site_fract_y
_atom_site_fract_z
Si Si1 0.606733 0.086090 0.593684
Si Si2 0.398176 0.336064 0.212280
Si Si3 0.953398 0.453291 0.337239
Si Si4 0.207434 0.696256 0.461911
Si Si5 0.351623 0.088093 0.882411
Si Si6 0.249124 0.919491 0.293739
Si Si7 0.882415 0.738827 0.193727
Si Si8 0.759250 0.480006 0.286196
O O1 0.501193 0.063908 0.773587
O O2 0.760443 0.006473 0.572960
O O3 0.450048 0.316023 0.639843
O O4 0.728883 0.952662 0.367336
O O5 0.158814 0.485005 0.416206
O O6 0.376733 0.475923 0.265619
O O7 0.530289 0.127376 0.217063
O O8 0.526639 0.240806 0.963779
O O9 0.965718 0.575993 0.263950
O O10 0.799625 0.530125 0.358536
O O11 0.191203 0.204142 0.145255
O O12 0.255250 0.782108 0.352786
O O13 0.242829 0.642206 0.605603
O O14 0.964520 0.868797 0.629242
O O15 0.224806 0.233593 0.833993
O O16 0.063398 0.664928 0.972002
#
# Coordination Sequence:
#
# PCOD8039430 Si02
#       8
#     2   2   2   2   2   2   2   2
#     4  12  23  36  62  99 129 159 199 258 305 366
#     4  11  21  39  67  88 115 167 213 244 298 375
#     4  10  18  33  60  93 125 165 198 235 300 378
#     4  10  24  48  67  83 115 172 213 260 308 361
#     4  11  20  36  61  96 133 161 199 244 308 377
#     4  11  26  45  62  87 126 161 216 261 304 355
#     4  11  18  34  58  93 132 166 191 235 313 377
#     4  10  20  37  65  91 121 158 212 252 298 362
#
# _framework density 21.859213
#
# number of rings (size 3 to 8) (size 9 to 14) (size 15 to 20)
#    0.000    1.250    3.750    5.250    0.000    2.000 
#    0.000    1.875    0.000    0.000    0.000    0.000 
#    0.000    0.000    0.000    0.000    0.000    0.000 
#
# Total GULP energy -198232.948536 kJ/mol
# GULP energy per Si atom -12389.559283 kJ/mol
# Density = 2.180946 g / cm^3
# Si number density = 21.859213 Si / 1000 Ang^3
#
#
#
# Elastic Constant Matrix: (Units=GPa)
#
#
# Indices 1 2 3 4 5 6 
#
# 1 54.6975 17.9356 13.7272 3.4672 -8.1228 -3.5687
# 2 17.9356 83.4574 42.4256 0.9514 -9.4693 16.7866
# 3 13.7272 42.4256 137.4953 10.0666 -0.3552 -12.5376
# 4 3.4672 0.9514 10.0666 33.9520 -1.4949 6.7902
# 5 -8.1228 -9.4693 -0.3552 -1.4949 4.8714 -2.4305
# 6 -3.5687 16.7866 -12.5376 6.7902 -2.4305 7.4982
#
#
#
# Elastic Compliance Matrix: (Units=1/GPa)
#
#
# Indices 1 2 3 4 5 6 
#
# 1 0.017522 0.017733 -0.012864 0.013737 0.041013 -0.052016
# 2 0.017733 -0.017992 0.016429 -0.027296 0.045048 0.115511
# 3 -0.012864 0.016429 -0.004043 0.015144 -0.020021 -0.069868
# 4 0.013737 -0.027296 0.015144 0.006503 0.019554 0.093418
# 5 0.041013 0.045048 -0.020021 0.019554 0.357468 -0.016645
# 6 -0.052016 0.115511 -0.069868 0.093418 -0.016645 -0.356811
#
#
# Mechanical properties :
#
#
# Convention : Reuss Voigt Hill
#
# Bulk Modulus (GPa) = 26.25851 47.09187 36.67519
# Shear Modulus (GPa) = -183.45105 22.70176 -80.37465
#
# Velocity S-wave (km/s) = -9.17094 3.22614 -6.07034
# Velocity P-wave (km/s) = 10.00514 5.95545 5.68487
#
# Compressibility (1/GPa) = 0.03808289
#
# Stress axis : x y z
#
# Youngs Moduli (GPa) = 57.07092 -55.58025 -247.31356
#
# Poissons Ratio (x) = 0.98561 -3.18144
# Poissons Ratio (y) = -1.01205 4.06311
# Poissons Ratio (z) = 0.73416 0.91313
#
# Static dielectric constant tensor:
#      x y z
#    x 3.344740 0.025680 -0.023060 
#    y 0.025680 4.101770 -0.039280 
#    z -0.023060 -0.039280 4.370090 
# 
# 
# High freq. dielectric constant tensor:
#      x y z
#    x 1.798670 0.007560 0.002690 
#    y 0.007560 1.873920 0.002470 
#    z 0.002690 0.002470 1.880040 
# 
# From -- ./inp_files/465066.got.cif
#   From: 2010.06.25/outbox.cif.g09.slc.cpg/sg2_233_cif.got.tgz:465066.got - 2010.06.27 13:26:56.
