data_PCOD8039712
_publ_section_title
;
Structure prediction by ZEFSAII (Michael W. Deem and Ramdas Pophale) SiO2 
 PCOD8039712
Probable space group: P -1
;
_chemical_formula_sum "Si O2"
_cell_formula_units_Z 16
_cell_length_a 9.796266
_cell_length_b 9.674417
_cell_length_c 14.784929
_cell_angle_alpha 98.554376
_cell_angle_beta 138.227771
_cell_angle_gamma 104.726273
_cell_volume 768.294117
_symmetry_space_group_name_H-M "P -1"
_symmetry_group_IT_number 2
_symmetry_cell_setting 'triclinic'
loop_
_space_group_symop_operation_xyz
x,y,z
-x,-y,-z
loop_
_atom_site_type_symbol
_atom_site_label
_atom_site_fract_x
_atom_site_fract_y
_atom_site_fract_z
Si Si1 0.135657 0.830908 0.027506
Si Si2 0.644465 0.533280 0.715021
Si Si3 0.973968 0.940734 0.123338
Si Si4 0.424138 0.169545 0.823909
Si Si5 0.699917 0.740249 0.595603
Si Si6 0.895496 0.204020 0.326134
Si Si7 0.716928 0.606403 0.319197
Si Si8 0.446836 0.695869 0.908022
O O1 0.933810 0.632702 0.889311
O O2 0.104852 0.945609 0.953396
O O3 0.400589 0.861005 0.153706
O O4 0.098160 0.874466 0.113708
O O5 0.602655 0.642063 0.632722
O O6 0.531326 0.346923 0.597914
O O7 0.503494 0.522500 0.735644
O O8 0.734918 0.784984 0.036779
O O9 0.184823 0.062192 0.312879
O O10 0.314796 0.247548 0.714475
O O11 0.199946 0.990725 0.731545
O O12 0.578219 0.293436 0.995655
O O13 0.907566 0.717990 0.650620
O O14 0.663204 0.212638 0.189510
O O15 0.021570 0.304726 0.491334
O O16 0.707870 0.498711 0.218439
#
# Coordination Sequence:
#
# PCOD8039712 Si02
#       8
#     2   2   2   2   2   2   2   2
#     4  10  20  35  59  88 115 156 202 256 295 357
#     4   9  18  35  55  83 121 154 197 240 307 350
#     4  10  18  34  60  89 117 149 209 256 292 343
#     4  12  24  40  63  92 128 164 202 248 316 370
#     4   9  18  33  60  88 114 156 199 258 292 351
#     4  11  22  40  65  92 121 161 214 250 303 363
#     4  11  25  40  59  92 132 163 194 256 319 366
#     4  12  21  40  63  95 117 161 215 255 293 361
#
# _framework density 20.825358999999999
#
# number of rings (size 3 to 8) (size 9 to 14) (size 15 to 20)
#    0.000    1.500    3.750    3.000    0.000    0.500 
#    0.000    1.250    0.000    3.000    0.000    0.000 
#    0.000    0.000    0.000    0.000    0.000    0.000 
#
# Total GULP energy -198367.679405 kJ/mol
# GULP energy per Si atom -12397.979963 kJ/mol
# Density = 2.077796 g / cm^3
# Si number density = 20.825359 Si / 1000 Ang^3
#
#
#
# Elastic Constant Matrix: (Units=GPa)
#
#
# Indices 1 2 3 4 5 6 
#
# 1 85.2141 28.1914 24.2798 -0.1746 -6.8330 -3.6512
# 2 28.1914 57.5392 15.2905 2.8405 1.8594 -1.7425
# 3 24.2798 15.2905 104.1276 16.2758 -19.9463 -2.6400
# 4 -0.1746 2.8405 16.2758 24.6520 -3.9223 -2.2021
# 5 -6.8330 1.8594 -19.9463 -3.9223 29.1624 9.8150
# 6 -3.6512 -1.7425 -2.6400 -2.2021 9.8150 16.7960
#
#
#
# Elastic Compliance Matrix: (Units=1/GPa)
#
#
# Indices 1 2 3 4 5 6 
#
# 1 0.014947 -0.006843 -0.002494 0.003005 0.002218 0.001245
# 2 -0.006843 0.021769 -0.002433 -0.001591 -0.006137 0.003766
# 3 -0.002494 -0.002433 0.013406 -0.007546 0.009481 -0.005217
# 4 0.003005 -0.001591 -0.007546 0.046238 0.000072 0.005322
# 5 0.002218 -0.006137 0.009481 0.000072 0.051341 -0.028657
# 6 0.001245 0.003766 -0.005217 0.005322 -0.028657 0.076823
#
#
# Mechanical properties :
#
#
# Convention : Reuss Voigt Hill
#
# Bulk Modulus (GPa) = 37.61689 42.48937 40.05313
# Shear Modulus (GPa) = 19.46109 26.06335 22.76222
#
# Velocity S-wave (km/s) = 3.06026 3.54152 3.30965
# Velocity P-wave (km/s) = 5.53075 6.09673 5.82062
#
# Compressibility (1/GPa) = 0.02658380
#
# Stress axis : x y z
#
# Youngs Moduli (GPa) = 66.90384 45.93596 74.59618
#
# Poissons Ratio (x) = 0.31433 0.18601
# Poissons Ratio (y) = 0.45781 0.18146
# Poissons Ratio (z) = 0.16683 0.11174
#
# Static dielectric constant tensor:
#      x y z
#    x 3.665640 0.142840 -0.228770 
#    y 0.142840 3.374490 0.319720 
#    z -0.228770 0.319720 4.089470 
# 
# 
# High freq. dielectric constant tensor:
#      x y z
#    x 1.811070 0.017660 -0.016030 
#    y 0.017660 1.775790 0.028270 
#    z -0.016030 0.028270 1.828190 
# 
# From -- ./inp_files/272377.got.cif
#   From: 2010.06.25/outbox.cif.g09.slc.cpg/sg2_137_cif.got.tgz:272377.got - 2010.06.27 13:26:56.
