data_PCOD8039461
_publ_section_title
;
Structure prediction by ZEFSAII (Michael W. Deem and Ramdas Pophale) SiO2 
 PCOD8039461
Probable space group: P -1
;
_chemical_formula_sum "Si O2"
_cell_formula_units_Z 16
_cell_length_a 17.155759
_cell_length_b 11.540106
_cell_length_c 11.051673
_cell_angle_alpha 93.831439
_cell_angle_beta 29.617989
_cell_angle_gamma 76.341576
_cell_volume 865.824826
_symmetry_space_group_name_H-M "P -1"
_symmetry_group_IT_number 2
_symmetry_cell_setting 'triclinic'
loop_
_space_group_symop_operation_xyz
x,y,z
-x,-y,-z
loop_
_atom_site_type_symbol
_atom_site_label
_atom_site_fract_x
_atom_site_fract_y
_atom_site_fract_z
Si Si1 0.534461 0.922057 0.772309
Si Si2 0.943754 0.306551 0.619010
Si Si3 0.134290 0.015420 0.232392
Si Si4 0.754866 0.230276 0.347800
Si Si5 0.329632 0.233810 0.184818
Si Si6 0.556453 0.564572 0.033532
Si Si7 0.894284 0.170338 0.907017
Si Si8 0.179971 0.053064 0.714774
O O1 0.663945 0.790267 0.681681
O O2 0.673256 0.900812 0.470022
O O3 0.359108 0.917009 0.965880
O O4 0.456014 0.077417 0.942508
O O5 0.871723 0.262724 0.828158
O O6 0.044519 0.184326 0.368811
O O7 0.103509 0.330492 0.450755
O O8 0.760032 0.448709 0.816643
O O9 0.132866 0.953974 0.100133
O O10 0.000000 0.000000 0.500000
O O11 0.613870 0.369248 0.630554
O O12 0.705150 0.115800 0.421663
O O13 0.733281 0.272213 0.236339
O O14 0.985204 0.150792 0.069113
O O15 0.429804 0.313143 0.030285
O O16 0.500000 0.500000 0.000000
O O17 0.111619 0.082574 0.666613
#
# Coordination Sequence:
#
# PCOD8039461 Si02
#       8
#     2   2   2   2   2   2   2   2
#     4  10  18  33  64  87 108 146 185 248 283 334
#     4  10  21  36  56  84 116 156 183 233 282 340
#     4   9  20  31  56  93 117 134 187 244 287 320
#     4   9  20  36  59  82 112 151 192 229 287 336
#     4  10  20  36  56  84 114 146 192 227 293 335
#     4  12  26  35  57  83 119 153 190 232 283 348
#     4   9  18  36  60  82 113 146 189 237 279 330
#     4   9  17  35  63  80 108 142 194 238 282 330
#
# _framework density 18.479489999999998
#
# number of rings (size 3 to 8) (size 9 to 14) (size 15 to 20)
#    0.750    1.500    2.500    0.375    7.000    0.500 
#    0.000    0.625    5.500    1.500    0.000    0.000 
#    0.000    0.000    0.000    0.000    0.000    0.000 
#
# Total GULP energy -198212.725910 kJ/mol
# GULP energy per Si atom -12388.295369 kJ/mol
# Density = 1.843743 g / cm^3
# Si number density = 18.479490 Si / 1000 Ang^3
#
#
#
# Elastic Constant Matrix: (Units=GPa)
#
#
# Indices 1 2 3 4 5 6 
#
# 1 74.7234 28.9828 45.8388 -3.0952 1.4671 9.2920
# 2 28.9828 65.1279 26.0512 -12.6678 -4.2366 -1.2752
# 3 45.8388 26.0512 104.3721 -9.4881 -3.8565 7.5912
# 4 -3.0952 -12.6678 -9.4881 33.1645 1.0014 -6.0897
# 5 1.4671 -4.2366 -3.8565 1.0014 36.7400 -0.8565
# 6 9.2920 -1.2752 7.5912 -6.0897 -0.8565 26.5339
#
#
#
# Elastic Compliance Matrix: (Units=1/GPa)
#
#
# Indices 1 2 3 4 5 6 
#
# 1 0.021816 -0.007805 -0.007619 -0.004315 -0.002614 -0.006910
# 2 -0.007805 0.021272 -0.001504 0.008011 0.002531 0.006106
# 3 -0.007619 -0.001504 0.013630 0.002442 0.001479 -0.000695
# 4 -0.004315 0.008011 0.002442 0.035197 0.000610 0.009295
# 5 -0.002614 0.002531 0.001479 0.000610 0.027792 0.001651
# 6 -0.006910 0.006106 -0.000695 0.009295 0.001651 0.042786
#
#
# Mechanical properties :
#
#
# Convention : Reuss Voigt Hill
#
# Bulk Modulus (GPa) = 43.74299 49.55214 46.64757
# Shear Modulus (GPa) = 24.51341 28.84439 26.67890
#
# Velocity S-wave (km/s) = 3.64609 3.95509 3.80373
# Velocity P-wave (km/s) = 6.43800 6.90868 6.67749
#
# Compressibility (1/GPa) = 0.02286081
#
# Stress axis : x y z
#
# Youngs Moduli (GPa) = 45.83776 47.01055 73.36781
#
# Poissons Ratio (x) = 0.36693 0.55902
# Poissons Ratio (y) = 0.35778 0.11033
# Poissons Ratio (z) = 0.34926 0.07069
#
# Static dielectric constant tensor:
#      x y z
#    x 3.408420 0.069190 -0.003730 
#    y 0.069190 3.266970 -0.163990 
#    z -0.003730 -0.163990 3.427430 
# 
# 
# High freq. dielectric constant tensor:
#      x y z
#    x 1.696460 -0.004590 -0.011340 
#    y -0.004590 1.706520 -0.019150 
#    z -0.011340 -0.019150 1.710730 
# 
# From -- ./inp_files/463805.got.cif
#   From: 2010.06.25/outbox.cif.g09.slc.cpg/sg2_232_cif.got.tgz:463805.got - 2010.06.27 13:26:56.
