data_PCOD8039799
_publ_section_title
;
Structure prediction by ZEFSAII (Michael W. Deem and Ramdas Pophale) SiO2 
 PCOD8039799
Probable space group: P -1
;
_chemical_formula_sum "Si O2"
_cell_formula_units_Z 12
_cell_length_a 11.271993
_cell_length_b 6.600107
_cell_length_c 7.309369
_cell_angle_alpha 105.033597
_cell_angle_beta 88.599366
_cell_angle_gamma 88.204321
_cell_volume 524.621813
_symmetry_space_group_name_H-M "P -1"
_symmetry_group_IT_number 2
_symmetry_cell_setting 'triclinic'
loop_
_space_group_symop_operation_xyz
x,y,z
-x,-y,-z
loop_
_atom_site_type_symbol
_atom_site_label
_atom_site_fract_x
_atom_site_fract_y
_atom_site_fract_z
Si Si1 0.709457 0.707145 0.486121
Si Si2 0.686074 0.017430 0.257294
Si Si3 0.669619 0.581667 0.969214
Si Si4 0.875797 0.555331 0.728446
Si Si5 0.461483 0.587483 0.724352
Si Si6 0.126590 0.657587 0.683451
O O1 0.781588 0.727196 0.677325
O O2 0.578804 0.593905 0.466678
O O3 0.787459 0.544355 0.311874
O O4 0.695368 0.933152 0.446185
O O5 0.573436 0.179286 0.291612
O O6 0.808783 0.127844 0.228049
O O7 0.665837 0.826668 0.078226
O O8 0.805851 0.493909 0.901536
O O9 0.598648 0.563088 0.773964
O O10 0.613450 0.440238 0.092083
O O11 0.898470 0.360752 0.540975
O O12 0.001163 0.657028 0.795298
#
# Coordination Sequence:
#
# PCOD8039799 Si02
#       6
#     2   2   2   2   2   2
#     4   8  17  34  55  73 103 134 165 205 257 296
#     4  10  18  35  54  73 104 139 163 207 257 300
#     4  10  20  34  55  76 101 132 177 207 244 302
#     4   9  18  37  53  77 101 133 171 211 247 299
#     4   9  19  36  53  72 106 139 161 208 259 296
#     4   8  18  36  54  72 106 134 164 207 261 291
#
# _framework density 22.873622000000001
#
# number of rings (size 3 to 8) (size 9 to 14) (size 15 to 20)
#    1.000    2.000    0.000    0.500    0.000    2.000 
#    3.000    8.333    0.000    0.000    0.000    0.000 
#    0.000    0.000    0.000    0.000    0.000    0.000 
#
# Total GULP energy -148680.290963 kJ/mol
# GULP energy per Si atom -12390.024247 kJ/mol
# Density = 2.282156 g / cm^3
# Si number density = 22.873622 Si / 1000 Ang^3
#
#
#
# Elastic Constant Matrix: (Units=GPa)
#
#
# Indices 1 2 3 4 5 6 
#
# 1 123.8707 33.3228 -2.1580 -8.8152 -6.7896 18.0187
# 2 33.3228 107.4035 4.7458 -11.8889 0.7768 1.2291
# 3 -2.1580 4.7458 37.2981 7.2971 -0.3636 -2.8915
# 4 -8.8152 -11.8889 7.2971 19.6308 -1.7344 2.3248
# 5 -6.7896 0.7768 -0.3636 -1.7344 38.8715 -2.6300
# 6 18.0187 1.2291 -2.8915 2.3248 -2.6300 26.0515
#
#
#
# Elastic Compliance Matrix: (Units=1/GPa)
#
#
# Indices 1 2 3 4 5 6 
#
# 1 0.010193 -0.002614 -0.000430 0.004140 0.001527 -0.007190
# 2 -0.002614 0.010953 -0.002774 0.006412 -0.000390 0.000372
# 3 -0.000430 -0.002774 0.030206 -0.013695 -0.000010 0.005002
# 4 0.004140 0.006412 -0.013695 0.063196 0.002606 -0.010063
# 5 0.001527 -0.000390 -0.000010 0.002606 0.026209 0.001375
# 6 -0.007190 0.000372 0.005002 -0.010063 0.001375 0.044933
#
#
# Mechanical properties :
#
#
# Convention : Reuss Voigt Hill
#
# Bulk Modulus (GPa) = 25.17956 37.82149 31.50052
# Shear Modulus (GPa) = 23.74568 32.42153 28.08361
#
# Velocity S-wave (km/s) = 3.22549 3.76895 3.50776
# Velocity P-wave (km/s) = 4.99036 5.95910 5.49612
#
# Compressibility (1/GPa) = 0.03971476
#
# Stress axis : x y z
#
# Youngs Moduli (GPa) = 98.10880 91.30254 33.10582
#
# Poissons Ratio (x) = 0.23865 0.01424
# Poissons Ratio (y) = 0.25644 0.09185
# Poissons Ratio (z) = 0.04221 0.25330
#
# Static dielectric constant tensor:
#      x y z
#    x 4.339900 0.232110 0.165080 
#    y 0.232110 3.602080 -0.140050 
#    z 0.165080 -0.140050 4.111350 
# 
# 
# High freq. dielectric constant tensor:
#      x y z
#    x 1.923760 0.022360 0.004240 
#    y 0.022360 1.861250 -0.014160 
#    z 0.004240 -0.014160 1.904860 
# 
# From -- ./inp_files/35784.got.cif
#   From: 2010.06.25/outbox.cif.g09.slc.cpg/sg2_18_cif.got.tgz:35784.got - 2010.06.27 13:26:56.
