data_PCOD8039533
_publ_section_title
;
Structure prediction by ZEFSAII (Michael W. Deem and Ramdas Pophale) SiO2 
 PCOD8039533
Probable space group: P -1
;
_chemical_formula_sum "Si O2"
_cell_formula_units_Z 16
_cell_length_a 11.433986
_cell_length_b 14.322622
_cell_length_c 13.394963
_cell_angle_alpha 131.005250
_cell_angle_beta 63.749293
_cell_angle_gamma 147.279942
_cell_volume 861.835719
_symmetry_space_group_name_H-M "P -1"
_symmetry_group_IT_number 2
_symmetry_cell_setting 'triclinic'
loop_
_space_group_symop_operation_xyz
x,y,z
-x,-y,-z
loop_
_atom_site_type_symbol
_atom_site_label
_atom_site_fract_x
_atom_site_fract_y
_atom_site_fract_z
Si Si1 0.674661 0.525455 0.440158
Si Si2 0.148997 0.242116 0.270544
Si Si3 0.092657 0.199303 0.642720
Si Si4 0.346058 0.710674 0.041049
Si Si5 0.874276 0.212890 0.870896
Si Si6 0.379325 0.156861 0.163719
Si Si7 0.630963 0.792549 0.133619
Si Si8 0.509194 0.466354 0.815443
O O1 0.500000 0.500000 0.500000
O O2 0.817358 0.633759 0.564226
O O3 0.840308 0.671604 0.387980
O O4 0.537852 0.295505 0.300225
O O5 0.243570 0.178420 0.212247
O O6 0.276882 0.402378 0.241158
O O7 0.889270 0.028955 0.195041
O O8 0.300536 0.342568 0.738887
O O9 0.893059 0.118035 0.716182
O O10 0.000000 0.000000 0.500000
O O11 0.304642 0.824447 0.125138
O O12 0.493832 0.803316 0.149512
O O13 0.472913 0.757565 0.928776
O O14 0.114823 0.460008 0.970543
O O15 0.789635 0.086489 0.918452
O O16 0.557646 0.704426 0.212699
O O17 0.578752 0.634710 0.974780
#
# Coordination Sequence:
#
# PCOD8039533 Si02
#       8
#     2   2   2   2   2   2   2   2
#     4  10  18  34  55  86 120 139 183 244 289 340
#     4  11  21  34  58  88 119 151 182 244 295 339
#     4  12  20  37  61  92 117 146 190 247 295 338
#     4  11  23  41  56  84 123 150 199 235 278 359
#     4  11  23  37  61  87 113 157 190 237 298 335
#     4  11  20  37  59  89 114 148 192 245 293 339
#     4  11  22  36  54  82 120 157 190 233 285 348
#     4  11  21  35  55  86 118 148 189 237 289 341
#
# _framework density 18.565023
#
# number of rings (size 3 to 8) (size 9 to 14) (size 15 to 20)
#    0.000    1.000    6.250    3.750    1.750    0.000 
#    0.000    0.000    0.000    3.750    0.000    0.000 
#    0.000    0.000    0.000    0.000    0.000    0.000 
#
# Total GULP energy -198351.326975 kJ/mol
# GULP energy per Si atom -12396.957936 kJ/mol
# Density = 1.852277 g / cm^3
# Si number density = 18.565023 Si / 1000 Ang^3
#
#
#
# Elastic Constant Matrix: (Units=GPa)
#
#
# Indices 1 2 3 4 5 6 
#
# 1 90.0661 51.5656 31.9617 -8.1681 3.8985 5.8386
# 2 51.5656 126.0412 33.7394 -12.9122 13.3126 -9.5403
# 3 31.9617 33.7394 68.7879 0.4042 11.1670 1.7367
# 4 -8.1681 -12.9122 0.4042 23.7614 -4.9970 8.7479
# 5 3.8985 13.3126 11.1670 -4.9970 22.3320 1.2884
# 6 5.8386 -9.5403 1.7367 8.7479 1.2884 26.5326
#
#
#
# Elastic Compliance Matrix: (Units=1/GPa)
#
#
# Indices 1 2 3 4 5 6 
#
# 1 0.017658 -0.006130 -0.005940 0.007077 0.005604 -0.008306
# 2 -0.006130 0.012208 -0.002484 0.001437 -0.004971 0.005669
# 3 -0.005940 -0.002484 0.019964 -0.006195 -0.008943 0.001584
# 4 0.007077 0.001437 -0.006195 0.055738 0.014616 -0.019722
# 5 0.005604 -0.004971 -0.008943 0.014616 0.055079 -0.009929
# 6 -0.008306 0.005669 0.001584 -0.019722 -0.009929 0.048437
#
#
# Mechanical properties :
#
#
# Convention : Reuss Voigt Hill
#
# Bulk Modulus (GPa) = 48.25740 57.71430 52.98585
# Shear Modulus (GPa) = 20.39998 25.70043 23.05020
#
# Velocity S-wave (km/s) = 3.31847 3.72472 3.52745
# Velocity P-wave (km/s) = 6.38225 7.04650 6.72259
#
# Compressibility (1/GPa) = 0.02072221
#
# Stress axis : x y z
#
# Youngs Moduli (GPa) = 56.63143 81.91306 50.09034
#
# Poissons Ratio (x) = 0.50212 0.29752
# Poissons Ratio (y) = 0.34715 0.12444
# Poissons Ratio (z) = 0.33637 0.20349
#
# Static dielectric constant tensor:
#      x y z
#    x 3.272320 -0.029700 0.046520 
#    y -0.029700 3.756180 0.058350 
#    z 0.046520 0.058350 3.622550 
# 
# 
# High freq. dielectric constant tensor:
#      x y z
#    x 1.684680 -0.004140 0.014020 
#    y -0.004140 1.746230 -0.003270 
#    z 0.014020 -0.003270 1.713220 
# 
# From -- ./inp_files/425234.got.cif
#   From: 2010.06.25/outbox.cif.g09.slc.cpg/sg2_213_cif.got.tgz:425234.got - 2010.06.27 13:26:56.
