data_PCOD8039874
_publ_section_title
;
Structure prediction by ZEFSAII (Michael W. Deem and Ramdas Pophale) SiO2 
 PCOD8039874
Probable space group: P -1
;
_chemical_formula_sum "Si O2"
_cell_formula_units_Z 16
_cell_length_a 15.203163
_cell_length_b 13.654358
_cell_length_c 9.234308
_cell_angle_alpha 51.419360
_cell_angle_beta 78.913495
_cell_angle_gamma 38.616648
_cell_volume 744.965492
_symmetry_space_group_name_H-M "P -1"
_symmetry_group_IT_number 2
_symmetry_cell_setting 'triclinic'
loop_
_space_group_symop_operation_xyz
x,y,z
-x,-y,-z
loop_
_atom_site_type_symbol
_atom_site_label
_atom_site_fract_x
_atom_site_fract_y
_atom_site_fract_z
Si Si1 0.921025 0.288965 0.509501
Si Si2 0.155454 0.428493 0.154750
Si Si3 0.639924 0.760526 0.998598
Si Si4 0.002253 0.705380 0.222848
Si Si5 0.570917 0.281485 0.542513
Si Si6 0.841664 0.855924 0.641686
Si Si7 0.213170 0.801309 0.266897
Si Si8 0.687257 0.926000 0.031663
O O1 0.744258 0.519402 0.258748
O O2 0.924508 0.139848 0.693255
O O3 0.909517 0.395661 0.554117
O O4 0.091929 0.119428 0.515994
O O5 0.324013 0.275737 0.151026
O O6 0.972671 0.685551 0.894774
O O7 0.172949 0.258779 0.329726
O O8 0.154074 0.501492 0.241810
O O9 0.432292 0.996494 0.878397
O O10 0.724461 0.784897 0.018883
O O11 0.900068 0.959165 0.001554
O O12 0.869030 0.748048 0.213463
O O13 0.363501 0.565071 0.327337
O O14 0.686235 0.264683 0.563679
O O15 0.584252 0.168252 0.775420
O O16 0.649655 0.130149 0.508440
#
# Coordination Sequence:
#
# PCOD8039874 Si02
#       8
#     2   2   2   2   2   2   2   2
#     4  11  23  35  56  87 116 147 189 230 279 334
#     4  10  18  35  57  84 115 145 182 230 290 326
#     4  10  20  34  61  87 110 142 191 237 269 337
#     4  11  22  39  56  81 121 154 179 229 287 334
#     4  10  18  37  60  83 107 148 192 235 271 328
#     4  10  19  35  58  85 111 143 187 238 278 330
#     4  10  21  37  57  79 111 156 190 224 276 331
#     4  10  18  35  60  83 111 146 190 227 282 329
#
# _framework density 21.477506000000002
#
# number of rings (size 3 to 8) (size 9 to 14) (size 15 to 20)
#    0.000    1.750    5.000    1.875    0.000    2.500 
#    0.000    1.875    0.000    3.000    0.000    0.000 
#    0.000    0.000    0.000    0.000    0.000    0.000 
#
# Total GULP energy -198414.744344 kJ/mol
# GULP energy per Si atom -12400.921522 kJ/mol
# Density = 2.142862 g / cm^3
# Si number density = 21.477506 Si / 1000 Ang^3
#
#
#
# Elastic Constant Matrix: (Units=GPa)
#
#
# Indices 1 2 3 4 5 6 
#
# 1 85.3796 32.0250 15.3316 15.3341 -21.0524 -8.3980
# 2 32.0250 152.0052 29.9308 5.8969 -13.9611 -13.3862
# 3 15.3316 29.9308 21.3742 8.3469 -5.2494 -4.0759
# 4 15.3341 5.8969 8.3469 27.6729 3.0748 -6.8441
# 5 -21.0524 -13.9611 -5.2494 3.0748 15.9045 2.0032
# 6 -8.3980 -13.3862 -4.0759 -6.8441 2.0032 30.7266
#
#
#
# Elastic Compliance Matrix: (Units=1/GPa)
#
#
# Indices 1 2 3 4 5 6 
#
# 1 0.023152 -0.001104 -0.000856 -0.015926 0.032465 0.000070
# 2 -0.001104 0.009643 -0.012874 0.002906 0.001850 0.002718
# 3 -0.000856 -0.012874 0.078489 -0.022893 0.018114 -0.001711
# 4 -0.015926 0.002906 -0.022893 0.057806 -0.038427 0.009258
# 5 0.032465 0.001850 0.018114 -0.038427 0.121434 -0.004394
# 6 0.000070 0.002718 -0.001711 0.009258 -0.004394 0.035870
#
#
# Mechanical properties :
#
#
# Convention : Reuss Voigt Hill
#
# Bulk Modulus (GPa) = 12.25222 45.92598 29.08910
# Shear Modulus (GPa) = 13.04579 26.95891 20.00235
#
# Velocity S-wave (km/s) = 2.46726 3.54675 3.05506
# Velocity P-wave (km/s) = 3.71935 6.18080 5.10077
#
# Compressibility (1/GPa) = 0.08161787
#
# Stress axis : x y z
#
# Youngs Moduli (GPa) = 43.19260 103.70557 12.74066
#
# Poissons Ratio (x) = 0.11444 0.01090
# Poissons Ratio (y) = 0.04766 0.16402
# Poissons Ratio (z) = 0.03697 1.33506
#
# Static dielectric constant tensor:
#      x y z
#    x 3.820670 -0.016400 -0.249340 
#    y -0.016400 3.909810 -0.035140 
#    z -0.249340 -0.035140 3.481620 
# 
# 
# High freq. dielectric constant tensor:
#      x y z
#    x 1.834810 -0.006030 -0.025780 
#    y -0.006030 1.848000 -0.005150 
#    z -0.025780 -0.005150 1.808100 
# 
# From -- ./inp_files/296100.got.cif
#   From: 2010.06.25/outbox.cif.g09.slc.cpg/sg2_149_cif.got.tgz:296100.got - 2010.06.27 13:26:56.
