data_PCOD8039825
_publ_section_title
;
Structure prediction by ZEFSAII (Michael W. Deem and Ramdas Pophale) SiO2 
 PCOD8039825
Probable space group: P -1
;
_chemical_formula_sum "Si O2"
_cell_formula_units_Z 16
_cell_length_a 7.521313
_cell_length_b 11.344750
_cell_length_c 12.025572
_cell_angle_alpha 131.177080
_cell_angle_beta 77.928469
_cell_angle_gamma 120.243256
_cell_volume 655.269885
_symmetry_space_group_name_H-M "P -1"
_symmetry_group_IT_number 2
_symmetry_cell_setting 'triclinic'
loop_
_space_group_symop_operation_xyz
x,y,z
-x,-y,-z
loop_
_atom_site_type_symbol
_atom_site_label
_atom_site_fract_x
_atom_site_fract_y
_atom_site_fract_z
Si Si1 0.370660 0.202873 0.860190
Si Si2 0.172637 0.566369 0.614971
Si Si3 0.103584 0.880195 0.829147
Si Si4 0.346816 0.058247 0.111877
Si Si5 0.633407 0.590688 0.656619
Si Si6 0.989331 0.461957 0.807228
Si Si7 0.563822 0.459293 0.811907
Si Si8 0.777676 0.211964 0.862342
O O1 0.369858 0.286510 0.790940
O O2 0.548510 0.148201 0.806751
O O3 0.159812 0.016565 0.801389
O O4 0.425089 0.355297 0.040053
O O5 0.247157 0.779575 0.751193
O O6 0.350725 0.510191 0.520506
O O7 0.075281 0.451191 0.668730
O O8 0.000000 0.500000 0.500000
O O9 0.866763 0.723939 0.754526
O O10 0.155534 0.995944 0.009009
O O11 0.466293 0.275585 0.255653
O O12 0.236848 0.961213 0.182050
O O13 0.500000 0.000000 0.000000
O O14 0.521384 0.438324 0.672009
O O15 0.779164 0.472421 0.829302
O O16 0.939051 0.288089 0.783741
O O17 0.161662 0.637062 0.957033
#
# Coordination Sequence:
#
# PCOD8039825 Si02
#       8
#     2   2   2   2   2   2   2   2
#     4  10  21  32  55  86 122 141 186 249 291 324
#     4  10  20  37  58  85 114 149 196 238 279 338
#     4  11  20  35  58  87 111 148 195 241 276 331
#     4  12  21  35  58  87 114 143 191 241 282 336
#     4  11  22  36  62  83 111 152 196 236 284 336
#     4  10  19  34  60  80 113 152 194 230 283 346
#     4  10  18  35  55  85 114 147 190 238 287 328
#     4  10  20  34  54  86 113 152 186 235 291 331
#
# _framework density 24.417421000000001
#
# number of rings (size 3 to 8) (size 9 to 14) (size 15 to 20)
#    0.000    1.500    6.250    0.375    1.750    0.000 
#    0.000    1.875    0.000    0.000    0.000    0.000 
#    0.000    0.000    0.000    0.000    0.000    0.000 
#
# Total GULP energy -198302.493599 kJ/mol
# GULP energy per Si atom -12393.905850 kJ/mol
# Density = 2.436185 g / cm^3
# Si number density = 24.417421 Si / 1000 Ang^3
#
#
#
# Elastic Constant Matrix: (Units=GPa)
#
#
# Indices 1 2 3 4 5 6 
#
# 1 48.3950 11.1000 10.9707 1.3522 -15.5467 -13.1428
# 2 11.1000 222.5244 66.6719 -39.5685 -2.6663 -17.7987
# 3 10.9707 66.6719 128.1758 -20.3967 -2.3486 -8.4908
# 4 1.3522 -39.5685 -20.3967 46.3163 0.1920 -1.8013
# 5 -15.5467 -2.6663 -2.3486 0.1920 31.0298 3.4398
# 6 -13.1428 -17.7987 -8.4908 -1.8013 3.4398 18.9621
#
#
#
# Elastic Compliance Matrix: (Units=1/GPa)
#
#
# Indices 1 2 3 4 5 6 
#
# 1 0.029994 0.000463 -0.001439 -0.000460 0.012945 0.018187
# 2 0.000463 0.006455 -0.002259 0.004733 -0.000060 0.005829
# 3 -0.001439 -0.002259 0.009569 0.002385 -0.000368 0.001460
# 4 -0.000460 0.004733 0.002385 0.027007 -0.000684 0.007881
# 5 0.012945 -0.000060 -0.000368 -0.000684 0.038496 0.001704
# 6 0.018187 0.005829 0.001460 0.007881 0.001704 0.071907
#
#
# Mechanical properties :
#
#
# Convention : Reuss Voigt Hill
#
# Bulk Modulus (GPa) = 25.28582 64.06448 44.67515
# Shear Modulus (GPa) = 24.62076 39.95182 32.28629
#
# Velocity S-wave (km/s) = 3.17886 4.04939 3.64024
# Velocity P-wave (km/s) = 4.88382 6.93956 6.00038
#
# Compressibility (1/GPa) = 0.03954785
#
# Stress axis : x y z
#
# Youngs Moduli (GPa) = 33.33985 154.92648 104.49916
#
# Poissons Ratio (x) = -0.07174 0.15041
# Poissons Ratio (y) = -0.01544 0.23606
# Poissons Ratio (z) = 0.04799 0.34997
#
# Static dielectric constant tensor:
#      x y z
#    x 4.868410 -0.360960 -0.294160 
#    y -0.360960 5.065380 -0.046030 
#    z -0.294160 -0.046030 4.528230 
# 
# 
# High freq. dielectric constant tensor:
#      x y z
#    x 1.993780 -0.008580 -0.000640 
#    y -0.008580 1.979610 -0.011590 
#    z -0.000640 -0.011590 1.940850 
# 
# From -- ./inp_files/263101.got.cif
#   From: 2010.06.25/outbox.cif.g09.slc.cpg/sg2_132_cif.got.tgz:263101.got - 2010.06.27 13:26:56.
