data_PCOD8039911
_publ_section_title
;
Structure prediction by ZEFSAII (Michael W. Deem and Ramdas Pophale) SiO2 
 PCOD8039911
Probable space group: P -1
;
_chemical_formula_sum "Si O2"
_cell_formula_units_Z 16
_cell_length_a 11.672046
_cell_length_b 23.830094
_cell_length_c 20.869607
_cell_angle_alpha 18.488299
_cell_angle_beta 37.688601
_cell_angle_gamma 28.343708
_cell_volume 836.915537
_symmetry_space_group_name_H-M "P -1"
_symmetry_group_IT_number 2
_symmetry_cell_setting 'triclinic'
loop_
_space_group_symop_operation_xyz
x,y,z
-x,-y,-z
loop_
_atom_site_type_symbol
_atom_site_label
_atom_site_fract_x
_atom_site_fract_y
_atom_site_fract_z
Si Si1 0.971756 0.630117 0.016697
Si Si2 0.902403 0.311353 0.337120
Si Si3 0.256694 0.796344 0.683027
Si Si4 0.015552 0.210763 0.918304
Si Si5 0.776508 0.447345 0.892039
Si Si6 0.858165 0.071522 0.718479
Si Si7 0.483896 0.106694 0.764135
Si Si8 0.475650 0.419749 0.331689
O O1 0.147171 0.465910 0.178678
O O2 0.986876 0.461316 0.141601
O O3 0.073541 0.743283 0.815505
O O4 0.682464 0.839323 0.938663
O O5 0.863533 0.265674 0.477430
O O6 0.639494 0.459121 0.255697
O O7 0.111608 0.066949 0.471803
O O8 0.477884 0.618417 0.829660
O O9 0.373608 0.751873 0.609643
O O10 0.915937 0.406841 0.806564
O O11 0.781248 0.317243 0.859991
O O12 0.237464 0.157084 0.838758
O O13 0.109320 0.968879 0.174729
O O14 0.903124 0.179731 0.149656
O O15 0.601204 0.134741 0.742845
O O16 0.404933 0.296370 0.539743
#
# Coordination Sequence:
#
# PCOD8039911 Si02
#       8
#     2   2   2   2   2   2   2   2
#     4  11  22  34  58  86 113 146 185 224 277 333
#     4  11  22  36  56  84 115 148 184 222 277 333
#     4  11  19  39  56  79 116 146 185 227 278 319
#     4   9  17  34  65  81 106 149 182 230 281 321
#     4   8  18  34  58  83 107 143 177 233 273 322
#     4   8  17  34  56  80 111 138 180 229 272 320
#     4  10  18  35  58  85 109 144 189 224 276 331
#     4  10  21  36  58  81 112 149 186 227 275 327
#
# _framework density 19.117819000000001
#
# number of rings (size 3 to 8) (size 9 to 14) (size 15 to 20)
#    0.750    1.500    3.750    1.500    0.000    1.000 
#    0.000    1.250    2.750    0.000    0.000    0.000 
#    0.000    0.000    0.000    0.000    0.000    0.000 
#
# Total GULP energy -198249.081542 kJ/mol
# GULP energy per Si atom -12390.567596 kJ/mol
# Density = 1.907431 g / cm^3
# Si number density = 19.117819 Si / 1000 Ang^3
#
#
#
# Elastic Constant Matrix: (Units=GPa)
#
#
# Indices 1 2 3 4 5 6 
#
# 1 89.6021 24.5142 40.0070 -8.2762 12.3983 -7.2621
# 2 24.5142 85.8775 15.6261 -1.4343 -0.1792 -14.0060
# 3 40.0070 15.6261 54.1812 -4.6497 4.8653 3.0855
# 4 -8.2762 -1.4343 -4.6497 14.5139 2.6881 8.9206
# 5 12.3983 -0.1792 4.8653 2.6881 40.9384 -1.5754
# 6 -7.2621 -14.0060 3.0855 8.9206 -1.5754 19.3614
#
#
#
# Elastic Compliance Matrix: (Units=1/GPa)
#
#
# Indices 1 2 3 4 5 6 
#
# 1 0.018907 -0.002072 -0.012978 0.003772 -0.004226 0.005580
# 2 -0.002072 0.015900 -0.005415 -0.012750 0.002859 0.017695
# 3 -0.012978 -0.005415 0.032351 0.015935 -0.001809 -0.021429
# 4 0.003772 -0.012750 0.015935 0.117738 -0.013350 -0.065681
# 5 -0.004226 0.002859 -0.001809 -0.013350 0.027162 0.009132
# 6 0.005580 0.017695 -0.021429 -0.065681 0.009132 0.100963
#
#
# Mechanical properties :
#
#
# Convention : Reuss Voigt Hill
#
# Bulk Modulus (GPa) = 38.12388 43.32837 40.72612
# Shear Modulus (GPa) = 13.78574 24.93029 19.35801
#
# Velocity S-wave (km/s) = 2.68823 3.61506 3.18553
# Velocity P-wave (km/s) = 5.44245 6.33545 5.90585
#
# Compressibility (1/GPa) = 0.02623028
#
# Stress axis : x y z
#
# Youngs Moduli (GPa) = 52.88983 62.89299 30.91056
#
# Poissons Ratio (x) = 0.13029 0.40116
# Poissons Ratio (y) = 0.10956 0.16737
# Poissons Ratio (z) = 0.68641 0.34054
#
# Static dielectric constant tensor:
#      x y z
#    x 3.522110 -0.034150 0.436920 
#    y -0.034150 3.361920 0.023060 
#    z 0.436920 0.023060 3.244860 
# 
# 
# High freq. dielectric constant tensor:
#      x y z
#    x 1.735560 -0.008290 0.041070 
#    y -0.008290 1.741950 0.010030 
#    z 0.041070 0.010030 1.715220 
# 
# From -- ./inp_files/596364.got.cif
#   From: 2010.06.25/outbox.cif.g09.slc.cpg/sg2_299_cif.got.tgz:596364.got - 2010.06.27 13:26:56.
