data_PCOD8039179
_publ_section_title
;
Structure prediction by ZEFSAII (Michael W. Deem and Ramdas Pophale) SiO2 
 PCOD8039179
Probable space group: P -1
;
_chemical_formula_sum "Si O2"
_cell_formula_units_Z 12
_cell_length_a 7.663640
_cell_length_b 18.952765
_cell_length_c 12.625028
_cell_angle_alpha 29.095204
_cell_angle_beta 133.357871
_cell_angle_gamma 146.019143
_cell_volume 493.471592
_symmetry_space_group_name_H-M "P -1"
_symmetry_group_IT_number 2
_symmetry_cell_setting 'triclinic'
loop_
_space_group_symop_operation_xyz
x,y,z
-x,-y,-z
loop_
_atom_site_type_symbol
_atom_site_label
_atom_site_fract_x
_atom_site_fract_y
_atom_site_fract_z
Si Si1 0.657486 0.472734 0.946938
Si Si2 0.560829 0.355766 0.701201
Si Si3 0.718642 0.422867 0.286276
Si Si4 0.729663 0.935385 0.554110
Si Si5 0.743152 0.783887 0.458189
Si Si6 0.657160 0.232341 0.102879
O O1 0.351600 0.431390 0.927443
O O2 0.770154 0.619095 0.702231
O O3 0.578307 0.283395 0.113551
O O4 0.966249 0.597044 0.991683
O O5 0.500000 0.500000 0.500000
O O6 0.357250 0.214185 0.704537
O O7 0.458545 0.224616 0.934126
O O8 0.927464 0.477112 0.671420
O O9 0.515775 0.259768 0.506907
O O10 0.562737 0.296654 0.273769
O O11 0.911175 0.009979 0.645529
O O12 0.573483 0.030549 0.341000
O O13 0.000000 0.000000 0.500000
#
# Coordination Sequence:
#
# PCOD8039179 Si02
#       6
#     2   2   2   2   2   2
#     4   8  17  34  57  79 101 151 189 208 266 331
#     4  12  21  33  55  88 112 139 184 233 268 313
#     4   9  19  36  60  77 111 145 186 218 272 327
#     4   9  17  38  58  78 106 151 181 218 274 331
#     4   8  17  34  56  75 111 142 178 210 282 320
#     4  10  18  32  61  81 109 140 186 226 265 326
#
# _framework density 24.317509999999999
#
# number of rings (size 3 to 8) (size 9 to 14) (size 15 to 20)
#    1.000    1.667    3.333    0.500    0.000    0.667 
#    0.000    5.000    0.000    2.000    0.000    0.000 
#    0.000    0.000    0.000    0.000    0.000    0.000 
#
# Total GULP energy -148731.250587 kJ/mol
# GULP energy per Si atom -12394.270882 kJ/mol
# Density = 2.426216 g / cm^3
# Si number density = 24.317510 Si / 1000 Ang^3
#
#
#
# Elastic Constant Matrix: (Units=GPa)
#
#
# Indices 1 2 3 4 5 6 
#
# 1 80.6730 37.2557 47.3149 8.7895 26.3460 -24.8654
# 2 37.2557 144.7230 67.9998 11.5988 3.7490 -24.2129
# 3 47.3149 67.9998 134.9749 15.3968 20.3887 -18.3170
# 4 8.7895 11.5988 15.3968 54.0204 -13.5056 -12.5674
# 5 26.3460 3.7490 20.3887 -13.5056 50.9415 6.0860
# 6 -24.8654 -24.2129 -18.3170 -12.5674 6.0860 42.4900
#
#
#
# Elastic Compliance Matrix: (Units=1/GPa)
#
#
# Indices 1 2 3 4 5 6 
#
# 1 0.023541 -0.001858 -0.003377 -0.002841 -0.012905 0.012269
# 2 -0.001858 0.009707 -0.004213 0.000440 0.001750 0.002507
# 3 -0.003377 -0.004213 0.011549 -0.002588 -0.003288 0.000307
# 4 -0.002841 0.000440 -0.002588 0.022305 0.008038 0.002919
# 5 -0.012905 0.001750 -0.003288 0.008038 0.030819 -0.010009
# 6 0.012269 0.002507 0.000307 0.002919 -0.010009 0.034573
#
#
# Mechanical properties :
#
#
# Convention : Reuss Voigt Hill
#
# Bulk Modulus (GPa) = 38.61233 73.94574 56.27903
# Shear Modulus (GPa) = 31.24548 43.34374 37.29461
#
# Velocity S-wave (km/s) = 3.58843 4.22644 3.92044
# Velocity P-wave (km/s) = 5.75170 7.36828 6.60960
#
# Compressibility (1/GPa) = 0.02589847
#
# Stress axis : x y z
#
# Youngs Moduli (GPa) = 42.47992 103.02363 86.58935
#
# Poissons Ratio (x) = 0.19146 0.29244
# Poissons Ratio (y) = 0.07895 0.36480
# Poissons Ratio (z) = 0.14347 0.43403
#
# Static dielectric constant tensor:
#      x y z
#    x 4.398610 -0.242670 -0.016820 
#    y -0.242670 4.428080 0.105090 
#    z -0.016820 0.105090 4.343910 
# 
# 
# High freq. dielectric constant tensor:
#      x y z
#    x 1.984580 -0.007440 -0.006190 
#    y -0.007440 1.955080 0.002330 
#    z -0.006190 0.002330 1.964570 
# 
# From -- ./inp_files/244299.got.cif
#   From: 2010.06.25/outbox.cif.g09.slc.cpg/sg2_123_cif.got.tgz:244299.got - 2010.06.27 13:26:56.
