data_PCOD8039220
_publ_section_title
;
Structure prediction by ZEFSAII (Michael W. Deem and Ramdas Pophale) SiO2 
 PCOD8039220
Probable space group: P -1
;
_chemical_formula_sum "Si O2"
_cell_formula_units_Z 14
_cell_length_a 9.052085
_cell_length_b 9.160933
_cell_length_c 23.367081
_cell_angle_alpha 152.520812
_cell_angle_beta 121.474286
_cell_angle_gamma 55.285290
_cell_volume 734.235870
_symmetry_space_group_name_H-M "P -1"
_symmetry_group_IT_number 2
_symmetry_cell_setting 'triclinic'
loop_
_space_group_symop_operation_xyz
x,y,z
-x,-y,-z
loop_
_atom_site_type_symbol
_atom_site_label
_atom_site_fract_x
_atom_site_fract_y
_atom_site_fract_z
Si Si1 0.531583 0.791457 0.644696
Si Si2 0.432907 0.560058 0.178295
Si Si3 0.175835 0.441038 0.173033
Si Si4 0.195368 0.767346 0.891129
Si Si5 0.784332 0.754647 0.195220
Si Si6 0.824799 0.795102 0.788403
Si Si7 0.809293 0.509334 0.993513
O O1 0.500000 0.500000 0.500000
O O2 0.717782 0.647315 0.667522
O O3 0.554667 0.076341 0.706468
O O4 0.358829 0.923424 0.697227
O O5 0.326716 0.582221 0.223834
O O6 0.629593 0.311378 0.140936
O O7 0.338176 0.395909 0.053071
O O8 0.253535 0.281468 0.193348
O O9 0.993446 0.740207 0.245501
O O10 0.125326 0.155738 0.025301
O O11 0.248853 0.566862 0.891779
O O12 0.041951 0.646863 0.783536
O O13 0.759979 0.764471 0.124867
O O14 0.789515 0.175602 0.900817
O O15 0.000000 0.500000 0.000000
#
# Coordination Sequence:
#
# PCOD8039220 Si02
#       7
#     2   2   2   2   2   2   2
#     4  10  24  43  57  74 105 152 204 234 260 312
#     4  10  22  32  58  83 119 144 182 221 278 334
#     4  11  18  35  53  92 120 140 167 224 287 348
#     4  10  18  33  52  88 121 144 168 216 286 352
#     4  10  19  34  57  80 118 146 180 220 280 324
#     4  10  20  35  58  79 113 146 179 224 283 328
#     4  11  18  32  54  90 118 145 174 220 278 346
#
# _framework density 19.067442
#
# number of rings (size 3 to 8) (size 9 to 14) (size 15 to 20)
#    0.000    1.714    4.286    1.286    2.000    1.714 
#    0.000    7.857    0.000    0.000    0.000    0.000 
#    0.000    0.000    0.000    0.000    0.000    0.000 
#
# Total GULP energy -173493.979041 kJ/mol
# GULP energy per Si atom -12392.427074 kJ/mol
# Density = 1.902404 g / cm^3
# Si number density = 19.067442 Si / 1000 Ang^3
#
#
#
# Elastic Constant Matrix: (Units=GPa)
#
#
# Indices 1 2 3 4 5 6 
#
# 1 156.5127 49.3207 50.1539 -9.9166 -5.6462 -2.9184
# 2 49.3207 79.8201 38.6826 -17.1454 2.7081 -5.3756
# 3 50.1539 38.6826 106.0877 -14.8502 0.3848 -7.1536
# 4 -9.9166 -17.1454 -14.8502 18.0731 -5.3496 1.4457
# 5 -5.6462 2.7081 0.3848 -5.3496 17.6269 -3.5710
# 6 -2.9184 -5.3756 -7.1536 1.4457 -3.5710 37.7554
#
#
#
# Elastic Compliance Matrix: (Units=1/GPa)
#
#
# Indices 1 2 3 4 5 6 
#
# 1 0.008675 -0.004319 -0.002614 -0.000492 0.003329 -0.000106
# 2 -0.004319 0.019756 -0.003153 0.013697 0.000084 0.001365
# 3 -0.002614 -0.003153 0.012826 0.006474 0.001674 0.001690
# 4 -0.000492 0.013697 0.006474 0.079786 0.022254 0.002189
# 5 0.003329 0.000084 0.001674 0.022254 0.065707 0.005949
# 6 -0.000106 0.001365 0.001690 0.002189 0.005949 0.027471
#
#
# Mechanical properties :
#
#
# Convention : Reuss Voigt Hill
#
# Bulk Modulus (GPa) = 47.42808 68.74833 58.08821
# Shear Modulus (GPa) = 20.71060 28.30863 24.50962
#
# Velocity S-wave (km/s) = 3.29929 3.85731 3.58916
# Velocity P-wave (km/s) = 6.28026 7.48145 6.90701
#
# Compressibility (1/GPa) = 0.02108455
#
# Stress axis : x y z
#
# Youngs Moduli (GPa) = 115.27395 50.61760 77.96819
#
# Poissons Ratio (x) = 0.21862 0.20384
# Poissons Ratio (y) = 0.49787 0.24581
# Poissons Ratio (z) = 0.30138 0.15958
#
# Static dielectric constant tensor:
#      x y z
#    x 3.810150 -0.034160 0.049290 
#    y -0.034160 3.763710 -0.244600 
#    z 0.049290 -0.244600 2.997660 
# 
# 
# High freq. dielectric constant tensor:
#      x y z
#    x 1.761770 -0.000360 0.005450 
#    y -0.000360 1.749530 -0.014030 
#    z 0.005450 -0.014030 1.671490 
# 
# From -- ./inp_files/156607.got.cif
#   From: 2010.06.25/outbox.cif.g09.slc.cpg/sg2_79_cif.got.tgz:156607.got - 2010.06.27 13:26:56.
