data_PCOD8039955
_publ_section_title
;
Structure prediction by ZEFSAII (Michael W. Deem and Ramdas Pophale) SiO2 
 PCOD8039955
Probable space group: P -1
;
_chemical_formula_sum "Si O2"
_cell_formula_units_Z 16
_cell_length_a 11.505596
_cell_length_b 16.553479
_cell_length_c 8.158832
_cell_angle_alpha 127.645739
_cell_angle_beta 96.392284
_cell_angle_gamma 123.296732
_cell_volume 758.907422
_symmetry_space_group_name_H-M "P -1"
_symmetry_group_IT_number 2
_symmetry_cell_setting 'triclinic'
loop_
_space_group_symop_operation_xyz
x,y,z
-x,-y,-z
loop_
_atom_site_type_symbol
_atom_site_label
_atom_site_fract_x
_atom_site_fract_y
_atom_site_fract_z
Si Si1 0.733469 0.249163 0.488042
Si Si2 0.212349 0.794806 0.210637
Si Si3 0.214326 0.120360 0.158716
Si Si4 0.489121 0.543257 0.225128
Si Si5 0.504364 0.862574 0.168352
Si Si6 0.201516 0.477803 0.261667
Si Si7 0.495729 0.350382 0.204437
Si Si8 0.658741 0.007950 0.014688
O O1 0.823538 0.290407 0.730698
O O2 0.797492 0.401024 0.620712
O O3 0.791156 0.197444 0.304956
O O4 0.503829 0.082924 0.259806
O O5 0.306902 0.781556 0.080650
O O6 0.336238 0.980077 0.494582
O O7 0.017799 0.702461 0.986734
O O8 0.333126 0.259895 0.488439
O O9 0.303981 0.209948 0.107429
O O10 0.217813 0.001144 0.039604
O O11 0.000000 0.000000 0.000000
O O12 0.299089 0.480644 0.133722
O O13 0.495489 0.461165 0.262914
O O14 0.500000 0.500000 0.000000
O O15 0.546173 0.902854 0.032885
O O16 0.497212 0.734758 0.037455
O O17 0.315389 0.530244 0.508879
#
# Coordination Sequence:
#
# PCOD8039955 Si02
#       8
#     2   2   2   2   2   2   2   2
#     4  10  18  35  59  88 120 158 195 249 299 357
#     4  10  22  34  60  91 124 153 200 250 308 361
#     4  10  20  41  66  92 124 165 212 249 300 373
#     4  11  25  43  64  91 123 161 211 260 313 358
#     4   9  19  40  57  85 123 159 199 247 305 364
#     4  11  21  41  60  86 124 162 201 251 309 367
#     4  10  22  44  66  82 126 167 207 254 307 366
#     4   9  18  36  61  86 122 164 198 246 304 364
#
# _framework density 21.082939
#
# number of rings (size 3 to 8) (size 9 to 14) (size 15 to 20)
#    0.000    2.000    3.750    1.875    1.750    3.500 
#    2.250   12.500    0.000    0.000    0.000    0.000 
#    0.000    0.000    0.000    0.000    0.000    0.000 
#
# Total GULP energy -198315.756340 kJ/mol
# GULP energy per Si atom -12394.734771 kJ/mol
# Density = 2.103495 g / cm^3
# Si number density = 21.082939 Si / 1000 Ang^3
#
#
#
# Elastic Constant Matrix: (Units=GPa)
#
#
# Indices 1 2 3 4 5 6 
#
# 1 171.4141 36.2480 91.8633 16.8725 -9.3238 8.7490
# 2 36.2480 44.4397 36.9445 -3.7769 2.4279 -3.7844
# 3 91.8633 36.9445 103.5161 6.5228 -2.6378 17.9275
# 4 16.8725 -3.7769 6.5228 22.5099 4.4864 -0.0739
# 5 -9.3238 2.4279 -2.6378 4.4864 48.7529 6.1668
# 6 8.7490 -3.7844 17.9275 -0.0739 6.1668 36.6723
#
#
#
# Elastic Compliance Matrix: (Units=1/GPa)
#
#
# Indices 1 2 3 4 5 6 
#
# 1 0.012435 -0.002776 -0.009688 -0.007484 0.002549 0.001039
# 2 -0.002776 0.040200 -0.015284 0.014573 -0.006394 0.013387
# 3 -0.009688 -0.015284 0.026130 -0.003354 0.002201 -0.012417
# 4 -0.007484 0.014573 -0.003354 0.055112 -0.008222 0.006423
# 5 0.002549 -0.006394 0.002201 -0.008222 0.022981 -0.006225
# 6 0.001039 0.013387 -0.012417 0.006423 -0.006225 0.035532
#
#
# Mechanical properties :
#
#
# Convention : Reuss Voigt Hill
#
# Bulk Modulus (GPa) = 42.97225 72.16463 57.56844
# Shear Modulus (GPa) = 19.55863 31.87462 25.71662
#
# Velocity S-wave (km/s) = 3.04912 3.89249 3.49633
# Velocity P-wave (km/s) = 5.72913 7.38277 6.60788
#
# Compressibility (1/GPa) = 0.02327083
#
# Stress axis : x y z
#
# Youngs Moduli (GPa) = 80.41817 24.87544 38.26967
#
# Poissons Ratio (x) = 0.06904 0.37076
# Poissons Ratio (y) = 0.22321 0.58491
# Poissons Ratio (z) = 0.77909 0.38019
#
# Static dielectric constant tensor:
#      x y z
#    x 4.176960 -0.205160 -0.374780 
#    y -0.205160 3.574300 0.037810 
#    z -0.374780 0.037810 4.045150 
# 
# 
# High freq. dielectric constant tensor:
#      x y z
#    x 1.838730 -0.011710 -0.024040 
#    y -0.011710 1.796410 -0.000100 
#    z -0.024040 -0.000100 1.826790 
# 
# From -- ./inp_files/278415.got.cif
#   From: 2010.06.25/outbox.cif.g09.slc.cpg/sg2_140_cif.got.tgz:278415.got - 2010.06.27 13:26:56.
