data_PCOD8039689
_publ_section_title
;
Structure prediction by ZEFSAII (Michael W. Deem and Ramdas Pophale) SiO2 
 PCOD8039689
Probable space group: P -1
;
_chemical_formula_sum "Si O2"
_cell_formula_units_Z 12
_cell_length_a 7.179724
_cell_length_b 12.142106
_cell_length_c 9.792329
_cell_angle_alpha 93.369039
_cell_angle_beta 45.252198
_cell_angle_gamma 78.873955
_cell_volume 571.219513
_symmetry_space_group_name_H-M "P -1"
_symmetry_group_IT_number 2
_symmetry_cell_setting 'triclinic'
loop_
_space_group_symop_operation_xyz
x,y,z
-x,-y,-z
loop_
_atom_site_type_symbol
_atom_site_label
_atom_site_fract_x
_atom_site_fract_y
_atom_site_fract_z
Si Si1 0.567855 0.488402 0.621968
Si Si2 0.077603 0.305067 0.271280
Si Si3 0.711538 0.070289 0.723125
Si Si4 0.197880 0.731573 0.845892
Si Si5 0.577184 0.105197 0.101715
Si Si6 0.334507 0.313856 0.873571
O O1 0.500000 0.500000 0.500000
O O2 0.474419 0.621315 0.736724
O O3 0.378166 0.422236 0.784489
O O4 0.894842 0.413763 0.468154
O O5 0.267335 0.199291 0.255866
O O6 0.863234 0.260235 0.285783
O O7 0.270833 0.347682 0.069591
O O8 0.604857 0.197406 0.716733
O O9 0.472442 0.010093 0.820493
O O10 0.743144 0.080015 0.871126
O O11 0.000000 0.000000 0.500000
O O12 0.241511 0.850252 0.881423
O O13 0.931805 0.712263 0.056873
#
# Coordination Sequence:
#
# PCOD8039689 Si02
#       6
#     2   2   2   2   2   2
#     4  10  18  34  60  80 115 149 175 224 276 323
#     4   8  19  35  56  80 114 145 174 225 272 317
#     4  10  21  39  59  77 112 147 182 235 273 320
#     4   9  20  35  57  85 110 146 181 223 269 333
#     4  10  20  40  57  81 113 144 183 227 278 317
#     4   9  19  36  55  81 112 143 184 223 274 321
#
# _framework density 21.007683
#
# number of rings (size 3 to 8) (size 9 to 14) (size 15 to 20)
#    1.000    1.667    0.000    1.500    0.000    1.333 
#    6.000    4.167    0.000    0.000    0.000    0.000 
#    0.000    0.000    0.000    0.000    0.000    0.000 
#
# Total GULP energy -148666.233865 kJ/mol
# GULP energy per Si atom -12388.852822 kJ/mol
# Density = 2.095987 g / cm^3
# Si number density = 21.007683 Si / 1000 Ang^3
#
#
#
# Elastic Constant Matrix: (Units=GPa)
#
#
# Indices 1 2 3 4 5 6 
#
# 1 27.6016 3.0815 6.2653 2.1085 1.1818 8.0443
# 2 3.0815 54.3290 2.0398 -7.2740 10.4156 13.6040
# 3 6.2653 2.0398 82.3777 20.2193 -12.5463 3.5695
# 4 2.1085 -7.2740 20.2193 36.2424 -9.4414 -3.1459
# 5 1.1818 10.4156 -12.5463 -9.4414 18.1379 6.2833
# 6 8.0443 13.6040 3.5695 -3.1459 6.2833 29.6090
#
#
#
# Elastic Compliance Matrix: (Units=1/GPa)
#
#
# Indices 1 2 3 4 5 6 
#
# 1 0.040080 0.000570 -0.002333 -0.002389 -0.002097 -0.010679
# 2 0.000570 0.022838 -0.002540 0.002441 -0.010950 -0.007759
# 3 -0.002333 -0.002540 0.015686 -0.006790 0.009938 -0.002921
# 4 -0.002389 0.002441 -0.006790 0.035233 0.011852 0.001574
# 5 -0.002097 -0.010950 0.009938 0.011852 0.078404 -0.010976
# 6 -0.010679 -0.007759 -0.002921 0.001574 -0.010976 0.043088
#
#
# Mechanical properties :
#
#
# Convention : Reuss Voigt Hill
#
# Bulk Modulus (GPa) = 14.28552 20.78683 17.53617
# Shear Modulus (GPa) = 18.70785 26.99265 22.85025
#
# Velocity S-wave (km/s) = 2.98740 3.58843 3.30162
# Velocity P-wave (km/s) = 4.32601 5.20437 4.78538
#
# Compressibility (1/GPa) = 0.07000097
#
# Stress axis : x y z
#
# Youngs Moduli (GPa) = 24.94997 43.78598 63.75023
#
# Poissons Ratio (x) = -0.02498 0.14871
# Poissons Ratio (y) = -0.01423 0.16190
# Poissons Ratio (z) = 0.05820 0.11120
#
# Static dielectric constant tensor:
#      x y z
#    x 3.313350 -0.140470 -0.115120 
#    y -0.140470 3.903330 0.399970 
#    z -0.115120 0.399970 3.956530 
# 
# 
# High freq. dielectric constant tensor:
#      x y z
#    x 1.781990 -0.013780 -0.014630 
#    y -0.013780 1.824710 0.018350 
#    z -0.014630 0.018350 1.821510 
# 
# From -- ./inp_files/246477.got.cif
#   From: 2010.06.25/outbox.cif.g09.slc.cpg/sg2_124_cif.got.tgz:246477.got - 2010.06.27 13:26:56.
