data_PCOD8039156
_publ_section_title
;
Structure prediction by ZEFSAII (Michael W. Deem and Ramdas Pophale) SiO2 
 PCOD8039156
Probable space group: P -1
;
_chemical_formula_sum "Si O2"
_cell_formula_units_Z 12
_cell_length_a 14.935278
_cell_length_b 8.753411
_cell_length_c 9.604267
_cell_angle_alpha 79.208298
_cell_angle_beta 137.395974
_cell_angle_gamma 127.031827
_cell_volume 597.518073
_symmetry_space_group_name_H-M "P -1"
_symmetry_group_IT_number 2
_symmetry_cell_setting 'triclinic'
loop_
_space_group_symop_operation_xyz
x,y,z
-x,-y,-z
loop_
_atom_site_type_symbol
_atom_site_label
_atom_site_fract_x
_atom_site_fract_y
_atom_site_fract_z
Si Si1 0.578873 0.404411 0.552888
Si Si2 0.043151 0.637928 0.658989
Si Si3 0.054318 0.428406 0.952241
Si Si4 0.643700 0.356861 0.338490
Si Si5 0.608741 0.928966 0.129492
Si Si6 0.329933 0.982110 0.511333
O O1 0.500000 0.500000 0.500000
O O2 0.578651 0.408204 0.384241
O O3 0.456876 0.159860 0.507604
O O4 0.786627 0.557317 0.819965
O O5 0.126683 0.592074 0.879009
O O6 0.000000 0.500000 0.500000
O O7 0.856768 0.568974 0.510148
O O8 0.193996 0.891339 0.751717
O O9 0.882628 0.179962 0.752203
O O10 0.000000 0.500000 0.000000
O O11 0.620130 0.157482 0.388697
O O12 0.515139 0.290407 0.068053
O O13 0.641501 0.899258 0.330837
O O14 0.500000 0.000000 0.000000
#
# Coordination Sequence:
#
# PCOD8039156 Si02
#       6
#     2   2   2   2   2   2
#     4  12  26  41  58  87 127 165 198 245 297 353
#     4  11  18  33  59  96 119 142 194 256 298 343
#     4  11  21  37  62  93 119 155 200 249 293 353
#     4  10  21  36  60  91 116 154 198 243 299 351
#     4  10  18  32  58  92 118 145 193 255 297 343
#     4  10  21  37  63  89 116 154 205 245 297 346
#
# _framework density 20.083074
#
# number of rings (size 3 to 8) (size 9 to 14) (size 15 to 20)
#    0.000    1.333    8.333    2.500    2.333    0.667 
#    0.000    0.833    0.000    2.000    0.000    0.000 
#    0.000    0.000    0.000    0.000    0.000    0.000 
#
# Total GULP energy -148792.926056 kJ/mol
# GULP energy per Si atom -12399.410505 kJ/mol
# Density = 2.003736 g / cm^3
# Si number density = 20.083074 Si / 1000 Ang^3
#
#
#
# Elastic Constant Matrix: (Units=GPa)
#
#
# Indices 1 2 3 4 5 6 
#
# 1 145.1142 25.5774 62.7437 3.4757 -11.0956 10.7169
# 2 25.5774 33.8957 12.6105 13.0064 9.9754 13.9484
# 3 62.7437 12.6105 136.8362 22.1485 -15.3599 -2.9586
# 4 3.4757 13.0064 22.1485 23.5174 6.6138 3.2205
# 5 -11.0956 9.9754 -15.3599 6.6138 38.3970 -1.4971
# 6 10.7169 13.9484 -2.9586 3.2205 -1.4971 30.3701
#
#
#
# Elastic Compliance Matrix: (Units=1/GPa)
#
#
# Indices 1 2 3 4 5 6 
#
# 1 0.010870 -0.009812 -0.005164 0.008146 0.002198 -0.000588
# 2 -0.009812 0.059420 0.001057 -0.025404 -0.014321 -0.021737
# 3 -0.005164 0.001057 0.012575 -0.013895 0.005825 0.004322
# 4 0.008146 -0.025404 -0.013895 0.071017 -0.008858 -0.000528
# 5 0.002198 -0.014321 0.005825 -0.008858 0.034607 0.009014
# 6 -0.000588 -0.021737 0.004322 -0.000528 0.009014 0.044040
#
#
# Mechanical properties :
#
#
# Convention : Reuss Voigt Hill
#
# Bulk Modulus (GPa) = 18.17271 57.52326 37.84798
# Shear Modulus (GPa) = 17.93988 32.78452 25.36220
#
# Velocity S-wave (km/s) = 2.99203 4.04474 3.55754
# Velocity P-wave (km/s) = 4.58309 7.10760 5.98008
#
# Compressibility (1/GPa) = 0.05502758
#
# Stress axis : x y z
#
# Youngs Moduli (GPa) = 91.99745 16.82924 79.52283
#
# Poissons Ratio (x) = 0.16512 0.41069
# Poissons Ratio (y) = 0.90264 -0.08408
# Poissons Ratio (z) = 0.47512 -0.01779
#
# Static dielectric constant tensor:
#      x y z
#    x 3.805380 0.443130 -0.124380 
#    y 0.443130 3.413540 0.462080 
#    z -0.124380 0.462080 4.582190 
# 
# 
# High freq. dielectric constant tensor:
#      x y z
#    x 1.781710 0.038120 -0.023120 
#    y 0.038120 1.741930 0.023980 
#    z -0.023120 0.023980 1.798670 
# 
# From -- ./inp_files/160503.got.cif
#   From: 2010.06.25/outbox.cif.g09.slc.cpg/sg2_81_cif.got.tgz:160503.got - 2010.06.27 13:26:56.
