data_PCOD8039773
_publ_section_title
;
Structure prediction by ZEFSAII (Michael W. Deem and Ramdas Pophale) SiO2 
 PCOD8039773
Probable space group: P -1
;
_chemical_formula_sum "Si O2"
_cell_formula_units_Z 16
_cell_length_a 6.739880
_cell_length_b 15.986411
_cell_length_c 13.720557
_cell_angle_alpha 34.362455
_cell_angle_beta 108.575954
_cell_angle_gamma 106.963221
_cell_volume 789.797692
_symmetry_space_group_name_H-M "P -1"
_symmetry_group_IT_number 2
_symmetry_cell_setting 'triclinic'
loop_
_space_group_symop_operation_xyz
x,y,z
-x,-y,-z
loop_
_atom_site_type_symbol
_atom_site_label
_atom_site_fract_x
_atom_site_fract_y
_atom_site_fract_z
Si Si1 0.668008 0.314096 0.030238
Si Si2 0.606936 0.319136 0.598463
Si Si3 0.253117 0.175217 0.579659
Si Si4 0.296779 0.580672 0.278044
Si Si5 0.956992 0.080802 0.315350
Si Si6 0.594915 0.860567 0.700979
Si Si7 0.460576 0.368951 0.256782
Si Si8 0.904048 0.359450 0.430610
O O1 0.888519 0.248944 0.160766
O O2 0.505303 0.184316 0.168294
O O3 0.661483 0.321152 0.905722
O O4 0.629841 0.469225 0.926994
O O5 0.445946 0.177645 0.685082
O O6 0.476485 0.464009 0.419991
O O7 0.680550 0.310783 0.729647
O O8 0.814366 0.325580 0.557408
O O9 0.324651 0.292478 0.394846
O O10 0.034467 0.221418 0.548130
O O11 0.217871 0.012178 0.685698
O O12 0.062003 0.504939 0.315275
O O13 0.169847 0.093241 0.276552
O O14 0.000000 0.000000 0.500000
O O15 0.575733 0.719458 0.762859
O O16 0.500000 0.000000 0.500000
O O17 0.708622 0.383039 0.305765
#
# Coordination Sequence:
#
# PCOD8039773 Si02
#       8
#     2   2   2   2   2   2   2   2
#     4  12  25  41  61  95 125 160 211 267 299 362
#     4   9  19  37  66  90 128 156 198 254 317 378
#     4  10  20  40  63  91 122 165 206 248 308 375
#     4  10  20  38  60  97 125 158 196 257 322 361
#     4  12  25  43  62  83 124 174 209 248 309 375
#     4  12  25  43  62  88 126 175 209 246 311 371
#     4  11  22  39  60  95 127 156 209 260 306 356
#     4  10  18  34  64  91 125 155 201 246 311 378
#
# _framework density 20.258351999999999
#
# number of rings (size 3 to 8) (size 9 to 14) (size 15 to 20)
#    0.000    1.250    6.250    1.500    1.750    1.500 
#    0.000    0.625    0.000    1.500    0.000    0.000 
#    0.000    0.000    0.000    0.000    0.000    0.000 
#
# Total GULP energy -198323.561484 kJ/mol
# GULP energy per Si atom -12395.222593 kJ/mol
# Density = 2.021224 g / cm^3
# Si number density = 20.258352 Si / 1000 Ang^3
#
#
#
# Elastic Constant Matrix: (Units=GPa)
#
#
# Indices 1 2 3 4 5 6 
#
# 1 142.0889 40.2111 43.4165 -4.7905 -10.5599 -1.5574
# 2 40.2111 131.6235 42.3089 -0.2615 -8.8000 3.0041
# 3 43.4165 42.3089 100.3696 -1.0204 -3.2620 -4.8195
# 4 -4.7905 -0.2615 -1.0204 25.7005 -7.4622 -5.4781
# 5 -10.5599 -8.8000 -3.2620 -7.4622 31.5407 -0.2253
# 6 -1.5574 3.0041 -4.8195 -5.4781 -0.2253 30.0205
#
#
#
# Elastic Compliance Matrix: (Units=1/GPa)
#
#
# Indices 1 2 3 4 5 6 
#
# 1 0.008665 -0.001519 -0.002966 0.002403 0.002743 0.000584
# 2 -0.001519 0.009259 -0.003267 -0.000158 0.001689 -0.001546
# 3 -0.002966 -0.003267 0.012718 0.000251 -0.000514 0.002257
# 4 0.002403 -0.000158 0.000251 0.044451 0.011363 0.008377
# 5 0.002743 0.001689 -0.000514 0.011363 0.035746 0.002233
# 6 0.000584 -0.001546 0.002257 0.008377 0.002233 0.035403
#
#
# Mechanical properties :
#
#
# Convention : Reuss Voigt Hill
#
# Bulk Modulus (GPa) = 66.06005 69.55057 67.80531
# Shear Modulus (GPa) = 29.97715 33.99536 31.98626
#
# Velocity S-wave (km/s) = 3.85092 4.10090 3.97787
# Velocity P-wave (km/s) = 7.24240 7.53853 7.39195
#
# Compressibility (1/GPa) = 0.01513774
#
# Stress axis : x y z
#
# Youngs Moduli (GPa) = 115.40102 107.99720 78.63027
#
# Poissons Ratio (x) = 0.16404 0.23325
# Poissons Ratio (y) = 0.17528 0.25689
# Poissons Ratio (z) = 0.34233 0.35284
#
# Static dielectric constant tensor:
#      x y z
#    x 4.023940 -0.014190 -0.090860 
#    y -0.014190 4.031690 0.040360 
#    z -0.090860 0.040360 3.454240 
# 
# 
# High freq. dielectric constant tensor:
#      x y z
#    x 1.814240 -0.005720 -0.006070 
#    y -0.005720 1.789550 -0.003500 
#    z -0.006070 -0.003500 1.760870 
# 
# From -- ./inp_files/485181.got.cif
#   From: 2010.06.25/outbox.cif.g09.slc.cpg/sg2_243_cif.got.tgz:485181.got - 2010.06.27 13:26:56.
