data_PCOD8039073
_publ_section_title
;
Structure prediction by ZEFSAII (Michael W. Deem and Ramdas Pophale) SiO2 
 PCOD8039073
Probable space group: P -1
;
_chemical_formula_sum "Si O2"
_cell_formula_units_Z 14
_cell_length_a 11.382080
_cell_length_b 10.846294
_cell_length_c 10.092117
_cell_angle_alpha 115.668779
_cell_angle_beta 37.311876
_cell_angle_gamma 120.672835
_cell_volume 648.651905
_symmetry_space_group_name_H-M "P -1"
_symmetry_group_IT_number 2
_symmetry_cell_setting 'triclinic'
loop_
_space_group_symop_operation_xyz
x,y,z
-x,-y,-z
loop_
_atom_site_type_symbol
_atom_site_label
_atom_site_fract_x
_atom_site_fract_y
_atom_site_fract_z
Si Si1 0.226141 0.035234 0.864639
Si Si2 0.482593 0.126638 0.422283
Si Si3 0.314217 0.007600 0.256883
Si Si4 0.278676 0.295007 0.113720
Si Si5 0.608523 0.684678 0.610789
Si Si6 0.324431 0.552875 0.022339
Si Si7 0.008675 0.286672 0.603578
O O1 0.380463 0.119595 0.652734
O O2 0.291612 0.892594 0.775577
O O3 0.242899 0.131716 0.024860
O O4 0.000000 0.000000 0.000000
O O5 0.484550 0.280811 0.428668
O O6 0.356458 0.001488 0.375405
O O7 0.113227 0.881171 0.339087
O O8 0.306530 0.168499 0.305958
O O9 0.500000 0.000000 0.000000
O O10 0.511821 0.355842 0.977612
O O11 0.118719 0.308897 0.373423
O O12 0.244506 0.387249 0.060498
O O13 0.429397 0.564074 0.788289
O O14 0.822807 0.648193 0.399490
O O15 0.140350 0.618148 0.212610
#
# Coordination Sequence:
#
# PCOD8039073 Si02
#       7
#     2   2   2   2   2   2   2
#     4  11  22  38  55  79 111 151 189 225 270 329
#     4   9  22  36  52  80 111 141 184 229 279 322
#     4  10  18  32  55  84 114 140 177 234 285 324
#     4  10  23  36  58  82 114 151 185 227 274 329
#     4   9  21  33  55  84 111 143 178 233 285 326
#     4  10  20  39  56  85 116 142 184 231 280 332
#     4  11  18  32  56  86 113 142 182 226 289 329
#
# _framework density 21.583224000000001
#
# number of rings (size 3 to 8) (size 9 to 14) (size 15 to 20)
#    0.857    1.143    1.429    2.571    2.000    3.429 
#    0.000    0.714    0.000    1.714    0.000    0.000 
#    0.000    0.000    0.000    0.000    0.000    0.000 
#
# Total GULP energy -173446.272008 kJ/mol
# GULP energy per Si atom -12389.019429 kJ/mol
# Density = 2.153410 g / cm^3
# Si number density = 21.583224 Si / 1000 Ang^3
#
#
#
# Elastic Constant Matrix: (Units=GPa)
#
#
# Indices 1 2 3 4 5 6 
#
# 1 85.6641 9.8327 24.4830 -1.6959 -22.7772 -20.0573
# 2 9.8327 41.3980 7.5704 -12.1303 -13.6948 -16.3201
# 3 24.4830 7.5704 68.6125 -10.7908 -26.6446 -4.0475
# 4 -1.6959 -12.1303 -10.7908 30.5593 -5.3887 8.4238
# 5 -22.7772 -13.6948 -26.6446 -5.3887 40.6837 4.0037
# 6 -20.0573 -16.3201 -4.0475 8.4238 4.0037 31.7368
#
#
#
# Elastic Compliance Matrix: (Units=1/GPa)
#
#
# Indices 1 2 3 4 5 6 
#
# 1 0.016653 0.003176 -0.002880 -0.000573 0.007346 0.011016
# 2 0.003176 0.040454 0.005797 0.017243 0.019856 0.016468
# 3 -0.002880 0.005797 0.024234 0.014449 0.018310 -0.001894
# 4 -0.000573 0.017243 0.014449 0.050130 0.022153 -0.005753
# 5 0.007346 0.019856 0.018310 0.022153 0.049808 0.005025
# 6 0.011016 0.016468 -0.001894 -0.005753 0.005025 0.047591
#
#
# Mechanical properties :
#
#
# Convention : Reuss Voigt Hill
#
# Bulk Modulus (GPa) = 10.69201 31.04965 20.87083
# Shear Modulus (GPa) = 20.17255 30.84853 25.51054
#
# Velocity S-wave (km/s) = 3.06050 3.78469 3.44170
# Velocity P-wave (km/s) = 4.17774 5.78928 5.04823
#
# Compressibility (1/GPa) = 0.09352782
#
# Stress axis : x y z
#
# Youngs Moduli (GPa) = 60.04766 24.71928 41.26409
#
# Poissons Ratio (x) = -0.07852 0.11886
# Poissons Ratio (y) = -0.19073 -0.23921
# Poissons Ratio (z) = 0.17296 -0.14330
#
# Static dielectric constant tensor:
#      x y z
#    x 4.161380 -0.449550 -0.087810 
#    y -0.449550 3.845430 -0.116260 
#    z -0.087810 -0.116260 3.902640 
# 
# 
# High freq. dielectric constant tensor:
#      x y z
#    x 1.846820 -0.033130 -0.011740 
#    y -0.033130 1.821660 -0.004670 
#    z -0.011740 -0.004670 1.848780 
# 
# From -- ./inp_files/249143.got.cif
#   From: 2010.06.25/outbox.cif.g09.slc.cpg/sg2_125_cif.got.tgz:249143.got - 2010.06.27 13:26:56.
