data_PCOD8039393
_publ_section_title
;
Structure prediction by ZEFSAII (Michael W. Deem and Ramdas Pophale) SiO2 
 PCOD8039393
Probable space group: P -1
;
_chemical_formula_sum "Si O2"
_cell_formula_units_Z 16
_cell_length_a 14.263672
_cell_length_b 9.572166
_cell_length_c 14.721475
_cell_angle_alpha 56.530080
_cell_angle_beta 143.832342
_cell_angle_gamma 135.610250
_cell_volume 828.213155
_symmetry_space_group_name_H-M "P -1"
_symmetry_group_IT_number 2
_symmetry_cell_setting 'triclinic'
loop_
_space_group_symop_operation_xyz
x,y,z
-x,-y,-z
loop_
_atom_site_type_symbol
_atom_site_label
_atom_site_fract_x
_atom_site_fract_y
_atom_site_fract_z
Si Si1 0.405923 0.577691 0.217191
Si Si2 0.390478 0.836068 0.258680
Si Si3 0.617078 0.286262 0.326642
Si Si4 0.525552 0.277818 0.451972
Si Si5 0.194738 0.396054 0.773037
Si Si6 0.896065 0.076020 0.772141
Si Si7 0.009743 0.774378 0.009095
Si Si8 0.485854 0.559355 0.092339
O O1 0.466751 0.763818 0.263170
O O2 0.493684 0.457679 0.368323
O O3 0.490612 0.665243 0.151955
O O4 0.179017 0.437549 0.083767
O O5 0.369715 0.715495 0.377202
O O6 0.184138 0.787959 0.088852
O O7 0.541542 0.070623 0.304550
O O8 0.658792 0.299803 0.462745
O O9 0.803206 0.451060 0.354644
O O10 0.456486 0.342244 0.170993
O O11 0.328950 0.062785 0.364728
O O12 0.313220 0.307741 0.852325
O O13 0.982511 0.222737 0.698645
O O14 0.311383 0.522166 0.908393
O O15 0.948396 0.204239 0.858402
O O16 0.992469 0.950780 0.894083
#
# Coordination Sequence:
#
# PCOD8039393 Si02
#       8
#     2   2   2   2   2   2   2   2
#     4  10  20  36  52  81 108 139 175 218 265 321
#     4  12  21  33  54  78 114 142 170 219 269 311
#     4   9  18  31  51  79 101 136 179 215 251 309
#     4  10  21  36  55  79 104 143 183 214 260 315
#     4   9  16  30  57  77 103 137 177 219 260 310
#     4  10  18  33  59  81 105 133 180 225 259 306
#     4  10  20  31  55  84 107 132 177 227 264 301
#     4   8  16  30  55  74 102 133 182 207 261 310
#
# _framework density 19.318697
#
# number of rings (size 3 to 8) (size 9 to 14) (size 15 to 20)
#    0.750    1.500    2.500    1.875    0.000    0.000 
#    0.000    1.250    0.000    0.750    0.000    0.000 
#    0.000    0.000    0.000    0.000    0.000    0.000 
#
# Total GULP energy -198297.496621 kJ/mol
# GULP energy per Si atom -12393.593539 kJ/mol
# Density = 1.927473 g / cm^3
# Si number density = 19.318697 Si / 1000 Ang^3
#
#
#
# Elastic Constant Matrix: (Units=GPa)
#
#
# Indices 1 2 3 4 5 6 
#
# 1 103.3715 53.3138 16.5216 -7.3634 -31.2155 -0.1439
# 2 53.3138 61.2191 5.7717 -2.5492 -9.4424 -15.2488
# 3 16.5216 5.7717 38.0112 -2.7409 -14.9377 -4.9545
# 4 -7.3634 -2.5492 -2.7409 13.8379 1.3702 -5.9460
# 5 -31.2155 -9.4424 -14.9377 1.3702 28.2792 3.0459
# 6 -0.1439 -15.2488 -4.9545 -5.9460 3.0459 36.7884
#
#
#
# Elastic Compliance Matrix: (Units=1/GPa)
#
#
# Indices 1 2 3 4 5 6 
#
# 1 0.031935 -0.026520 -0.000478 0.003912 0.027307 -0.012561
# 2 -0.026520 0.041680 0.001353 0.003834 -0.016915 0.019375
# 3 -0.000478 0.001353 0.034191 0.007182 0.017108 0.004908
# 4 0.003912 0.003834 0.007182 0.082837 0.003693 0.015655
# 5 0.027307 -0.016915 0.017108 0.003693 0.069767 -0.009780
# 6 -0.012561 0.019375 0.004908 0.015655 -0.009780 0.039165
#
#
# Mechanical properties :
#
#
# Convention : Reuss Voigt Hill
#
# Bulk Modulus (GPa) = 17.69421 39.31289 28.50355
# Shear Modulus (GPa) = 13.52431 24.24743 18.88587
#
# Velocity S-wave (km/s) = 2.64874 3.54662 3.13004
# Velocity P-wave (km/s) = 4.30505 6.09633 5.27725
#
# Compressibility (1/GPa) = 0.05651567
#
# Stress axis : x y z
#
# Youngs Moduli (GPa) = 31.31335 23.99249 29.24735
#
# Poissons Ratio (x) = 0.63629 0.01397
# Poissons Ratio (y) = 0.83044 -0.03957
# Poissons Ratio (z) = 0.01496 -0.03246
#
# Static dielectric constant tensor:
#      x y z
#    x 3.596440 0.077120 -0.142090 
#    y 0.077120 3.177860 -0.199000 
#    z -0.142090 -0.199000 3.421640 
# 
# 
# High freq. dielectric constant tensor:
#      x y z
#    x 1.754090 0.002900 -0.007490 
#    y 0.002900 1.712930 -0.015340 
#    z -0.007490 -0.015340 1.742960 
# 
# From -- ./inp_files/527376.got.cif
#   From: 2010.06.25/outbox.cif.g09.slc.cpg/sg2_264_cif.got.tgz:527376.got - 2010.06.27 13:26:56.
