data_PCOD8039868
_publ_section_title
;
Structure prediction by ZEFSAII (Michael W. Deem and Ramdas Pophale) SiO2 
 PCOD8039868
Probable space group: P -1
;
_chemical_formula_sum "Si O2"
_cell_formula_units_Z 16
_cell_length_a 14.127655
_cell_length_b 14.079347
_cell_length_c 12.308445
_cell_angle_alpha 58.536991
_cell_angle_beta 81.046688
_cell_angle_gamma 32.719715
_cell_volume 890.183230
_symmetry_space_group_name_H-M "P -1"
_symmetry_group_IT_number 2
_symmetry_cell_setting 'triclinic'
loop_
_space_group_symop_operation_xyz
x,y,z
-x,-y,-z
loop_
_atom_site_type_symbol
_atom_site_label
_atom_site_fract_x
_atom_site_fract_y
_atom_site_fract_z
Si Si1 0.148352 0.737594 0.805909
Si Si2 0.656177 0.588711 0.832956
Si Si3 0.842151 0.600005 0.697916
Si Si4 0.546666 0.982425 0.331006
Si Si5 0.865232 0.350750 0.365324
Si Si6 0.691635 0.776191 0.185640
Si Si7 0.327410 0.771023 0.673893
Si Si8 0.692005 0.311557 0.497383
O O1 0.212937 0.593894 0.776577
O O2 0.262562 0.739979 0.787381
O O3 0.198198 0.618214 0.976103
O O4 0.887019 0.027960 0.672074
O O5 0.819599 0.489612 0.784534
O O6 0.540072 0.613597 0.771504
O O7 0.468876 0.866331 0.753495
O O8 0.753449 0.725693 0.519746
O O9 0.100316 0.362449 0.798653
O O10 0.685909 0.820745 0.689686
O O11 0.587027 0.902550 0.248316
O O12 0.777174 0.561554 0.291377
O O13 0.761222 0.367411 0.452064
O O14 0.130242 0.065035 0.507404
O O15 0.500000 0.000000 0.000000
O O16 0.395875 0.634898 0.634981
O O17 0.500000 0.500000 0.500000
#
# Coordination Sequence:
#
# PCOD8039868 Si02
#       8
#     2   2   2   2   2   2   2   2
#     4   9  18  35  55  79 110 140 177 237 278 332
#     4  10  18  35  57  83 106 144 186 232 284 322
#     4   9  22  39  55  82 117 149 199 225 281 336
#     4   9  21  40  58  80 120 151 191 233 275 339
#     4   9  20  36  53  79 110 148 186 218 286 342
#     4  12  23  37  59  88 118 150 192 238 283 334
#     4   9  18  34  59  76 105 146 185 220 279 349
#     4   9  19  36  53  79 109 140 183 228 273 340
#
# _framework density 17.973827
#
# number of rings (size 3 to 8) (size 9 to 14) (size 15 to 20)
#    0.750    1.750    0.000    3.750    0.000    2.500 
#    2.250    1.875    0.000    0.000    0.000    0.000 
#    0.000    0.000    0.000    0.000    0.000    0.000 
#
# Total GULP energy -198255.240151 kJ/mol
# GULP energy per Si atom -12390.952509 kJ/mol
# Density = 1.793292 g / cm^3
# Si number density = 17.973827 Si / 1000 Ang^3
#
#
#
# Elastic Constant Matrix: (Units=GPa)
#
#
# Indices 1 2 3 4 5 6 
#
# 1 92.4620 35.9780 43.8644 6.9470 3.0037 -0.7629
# 2 35.9780 95.7199 25.1732 10.5366 6.0226 -12.0634
# 3 43.8644 25.1732 109.7367 20.0357 -2.2399 -10.4139
# 4 6.9470 10.5366 20.0357 14.2869 -0.0109 1.1163
# 5 3.0037 6.0226 -2.2399 -0.0109 29.8506 -9.2520
# 6 -0.7629 -12.0634 -10.4139 1.1163 -9.2520 23.7675
#
#
#
# Elastic Compliance Matrix: (Units=1/GPa)
#
#
# Indices 1 2 3 4 5 6 
#
# 1 0.015828 -0.005520 -0.007012 0.006745 -0.003143 -0.006906
# 2 -0.005520 0.014322 0.001750 -0.010999 0.000442 0.008548
# 3 -0.007012 0.001750 0.016702 -0.022157 0.004997 0.010967
# 4 0.006745 -0.010999 -0.022157 0.107685 -0.007190 -0.022931
# 5 -0.003143 0.000442 0.004997 -0.007190 0.039713 0.018110
# 6 -0.006906 0.008548 0.010967 -0.022931 0.018110 0.059123
#
#
# Mechanical properties :
#
#
# Convention : Reuss Voigt Hill
#
# Bulk Modulus (GPa) = 39.54479 56.43888 47.99184
# Shear Modulus (GPa) = 17.64500 26.44119 22.04310
#
# Velocity S-wave (km/s) = 3.13662 3.83965 3.50580
# Velocity P-wave (km/s) = 5.93017 7.15024 6.56859
#
# Compressibility (1/GPa) = 0.02528778
#
# Stress axis : x y z
#
# Youngs Moduli (GPa) = 63.17938 69.82194 59.87247
#
# Poissons Ratio (x) = 0.38544 0.41980
# Poissons Ratio (y) = 0.34877 -0.10476
# Poissons Ratio (z) = 0.44298 -0.12216
#
# Static dielectric constant tensor:
#      x y z
#    x 3.228710 -0.039630 -0.071600 
#    y -0.039630 3.144530 0.012370 
#    z -0.071600 0.012370 3.256260 
# 
# 
# High freq. dielectric constant tensor:
#      x y z
#    x 1.693050 -0.001950 -0.006040 
#    y -0.001950 1.680520 0.003240 
#    z -0.006040 0.003240 1.701360 
# 
# From -- ./inp_files/453709.got.cif
#   From: 2010.06.25/outbox.cif.g09.slc.cpg/sg2_227_cif.got.tgz:453709.got - 2010.06.27 13:26:56.
