data_PCOD8039391
_publ_section_title
;
Structure prediction by ZEFSAII (Michael W. Deem and Ramdas Pophale) SiO2 
 PCOD8039391
Probable space group: P -1
;
_chemical_formula_sum "Si O2"
_cell_formula_units_Z 16
_cell_length_a 12.200494
_cell_length_b 27.314143
_cell_length_c 11.200447
_cell_angle_alpha 139.372338
_cell_angle_beta 136.134635
_cell_angle_gamma 20.214910
_cell_volume 839.164222
_symmetry_space_group_name_H-M "P -1"
_symmetry_group_IT_number 2
_symmetry_cell_setting 'triclinic'
loop_
_space_group_symop_operation_xyz
x,y,z
-x,-y,-z
loop_
_atom_site_type_symbol
_atom_site_label
_atom_site_fract_x
_atom_site_fract_y
_atom_site_fract_z
Si Si1 0.251831 0.030890 0.078353
Si Si2 0.140334 0.843177 0.210243
Si Si3 0.818308 0.672122 0.207166
Si Si4 0.570203 0.740352 0.782416
Si Si5 0.962541 0.084543 0.473759
Si Si6 0.149579 0.474166 0.879147
Si Si7 0.746891 0.164304 0.066432
Si Si8 0.497565 0.951527 0.527691
O O1 0.438359 0.026829 0.262278
O O2 0.934739 0.156894 0.144546
O O3 0.130962 0.087777 0.952096
O O4 0.476946 0.865456 0.964479
O O5 0.052363 0.865809 0.320931
O O6 0.483812 0.666648 0.126474
O O7 0.143049 0.930811 0.344737
O O8 0.942769 0.571426 0.230112
O O9 0.776131 0.775424 0.405605
O O10 0.475174 0.778685 0.104322
O O11 0.055339 0.570553 0.091203
O O12 0.403231 0.779099 0.602863
O O13 0.453842 0.733028 0.784355
O O14 0.952053 0.574328 0.786615
O O15 0.155169 0.053759 0.470195
O O16 0.000000 0.000000 0.000000
O O17 0.500000 0.000000 0.500000
#
# Coordination Sequence:
#
# PCOD8039391 Si02
#       8
#     2   2   2   2   2   2   2   2
#     4  10  19  32  54  81 109 146 180 221 275 322
#     4  10  20  38  59  78 110 147 186 228 262 321
#     4  10  19  32  53  84 111 141 178 225 274 323
#     4   9  18  32  55  82 106 142 184 227 268 317
#     4  10  21  37  57  83 107 142 194 227 261 317
#     4  10  18  33  59  79 113 140 179 229 272 317
#     4   9  14  28  51  75 103 134 179 220 260 305
#     4  12  21  34  57  85 114 138 182 231 273 321
#
# _framework density 19.066590000000001
#
# number of rings (size 3 to 8) (size 9 to 14) (size 15 to 20)
#    0.000    2.000    2.500    4.500    0.000    1.000 
#    0.000    0.625    2.750    3.000    0.000    0.000 
#    0.000    0.000    0.000    0.000    0.000    0.000 
#
# Total GULP energy -198263.815134 kJ/mol
# GULP energy per Si atom -12391.488446 kJ/mol
# Density = 1.902319 g / cm^3
# Si number density = 19.066590 Si / 1000 Ang^3
#
#
#
# Elastic Constant Matrix: (Units=GPa)
#
#
# Indices 1 2 3 4 5 6 
#
# 1 60.5259 23.5963 23.7197 4.0954 -7.6455 6.0021
# 2 23.5963 123.2463 40.7309 -2.1123 -7.7853 10.8709
# 3 23.7197 40.7309 103.1625 -2.0359 -6.7167 10.2667
# 4 4.0954 -2.1123 -2.0359 23.7032 2.1828 -3.2977
# 5 -7.6455 -7.7853 -6.7167 2.1828 23.5743 -3.5407
# 6 6.0021 10.8709 10.2667 -3.2977 -3.5407 23.5222
#
#
#
# Elastic Compliance Matrix: (Units=1/GPa)
#
#
# Indices 1 2 3 4 5 6 
#
# 1 0.019845 -0.002300 -0.003180 -0.004705 0.004824 -0.002546
# 2 -0.002300 0.009854 -0.003034 0.000571 0.001234 -0.002377
# 3 -0.003180 -0.003034 0.011971 0.000842 0.000885 -0.002760
# 4 -0.004705 0.000571 0.000842 0.044374 -0.004283 0.006146
# 5 0.004824 0.001234 0.000885 -0.004283 0.045653 0.004084
# 6 -0.002546 -0.002377 -0.002760 0.006146 0.004084 0.046943
#
#
# Mechanical properties :
#
#
# Convention : Reuss Voigt Hill
#
# Bulk Modulus (GPa) = 40.57918 51.44760 46.01339
# Shear Modulus (GPa) = 24.52394 27.41911 25.97153
#
# Velocity S-wave (km/s) = 3.59029 3.79630 3.69473
# Velocity P-wave (km/s) = 6.20612 6.80129 6.51051
#
# Compressibility (1/GPa) = 0.02464318
#
# Stress axis : x y z
#
# Youngs Moduli (GPa) = 50.39063 101.48004 83.53263
#
# Poissons Ratio (x) = 0.23338 0.26565
# Poissons Ratio (y) = 0.11589 0.25341
# Poissons Ratio (z) = 0.16025 0.30786
#
# Static dielectric constant tensor:
#      x y z
#    x 3.394040 -0.012000 -0.261670 
#    y -0.012000 3.804660 -0.041950 
#    z -0.261670 -0.041950 3.350000 
# 
# 
# High freq. dielectric constant tensor:
#      x y z
#    x 1.717460 0.008580 -0.022200 
#    y 0.008580 1.744810 -0.007310 
#    z -0.022200 -0.007310 1.715360 
# 
# From -- ./inp_files/277217.got.cif
#   From: 2010.06.25/outbox.cif.g09.slc.cpg/sg2_139_cif.got.tgz:277217.got - 2010.06.27 13:26:56.
