data_PCOD8039339
_publ_section_title
;
Structure prediction by ZEFSAII (Michael W. Deem and Ramdas Pophale) SiO2 
 PCOD8039339
Probable space group: P -1
;
_chemical_formula_sum "Si O2"
_cell_formula_units_Z 16
_cell_length_a 16.032179
_cell_length_b 13.258280
_cell_length_c 11.884920
_cell_angle_alpha 54.077398
_cell_angle_beta 44.049544
_cell_angle_gamma 26.133328
_cell_volume 759.366985
_symmetry_space_group_name_H-M "P -1"
_symmetry_group_IT_number 2
_symmetry_cell_setting 'triclinic'
loop_
_space_group_symop_operation_xyz
x,y,z
-x,-y,-z
loop_
_atom_site_type_symbol
_atom_site_label
_atom_site_fract_x
_atom_site_fract_y
_atom_site_fract_z
Si Si1 0.421512 0.891518 0.305223
Si Si2 0.195757 0.284730 0.871513
Si Si3 0.369950 0.946262 0.567912
Si Si4 0.064224 0.073072 0.943820
Si Si5 0.283513 0.307497 0.423515
Si Si6 0.085777 0.382563 0.264115
Si Si7 0.655801 0.593965 0.063356
Si Si8 0.398003 0.848047 0.939021
O O1 0.574884 0.876187 0.189366
O O2 0.375737 0.873076 0.486412
O O3 0.205705 0.143251 0.287478
O O4 0.544646 0.687875 0.234599
O O5 0.142618 0.400592 0.729379
O O6 0.213679 0.121410 0.944854
O O7 0.000000 0.500000 0.000000
O O8 0.586102 0.732345 0.576537
O O9 0.148288 0.093797 0.751625
O O10 0.372760 0.091898 0.451869
O O11 0.845429 0.322698 0.052714
O O12 0.264564 0.869836 0.972931
O O13 0.000000 0.000000 0.000000
O O14 0.355583 0.324216 0.233214
O O15 0.014795 0.535045 0.563697
O O16 0.249651 0.352078 0.093637
O O17 0.453755 0.739097 0.076998
#
# Coordination Sequence:
#
# PCOD8039339 Si02
#       8
#     2   2   2   2   2   2   2   2
#     4  12  23  33  56  96 125 157 189 228 302 374
#     4  12  19  32  52  83 130 161 181 223 282 364
#     4  10  19  37  59  86 121 150 198 244 291 349
#     4  11  25  45  66  82 107 159 213 252 290 334
#     4  10  18  33  57  88 122 158 185 237 295 351
#     4  12  20  30  55  90 127 160 181 223 296 360
#     4  12  23  37  59  88 124 159 193 239 295 354
#     4  11  22  38  59  89 122 151 195 245 290 356
#
# _framework density 21.070183
#
# number of rings (size 3 to 8) (size 9 to 14) (size 15 to 20)
#    0.000    0.750    7.500    1.875    1.750    1.500 
#    0.000    0.625    0.000    0.750    0.000    0.000 
#    0.000    0.000    0.000    0.000    0.000    0.000 
#
# Total GULP energy -198231.165043 kJ/mol
# GULP energy per Si atom -12389.447815 kJ/mol
# Density = 2.102223 g / cm^3
# Si number density = 21.070183 Si / 1000 Ang^3
#
#
#
# Elastic Constant Matrix: (Units=GPa)
#
#
# Indices 1 2 3 4 5 6 
#
# 1 93.9011 13.9383 34.3465 -1.1107 18.5684 -0.8634
# 2 13.9383 59.3047 20.8050 18.4557 11.4144 2.2684
# 3 34.3465 20.8050 57.9412 20.6044 26.4139 8.0559
# 4 -1.1107 18.4557 20.6044 29.2252 5.0752 10.4359
# 5 18.5684 11.4144 26.4139 5.0752 35.3364 1.0018
# 6 -0.8634 2.2684 8.0559 10.4359 1.0018 26.6631
#
#
#
# Elastic Compliance Matrix: (Units=1/GPa)
#
#
# Indices 1 2 3 4 5 6 
#
# 1 0.015645 -0.002832 -0.012327 0.010955 0.000330 0.000172
# 2 -0.002832 0.022876 0.000190 -0.015471 -0.003938 0.004108
# 3 -0.012327 0.000190 0.045344 -0.027620 -0.023442 -0.002424
# 4 0.010955 -0.015471 -0.027620 0.068125 0.010586 -0.017046
# 5 0.000330 -0.003938 -0.023442 0.010586 0.045356 0.001581
# 6 0.000172 0.004108 -0.002424 -0.017046 0.001581 0.044506
#
#
# Mechanical properties :
#
#
# Convention : Reuss Voigt Hill
#
# Bulk Modulus (GPa) = 18.54347 38.81408 28.67878
# Shear Modulus (GPa) = 17.25537 27.71541 22.48539
#
# Velocity S-wave (km/s) = 2.86483 3.63076 3.27030
# Velocity P-wave (km/s) = 4.44555 6.00315 5.28208
#
# Compressibility (1/GPa) = 0.05392732
#
# Stress axis : x y z
#
# Youngs Moduli (GPa) = 63.91949 43.71325 22.05372
#
# Poissons Ratio (x) = 0.12378 0.27186
# Poissons Ratio (y) = 0.18100 -0.00419
# Poissons Ratio (z) = 0.78795 -0.00831
#
# Static dielectric constant tensor:
#      x y z
#    x 3.980890 -0.153830 0.717960 
#    y -0.153830 3.281710 0.132760 
#    z 0.717960 0.132760 3.967150 
# 
# 
# High freq. dielectric constant tensor:
#      x y z
#    x 1.818080 -0.031920 0.040510 
#    y -0.031920 1.806370 0.039370 
#    z 0.040510 0.039370 1.806320 
# 
# From -- ./inp_files/451238.got.cif
#   From: 2010.06.25/outbox.cif.g09.slc.cpg/sg2_226_cif.got.tgz:451238.got - 2010.06.27 13:26:56.
