data_PCOD8039042
_publ_section_title
;
Structure prediction by ZEFSAII (Michael W. Deem and Ramdas Pophale) SiO2 
 PCOD8039042
Probable space group: P -1
;
_chemical_formula_sum "Si O2"
_cell_formula_units_Z 14
_cell_length_a 10.870446
_cell_length_b 14.716746
_cell_length_c 8.608242
_cell_angle_alpha 90.370871
_cell_angle_beta 66.402722
_cell_angle_gamma 135.632117
_cell_volume 793.954061
_symmetry_space_group_name_H-M "P -1"
_symmetry_group_IT_number 2
_symmetry_cell_setting 'triclinic'
loop_
_space_group_symop_operation_xyz
x,y,z
-x,-y,-z
loop_
_atom_site_type_symbol
_atom_site_label
_atom_site_fract_x
_atom_site_fract_y
_atom_site_fract_z
Si Si1 0.409484 0.629514 0.461928
Si Si2 0.734257 0.614429 0.949872
Si Si3 0.186552 0.363470 0.737114
Si Si4 0.330766 0.603897 0.139378
Si Si5 0.850665 0.846898 0.380843
Si Si6 0.791396 0.824247 0.774526
Si Si7 0.007675 0.455622 0.831193
O O1 0.373986 0.506208 0.536536
O O2 0.383672 0.623363 0.292240
O O3 0.648119 0.782589 0.391475
O O4 0.232561 0.600343 0.635020
O O5 0.814407 0.557997 0.849070
O O6 0.867159 0.769380 0.816010
O O7 0.500000 0.500000 0.000000
O O8 0.722018 0.614990 0.141091
O O9 0.091084 0.223995 0.704012
O O10 0.999297 0.341117 0.851991
O O11 0.191472 0.619996 0.175788
O O12 0.550652 0.725710 0.935506
O O13 0.801522 0.818881 0.586185
O O14 0.051637 0.015408 0.241003
O O15 0.000000 0.500000 0.000000
#
# Coordination Sequence:
#
# PCOD8039042 Si02
#       7
#     2   2   2   2   2   2   2
#     4  10  21  32  60  80 111 140 178 229 264 322
#     4  10  18  32  54  81 105 138 179 224 268 311
#     4  10  21  33  56  82 108 145 175 228 266 319
#     4  11  19  37  55  84 110 140 186 218 270 319
#     4  11  20  39  52  83 111 140 185 220 279 314
#     4  10  23  34  59  77 111 147 175 231 268 323
#     4  10  20  36  55  83 108 145 180 218 271 315
#
# _framework density 17.633261999999998
#
# number of rings (size 3 to 8) (size 9 to 14) (size 15 to 20)
#    0.857    0.857    1.429    6.000    0.000    2.286 
#    0.000    0.714    0.000    0.857    0.000    0.000 
#    0.000    0.000    0.000    0.000    0.000    0.000 
#
# Total GULP energy -173527.364770 kJ/mol
# GULP energy per Si atom -12394.811769 kJ/mol
# Density = 1.759313 g / cm^3
# Si number density = 17.633262 Si / 1000 Ang^3
#
#
#
# Elastic Constant Matrix: (Units=GPa)
#
#
# Indices 1 2 3 4 5 6 
#
# 1 114.2061 56.5708 45.6643 -1.9686 4.3263 6.1670
# 2 56.5708 124.2792 50.7366 5.5906 1.9021 -4.4891
# 3 45.6643 50.7366 83.2259 7.2746 4.9166 -4.6492
# 4 -1.9686 5.5906 7.2746 27.7336 2.0981 3.6872
# 5 4.3263 1.9021 4.9166 2.0981 37.8854 6.2547
# 6 6.1670 -4.4891 -4.6492 3.6872 6.2547 18.1393
#
#
#
# Elastic Compliance Matrix: (Units=1/GPa)
#
#
# Indices 1 2 3 4 5 6 
#
# 1 0.013744 -0.004427 -0.005726 0.004436 0.000523 -0.008318
# 2 -0.004427 0.012167 -0.004597 -0.002060 -0.000016 0.003762
# 3 -0.005726 -0.004597 0.018999 -0.005285 -0.002548 0.007631
# 4 0.004436 -0.002060 -0.005285 0.039696 -0.000028 -0.011432
# 5 0.000523 -0.000016 -0.002548 -0.000028 0.028424 -0.010630
# 6 -0.008318 0.003762 0.007631 -0.011432 -0.010630 0.066833
#
#
# Mechanical properties :
#
#
# Convention : Reuss Voigt Hill
#
# Bulk Modulus (GPa) = 64.89312 69.73939 67.31625
# Shear Modulus (GPa) = 23.31027 28.00097 25.65562
#
# Velocity S-wave (km/s) = 3.63981 3.98925 3.81853
# Velocity P-wave (km/s) = 7.38550 7.80093 7.59606
#
# Compressibility (1/GPa) = 0.01540996
#
# Stress axis : x y z
#
# Youngs Moduli (GPa) = 72.75915 82.18936 52.63564
#
# Poissons Ratio (x) = 0.36382 0.30138
# Poissons Ratio (y) = 0.32208 0.24199
# Poissons Ratio (z) = 0.41660 0.37786
#
# Static dielectric constant tensor:
#      x y z
#    x 3.593350 -0.253180 -0.004030 
#    y -0.253180 3.378530 0.072380 
#    z -0.004030 0.072380 3.321340 
# 
# 
# High freq. dielectric constant tensor:
#      x y z
#    x 1.686150 -0.001270 0.011920 
#    y -0.001270 1.662170 0.021700 
#    z 0.011920 0.021700 1.685880 
# 
# From -- ./inp_files/195104.got.cif
#   From: 2010.06.25/outbox.cif.g09.slc.cpg/sg2_98_cif.got.tgz:195104.got - 2010.06.27 13:26:56.
