data_PCOD8039661
_publ_section_title
;
Structure prediction by ZEFSAII (Michael W. Deem and Ramdas Pophale) SiO2 
 PCOD8039661
Probable space group: P -1
;
_chemical_formula_sum "Si O2"
_cell_formula_units_Z 16
_cell_length_a 15.378108
_cell_length_b 21.263700
_cell_length_c 13.427998
_cell_angle_alpha 35.098103
_cell_angle_beta 25.260287
_cell_angle_gamma 25.476252
_cell_volume 805.925362
_symmetry_space_group_name_H-M "P -1"
_symmetry_group_IT_number 2
_symmetry_cell_setting 'triclinic'
loop_
_space_group_symop_operation_xyz
x,y,z
-x,-y,-z
loop_
_atom_site_type_symbol
_atom_site_label
_atom_site_fract_x
_atom_site_fract_y
_atom_site_fract_z
Si Si1 0.366615 0.463233 0.610934
Si Si2 0.760281 0.648244 0.955768
Si Si3 0.164192 0.861245 0.883041
Si Si4 0.575163 0.886202 0.694778
Si Si5 0.675137 0.805966 0.476447
Si Si6 0.372856 0.488636 0.865860
Si Si7 0.885584 0.174247 0.796276
Si Si8 0.232165 0.613040 0.065376
O O1 0.500000 0.500000 0.500000
O O2 0.381332 0.338035 0.810284
O O3 0.547470 0.419134 0.380653
O O4 0.049930 0.602000 0.736435
O O5 0.823245 0.515958 0.994848
O O6 0.558524 0.805938 0.906413
O O7 0.445771 0.827271 0.622407
O O8 0.157119 0.800262 0.074504
O O9 0.174282 0.763509 0.915053
O O10 0.905819 0.038098 0.916786
O O11 0.607343 0.806563 0.661866
O O12 0.835311 0.868856 0.465998
O O13 0.323121 0.062272 0.719022
O O14 0.971277 0.653007 0.339964
O O15 0.646089 0.319046 0.799942
O O16 0.249232 0.548233 0.025439
O O17 0.500000 0.500000 0.000000
#
# Coordination Sequence:
#
# PCOD8039661 Si02
#       8
#     2   2   2   2   2   2   2   2
#     4   9  20  38  57  89 115 137 191 249 294 340
#     4  10  20  34  61  89 109 148 189 245 295 330
#     4  10  21  35  53  74 117 156 196 230 267 331
#     4  10  18  34  59  82 114 149 195 241 277 331
#     4  10  22  35  52  83 116 157 197 227 271 346
#     4  11  21  35  57  84 118 151 185 237 290 343
#     4  10  18  35  54  81 109 155 195 232 277 327
#     4  12  24  37  50  83 125 163 190 229 281 349
#
# _framework density 19.852955000000001
#
# number of rings (size 3 to 8) (size 9 to 14) (size 15 to 20)
#    0.000    1.750    3.750    0.750    3.500    1.500 
#    0.000    0.000    0.000    0.750    0.000    6.125 
#    0.000    0.000    0.000    0.000    0.000    0.000 
#
# Total GULP energy -198281.237457 kJ/mol
# GULP energy per Si atom -12392.577341 kJ/mol
# Density = 1.980777 g / cm^3
# Si number density = 19.852955 Si / 1000 Ang^3
#
#
#
# Elastic Constant Matrix: (Units=GPa)
#
#
# Indices 1 2 3 4 5 6 
#
# 1 68.5745 31.1811 15.4495 2.1987 -0.1586 -4.1334
# 2 31.1811 80.0080 31.7061 6.6927 7.1998 -2.6451
# 3 15.4495 31.7061 77.7372 -2.0840 11.5644 -9.0145
# 4 2.1987 6.6927 -2.0840 35.4005 -3.0768 -0.0289
# 5 -0.1586 7.1998 11.5644 -3.0768 25.6685 -7.7017
# 6 -4.1334 -2.6451 -9.0145 -0.0289 -7.7017 29.1998
#
#
#
# Elastic Compliance Matrix: (Units=1/GPa)
#
#
# Indices 1 2 3 4 5 6 
#
# 1 0.018090 -0.006917 -0.000961 0.000415 0.003286 0.002504
# 2 -0.006917 0.018046 -0.005795 -0.003634 -0.003551 -0.002074
# 3 -0.000961 -0.005795 0.016530 0.001726 -0.004656 0.003216
# 4 0.000415 -0.003634 0.001726 0.029376 0.004184 0.001395
# 5 0.003286 -0.003551 -0.004656 0.004184 0.045812 0.010794
# 6 0.002504 -0.002074 0.003216 0.001395 0.010794 0.038255
#
#
# Mechanical properties :
#
#
# Convention : Reuss Voigt Hill
#
# Bulk Modulus (GPa) = 39.49543 42.55478 41.02510
# Shear Modulus (GPa) = 24.76539 27.91929 26.34234
#
# Velocity S-wave (km/s) = 3.53574 3.75414 3.64658
# Velocity P-wave (km/s) = 6.05027 6.34610 6.19995
#
# Compressibility (1/GPa) = 0.02531939
#
# Stress axis : x y z
#
# Youngs Moduli (GPa) = 55.28060 55.41441 60.49464
#
# Poissons Ratio (x) = 0.38328 0.05816
# Poissons Ratio (y) = 0.38235 0.35058
# Poissons Ratio (z) = 0.05315 0.32114
#
# Static dielectric constant tensor:
#      x y z
#    x 3.634780 -0.164050 -0.179790 
#    y -0.164050 3.566570 -0.206600 
#    z -0.179790 -0.206600 4.044490 
# 
# 
# High freq. dielectric constant tensor:
#      x y z
#    x 1.763820 -0.018450 -0.037330 
#    y -0.018450 1.744740 -0.010790 
#    z -0.037330 -0.010790 1.788960 
# 
# From -- ./inp_files/457465.got.cif
#   From: 2010.06.25/outbox.cif.g09.slc.cpg/sg2_229_cif.got.tgz:457465.got - 2010.06.27 13:26:56.
