data_PCOD8039394
_publ_section_title
;
Structure prediction by ZEFSAII (Michael W. Deem and Ramdas Pophale) SiO2 
 PCOD8039394
Probable space group: P -1
;
_chemical_formula_sum "Si O2"
_cell_formula_units_Z 14
_cell_length_a 8.633527
_cell_length_b 11.891667
_cell_length_c 17.974593
_cell_angle_alpha 151.050082
_cell_angle_beta 73.868108
_cell_angle_gamma 88.827019
_cell_volume 706.876430
_symmetry_space_group_name_H-M "P -1"
_symmetry_group_IT_number 2
_symmetry_cell_setting 'triclinic'
loop_
_space_group_symop_operation_xyz
x,y,z
-x,-y,-z
loop_
_atom_site_type_symbol
_atom_site_label
_atom_site_fract_x
_atom_site_fract_y
_atom_site_fract_z
Si Si1 0.101471 0.780912 0.054042
Si Si2 0.726269 0.395929 0.215763
Si Si3 0.838342 0.845514 0.936280
Si Si4 0.785638 0.676379 0.996017
Si Si5 0.273193 0.734341 0.165879
Si Si6 0.616967 0.854525 0.602862
Si Si7 0.956888 0.377692 0.365868
O O1 0.180138 0.767745 0.117250
O O2 0.292795 0.597266 0.867770
O O3 0.968806 0.100790 0.227503
O O4 0.968719 0.659153 0.998276
O O5 0.597711 0.713514 0.448951
O O6 0.958452 0.236004 0.103451
O O7 0.682391 0.183696 0.138653
O O8 0.748117 0.747609 0.953989
O O9 0.888062 0.685493 0.757492
O O10 0.825266 0.367734 0.822794
O O11 0.594947 0.910760 0.202872
O O12 0.250633 0.022632 0.359912
O O13 0.500000 0.500000 0.000000
O O14 0.734358 0.600385 0.498686
O O15 0.000000 0.500000 0.500000
#
# Coordination Sequence:
#
# PCOD8039394 Si02
#       7
#     2   2   2   2   2   2   2
#     4  10  19  36  59  78 104 140 182 219 264 313
#     4   8  16  31  55  78 103 138 177 215 264 320
#     4   8  16  31  51  80 106 139 170 216 269 310
#     4  10  20  34  55  79 111 140 178 219 258 314
#     4  10  21  36  55  75 109 149 177 214 265 315
#     4  10  19  34  56  83 107 140 177 217 268 311
#     4  10  18  33  59  81 107 138 175 218 269 325
#
# _framework density 19.805441999999999
#
# number of rings (size 3 to 8) (size 9 to 14) (size 15 to 20)
#    0.000    2.571    1.429    3.000    0.000    2.286 
#    0.000   10.000    6.286    0.000    0.000    0.000 
#    0.000    0.000    0.000    0.000    0.000    0.000 
#
# Total GULP energy -173442.921884 kJ/mol
# GULP energy per Si atom -12388.780135 kJ/mol
# Density = 1.976036 g / cm^3
# Si number density = 19.805442 Si / 1000 Ang^3
#
#
#
# Elastic Constant Matrix: (Units=GPa)
#
#
# Indices 1 2 3 4 5 6 
#
# 1 38.5801 30.3481 11.0644 2.0248 8.1206 2.4899
# 2 30.3481 133.2252 42.5706 -1.3897 16.4973 17.6068
# 3 11.0644 42.5706 67.4852 -6.5590 14.0925 -3.1364
# 4 2.0248 -1.3897 -6.5590 27.8065 -6.2792 2.0552
# 5 8.1206 16.4973 14.0925 -6.2792 27.3895 -1.1551
# 6 2.4899 17.6068 -3.1364 2.0552 -1.1551 20.8980
#
#
#
# Elastic Compliance Matrix: (Units=1/GPa)
#
#
# Indices 1 2 3 4 5 6 
#
# 1 0.032887 -0.007036 0.000070 -0.004342 -0.006456 0.002090
# 2 -0.007036 0.013279 -0.007213 -0.000294 -0.002756 -0.011555
# 3 0.000070 -0.007213 0.021192 0.002730 -0.005588 0.008672
# 4 -0.004342 -0.000294 0.002730 0.039085 0.008928 -0.002176
# 5 -0.006456 -0.002756 -0.005588 0.008928 0.045170 0.003871
# 6 0.002090 -0.011555 0.008672 -0.002176 0.003871 0.059067
#
#
# Mechanical properties :
#
#
# Convention : Reuss Voigt Hill
#
# Bulk Modulus (GPa) = 25.64166 45.25073 35.44620
# Shear Modulus (GPa) = 19.83826 25.57261 22.70544
#
# Velocity S-wave (km/s) = 3.16833 3.59721 3.38956
# Velocity P-wave (km/s) = 5.13413 6.33644 5.76671
#
# Compressibility (1/GPa) = 0.03899903
#
# Stress axis : x y z
#
# Youngs Moduli (GPa) = 30.40761 75.30690 47.18728
#
# Poissons Ratio (x) = 0.52984 -0.00329
# Poissons Ratio (y) = 0.21394 0.34037
# Poissons Ratio (z) = -0.00212 0.54320
#
# Static dielectric constant tensor:
#      x y z
#    x 3.369600 0.207170 0.338190 
#    y 0.207170 4.185660 0.123950 
#    z 0.338190 0.123950 3.609940 
# 
# 
# High freq. dielectric constant tensor:
#      x y z
#    x 1.738710 -0.000030 0.025200 
#    y -0.000030 1.781620 0.003940 
#    z 0.025200 0.003940 1.763070 
# 
# From -- ./inp_files/162116.got.cif
#   From: 2010.06.25/outbox.cif.g09.slc.cpg/sg2_82_cif.got.tgz:162116.got - 2010.06.27 13:26:56.
