data_PCOD8039031
_publ_section_title
;
Structure prediction by ZEFSAII (Michael W. Deem and Ramdas Pophale) SiO2 
 PCOD8039031
Probable space group: P -1
;
_chemical_formula_sum "Si O2"
_cell_formula_units_Z 16
_cell_length_a 15.746698
_cell_length_b 14.766121
_cell_length_c 18.511980
_cell_angle_alpha 34.221455
_cell_angle_beta 21.317065
_cell_angle_gamma 44.890514
_cell_volume 838.785535
_symmetry_space_group_name_H-M "P -1"
_symmetry_group_IT_number 2
_symmetry_cell_setting 'triclinic'
loop_
_space_group_symop_operation_xyz
x,y,z
-x,-y,-z
loop_
_atom_site_type_symbol
_atom_site_label
_atom_site_fract_x
_atom_site_fract_y
_atom_site_fract_z
Si Si1 0.777874 0.089628 0.701189
Si Si2 0.893504 0.019551 0.149473
Si Si3 0.580009 0.257811 0.239053
Si Si4 0.554757 0.605572 0.045887
Si Si5 0.230659 0.014186 0.378853
Si Si6 0.889326 0.331974 0.575163
Si Si7 0.667367 0.358226 0.948789
Si Si8 0.248318 0.914834 0.028133
O O1 0.860960 0.273537 0.552401
O O2 0.963078 0.980176 0.651270
O O3 0.789442 0.108608 0.592549
O O4 0.500000 0.000000 0.000000
O O5 0.660036 0.857324 0.455054
O O6 0.104760 0.040308 0.029514
O O7 0.812333 0.188241 0.109617
O O8 0.000000 0.000000 0.000000
O O9 0.655827 0.447887 0.087207
O O10 0.518731 0.263195 0.198882
O O11 0.300755 0.571099 0.313428
O O12 0.517126 0.609925 0.985839
O O13 0.723916 0.790396 0.814085
O O14 0.453388 0.999507 0.263275
O O15 0.846223 0.158314 0.769891
O O16 0.155385 0.460310 0.288908
O O17 0.818769 0.241849 0.871239
#
# Coordination Sequence:
#
# PCOD8039031 Si02
#       8
#     2   2   2   2   2   2   2   2
#     4  11  18  36  52  82 118 141 175 218 287 337
#     4  11  23  39  50  73 114 157 197 221 257 322
#     4  11  22  34  55  75 109 159 183 226 270 316
#     4  10  19  33  53  88 114 140 180 223 284 337
#     4   9  21  34  56  84 112 139 181 226 275 343
#     4  10  19  31  58  84 113 147 170 225 284 334
#     4  10  18  32  53  84 114 139 177 225 277 339
#     4  10  19  36  54  80 115 150 183 223 271 329
#
# _framework density 19.075198
#
# number of rings (size 3 to 8) (size 9 to 14) (size 15 to 20)
#    0.000    2.000    3.750    4.125    0.000    3.000 
#    0.000    0.000    0.000    0.000    0.000   11.375 
#    0.000    0.125    0.000    0.000    0.000    0.000 
#
# Total GULP energy -198225.279949 kJ/mol
# GULP energy per Si atom -12389.079997 kJ/mol
# Density = 1.903178 g / cm^3
# Si number density = 19.075198 Si / 1000 Ang^3
#
#
#
# Elastic Constant Matrix: (Units=GPa)
#
#
# Indices 1 2 3 4 5 6 
#
# 1 80.4058 61.1669 36.2701 2.3964 -13.4322 1.1863
# 2 61.1669 122.3855 19.5625 13.3205 5.8778 -9.2608
# 3 36.2701 19.5625 56.0908 20.0190 2.5551 7.4123
# 4 2.3964 13.3205 20.0190 34.1739 1.1760 -6.4114
# 5 -13.4322 5.8778 2.5551 1.1760 29.4749 1.5617
# 6 1.1863 -9.2608 7.4123 -6.4114 1.5617 38.6151
#
#
#
# Elastic Compliance Matrix: (Units=1/GPa)
#
#
# Indices 1 2 3 4 5 6 
#
# 1 0.050457 -0.023604 -0.035312 0.025829 0.029591 0.002659
# 2 -0.023604 0.020101 0.013531 -0.013318 -0.015479 0.001363
# 3 -0.035312 0.013531 0.050108 -0.033286 -0.021279 -0.009955
# 4 0.025829 -0.013318 -0.033286 0.053650 0.014603 0.010719
# 5 0.029591 -0.015479 -0.021279 0.014603 0.051772 -0.000206
# 6 0.002659 0.001363 -0.009955 0.010719 -0.000206 0.029841
#
#
# Mechanical properties :
#
#
# Convention : Reuss Voigt Hill
#
# Bulk Modulus (GPa) = 33.45094 54.76457 44.10775
# Shear Modulus (GPa) = 14.01877 29.91164 21.96521
#
# Velocity S-wave (km/s) = 2.71388 3.96421 3.39707
# Velocity P-wave (km/s) = 5.23399 7.05163 6.20967
#
# Compressibility (1/GPa) = 0.02989452
#
# Stress axis : x y z
#
# Youngs Moduli (GPa) = 19.81902 49.74768 19.95687
#
# Poissons Ratio (x) = 1.17426 0.70472
# Poissons Ratio (y) = 0.46782 -0.27003
# Poissons Ratio (z) = 0.69985 -0.67313
#
# Static dielectric constant tensor:
#      x y z
#    x 3.474620 0.126180 -0.072230 
#    y 0.126180 3.841410 0.252410 
#    z -0.072230 0.252410 3.459870 
# 
# 
# High freq. dielectric constant tensor:
#      x y z
#    x 1.711000 0.020540 -0.010730 
#    y 0.020540 1.751160 0.036430 
#    z -0.010730 0.036430 1.729130 
# 
# From -- ./inp_files/600274.got.cif
#   From: 2010.06.25/outbox.cif.g09.slc.cpg/sg2_301_cif.got.tgz:600274.got - 2010.06.27 13:26:56.
