data_PCOD8039383
_publ_section_title
;
Structure prediction by ZEFSAII (Michael W. Deem and Ramdas Pophale) SiO2 
 PCOD8039383
Probable space group: P -1
;
_chemical_formula_sum "Si O2"
_cell_formula_units_Z 16
_cell_length_a 11.084413
_cell_length_b 14.035860
_cell_length_c 14.365343
_cell_angle_alpha 147.652539
_cell_angle_beta 115.996848
_cell_angle_gamma 42.842693
_cell_volume 705.222776
_symmetry_space_group_name_H-M "P -1"
_symmetry_group_IT_number 2
_symmetry_cell_setting 'triclinic'
loop_
_space_group_symop_operation_xyz
x,y,z
-x,-y,-z
loop_
_atom_site_type_symbol
_atom_site_label
_atom_site_fract_x
_atom_site_fract_y
_atom_site_fract_z
Si Si1 0.058914 0.565258 0.176243
Si Si2 0.636876 0.371917 0.849523
Si Si3 0.586961 0.518467 0.320414
Si Si4 0.729155 0.699279 0.423909
Si Si5 0.674479 0.706406 0.203072
Si Si6 0.787919 0.942060 0.249403
Si Si7 0.002149 0.257954 0.507797
Si Si8 0.279935 0.737788 0.665925
O O1 0.845993 0.680356 0.222853
O O2 0.986874 0.779042 0.249028
O O3 0.133910 0.578003 0.308321
O O4 0.226076 0.258057 0.939826
O O5 0.512108 0.479210 0.799565
O O6 0.803123 0.050715 0.648512
O O7 0.500000 0.500000 0.000000
O O8 0.729165 0.478644 0.971616
O O9 0.756678 0.496741 0.330793
O O10 0.697810 0.261447 0.213605
O O11 0.415716 0.785053 0.546071
O O12 0.662967 0.677693 0.285705
O O13 0.929677 0.623818 0.419536
O O14 0.547461 0.995591 0.653468
O O15 0.831415 0.990016 0.202446
O O16 0.854651 0.305773 0.426664
O O17 0.500000 0.500000 0.500000
#
# Coordination Sequence:
#
# PCOD8039383 Si02
#       8
#     2   2   2   2   2   2   2   2
#     4  10  20  37  67  98 121 162 216 271 310 362
#     4  12  20  35  66 100 125 165 210 263 316 374
#     4  11  21  42  62  94 136 166 205 258 322 378
#     4  10  18  34  62  89 124 158 201 259 318 364
#     4  10  18  33  58  95 129 151 197 272 314 361
#     4  10  20  41  62  91 127 170 207 257 312 366
#     4  11  22  40  65  94 125 162 219 266 314 374
#     4  10  25  45  61  86 135 177 206 257 315 383
#
# _framework density 22.687868000000002
#
# number of rings (size 3 to 8) (size 9 to 14) (size 15 to 20)
#    0.000    1.500    5.000    1.500    0.000    1.000 
#    9.000    4.375    0.000    0.000    0.000    0.000 
#    0.000    0.000    0.000    0.000    0.000    0.000 
#
# Total GULP energy -198231.547481 kJ/mol
# GULP energy per Si atom -12389.471718 kJ/mol
# Density = 2.263623 g / cm^3
# Si number density = 22.687868 Si / 1000 Ang^3
#
#
#
# Elastic Constant Matrix: (Units=GPa)
#
#
# Indices 1 2 3 4 5 6 
#
# 1 79.2331 53.2970 6.0570 1.5749 13.0417 18.4035
# 2 53.2970 122.8520 24.5133 -17.0394 5.2498 23.6277
# 3 6.0570 24.5133 77.7876 -17.1594 -3.2953 9.5147
# 4 1.5749 -17.0394 -17.1594 24.8454 4.9482 3.1858
# 5 13.0417 5.2498 -3.2953 4.9482 30.0241 0.2696
# 6 18.4035 23.6277 9.5147 3.1858 0.2696 41.2698
#
#
#
# Elastic Compliance Matrix: (Units=1/GPa)
#
#
# Indices 1 2 3 4 5 6 
#
# 1 0.020473 -0.008659 0.000133 -0.005381 -0.006444 -0.003745
# 2 -0.008659 0.014567 -0.000975 0.010635 -0.000600 -0.005071
# 3 0.000133 -0.000975 0.016059 0.010910 0.000114 -0.004046
# 4 -0.005381 0.010635 0.010910 0.058348 -0.007845 -0.010657
# 5 -0.006444 -0.000600 0.000114 -0.007845 0.037484 0.003552
# 6 -0.003745 -0.005071 -0.004046 -0.010657 0.003552 0.030536
#
#
# Mechanical properties :
#
#
# Convention : Reuss Voigt Hill
#
# Bulk Modulus (GPa) = 31.15704 49.73414 40.44559
# Shear Modulus (GPa) = 24.13495 32.29491 28.21493
#
# Velocity S-wave (km/s) = 3.26511 3.77695 3.53032
# Velocity P-wave (km/s) = 5.28936 6.40227 5.87224
#
# Compressibility (1/GPa) = 0.03209547
#
# Stress axis : x y z
#
# Youngs Moduli (GPa) = 48.84518 68.64839 62.27077
#
# Poissons Ratio (x) = 0.59442 -0.00826
# Poissons Ratio (y) = 0.42295 0.06074
# Poissons Ratio (z) = -0.00648 0.06696
#
# Static dielectric constant tensor:
#      x y z
#    x 4.509330 0.554940 0.099770 
#    y 0.554940 4.382820 -0.291820 
#    z 0.099770 -0.291820 4.461230 
# 
# 
# High freq. dielectric constant tensor:
#      x y z
#    x 1.909090 0.023610 -0.006540 
#    y 0.023610 1.869590 -0.013560 
#    z -0.006540 -0.013560 1.881480 
# 
# From -- ./inp_files/522669.got.cif
#   From: 2010.06.25/outbox.cif.g09.slc.cpg/sg2_262_cif.got.tgz:522669.got - 2010.06.27 13:26:56.
