data_PCOD8039194
_publ_section_title
;
Structure prediction by ZEFSAII (Michael W. Deem and Ramdas Pophale) SiO2 
 PCOD8039194
Probable space group: P -1
;
_chemical_formula_sum "Si O2"
_cell_formula_units_Z 16
_cell_length_a 11.768801
_cell_length_b 14.460010
_cell_length_c 23.234907
_cell_angle_alpha 29.286391
_cell_angle_beta 31.053843
_cell_angle_gamma 50.877739
_cell_volume 885.651809
_symmetry_space_group_name_H-M "P -1"
_symmetry_group_IT_number 2
_symmetry_cell_setting 'triclinic'
loop_
_space_group_symop_operation_xyz
x,y,z
-x,-y,-z
loop_
_atom_site_type_symbol
_atom_site_label
_atom_site_fract_x
_atom_site_fract_y
_atom_site_fract_z
Si Si1 0.374114 0.246339 0.188219
Si Si2 0.724469 0.959183 0.445268
Si Si3 0.577128 0.332674 0.460486
Si Si4 0.430148 0.710274 0.801850
Si Si5 0.011399 0.266057 0.256064
Si Si6 0.826538 0.819156 0.093246
Si Si7 0.665416 0.014827 0.152792
Si Si8 0.158346 0.998618 0.751775
O O1 0.377509 0.166531 0.295705
O O2 0.100029 0.154230 0.328442
O O3 0.532555 0.164813 0.124240
O O4 0.500000 0.500000 0.000000
O O5 0.596128 0.738590 0.657103
O O6 0.879920 0.956134 0.323254
O O7 0.500000 0.000000 0.500000
O O8 0.902561 0.134793 0.317075
O O9 0.623773 0.573308 0.318115
O O10 0.505215 0.206278 0.620382
O O11 0.353558 0.222757 0.572099
O O12 0.827420 0.343468 0.321113
O O13 0.259830 0.826355 0.805254
O O14 0.264979 0.464214 0.018003
O O15 0.714152 0.958303 0.098014
O O16 0.077589 0.850188 0.998653
O O17 0.896517 0.903528 0.951224
#
# Coordination Sequence:
#
# PCOD8039194 Si02
#       8
#     2   2   2   2   2   2   2   2
#     4  10  19  34  53  78 107 136 166 203 257 317
#     4  10  20  32  47  76 105 134 172 215 247 306
#     4  11  18  31  49  77 101 134 168 206 256 309
#     4  10  18  33  46  75 108 132 165 208 250 310
#     4  11  20  30  54  74 106 141 161 202 270 304
#     4  10  19  33  53  71 102 138 168 209 262 288
#     4  10  20  34  49  76 105 131 170 214 243 309
#     4  10  19  33  50  72 107 131 170 216 252 296
#
# _framework density 18.065791000000001
#
# number of rings (size 3 to 8) (size 9 to 14) (size 15 to 20)
#    0.000    1.750    6.250    1.125    0.000    5.000 
#    0.000    0.000    0.000    0.750    0.000    4.375 
#    0.000    0.000    0.000    0.000    0.000    0.000 
#
# Total GULP energy -198293.614997 kJ/mol
# GULP energy per Si atom -12393.350937 kJ/mol
# Density = 1.802467 g / cm^3
# Si number density = 18.065791 Si / 1000 Ang^3
#
#
#
# Elastic Constant Matrix: (Units=GPa)
#
#
# Indices 1 2 3 4 5 6 
#
# 1 93.3508 27.1693 34.7960 11.1197 7.2825 19.5761
# 2 27.1693 80.1947 26.5270 3.8546 11.4863 15.5614
# 3 34.7960 26.5270 82.6880 3.4595 8.8795 14.5725
# 4 11.1197 3.8546 3.4595 17.2504 11.6521 7.4410
# 5 7.2825 11.4863 8.8795 11.6521 32.8311 9.2303
# 6 19.5761 15.5614 14.5725 7.4410 9.2303 24.8120
#
#
#
# Elastic Compliance Matrix: (Units=1/GPa)
#
#
# Indices 1 2 3 4 5 6 
#
# 1 0.015148 -0.002465 -0.004432 -0.007656 0.003313 -0.006739
# 2 -0.002465 0.015742 -0.002688 0.003857 -0.003900 -0.006055
# 3 -0.004432 -0.002688 0.015676 0.003819 -0.002477 -0.004248
# 4 -0.007656 0.003857 0.003819 0.085732 -0.027106 -0.014249
# 5 0.003313 -0.003900 -0.002477 -0.027106 0.043255 -0.006675
# 6 -0.006739 -0.006055 -0.004248 -0.014249 -0.006675 0.058669
#
#
# Mechanical properties :
#
#
# Convention : Reuss Voigt Hill
#
# Bulk Modulus (GPa) = 36.50084 48.13536 42.31810
# Shear Modulus (GPa) = 19.04578 26.16143 22.60361
#
# Velocity S-wave (km/s) = 3.25044 3.80955 3.54104
# Velocity P-wave (km/s) = 5.85964 6.78620 6.33987
#
# Compressibility (1/GPa) = 0.02739663
#
# Stress axis : x y z
#
# Youngs Moduli (GPa) = 66.01395 63.52327 63.79253
#
# Poissons Ratio (x) = 0.15659 0.28270
# Poissons Ratio (y) = 0.16273 0.17150
# Poissons Ratio (z) = 0.29254 0.17077
#
# Static dielectric constant tensor:
#      x y z
#    x 4.540340 0.051680 0.510800 
#    y 0.051680 3.262640 0.096480 
#    z 0.510800 0.096480 3.673200 
# 
# 
# High freq. dielectric constant tensor:
#      x y z
#    x 1.683580 0.026250 0.006430 
#    y 0.026250 1.666650 -0.001280 
#    z 0.006430 -0.001280 1.714990 
# 
# From -- ./inp_files/431310.got.cif
#   From: 2010.06.25/outbox.cif.g09.slc.cpg/sg2_216_cif.got.tgz:431310.got - 2010.06.27 13:26:56.
