data_PCOD8039609
_publ_section_title
;
Structure prediction by ZEFSAII (Michael W. Deem and Ramdas Pophale) SiO2 
 PCOD8039609
Probable space group: P -1
;
_chemical_formula_sum "Si O2"
_cell_formula_units_Z 16
_cell_length_a 10.087253
_cell_length_b 26.233404
_cell_length_c 13.446208
_cell_angle_alpha 158.661055
_cell_angle_beta 144.838703
_cell_angle_gamma 34.965415
_cell_volume 716.489357
_symmetry_space_group_name_H-M "P -1"
_symmetry_group_IT_number 2
_symmetry_cell_setting 'triclinic'
loop_
_space_group_symop_operation_xyz
x,y,z
-x,-y,-z
loop_
_atom_site_type_symbol
_atom_site_label
_atom_site_fract_x
_atom_site_fract_y
_atom_site_fract_z
Si Si1 0.609060 0.777853 0.617809
Si Si2 0.527793 0.181634 0.615992
Si Si3 0.758422 0.506116 0.918048
Si Si4 0.435973 0.417299 0.404799
Si Si5 0.856179 0.273449 0.721515
Si Si6 0.941999 0.797779 0.018668
Si Si7 0.937632 0.472825 0.294572
Si Si8 0.334556 0.124693 0.807777
O O1 0.588824 0.820405 0.567598
O O2 0.345313 0.812617 0.568941
O O3 0.785592 0.854098 0.924271
O O4 0.705402 0.604575 0.378161
O O5 0.493465 0.040075 0.397660
O O6 0.391939 0.327417 0.854471
O O7 0.814976 0.155110 0.745420
O O8 0.608321 0.423359 0.611424
O O9 0.822372 0.417169 0.896347
O O10 0.000000 0.500000 0.000000
O O11 0.500000 0.500000 0.500000
O O12 0.163912 0.495322 0.413357
O O13 0.476695 0.245656 0.095034
O O14 0.115035 0.156618 0.651330
O O15 0.859706 0.333977 0.946415
O O16 0.996560 0.614777 0.715828
O O17 0.764400 0.865989 0.122852
#
# Coordination Sequence:
#
# PCOD8039609 Si02
#       8
#     2   2   2   2   2   2   2   2
#     4  12  20  34  65  94 137 169 214 261 321 384
#     4  12  24  42  64  99 137 167 212 266 328 385
#     4  12  24  42  68  94 121 169 230 271 312 379
#     4  10  22  43  67  87 124 171 219 269 321 375
#     4  10  19  37  62  91 127 171 211 259 315 381
#     4  10  21  36  60  97 136 173 205 255 332 388
#     4  10  18  34  57  94 126 164 215 262 310 376
#     4  10  23  43  62  96 139 168 203 268 331 385
#
# _framework density 22.331106999999999
#
# number of rings (size 3 to 8) (size 9 to 14) (size 15 to 20)
#    0.000    1.500    3.750    5.625    0.000    0.500 
#    2.250    3.125    0.000    0.000    0.000    0.000 
#    0.000    0.000    0.000    0.000    0.000    0.000 
#
# Total GULP energy -198307.683828 kJ/mol
# GULP energy per Si atom -12394.230239 kJ/mol
# Density = 2.228028 g / cm^3
# Si number density = 22.331107 Si / 1000 Ang^3
#
#
#
# Elastic Constant Matrix: (Units=GPa)
#
#
# Indices 1 2 3 4 5 6 
#
# 1 73.7029 22.8320 25.0480 -2.5437 17.6592 2.8066
# 2 22.8320 138.1821 64.2419 -1.2065 7.6990 16.4505
# 3 25.0480 64.2419 79.0543 -2.9151 19.7271 10.4592
# 4 -2.5437 -1.2065 -2.9151 51.1161 4.7326 6.5959
# 5 17.6592 7.6990 19.7271 4.7326 17.6779 3.5023
# 6 2.8066 16.4505 10.4592 6.5959 3.5023 21.1745
#
#
#
# Elastic Compliance Matrix: (Units=1/GPa)
#
#
# Indices 1 2 3 4 5 6 
#
# 1 0.018804 -0.002630 0.000998 0.002561 -0.019740 0.001525
# 2 -0.002630 0.013394 -0.012297 -0.000884 0.011877 -0.005672
# 3 0.000998 -0.012297 0.030313 0.004546 -0.030298 -0.001957
# 4 0.002561 -0.000884 0.004546 0.021892 -0.011766 -0.006772
# 5 -0.019740 0.011877 -0.030298 -0.011766 0.109274 -0.006054
# 6 0.001525 -0.005672 -0.001957 -0.006772 -0.006054 0.055509
#
#
# Mechanical properties :
#
#
# Convention : Reuss Voigt Hill
#
# Bulk Modulus (GPa) = 28.85774 57.24257 43.05015
# Shear Modulus (GPa) = 17.32528 29.91486 23.62007
#
# Velocity S-wave (km/s) = 2.78841 3.66403 3.25579
# Velocity P-wave (km/s) = 4.82884 6.60223 5.78390
#
# Compressibility (1/GPa) = 0.03465275
#
# Stress axis : x y z
#
# Youngs Moduli (GPa) = 53.18123 74.65869 32.98884
#
# Poissons Ratio (x) = 0.19638 -0.03293
# Poissons Ratio (y) = 0.13989 0.40567
# Poissons Ratio (z) = -0.05309 0.91808
#
# Static dielectric constant tensor:
#      x y z
#    x 3.665630 0.230200 -0.056880 
#    y 0.230200 4.640380 -0.076880 
#    z -0.056880 -0.076880 4.296600 
# 
# 
# High freq. dielectric constant tensor:
#      x y z
#    x 1.836470 0.016420 0.005390 
#    y 0.016420 1.905870 -0.010790 
#    z 0.005390 -0.010790 1.888880 
# 
# From -- ./inp_files/524649.got.cif
#   From: 2010.06.25/outbox.cif.g09.slc.cpg/sg2_263_cif.got.tgz:524649.got - 2010.06.27 13:26:56.
