data_PCOD8039683
_publ_section_title
;
Structure prediction by ZEFSAII (Michael W. Deem and Ramdas Pophale) SiO2 
 PCOD8039683
Probable space group: P -1
;
_chemical_formula_sum "Si O2"
_cell_formula_units_Z 16
_cell_length_a 11.615865
_cell_length_b 18.788759
_cell_length_c 9.203758
_cell_angle_alpha 44.604957
_cell_angle_beta 97.229393
_cell_angle_gamma 61.439932
_cell_volume 811.080327
_symmetry_space_group_name_H-M "P -1"
_symmetry_group_IT_number 2
_symmetry_cell_setting 'triclinic'
loop_
_space_group_symop_operation_xyz
x,y,z
-x,-y,-z
loop_
_atom_site_type_symbol
_atom_site_label
_atom_site_fract_x
_atom_site_fract_y
_atom_site_fract_z
Si Si1 0.955146 0.586858 0.078439
Si Si2 0.528560 0.940228 0.356694
Si Si3 0.640837 0.670843 0.639550
Si Si4 0.605111 0.104105 0.188027
Si Si5 0.138801 0.160701 0.148235
Si Si6 0.774979 0.355725 0.646709
Si Si7 0.277952 0.426039 0.881844
Si Si8 0.541145 0.325681 0.649241
O O1 0.932020 0.488682 0.280080
O O2 0.128905 0.469461 0.158290
O O3 0.736657 0.766362 0.720266
O O4 0.995151 0.642918 0.127183
O O5 0.521416 0.864721 0.331472
O O6 0.529541 0.059354 0.147923
O O7 0.346953 0.046131 0.279974
O O8 0.540989 0.661430 0.531672
O O9 0.633735 0.628476 0.861828
O O10 0.809807 0.935231 0.554277
O O11 0.435170 0.257531 0.049837
O O12 0.649864 0.161110 0.998698
O O13 0.004652 0.186176 0.985236
O O14 0.764582 0.431330 0.390709
O O15 0.706632 0.291813 0.685616
O O16 0.640188 0.495225 0.552347
#
# Coordination Sequence:
#
# PCOD8039683 Si02
#       8
#     2   2   2   2   2   2   2   2
#     4  10  18  34  59  91 118 146 187 233 287 355
#     4  10  19  34  60  89 120 146 184 232 296 355
#     4  11  21  36  61  88 122 148 183 242 294 331
#     4  10  19  36  62  82 119 154 186 228 295 348
#     4  11  18  36  62  88 112 154 187 236 287 344
#     4  10  23  39  60  81 113 158 208 229 270 345
#     4  10  19  36  60  86 116 154 186 233 288 348
#     4  10  23  41  55  85 116 153 203 242 266 337
#
# _framework density 19.726776999999998
#
# number of rings (size 3 to 8) (size 9 to 14) (size 15 to 20)
#    0.000    1.750    5.000    2.250    0.000    3.000 
#    0.000    3.125    0.000    0.000    0.000    0.000 
#    0.000    0.000    0.000    0.000    0.000    0.000 
#
# Total GULP energy -198292.453321 kJ/mol
# GULP energy per Si atom -12393.278333 kJ/mol
# Density = 1.968188 g / cm^3
# Si number density = 19.726777 Si / 1000 Ang^3
#
#
#
# Elastic Constant Matrix: (Units=GPa)
#
#
# Indices 1 2 3 4 5 6 
#
# 1 157.7498 46.2680 64.7535 18.3060 -21.4398 17.8739
# 2 46.2680 90.0608 31.0762 9.3282 -9.8195 11.9856
# 3 64.7535 31.0762 76.0941 11.3814 -11.6799 6.8584
# 4 18.3060 9.3282 11.3814 23.2118 3.8893 5.9563
# 5 -21.4398 -9.8195 -11.6799 3.8893 24.1008 2.7016
# 6 17.8739 11.9856 6.8584 5.9563 2.7016 29.3863
#
#
#
# Elastic Compliance Matrix: (Units=1/GPa)
#
#
# Indices 1 2 3 4 5 6 
#
# 1 0.011947 -0.001672 -0.007039 -0.005455 0.007927 -0.004565
# 2 -0.001672 0.014202 -0.003098 -0.002482 0.003633 -0.003883
# 3 -0.007039 -0.003098 0.021532 -0.004644 0.003532 0.001137
# 4 -0.005455 -0.002482 -0.004644 0.054470 -0.016444 -0.004114
# 5 0.007927 0.003633 0.003532 -0.016444 0.055386 -0.008887
# 6 -0.004565 -0.003883 0.001137 -0.004114 -0.008887 0.039775
#
#
# Mechanical properties :
#
#
# Convention : Reuss Voigt Hill
#
# Bulk Modulus (GPa) = 41.56086 67.56669 54.56377
# Shear Modulus (GPa) = 21.83879 27.46023 24.64951
#
# Velocity S-wave (km/s) = 3.33087 3.73504 3.53873
# Velocity P-wave (km/s) = 5.99223 7.27504 6.66458
#
# Compressibility (1/GPa) = 0.02406110
#
# Stress axis : x y z
#
# Youngs Moduli (GPa) = 83.70566 70.41477 46.44330
#
# Poissons Ratio (x) = 0.11771 0.32693
# Poissons Ratio (y) = 0.13993 0.14390
# Poissons Ratio (z) = 0.58923 0.21817
#
# Static dielectric constant tensor:
#      x y z
#    x 3.857470 0.270110 -0.189990 
#    y 0.270110 3.733060 -0.135020 
#    z -0.189990 -0.135020 3.481740 
# 
# 
# High freq. dielectric constant tensor:
#      x y z
#    x 1.765630 0.008280 -0.002490 
#    y 0.008280 1.764480 -0.004620 
#    z -0.002490 -0.004620 1.750800 
# 
# From -- ./inp_files/179414.got.cif
#   From: 2010.06.25/outbox.cif.g09.slc.cpg/sg2_90_cif.got.tgz:179414.got - 2010.06.27 13:26:56.
