data_PCOD8039971
_publ_section_title
;
Structure prediction by ZEFSAII (Michael W. Deem and Ramdas Pophale) SiO2 
 PCOD8039971
Probable space group: P -1
;
_chemical_formula_sum "Si O2"
_cell_formula_units_Z 14
_cell_length_a 22.840452
_cell_length_b 15.040361
_cell_length_c 13.910273
_cell_angle_alpha 143.450892
_cell_angle_beta 154.103666
_cell_angle_gamma 19.007080
_cell_volume 641.209957
_symmetry_space_group_name_H-M "P -1"
_symmetry_group_IT_number 2
_symmetry_cell_setting 'triclinic'
loop_
_space_group_symop_operation_xyz
x,y,z
-x,-y,-z
loop_
_atom_site_type_symbol
_atom_site_label
_atom_site_fract_x
_atom_site_fract_y
_atom_site_fract_z
Si Si1 0.296422 0.182475 0.943086
Si Si2 0.128927 0.393831 0.453018
Si Si3 0.078709 0.945694 0.785317
Si Si4 0.708111 0.961115 0.454555
Si Si5 0.353334 0.793057 0.740690
Si Si6 0.806473 0.202998 0.803096
Si Si7 0.512709 0.682473 0.093848
O O1 0.010042 0.511448 0.771688
O O2 0.263253 0.047406 0.814855
O O3 0.500000 0.000000 0.000000
O O4 0.419116 0.167282 0.194904
O O5 0.192350 0.177025 0.411356
O O6 0.396694 0.231550 0.698462
O O7 0.923503 0.691668 0.466231
O O8 0.249508 0.636979 0.789334
O O9 0.259910 0.908674 0.984731
O O10 0.877744 0.098177 0.535562
O O11 0.938204 0.130148 0.835767
O O12 0.672349 0.169746 0.564033
O O13 0.596064 0.529523 0.800280
O O14 0.441423 0.683798 0.885281
O O15 0.000000 0.000000 0.000000
#
# Coordination Sequence:
#
# PCOD8039971 Si02
#       7
#     2   2   2   2   2   2   2
#     4  10  20  32  58  91 117 153 201 252 300 345
#     4  10  18  35  60  85 117 153 209 247 290 349
#     4  11  23  38  59  93 128 160 198 252 305 365
#     4  10  20  36  56  88 121 153 198 253 297 352
#     4  12  22  40  63  94 124 158 204 255 303 359
#     4  12  24  41  62  95 127 158 198 253 317 354
#     4  11  21  39  62  93 121 161 207 249 296 364
#
# _framework density 21.833722000000002
#
# number of rings (size 3 to 8) (size 9 to 14) (size 15 to 20)
#    0.000    1.143    5.714    1.714    4.000    0.000 
#    0.000    0.000    0.000    1.714    7.429    0.000 
#    0.000    0.000    0.000    0.000    0.000    0.000 
#
# Total GULP energy -173584.600723 kJ/mol
# GULP energy per Si atom -12398.900052 kJ/mol
# Density = 2.178403 g / cm^3
# Si number density = 21.833722 Si / 1000 Ang^3
#
#
#
# Elastic Constant Matrix: (Units=GPa)
#
#
# Indices 1 2 3 4 5 6 
#
# 1 96.8701 31.2653 43.7025 -10.3306 10.2278 -12.4950
# 2 31.2653 39.5084 22.3299 -8.5094 -6.2930 -9.3846
# 3 43.7025 22.3299 128.6876 -30.6204 -12.6328 -8.2524
# 4 -10.3306 -8.5094 -30.6204 26.8134 4.5935 -0.3755
# 5 10.2278 -6.2930 -12.6328 4.5935 35.1044 -7.6817
# 6 -12.4950 -9.3846 -8.2524 -0.3755 -7.6817 18.0669
#
#
#
# Elastic Compliance Matrix: (Units=1/GPa)
#
#
# Indices 1 2 3 4 5 6 
#
# 1 0.017476 -0.013021 -0.005010 -0.001552 -0.009227 -0.000921
# 2 -0.013021 0.044170 0.001759 0.008577 0.015973 0.021712
# 3 -0.005010 0.001759 0.013228 0.012750 0.006272 0.006423
# 4 -0.001552 0.008577 0.012750 0.053796 0.001982 0.011166
# 5 -0.009227 0.015973 0.006272 0.001982 0.040896 0.022210
# 6 -0.000921 0.021712 0.006423 0.011166 0.022210 0.078600
#
#
# Mechanical properties :
#
#
# Convention : Reuss Voigt Hill
#
# Bulk Modulus (GPa) = 23.62364 51.07352 37.34858
# Shear Modulus (GPa) = 16.95953 27.18149 22.07051
#
# Velocity S-wave (km/s) = 2.79006 3.53219 3.18283
# Velocity P-wave (km/s) = 4.60679 6.33071 5.53627
#
# Compressibility (1/GPa) = 0.04233047
#
# Stress axis : x y z
#
# Youngs Moduli (GPa) = 57.22285 22.63975 75.59594
#
# Poissons Ratio (x) = 0.29479 0.37870
# Poissons Ratio (y) = 0.74509 -0.13295
# Poissons Ratio (z) = 0.28666 -0.03982
#
# Static dielectric constant tensor:
#      x y z
#    x 3.995510 0.189190 -0.159710 
#    y 0.189190 3.644610 -0.317640 
#    z -0.159710 -0.317640 4.682260 
# 
# 
# High freq. dielectric constant tensor:
#      x y z
#    x 1.855410 0.024770 -0.003970 
#    y 0.024770 1.809410 -0.020510 
#    z -0.003970 -0.020510 1.880660 
# 
# From -- ./inp_files/257305.got.cif
#   From: 2010.06.25/outbox.cif.g09.slc.cpg/sg2_129_cif.got.tgz:257305.got - 2010.06.27 13:26:56.
