data_PCOD8039180
_publ_section_title
;
Structure prediction by ZEFSAII (Michael W. Deem and Ramdas Pophale) SiO2 
 PCOD8039180
Probable space group: P -1
;
_chemical_formula_sum "Si O2"
_cell_formula_units_Z 14
_cell_length_a 9.757225
_cell_length_b 8.804309
_cell_length_c 11.926605
_cell_angle_alpha 129.042649
_cell_angle_beta 55.886933
_cell_angle_gamma 118.464642
_cell_volume 646.595600
_symmetry_space_group_name_H-M "P -1"
_symmetry_group_IT_number 2
_symmetry_cell_setting 'triclinic'
loop_
_space_group_symop_operation_xyz
x,y,z
-x,-y,-z
loop_
_atom_site_type_symbol
_atom_site_label
_atom_site_fract_x
_atom_site_fract_y
_atom_site_fract_z
Si Si1 0.247607 0.496134 0.318109
Si Si2 0.319003 0.164525 0.745988
Si Si3 0.625861 0.792264 0.512604
Si Si4 0.631316 0.192564 0.770097
Si Si5 0.903869 0.243064 0.315944
Si Si6 0.610368 0.398236 0.102555
Si Si7 0.285990 0.613721 0.710490
O O1 0.260306 0.615574 0.250603
O O2 0.208096 0.640050 0.500894
O O3 0.420780 0.424362 0.232930
O O4 0.100570 0.301802 0.283543
O O5 0.401071 0.158697 0.582668
O O6 0.449430 0.126603 0.763747
O O7 0.280294 0.386850 0.885588
O O8 0.150853 0.995249 0.755068
O O9 0.445148 0.711837 0.610368
O O10 0.743427 0.627797 0.395076
O O11 0.716065 0.996614 0.628954
O O12 0.608778 0.237934 0.931530
O O13 0.874833 0.310654 0.232708
O O14 0.690102 0.317797 0.139061
#
# Coordination Sequence:
#
# PCOD8039180 Si02
#       7
#     2   2   2   2   2   2   2
#     4  10  21  35  59  90 114 141 188 249 279 322
#     4  10  18  34  60  84 105 153 192 230 271 340
#     4  10  18  32  61  81 111 141 203 227 274 323
#     4  11  19  36  58  86 111 153 191 234 268 341
#     4  11  20  36  61  86 118 141 188 240 293 321
#     4  10  23  37  59  83 119 147 195 226 278 337
#     4  10  20  35  57  88 110 150 188 238 274 340
#
# _framework density 21.651864
#
# number of rings (size 3 to 8) (size 9 to 14) (size 15 to 20)
#    0.000    1.714    2.857    5.571    0.000    0.571 
#    0.000    4.286    6.286    0.000    0.000    0.000 
#    0.000    0.000    0.000    0.000    0.000    0.000 
#
# Total GULP energy -173560.343373 kJ/mol
# GULP energy per Si atom -12397.167384 kJ/mol
# Density = 2.160258 g / cm^3
# Si number density = 21.651864 Si / 1000 Ang^3
#
#
#
# Elastic Constant Matrix: (Units=GPa)
#
#
# Indices 1 2 3 4 5 6 
#
# 1 66.0247 36.4623 21.5821 -0.4936 22.5125 -4.6405
# 2 36.4623 101.5667 17.8336 13.0302 13.5500 13.8085
# 3 21.5821 17.8336 102.3145 10.4242 32.9472 -1.5752
# 4 -0.4936 13.0302 10.4242 24.5252 1.9594 7.0997
# 5 22.5125 13.5500 32.9472 1.9594 21.4201 -0.4855
# 6 -4.6405 13.8085 -1.5752 7.0997 -0.4855 33.0451
#
#
#
# Elastic Compliance Matrix: (Units=1/GPa)
#
#
# Indices 1 2 3 4 5 6 
#
# 1 0.031239 -0.008731 0.007027 0.003281 -0.038256 0.007103
# 2 -0.008731 0.014491 -0.000598 -0.005990 0.001342 -0.006003
# 3 0.007027 -0.000598 0.022106 -0.006617 -0.040333 0.003120
# 4 0.003281 -0.005990 -0.006617 0.048595 0.005899 -0.007705
# 5 -0.038256 0.001342 -0.040333 0.005899 0.147383 -0.006958
# 6 0.007103 -0.006003 0.003120 -0.007705 -0.006958 0.035470
#
#
# Mechanical properties :
#
#
# Convention : Reuss Voigt Hill
#
# Bulk Modulus (GPa) = 15.81548 46.85133 31.33340
# Shear Modulus (GPa) = 15.38619 28.73327 22.05973
#
# Velocity S-wave (km/s) = 2.66863 3.64683 3.19539
# Velocity P-wave (km/s) = 4.10070 6.27837 5.30253
#
# Compressibility (1/GPa) = 0.06322918
#
# Stress axis : x y z
#
# Youngs Moduli (GPa) = 32.01146 69.00852 45.23643
#
# Poissons Ratio (x) = 0.60255 -0.31786
# Poissons Ratio (y) = 0.27951 0.02707
# Poissons Ratio (z) = -0.22493 0.04130
#
# Static dielectric constant tensor:
#      x y z
#    x 3.600710 -0.159540 0.307800 
#    y -0.159540 4.167750 0.186160 
#    z 0.307800 0.186160 3.781390 
# 
# 
# High freq. dielectric constant tensor:
#      x y z
#    x 1.814960 -0.010930 0.032680 
#    y -0.010930 1.859710 0.009630 
#    z 0.032680 0.009630 1.835200 
# 
# From -- ./inp_files/185414.got.cif
#   From: 2010.06.25/outbox.cif.g09.slc.cpg/sg2_93_cif.got.tgz:185414.got - 2010.06.27 13:26:56.
