data_PCOD8039061
_publ_section_title
;
Structure prediction by ZEFSAII (Michael W. Deem and Ramdas Pophale) SiO2 
 PCOD8039061
Probable space group: P -1
;
_chemical_formula_sum "Si O2"
_cell_formula_units_Z 16
_cell_length_a 20.763325
_cell_length_b 9.816202
_cell_length_c 10.160893
_cell_angle_alpha 39.199598
_cell_angle_beta 142.317155
_cell_angle_gamma 125.726841
_cell_volume 797.799763
_symmetry_space_group_name_H-M "P -1"
_symmetry_group_IT_number 2
_symmetry_cell_setting 'triclinic'
loop_
_space_group_symop_operation_xyz
x,y,z
-x,-y,-z
loop_
_atom_site_type_symbol
_atom_site_label
_atom_site_fract_x
_atom_site_fract_y
_atom_site_fract_z
Si Si1 0.962272 0.285499 0.206831
Si Si2 0.596969 0.074707 0.427784
Si Si3 0.361441 0.075360 0.103437
Si Si4 0.225911 0.251623 0.079093
Si Si5 0.835403 0.964525 0.351765
Si Si6 0.719169 0.462861 0.273768
Si Si7 0.108637 0.857702 0.080441
Si Si8 0.106474 0.259330 0.142105
O O1 0.087831 0.217716 0.464646
O O2 0.900561 0.178989 0.307192
O O3 0.907256 0.181953 0.069407
O O4 0.943306 0.541809 0.997226
O O5 0.473151 0.053063 0.225820
O O6 0.626352 0.298623 0.241469
O O7 0.630626 0.063677 0.645287
O O8 0.660796 0.873027 0.609040
O O9 0.275605 0.980136 0.941233
O O10 0.328089 0.326684 0.883635
O O11 0.167494 0.328559 0.060683
O O12 0.159156 0.085518 0.012843
O O13 0.243451 0.466862 0.863407
O O14 0.814507 0.885174 0.526534
O O15 0.818977 0.343764 0.595425
O O16 0.995468 0.868998 0.964402
#
# Coordination Sequence:
#
# PCOD8039061 Si02
#       8
#     2   2   2   2   2   2   2   2
#     4  10  20  34  55  83 108 138 178 217 263 320
#     4   9  20  34  54  80 107 134 178 229 265 309
#     4  10  18  34  57  82 103 135 180 224 269 312
#     4  10  22  36  52  78 111 143 177 218 265 315
#     4  10  20  34  55  77 108 141 174 219 267 315
#     4  10  18  32  55  78 105 138 174 222 270 309
#     4  10  20  35  55  80 107 138 181 224 260 310
#     4  11  22  35  52  79 112 145 177 213 262 322
#
# _framework density 20.055157999999999
#
# number of rings (size 3 to 8) (size 9 to 14) (size 15 to 20)
#    0.000    2.000    0.000    6.000    0.000    4.500 
#    0.000    0.625    0.000    1.500    0.000    0.000 
#    0.000    0.000    0.000    0.000    0.000    0.000 
#
# Total GULP energy -198326.236823 kJ/mol
# GULP energy per Si atom -12395.389801 kJ/mol
# Density = 2.000951 g / cm^3
# Si number density = 20.055158 Si / 1000 Ang^3
#
#
#
# Elastic Constant Matrix: (Units=GPa)
#
#
# Indices 1 2 3 4 5 6 
#
# 1 119.6825 27.9609 42.9171 8.4001 2.2532 20.5850
# 2 27.9609 50.7456 31.1478 -1.4870 -5.2824 16.6801
# 3 42.9171 31.1478 93.5148 3.9501 7.2623 18.8374
# 4 8.4001 -1.4870 3.9501 27.4124 14.5028 -5.0882
# 5 2.2532 -5.2824 7.2623 14.5028 32.3533 -3.2723
# 6 20.5850 16.6801 18.8374 -5.0882 -3.2723 32.2831
#
#
#
# Elastic Compliance Matrix: (Units=1/GPa)
#
#
# Indices 1 2 3 4 5 6 
#
# 1 0.011219 -0.002761 -0.003225 -0.004512 0.001064 -0.004448
# 2 -0.002761 0.029053 -0.007081 -0.001522 0.006326 -0.008718
# 3 -0.003225 -0.007081 0.015694 0.000240 -0.004957 -0.003907
# 4 -0.004512 -0.001522 0.000240 0.051091 -0.021945 0.009351
# 5 0.001064 0.006326 -0.004957 -0.021945 0.042799 -0.000175
# 6 -0.004448 -0.008718 -0.003907 0.009351 -0.000175 0.042053
#
#
# Mechanical properties :
#
#
# Convention : Reuss Voigt Hill
#
# Bulk Modulus (GPa) = 33.52122 51.99939 42.76030
# Shear Modulus (GPa) = 21.93114 29.20423 25.56768
#
# Velocity S-wave (km/s) = 3.31046 3.82015 3.57440
# Velocity P-wave (km/s) = 5.60027 6.74111 6.19700
#
# Compressibility (1/GPa) = 0.02983185
#
# Stress axis : x y z
#
# Youngs Moduli (GPa) = 89.13708 34.41967 63.71934
#
# Poissons Ratio (x) = 0.09504 0.20549
# Poissons Ratio (y) = 0.24614 0.45117
# Poissons Ratio (z) = 0.28746 0.24371
#
# Static dielectric constant tensor:
#      x y z
#    x 3.726230 0.319420 0.046860 
#    y 0.319420 3.352870 -0.175940 
#    z 0.046860 -0.175940 3.718600 
# 
# 
# High freq. dielectric constant tensor:
#      x y z
#    x 1.782740 0.029640 -0.003290 
#    y 0.029640 1.753690 -0.017820 
#    z -0.003290 -0.017820 1.785320 
# 
# From -- ./inp_files/343354.got.cif
#   From: 2010.06.25/outbox.cif.g09.slc.cpg/sg2_172_cif.got.tgz:343354.got - 2010.06.27 13:26:56.
