data_PCOD8039178
_publ_section_title
;
Structure prediction by ZEFSAII (Michael W. Deem and Ramdas Pophale) SiO2 
 PCOD8039178
Probable space group: P -1
;
_chemical_formula_sum "Si O2"
_cell_formula_units_Z 16
_cell_length_a 5.166614
_cell_length_b 9.822435
_cell_length_c 19.330512
_cell_angle_alpha 87.616565
_cell_angle_beta 63.059524
_cell_angle_gamma 72.687849
_cell_volume 829.895149
_symmetry_space_group_name_H-M "P -1"
_symmetry_group_IT_number 2
_symmetry_cell_setting 'triclinic'
loop_
_space_group_symop_operation_xyz
x,y,z
-x,-y,-z
loop_
_atom_site_type_symbol
_atom_site_label
_atom_site_fract_x
_atom_site_fract_y
_atom_site_fract_z
Si Si1 0.671478 0.080931 0.678568
Si Si2 0.442937 0.870643 0.468036
Si Si3 0.522543 0.623190 0.664426
Si Si4 0.865622 0.687977 0.220670
Si Si5 0.011239 0.779131 0.620083
Si Si6 0.627138 0.509011 0.909267
Si Si7 0.777081 0.434989 0.170797
Si Si8 0.037529 0.674501 0.352111
O O1 0.636432 0.074795 0.600958
O O2 0.334827 0.144142 0.754535
O O3 0.856752 0.186449 0.675363
O O4 0.849108 0.919254 0.684824
O O5 0.161168 0.828231 0.534377
O O6 0.736628 0.727459 0.435642
O O7 0.500000 0.000000 0.500000
O O8 0.267588 0.662596 0.635010
O O9 0.346332 0.660716 0.759019
O O10 0.751341 0.715572 0.626259
O O11 0.715221 0.455590 0.636315
O O12 0.657071 0.597456 0.213940
O O13 0.959000 0.622319 0.287566
O O14 0.174896 0.652698 0.137352
O O15 0.347217 0.576717 0.890335
O O16 0.851867 0.608755 0.878739
O O17 0.500000 0.500000 0.000000
#
# Coordination Sequence:
#
# PCOD8039178 Si02
#       8
#     2   2   2   2   2   2   2   2
#     4  11  22  40  64  81 114 168 202 260 304 350
#     4  11  24  41  60  83 116 160 208 266 314 344
#     4  12  24  42  58  89 123 161 196 249 304 366
#     4   9  19  34  63  89 118 151 204 232 302 357
#     4  12  27  39  59  88 119 152 219 253 296 361
#     4  10  18  32  61 100 125 146 191 250 292 345
#     4  10  19  37  58  86 129 158 182 238 304 357
#     4  11  21  39  66  78 119 164 200 245 321 350
#
# _framework density 19.279544000000001
#
# number of rings (size 3 to 8) (size 9 to 14) (size 15 to 20)
#    0.750    0.500    3.750    3.000    5.250    1.000 
#    0.000    0.000    0.000    0.000    0.000    5.250 
#    0.000    0.000    0.000    0.000    0.000    0.000 
#
# Total GULP energy -198275.693435 kJ/mol
# GULP energy per Si atom -12392.230840 kJ/mol
# Density = 1.923566 g / cm^3
# Si number density = 19.279544 Si / 1000 Ang^3
#
#
#
# Elastic Constant Matrix: (Units=GPa)
#
#
# Indices 1 2 3 4 5 6 
#
# 1 94.9642 12.2553 29.2210 -0.4130 1.1546 0.9128
# 2 12.2553 63.2359 11.3209 10.7749 -10.2589 -12.9138
# 3 29.2210 11.3209 109.1263 8.6467 -8.4851 3.3196
# 4 -0.4130 10.7749 8.6467 16.6746 -2.3141 -7.9809
# 5 1.1546 -10.2589 -8.4851 -2.3141 35.3000 0.3026
# 6 0.9128 -12.9138 3.3196 -7.9809 0.3026 35.6240
#
#
#
# Elastic Compliance Matrix: (Units=1/GPa)
#
#
# Indices 1 2 3 4 5 6 
#
# 1 0.011925 -0.002607 -0.003320 0.003381 -0.001723 -0.000169
# 2 -0.002607 0.019889 -0.000366 -0.009566 0.005107 0.005125
# 3 -0.003320 -0.000366 0.010843 -0.006358 0.002213 -0.002501
# 4 0.003381 -0.009566 -0.006358 0.076367 0.000466 0.014143
# 5 -0.001723 0.005107 0.002213 0.000466 0.030418 0.001535
# 6 -0.000169 0.005125 -0.002501 0.014143 0.001535 0.033321
#
#
# Mechanical properties :
#
#
# Convention : Reuss Voigt Hill
#
# Bulk Modulus (GPa) = 33.25360 41.43562 37.34461
# Shear Modulus (GPa) = 24.34586 31.82168 28.08377
#
# Velocity S-wave (km/s) = 3.55742 4.06709 3.82076
# Velocity P-wave (km/s) = 5.84459 6.60255 6.23510
#
# Compressibility (1/GPa) = 0.03007193
#
# Stress axis : x y z
#
# Youngs Moduli (GPa) = 83.85433 50.27787 92.22950
#
# Poissons Ratio (x) = 0.13108 0.30616
# Poissons Ratio (y) = 0.21861 0.03377
# Poissons Ratio (z) = 0.27836 0.01841
#
# Static dielectric constant tensor:
#      x y z
#    x 3.797250 -0.136760 -0.136930 
#    y -0.136760 3.386490 0.198380 
#    z -0.136930 0.198380 3.385000 
# 
# 
# High freq. dielectric constant tensor:
#      x y z
#    x 1.776480 -0.005960 -0.004620 
#    y -0.005960 1.713150 0.017840 
#    z -0.004620 0.017840 1.728620 
# 
# From -- ./inp_files/547217.got.cif
#   From: 2010.06.25/outbox.cif.g09.slc.cpg/sg2_274_cif.got.tgz:547217.got - 2010.06.27 13:26:56.
