data_PCOD8039482
_publ_section_title
;
Structure prediction by ZEFSAII (Michael W. Deem and Ramdas Pophale) SiO2 
 PCOD8039482
Probable space group: P -1
;
_chemical_formula_sum "Si O2"
_cell_formula_units_Z 14
_cell_length_a 14.489759
_cell_length_b 8.784060
_cell_length_c 18.848676
_cell_angle_alpha 87.992115
_cell_angle_beta 19.274100
_cell_angle_gamma 87.585193
_cell_volume 791.108535
_symmetry_space_group_name_H-M "P -1"
_symmetry_group_IT_number 2
_symmetry_cell_setting 'triclinic'
loop_
_space_group_symop_operation_xyz
x,y,z
-x,-y,-z
loop_
_atom_site_type_symbol
_atom_site_label
_atom_site_fract_x
_atom_site_fract_y
_atom_site_fract_z
Si Si1 0.287625 0.192389 0.457780
Si Si2 0.070795 0.065721 0.119515
Si Si3 0.686599 0.247087 0.042864
Si Si4 0.192421 0.416808 0.649486
Si Si5 0.283454 0.942987 0.101553
Si Si6 0.715613 0.930038 0.180896
Si Si7 0.438269 0.725319 0.492467
O O1 0.424400 0.256915 0.285655
O O2 0.254987 0.335361 0.530974
O O3 0.988751 0.118948 0.659311
O O4 0.474835 0.059940 0.360412
O O5 0.759464 0.135143 0.339317
O O6 0.201597 0.083175 0.103905
O O7 0.256581 0.132866 0.919468
O O8 0.075567 0.882111 0.103905
O O9 0.578867 0.195846 0.043526
O O10 0.863047 0.401246 0.909650
O O11 0.246014 0.595550 0.600155
O O12 0.392891 0.342472 0.563682
O O13 0.500000 0.000000 0.000000
O O14 0.645820 0.783948 0.280815
O O15 0.000000 0.000000 0.000000
#
# Coordination Sequence:
#
# PCOD8039482 Si02
#       7
#     2   2   2   2   2   2   2
#     4  10  18  34  52  74 103 133 168 211 254 297
#     4   9  19  33  50  75 100 129 171 209 251 298
#     4   8  18  34  50  76  99 128 170 209 257 299
#     4  10  21  31  49  72 106 143 171 199 246 305
#     4   9  18  33  55  80  99 124 170 221 264 294
#     4  11  20  31  53  76 105 137 167 205 251 305
#     4  11  20  33  47  74 107 141 171 203 245 298
#
# _framework density 17.696688000000002
#
# number of rings (size 3 to 8) (size 9 to 14) (size 15 to 20)
#    0.857    1.429    1.429    2.571    0.000    3.429 
#    0.000    3.571    0.000    3.429    0.000    6.000 
#    0.000    0.000    0.000    0.000    0.000    0.000 
#
# Total GULP energy -173441.137813 kJ/mol
# GULP energy per Si atom -12388.652701 kJ/mol
# Density = 1.765641 g / cm^3
# Si number density = 17.696688 Si / 1000 Ang^3
#
#
#
# Elastic Constant Matrix: (Units=GPa)
#
#
# Indices 1 2 3 4 5 6 
#
# 1 70.8199 25.5859 49.6827 -16.4012 5.6842 16.0261
# 2 25.5859 61.4944 48.7457 -25.3078 5.6397 12.8893
# 3 49.6827 48.7457 132.3128 -23.8632 20.2536 14.9288
# 4 -16.4012 -25.3078 -23.8632 27.2512 1.0927 -3.1777
# 5 5.6842 5.6397 20.2536 1.0927 24.1147 -4.8727
# 6 16.0261 12.8893 14.9288 -3.1777 -4.8727 22.3534
#
#
#
# Elastic Compliance Matrix: (Units=1/GPa)
#
#
# Indices 1 2 3 4 5 6 
#
# 1 0.022771 0.001832 -0.005341 0.009338 -0.004452 -0.013458
# 2 0.001832 0.035431 -0.005715 0.027490 -0.008365 -0.015842
# 3 -0.005341 -0.005715 0.014535 0.004130 -0.010673 -0.004322
# 4 0.009338 0.027490 0.004130 0.069953 -0.019219 -0.019549
# 5 -0.004452 -0.008365 -0.010673 -0.019219 0.059435 0.025367
# 6 -0.013458 -0.015842 -0.004322 -0.019549 0.025367 0.069156
#
#
# Mechanical properties :
#
#
# Convention : Reuss Voigt Hill
#
# Bulk Modulus (GPa) = 18.42043 56.96176 37.69110
# Shear Modulus (GPa) = 16.24298 24.11803 20.18050
#
# Velocity S-wave (km/s) = 3.03290 3.69569 3.38058
# Velocity P-wave (km/s) = 4.76405 7.10412 6.04834
#
# Compressibility (1/GPa) = 0.05428754
#
# Stress axis : x y z
#
# Youngs Moduli (GPa) = 43.91582 28.22394 68.79874
#
# Poissons Ratio (x) = -0.05169 0.36746
# Poissons Ratio (y) = -0.08043 0.39320
# Poissons Ratio (z) = 0.23456 0.16131
#
# Static dielectric constant tensor:
#      x y z
#    x 3.086300 0.005940 0.312390 
#    y 0.005940 3.191240 -0.142470 
#    z 0.312390 -0.142470 3.435070 
# 
# 
# High freq. dielectric constant tensor:
#      x y z
#    x 1.661300 0.006460 0.022320 
#    y 0.006460 1.658060 -0.010990 
#    z 0.022320 -0.010990 1.692650 
# 
# From -- ./inp_files/258692.got.cif
#   From: 2010.06.25/outbox.cif.g09.slc.cpg/sg2_130_cif.got.tgz:258692.got - 2010.06.27 13:26:56.
