data_PCOD8039407
_publ_section_title
;
Structure prediction by ZEFSAII (Michael W. Deem and Ramdas Pophale) SiO2 
 PCOD8039407
Probable space group: P -1
;
_chemical_formula_sum "Si O2"
_cell_formula_units_Z 16
_cell_length_a 11.984222
_cell_length_b 13.449700
_cell_length_c 10.272320
_cell_angle_alpha 125.867702
_cell_angle_beta 71.059496
_cell_angle_gamma 66.033857
_cell_volume 797.249708
_symmetry_space_group_name_H-M "P -1"
_symmetry_group_IT_number 2
_symmetry_cell_setting 'triclinic'
loop_
_space_group_symop_operation_xyz
x,y,z
-x,-y,-z
loop_
_atom_site_type_symbol
_atom_site_label
_atom_site_fract_x
_atom_site_fract_y
_atom_site_fract_z
Si Si1 0.980483 0.316572 0.421337
Si Si2 0.734318 0.736700 0.816289
Si Si3 0.438164 0.702833 0.069452
Si Si4 0.440921 0.384051 0.565572
Si Si5 0.384429 0.160959 0.352881
Si Si6 0.664146 0.430689 0.530683
Si Si7 0.856392 0.849896 0.499238
Si Si8 0.263149 0.588930 0.056832
O O1 0.819228 0.545274 0.702634
O O2 0.879919 0.278626 0.371031
O O3 0.115575 0.274108 0.233671
O O4 0.105922 0.164435 0.373141
O O5 0.695986 0.738738 0.680834
O O6 0.544995 0.927200 0.106182
O O7 0.298468 0.703954 0.158512
O O8 0.310459 0.924955 0.302343
O O9 0.522631 0.614953 0.825087
O O10 0.604616 0.586282 0.022624
O O11 0.472117 0.212417 0.422352
O O12 0.631279 0.309936 0.456970
O O13 0.354146 0.500744 0.553579
O O14 0.303506 0.522301 0.842236
O O15 0.218877 0.230225 0.554355
O O16 0.046650 0.724697 0.255367
#
# Coordination Sequence:
#
# PCOD8039407 Si02
#       8
#     2   2   2   2   2   2   2   2
#     4  10  18  33  59  92 113 152 201 252 292 341
#     4   9  19  33  57  87 124 149 199 253 295 340
#     4  10  21  40  66  89 117 154 211 246 289 350
#     4  10  22  37  59  86 126 162 187 242 316 350
#     4  10  20  35  57  88 119 159 196 247 294 358
#     4  10  19  38  64  86 118 159 198 246 297 356
#     4  11  22  35  66  92 112 158 210 247 285 356
#     4  10  22  41  61  87 124 162 191 249 298 356
#
# _framework density 20.068994
#
# number of rings (size 3 to 8) (size 9 to 14) (size 15 to 20)
#    0.000    2.000    2.500    1.125    3.500    0.500 
#    0.000    2.500    0.000    0.000    0.000    0.000 
#    0.000    0.000    0.000    0.000    0.000    0.000 
#
# Total GULP energy -198278.812194 kJ/mol
# GULP energy per Si atom -12392.425762 kJ/mol
# Density = 2.002332 g / cm^3
# Si number density = 20.068994 Si / 1000 Ang^3
#
#
#
# Elastic Constant Matrix: (Units=GPa)
#
#
# Indices 1 2 3 4 5 6 
#
# 1 149.2251 32.6310 42.9233 -6.1087 -17.5844 21.2351
# 2 32.6310 93.2973 43.2713 -3.0121 -0.9861 2.6240
# 3 42.9233 43.2713 69.4861 -4.9546 -8.8064 1.9706
# 4 -6.1087 -3.0121 -4.9546 32.0702 2.0233 -3.8989
# 5 -17.5844 -0.9861 -8.8064 2.0233 17.4648 0.3957
# 6 21.2351 2.6240 1.9706 -3.8989 0.3957 23.2392
#
#
#
# Elastic Compliance Matrix: (Units=1/GPa)
#
#
# Indices 1 2 3 4 5 6 
#
# 1 0.010586 -0.001329 -0.004384 -0.000471 0.008640 -0.009378
# 2 -0.001329 0.015540 -0.009529 0.000114 -0.005288 0.000377
# 3 -0.004384 -0.009529 0.023944 0.001935 0.006823 0.003260
# 4 -0.000471 0.000114 0.001935 0.032311 -0.003365 0.005731
# 5 0.008640 -0.005288 0.006823 -0.003365 0.069707 -0.009628
# 6 -0.009378 0.000377 0.003260 0.005731 -0.009628 0.052406
#
#
# Mechanical properties :
#
#
# Convention : Reuss Voigt Hill
#
# Bulk Modulus (GPa) = 51.05863 61.07330 56.06597
# Shear Modulus (GPa) = 20.70330 27.43371 24.06851
#
# Velocity S-wave (km/s) = 3.21535 3.70127 3.46683
# Velocity P-wave (km/s) = 6.26749 6.98309 6.63494
#
# Compressibility (1/GPa) = 0.01958533
#
# Stress axis : x y z
#
# Youngs Moduli (GPa) = 94.46088 64.35002 41.76448
#
# Poissons Ratio (x) = 0.08554 0.18311
# Poissons Ratio (y) = 0.12557 0.39797
# Poissons Ratio (z) = 0.41414 0.61318
#
# Static dielectric constant tensor:
#      x y z
#    x 4.073190 0.212240 -0.287760 
#    y 0.212240 3.619010 -0.109900 
#    z -0.287760 -0.109900 3.352200 
# 
# 
# High freq. dielectric constant tensor:
#      x y z
#    x 1.798680 0.019850 -0.027310 
#    y 0.019850 1.778620 -0.004010 
#    z -0.027310 -0.004010 1.749910 
# 
# From -- ./inp_files/431774.got.cif
#   From: 2010.06.25/outbox.cif.g09.slc.cpg/sg2_216_cif.got.tgz:431774.got - 2010.06.27 13:26:56.
