data_PCOD8039709
_publ_section_title
;
Structure prediction by ZEFSAII (Michael W. Deem and Ramdas Pophale) SiO2 
 PCOD8039709
Probable space group: P -1
;
_chemical_formula_sum "Si O2"
_cell_formula_units_Z 16
_cell_length_a 15.918516
_cell_length_b 11.271707
_cell_length_c 8.705507
_cell_angle_alpha 67.784912
_cell_angle_beta 94.259203
_cell_angle_gamma 143.246961
_cell_volume 788.124576
_symmetry_space_group_name_H-M "P -1"
_symmetry_group_IT_number 2
_symmetry_cell_setting 'triclinic'
loop_
_space_group_symop_operation_xyz
x,y,z
-x,-y,-z
loop_
_atom_site_type_symbol
_atom_site_label
_atom_site_fract_x
_atom_site_fract_y
_atom_site_fract_z
Si Si1 0.641383 0.409209 0.465259
Si Si2 0.706393 0.013049 0.339422
Si Si3 0.664300 0.682097 0.505420
Si Si4 0.579263 0.092906 0.800355
Si Si5 0.685266 0.386507 0.148123
Si Si6 0.545983 0.445114 0.922528
Si Si7 0.933086 0.501651 0.125883
Si Si8 0.737741 0.072836 0.965498
O O1 0.461524 0.204974 0.499019
O O2 0.729352 0.646437 0.429746
O O3 0.655712 0.321852 0.643867
O O4 0.720072 0.465365 0.291329
O O5 0.769101 0.944966 0.378161
O O6 0.820047 0.258122 0.323673
O O7 0.694041 0.053332 0.144997
O O8 0.500000 0.500000 0.500000
O O9 0.650415 0.626951 0.708246
O O10 0.716337 0.165743 0.803658
O O11 0.458423 0.893481 0.751343
O O12 0.500000 0.000000 0.000000
O O13 0.838964 0.507171 0.053327
O O14 0.649662 0.468350 0.006018
O O15 0.500000 0.500000 0.000000
O O16 0.379641 0.187559 0.968785
O O17 0.083322 0.741523 0.122817
O O18 0.000000 0.500000 0.000000
#
# Coordination Sequence:
#
# PCOD8039709 Si02
#       8
#     2   2   2   2   2   2   2   2
#     4  11  19  34  59  88 122 145 203 257 296 348
#     4  10  18  34  60  87 116 156 197 239 305 352
#     4  10  19  33  58  89 116 153 192 251 303 345
#     4  11  18  34  57  88 115 148 202 252 292 343
#     4  11  23  35  61  92 116 157 203 250 302 348
#     4  11  21  38  63  93 119 151 206 254 294 351
#     4  10  21  39  59  85 124 161 196 240 300 371
#     4  10  20  35  59  86 115 158 195 236 302 358
#
# _framework density 20.301356999999999
#
# number of rings (size 3 to 8) (size 9 to 14) (size 15 to 20)
#    0.000    1.500    5.000    3.375    0.000    0.000 
#    0.000    1.250    0.000    3.750    0.000    0.000 
#    0.000    0.000    0.000    0.000    0.000    0.000 
#
# Total GULP energy -198254.681004 kJ/mol
# GULP energy per Si atom -12390.917563 kJ/mol
# Density = 2.025515 g / cm^3
# Si number density = 20.301357 Si / 1000 Ang^3
#
#
#
# Elastic Constant Matrix: (Units=GPa)
#
#
# Indices 1 2 3 4 5 6 
#
# 1 122.9122 37.9869 26.1589 5.1190 4.7690 6.5143
# 2 37.9869 73.1968 15.9765 -0.0552 1.0746 7.3916
# 3 26.1589 15.9765 66.6565 15.0664 7.5444 -0.8768
# 4 5.1190 -0.0552 15.0664 26.4332 -5.9340 -5.4003
# 5 4.7690 1.0746 7.5444 -5.9340 32.1863 3.2435
# 6 6.5143 7.3916 -0.8768 -5.4003 3.2435 34.4343
#
#
#
# Elastic Compliance Matrix: (Units=1/GPa)
#
#
# Indices 1 2 3 4 5 6 
#
# 1 0.010252 -0.004625 -0.002636 -0.000893 -0.000803 -0.001078
# 2 -0.004625 0.016962 -0.003017 0.002465 0.001543 -0.002602
# 3 -0.002636 -0.003017 0.020340 -0.012508 -0.006615 0.000326
# 4 -0.000893 0.002465 -0.012508 0.048907 0.011402 0.005917
# 5 -0.000803 0.001543 -0.006615 0.011402 0.034976 -0.001854
# 6 -0.001078 -0.002602 0.000326 0.005917 -0.001854 0.030914
#
#
# Mechanical properties :
#
#
# Convention : Reuss Voigt Hill
#
# Bulk Modulus (GPa) = 37.03910 47.00111 42.02010
# Shear Modulus (GPa) = 26.05432 30.78697 28.42065
#
# Velocity S-wave (km/s) = 3.58631 3.89845 3.74563
# Velocity P-wave (km/s) = 5.95257 6.59286 6.28088
#
# Compressibility (1/GPa) = 0.02699850
#
# Stress axis : x y z
#
# Youngs Moduli (GPa) = 97.54378 58.95398 49.16411
#
# Poissons Ratio (x) = 0.27266 0.12961
# Poissons Ratio (y) = 0.45114 0.14831
# Poissons Ratio (z) = 0.25715 0.17784
#
# Static dielectric constant tensor:
#      x y z
#    x 4.104580 -0.145120 0.327510 
#    y -0.145120 4.370490 -0.172570 
#    z 0.327510 -0.172570 3.613740 
# 
# 
# High freq. dielectric constant tensor:
#      x y z
#    x 1.799090 -0.021020 0.020830 
#    y -0.021020 1.770080 0.005940 
#    z 0.020830 0.005940 1.769790 
# 
# From -- ./inp_files/271371.got.cif
#   From: 2010.06.25/outbox.cif.g09.slc.cpg/sg2_136_cif.got.tgz:271371.got - 2010.06.27 13:26:56.
