data_PCOD8039543
_publ_section_title
;
Structure prediction by ZEFSAII (Michael W. Deem and Ramdas Pophale) SiO2 
 PCOD8039543
Probable space group: P -1
;
_chemical_formula_sum "Si O2"
_cell_formula_units_Z 16
_cell_length_a 31.034472
_cell_length_b 15.444711
_cell_length_c 9.253125
_cell_angle_alpha 50.144853
_cell_angle_beta 40.056455
_cell_angle_gamma 18.592486
_cell_volume 829.044747
_symmetry_space_group_name_H-M "P -1"
_symmetry_group_IT_number 2
_symmetry_cell_setting 'triclinic'
loop_
_space_group_symop_operation_xyz
x,y,z
-x,-y,-z
loop_
_atom_site_type_symbol
_atom_site_label
_atom_site_fract_x
_atom_site_fract_y
_atom_site_fract_z
Si Si1 0.177408 0.652661 0.933599
Si Si2 0.328694 0.826935 0.360894
Si Si3 0.209067 0.154821 0.583712
Si Si4 0.065780 0.587657 0.330298
Si Si5 0.861291 0.573720 0.016447
Si Si6 0.482388 0.745284 0.830944
Si Si7 0.675296 0.653391 0.421583
Si Si8 0.538992 0.617910 0.495658
O O1 0.263136 0.479198 0.751374
O O2 0.323477 0.504801 0.793468
O O3 0.132277 0.608695 0.184331
O O4 0.000000 0.000000 0.000000
O O5 0.408574 0.587462 0.476830
O O6 0.306343 0.948532 0.418423
O O7 0.466952 0.666252 0.065399
O O8 0.146220 0.086219 0.469127
O O9 0.143074 0.382033 0.469659
O O10 0.343040 0.956107 0.585488
O O11 0.044290 0.335019 0.865640
O O12 0.129080 0.452978 0.152884
O O13 0.825434 0.505536 0.255759
O O14 0.705754 0.903600 0.094737
O O15 0.623868 0.616417 0.673993
O O16 0.553591 0.589400 0.662046
O O17 0.500000 0.000000 0.500000
#
# Coordination Sequence:
#
# PCOD8039543 Si02
#       8
#     2   2   2   2   2   2   2   2
#     4  10  19  35  56  81 112 146 185 230 275 329
#     4  11  19  37  57  79 107 147 186 221 266 333
#     4  11  21  35  56  83 112 140 183 230 276 319
#     4  10  18  34  61  77 102 147 195 219 256 334
#     4   9  16  33  56  80 102 146 185 220 259 329
#     4  10  18  34  56  79 107 141 189 220 265 326
#     4   8  17  30  54  83 103 138 192 230 255 321
#     4  11  24  34  52  87 114 141 174 233 287 318
#
# _framework density 19.299320000000002
#
# number of rings (size 3 to 8) (size 9 to 14) (size 15 to 20)
#    0.000    2.000    3.750    1.500    0.000    1.000 
#    0.000    0.000    0.000    0.750    0.000    0.000 
#    0.000    0.000    0.000    0.000    0.000    0.000 
#
# Total GULP energy -198260.458040 kJ/mol
# GULP energy per Si atom -12391.278628 kJ/mol
# Density = 1.925539 g / cm^3
# Si number density = 19.299320 Si / 1000 Ang^3
#
#
#
# Elastic Constant Matrix: (Units=GPa)
#
#
# Indices 1 2 3 4 5 6 
#
# 1 49.7654 27.2283 40.7512 -7.0495 -28.8685 2.9869
# 2 27.2283 91.1642 30.6420 -1.9757 -18.5590 6.6931
# 3 40.7512 30.6420 117.1358 -4.4542 -41.6270 5.2414
# 4 -7.0495 -1.9757 -4.4542 25.8604 8.6636 -6.7105
# 5 -28.8685 -18.5590 -41.6270 8.6636 40.0477 2.9496
# 6 2.9869 6.6931 5.2414 -6.7105 2.9496 22.3832
#
#
#
# Elastic Compliance Matrix: (Units=1/GPa)
#
#
# Indices 1 2 3 4 5 6 
#
# 1 0.039786 -0.005592 -0.004417 0.001075 0.021643 -0.005132
# 2 -0.005592 0.013617 -0.000645 -0.002527 0.002469 -0.004258
# 3 -0.004417 -0.000645 0.015261 -0.004850 0.013877 -0.006074
# 4 0.001075 -0.002527 -0.004850 0.048556 -0.017310 0.018586
# 5 0.021643 0.002469 0.013877 -0.017310 0.061369 -0.020153
# 6 -0.005132 -0.004258 -0.006074 0.018586 -0.020153 0.056284
#
#
# Mechanical properties :
#
#
# Convention : Reuss Voigt Hill
#
# Bulk Modulus (GPa) = 21.11635 50.58981 35.85308
# Shear Modulus (GPa) = 18.38467 28.28787 23.33627
#
# Velocity S-wave (km/s) = 3.08978 3.83266 3.48109
# Velocity P-wave (km/s) = 4.86767 6.77170 5.89704
#
# Compressibility (1/GPa) = 0.04735666
#
# Stress axis : x y z
#
# Youngs Moduli (GPa) = 25.13464 73.43940 65.52558
#
# Poissons Ratio (x) = 0.41070 0.28940
# Poissons Ratio (y) = 0.14056 0.04223
# Poissons Ratio (z) = 0.11101 0.04733
#
# Static dielectric constant tensor:
#      x y z
#    x 3.455230 0.340080 -0.578760 
#    y 0.340080 3.324890 0.084260 
#    z -0.578760 0.084260 4.097990 
# 
# 
# High freq. dielectric constant tensor:
#      x y z
#    x 1.725700 0.039030 -0.033680 
#    y 0.039030 1.731440 0.016410 
#    z -0.033680 0.016410 1.766890 
# 
# From -- ./inp_files/176049.got.cif
#   From: 2010.06.25/outbox.cif.g09.slc.cpg/sg2_89_cif.got.tgz:176049.got - 2010.06.27 13:26:56.
