data_PCOD8039967
_publ_section_title
;
Structure prediction by ZEFSAII (Michael W. Deem and Ramdas Pophale) SiO2 
 PCOD8039967
Probable space group: P -1
;
_chemical_formula_sum "Si O2"
_cell_formula_units_Z 16
_cell_length_a 12.458334
_cell_length_b 12.348902
_cell_length_c 8.884978
_cell_angle_alpha 70.940298
_cell_angle_beta 125.597896
_cell_angle_gamma 128.283985
_cell_volume 871.208162
_symmetry_space_group_name_H-M "P -1"
_symmetry_group_IT_number 2
_symmetry_cell_setting 'triclinic'
loop_
_space_group_symop_operation_xyz
x,y,z
-x,-y,-z
loop_
_atom_site_type_symbol
_atom_site_label
_atom_site_fract_x
_atom_site_fract_y
_atom_site_fract_z
Si Si1 0.681773 0.270529 0.300363
Si Si2 0.635546 0.819705 0.772336
Si Si3 0.920732 0.378421 0.202400
Si Si4 0.811006 0.561043 0.396913
Si Si5 0.500523 0.545492 0.648485
Si Si6 0.791415 0.673623 0.015249
Si Si7 0.068316 0.690411 0.087386
Si Si8 0.687155 0.084965 0.606647
O O1 0.491242 0.198558 0.195470
O O2 0.744255 0.309474 0.161805
O O3 0.771957 0.409395 0.409010
O O4 0.735834 0.171545 0.452039
O O5 0.542891 0.702567 0.618720
O O6 0.731452 0.971664 0.705102
O O7 0.763744 0.796477 0.965247
O O8 0.026757 0.354765 0.414343
O O9 0.003701 0.539785 0.167321
O O10 0.901743 0.299036 0.070294
O O11 0.673091 0.559914 0.376166
O O12 0.832139 0.632916 0.222556
O O13 0.500000 0.500000 0.500000
O O14 0.632422 0.544361 0.861656
O O15 0.940144 0.727360 0.001458
O O16 0.236318 0.806224 0.244036
O O17 0.500000 0.000000 0.500000
#
# Coordination Sequence:
#
# PCOD8039967 Si02
#       8
#     2   2   2   2   2   2   2   2
#     4  10  18  35  60  83 111 146 187 235 270 334
#     4   8  21  35  58  81 110 153 191 218 270 345
#     4  11  22  34  55  92 115 139 187 242 296 309
#     4  11  18  32  55  84 114 142 184 232 283 333
#     4   9  19  34  54  83 115 145 181 236 281 324
#     4  10  20  34  56  85 109 147 186 228 280 331
#     4  11  22  35  58  84 117 146 181 243 283 329
#     4  10  20  40  59  79 110 154 196 217 270 346
#
# _framework density 18.365300999999999
#
# number of rings (size 3 to 8) (size 9 to 14) (size 15 to 20)
#    0.750    1.250    2.500    2.250    0.000    0.500 
#    0.000    2.500    2.750    1.500    0.000    0.000 
#    0.000    0.000    0.000    0.000    0.000    0.000 
#
# Total GULP energy -198236.462520 kJ/mol
# GULP energy per Si atom -12389.778908 kJ/mol
# Density = 1.832350 g / cm^3
# Si number density = 18.365301 Si / 1000 Ang^3
#
#
#
# Elastic Constant Matrix: (Units=GPa)
#
#
# Indices 1 2 3 4 5 6 
#
# 1 126.2240 36.6130 54.0530 -0.9656 -13.8121 12.6646
# 2 36.6130 78.0469 34.5601 -8.3188 -3.8145 -8.1010
# 3 54.0530 34.5601 103.3031 -6.2910 -2.4869 -3.2331
# 4 -0.9656 -8.3188 -6.2910 24.1800 1.2607 5.5595
# 5 -13.8121 -3.8145 -2.4869 1.2607 32.7157 -1.8431
# 6 12.6646 -8.1010 -3.2331 5.5595 -1.8431 18.8871
#
#
#
# Elastic Compliance Matrix: (Units=1/GPa)
#
#
# Indices 1 2 3 4 5 6 
#
# 1 0.013309 -0.004757 -0.005645 -0.000138 0.003993 -0.011501
# 2 -0.004757 0.017647 -0.002935 0.002940 0.000243 0.009415
# 3 -0.005645 -0.002935 0.013803 0.001440 -0.001488 0.004320
# 4 -0.000138 0.002940 0.001440 0.045608 -0.002041 -0.012024
# 5 0.003993 0.000243 -0.001488 -0.002041 0.032298 0.000925
# 6 -0.011501 0.009415 0.004320 -0.012024 0.000925 0.069066
#
#
# Mechanical properties :
#
#
# Convention : Reuss Voigt Hill
#
# Bulk Modulus (GPa) = 55.29479 62.00293 58.64886
# Shear Modulus (GPa) = 22.27836 27.31309 24.79573
#
# Velocity S-wave (km/s) = 3.48669 3.86062 3.67841
# Velocity P-wave (km/s) = 6.81051 7.32849 7.07424
#
# Compressibility (1/GPa) = 0.01808489
#
# Stress axis : x y z
#
# Youngs Moduli (GPa) = 75.13463 56.66800 72.44918
#
# Poissons Ratio (x) = 0.26959 0.40896
# Poissons Ratio (y) = 0.35745 0.21263
# Poissons Ratio (z) = 0.42412 0.16631
#
# Static dielectric constant tensor:
#      x y z
#    x 3.544660 -0.032440 0.162060 
#    y -0.032440 3.568720 -0.170400 
#    z 0.162060 -0.170400 3.298910 
# 
# 
# High freq. dielectric constant tensor:
#      x y z
#    x 1.711300 0.009690 0.013140 
#    y 0.009690 1.690050 -0.007860 
#    z 0.013140 -0.007860 1.701450 
# 
# From -- ./inp_files/267472.got.cif
#   From: 2010.06.25/outbox.cif.g09.slc.cpg/sg2_134_cif.got.tgz:267472.got - 2010.06.27 13:26:56.
