data_PCOD8039844
_publ_section_title
;
Structure prediction by ZEFSAII (Michael W. Deem and Ramdas Pophale) SiO2 
 PCOD8039844
Probable space group: P -1
;
_chemical_formula_sum "Si O2"
_cell_formula_units_Z 16
_cell_length_a 6.987463
_cell_length_b 12.114666
_cell_length_c 12.736308
_cell_angle_alpha 120.883505
_cell_angle_beta 98.435443
_cell_angle_gamma 62.801469
_cell_volume 817.485872
_symmetry_space_group_name_H-M "P -1"
_symmetry_group_IT_number 2
_symmetry_cell_setting 'triclinic'
loop_
_space_group_symop_operation_xyz
x,y,z
-x,-y,-z
loop_
_atom_site_type_symbol
_atom_site_label
_atom_site_fract_x
_atom_site_fract_y
_atom_site_fract_z
Si Si1 0.766715 0.158906 0.180419
Si Si2 0.093266 0.938966 0.636887
Si Si3 0.890541 0.855296 0.955302
Si Si4 0.249731 0.062903 0.535908
Si Si5 0.411054 0.380727 0.934153
Si Si6 0.965654 0.629052 0.219009
Si Si7 0.327370 0.340737 0.143335
Si Si8 0.866900 0.237046 0.866096
O O1 0.775418 0.173035 0.315073
O O2 0.557458 0.303419 0.197669
O O3 0.989696 0.148215 0.145872
O O4 0.750206 0.017093 0.067228
O O5 0.886610 0.918587 0.572599
O O6 0.234667 0.939222 0.547383
O O7 0.032278 0.090587 0.758136
O O8 0.732075 0.784528 0.885432
O O9 0.073740 0.756692 0.004897
O O10 0.149362 0.221438 0.655654
O O11 0.500000 0.000000 0.500000
O O12 0.217017 0.417181 0.854958
O O13 0.627832 0.244747 0.843042
O O14 0.500000 0.500000 0.000000
O O15 0.346633 0.338059 0.018253
O O16 0.141457 0.499227 0.240950
O O17 0.105141 0.636865 0.133213
#
# Coordination Sequence:
#
# PCOD8039844 Si02
#       8
#     2   2   2   2   2   2   2   2
#     4  10  22  37  56  83 118 158 184 229 280 339
#     4   9  21  39  62  85 111 140 193 245 281 337
#     4  10  20  36  54  82 121 156 192 219 273 347
#     4  10  21  42  65  85 105 143 194 249 294 327
#     4  12  21  32  54  85 123 158 183 222 286 343
#     4  11  23  35  57  86 116 150 195 240 281 337
#     4  12  22  34  53  85 122 158 186 224 279 349
#     4  10  18  35  56  85 116 150 187 233 286 330
#
# _framework density 19.572202000000001
#
# number of rings (size 3 to 8) (size 9 to 14) (size 15 to 20)
#    0.000    1.500    3.750    2.250    0.000    1.000 
#    0.000    0.625    0.000    1.500    0.000    0.000 
#    0.000    0.000    0.000    0.000    0.000    0.000 
#
# Total GULP energy -198314.395544 kJ/mol
# GULP energy per Si atom -12394.649722 kJ/mol
# Density = 1.952765 g / cm^3
# Si number density = 19.572202 Si / 1000 Ang^3
#
#
#
# Elastic Constant Matrix: (Units=GPa)
#
#
# Indices 1 2 3 4 5 6 
#
# 1 102.1322 32.2465 27.4185 1.1590 -1.3258 -13.2560
# 2 32.2465 88.4827 27.4677 -8.2585 0.3558 -14.6473
# 3 27.4185 27.4677 62.1624 -15.0484 4.2008 -6.9811
# 4 1.1590 -8.2585 -15.0484 22.6249 -3.7761 5.1730
# 5 -1.3258 0.3558 4.2008 -3.7761 27.0329 -0.8166
# 6 -13.2560 -14.6473 -6.9811 5.1730 -0.8166 41.0283
#
#
#
# Elastic Compliance Matrix: (Units=1/GPa)
#
#
# Indices 1 2 3 4 5 6 
#
# 1 0.012635 -0.003009 -0.005393 -0.005855 0.000765 0.002844
# 2 -0.003009 0.014435 -0.004259 0.001970 0.000697 0.003222
# 3 -0.005393 -0.004259 0.023873 0.014524 -0.001922 -0.001070
# 4 -0.005855 0.001970 0.014524 0.057079 0.005228 -0.005810
# 5 0.000765 0.000697 -0.001922 0.005228 0.038057 0.000267
# 6 0.002844 0.003222 -0.001070 -0.005810 0.000267 0.026998
#
#
# Mechanical properties :
#
#
# Convention : Reuss Voigt Hill
#
# Bulk Modulus (GPa) = 39.03244 47.44919 43.24081
# Shear Modulus (GPa) = 24.16147 29.18020 26.67083
#
# Velocity S-wave (km/s) = 3.51733 3.86541 3.69547
# Velocity P-wave (km/s) = 6.03999 6.64963 6.35213
#
# Compressibility (1/GPa) = 0.02561972
#
# Stress axis : x y z
#
# Youngs Moduli (GPa) = 79.14770 69.27626 41.88750
#
# Poissons Ratio (x) = 0.20847 0.22590
# Poissons Ratio (y) = 0.23817 0.17842
# Poissons Ratio (z) = 0.42684 0.29508
#
# Static dielectric constant tensor:
#      x y z
#    x 3.799890 -0.099840 -0.222820 
#    y -0.099840 3.796010 -0.126820 
#    z -0.222820 -0.126820 3.459510 
# 
# 
# High freq. dielectric constant tensor:
#      x y z
#    x 1.773960 -0.004060 -0.008450 
#    y -0.004060 1.761800 -0.003420 
#    z -0.008450 -0.003420 1.728650 
# 
# From -- ./inp_files/77177.got.cif
#   From: 2010.06.25/outbox.cif.g09.slc.cpg/sg2_39_cif.got.tgz:77177.got - 2010.06.27 13:26:56.
