data_PCOD8039629
_publ_section_title
;
Structure prediction by ZEFSAII (Michael W. Deem and Ramdas Pophale) SiO2 
 PCOD8039629
Probable space group: P -1
;
_chemical_formula_sum "Si O2"
_cell_formula_units_Z 16
_cell_length_a 9.066686
_cell_length_b 9.080588
_cell_length_c 15.682700
_cell_angle_alpha 42.687133
_cell_angle_beta 66.777718
_cell_angle_gamma 62.898223
_cell_volume 775.499224
_symmetry_space_group_name_H-M "P -1"
_symmetry_group_IT_number 2
_symmetry_cell_setting 'triclinic'
loop_
_space_group_symop_operation_xyz
x,y,z
-x,-y,-z
loop_
_atom_site_type_symbol
_atom_site_label
_atom_site_fract_x
_atom_site_fract_y
_atom_site_fract_z
Si Si1 0.622973 0.838556 0.774002
Si Si2 0.257554 0.949277 0.871029
Si Si3 0.889042 0.099092 0.601931
Si Si4 0.068074 0.866637 0.230175
Si Si5 0.174790 0.582325 0.166460
Si Si6 0.620766 0.741830 0.169460
Si Si7 0.891016 0.350725 0.327099
Si Si8 0.689664 0.875729 0.920237
O O1 0.424194 0.905577 0.795058
O O2 0.678568 0.650060 0.768797
O O3 0.693849 0.728894 0.896529
O O4 0.710811 0.042180 0.652355
O O5 0.262113 0.115119 0.877536
O O6 0.212479 0.738915 0.015639
O O7 0.121682 0.071286 0.781600
O O8 0.908804 0.206249 0.644510
O O9 0.900193 0.289406 0.450914
O O10 0.041925 0.874339 0.648943
O O11 0.176211 0.680957 0.219322
O O12 0.130416 0.093537 0.111450
O O13 0.001556 0.524060 0.210319
O O14 0.698178 0.481387 0.291326
O O15 0.430549 0.869459 0.183412
O O16 0.621775 0.748440 0.063911
#
# Coordination Sequence:
#
# PCOD8039629 Si02
#       8
#     2   2   2   2   2   2   2   2
#     4   9  21  38  57  82 116 158 182 233 286 341
#     4  11  20  35  57  88 122 142 184 236 297 348
#     4   9  22  41  59  80 113 153 203 236 267 332
#     4  11  20  36  57  84 115 148 186 243 281 333
#     4  11  20  34  60  85 116 149 184 232 301 337
#     4  10  18  34  58  85 112 151 183 234 285 338
#     4  10  20  39  63  81 110 157 197 232 280 334
#     4   9  19  34  55  84 118 141 189 230 282 342
#
# _framework density 20.631871
#
# number of rings (size 3 to 8) (size 9 to 14) (size 15 to 20)
#    0.000    2.000    2.500    1.500    0.000    1.500 
#    2.250    9.375    0.000    2.250    0.000    0.000 
#    0.000    0.000    0.000    0.000    0.000    0.000 
#
# Total GULP energy -198210.799224 kJ/mol
# GULP energy per Si atom -12388.174951 kJ/mol
# Density = 2.058491 g / cm^3
# Si number density = 20.631871 Si / 1000 Ang^3
#
#
#
# Elastic Constant Matrix: (Units=GPa)
#
#
# Indices 1 2 3 4 5 6 
#
# 1 88.8413 33.1940 29.7192 3.6114 0.7520 -5.9239
# 2 33.1940 103.5134 32.0411 16.6128 9.4768 -6.0562
# 3 29.7192 32.0411 73.7596 4.3823 2.2766 -14.3541
# 4 3.6114 16.6128 4.3823 29.1850 -0.7353 1.9737
# 5 0.7520 9.4768 2.2766 -0.7353 24.1385 3.1466
# 6 -5.9239 -6.0562 -14.3541 1.9737 3.1466 28.0253
#
#
#
# Elastic Compliance Matrix: (Units=1/GPa)
#
#
# Indices 1 2 3 4 5 6 
#
# 1 0.013894 -0.003425 -0.004245 0.000915 0.001365 -0.000195
# 2 -0.003425 0.013581 -0.003666 -0.006985 -0.005277 0.001418
# 3 -0.004245 -0.003666 0.018494 -0.000735 -0.001235 0.007973
# 4 0.000915 -0.006985 -0.000735 0.038687 0.004605 -0.004934
# 5 0.001365 -0.005277 -0.001235 0.004605 0.044602 -0.006816
# 6 -0.000195 0.001418 0.007973 -0.004934 -0.006816 0.041144
#
#
# Mechanical properties :
#
#
# Convention : Reuss Voigt Hill
#
# Bulk Modulus (GPa) = 42.92324 50.66920 46.79622
# Shear Modulus (GPa) = 24.89575 27.68043 26.28809
#
# Velocity S-wave (km/s) = 3.47748 3.66681 3.57340
# Velocity P-wave (km/s) = 6.08057 6.52222 6.30526
#
# Compressibility (1/GPa) = 0.02329740
#
# Stress axis : x y z
#
# Youngs Moduli (GPa) = 71.97435 73.63462 54.07249
#
# Poissons Ratio (x) = 0.25218 0.22953
# Poissons Ratio (y) = 0.24649 0.19821
# Poissons Ratio (z) = 0.30552 0.26992
#
# Static dielectric constant tensor:
#      x y z
#    x 3.715750 -0.111690 -0.058730 
#    y -0.111690 3.931350 0.181030 
#    z -0.058730 0.181030 3.454230 
# 
# 
# High freq. dielectric constant tensor:
#      x y z
#    x 1.800810 -0.006420 -0.006120 
#    y -0.006420 1.812780 0.020100 
#    z -0.006120 0.020100 1.775800 
# 
# From -- ./inp_files/294924.got.cif
#   From: 2010.06.25/outbox.cif.g09.slc.cpg/sg2_148_cif.got.tgz:294924.got - 2010.06.27 13:26:56.
