data_PCOD8039752
_publ_section_title
;
Structure prediction by ZEFSAII (Michael W. Deem and Ramdas Pophale) SiO2 
 PCOD8039752
Probable space group: P -1
;
_chemical_formula_sum "Si O2"
_cell_formula_units_Z 16
_cell_length_a 12.409042
_cell_length_b 16.767134
_cell_length_c 8.890591
_cell_angle_alpha 132.530458
_cell_angle_beta 38.014797
_cell_angle_gamma 138.641655
_cell_volume 736.310744
_symmetry_space_group_name_H-M "P -1"
_symmetry_group_IT_number 2
_symmetry_cell_setting 'triclinic'
loop_
_space_group_symop_operation_xyz
x,y,z
-x,-y,-z
loop_
_atom_site_type_symbol
_atom_site_label
_atom_site_fract_x
_atom_site_fract_y
_atom_site_fract_z
Si Si1 0.887170 0.656945 0.661867
Si Si2 0.811747 0.057522 0.752006
Si Si3 0.007650 0.971611 0.202322
Si Si4 0.667582 0.272483 0.759316
Si Si5 0.881819 0.539038 0.796207
Si Si6 0.146202 0.561224 0.778032
Si Si7 0.733166 0.841477 0.082183
Si Si8 0.427607 0.809567 0.909408
O O1 0.806648 0.615030 0.870336
O O2 0.816180 0.542346 0.478480
O O3 0.793636 0.742073 0.821360
O O4 0.129827 0.735346 0.501164
O O5 0.910514 0.095626 0.858157
O O6 0.642728 0.913107 0.751106
O O7 0.736516 0.151240 0.905470
O O8 0.971837 0.068524 0.465088
O O9 0.167554 0.039055 0.981472
O O10 0.804525 0.873475 0.217192
O O11 0.708130 0.414025 0.901693
O O12 0.504893 0.207551 0.722748
O O13 0.564838 0.202982 0.936501
O O14 0.000000 0.500000 0.500000
O O15 0.035900 0.614765 0.856487
O O16 0.358090 0.675571 0.739463
O O17 0.000000 0.500000 0.000000
#
# Coordination Sequence:
#
# PCOD8039752 Si02
#       8
#     2   2   2   2   2   2   2   2
#     4  10  22  39  61  92 124 162 196 252 310 363
#     4  10  23  40  63  88 122 159 208 262 299 356
#     4  10  23  43  57  89 123 158 206 261 304 355
#     4  10  19  39  61  88 125 157 203 253 293 374
#     4   8  18  34  54  86 122 153 192 246 296 355
#     4  10  18  34  62  90 119 158 201 248 304 366
#     4  11  23  41  65  86 125 166 200 252 315 363
#     4  11  20  37  65  92 118 162 209 247 313 362
#
# _framework density 21.729956000000001
#
# number of rings (size 3 to 8) (size 9 to 14) (size 15 to 20)
#    0.000    2.250    3.750    0.750    1.750    3.500 
#    2.250    2.500    2.750    0.000    0.000    0.000 
#    0.000    0.000    0.000    0.000    0.000    0.000 
#
# Total GULP energy -198259.661633 kJ/mol
# GULP energy per Si atom -12391.228852 kJ/mol
# Density = 2.168050 g / cm^3
# Si number density = 21.729956 Si / 1000 Ang^3
#
#
#
# Elastic Constant Matrix: (Units=GPa)
#
#
# Indices 1 2 3 4 5 6 
#
# 1 117.4026 29.4367 19.8176 8.7450 11.9495 21.2105
# 2 29.4367 66.0330 5.3315 2.3687 4.1705 14.7244
# 3 19.8176 5.3315 39.6210 4.2124 6.7197 -2.4010
# 4 8.7450 2.3687 4.2124 26.5152 2.1218 2.6009
# 5 11.9495 4.1705 6.7197 2.1218 37.1022 -2.2674
# 6 21.2105 14.7244 -2.4010 2.6009 -2.2674 37.7040
#
#
#
# Elastic Compliance Matrix: (Units=1/GPa)
#
#
# Indices 1 2 3 4 5 6 
#
# 1 0.011627 -0.003285 -0.005047 -0.001974 -0.002691 -0.005605
# 2 -0.003285 0.017927 -0.000924 0.000238 -0.001127 -0.005296
# 3 -0.005047 -0.000924 0.029044 -0.003122 -0.003042 0.005082
# 4 -0.001974 0.000238 -0.003122 0.039126 -0.001182 -0.001951
# 5 -0.002691 -0.001127 -0.003042 -0.001182 0.028783 0.003573
# 6 -0.005605 -0.005296 0.005082 -0.001951 0.003573 0.032417
#
#
# Mechanical properties :
#
#
# Convention : Reuss Voigt Hill
#
# Bulk Modulus (GPa) = 24.94719 36.91425 30.93072
# Shear Modulus (GPa) = 26.20597 31.49567 28.85082
#
# Velocity S-wave (km/s) = 3.47649 3.81125 3.64771
# Velocity P-wave (km/s) = 5.25549 6.03258 5.65739
#
# Compressibility (1/GPa) = 0.04008467
#
# Stress axis : x y z
#
# Youngs Moduli (GPa) = 86.00813 55.78327 34.43101
#
# Poissons Ratio (x) = 0.18325 0.17377
# Poissons Ratio (y) = 0.28254 0.03182
# Poissons Ratio (z) = 0.43406 0.05156
#
# Static dielectric constant tensor:
#      x y z
#    x 4.527220 -0.247660 0.347250 
#    y -0.247660 4.168520 -0.189450 
#    z 0.347250 -0.189450 3.488410 
# 
# 
# High freq. dielectric constant tensor:
#      x y z
#    x 1.871180 -0.000820 0.021680 
#    y -0.000820 1.847550 -0.012400 
#    z 0.021680 -0.012400 1.815360 
# 
# From -- ./inp_files/278209.got.cif
#   From: 2010.06.25/outbox.cif.g09.slc.cpg/sg2_140_cif.got.tgz:278209.got - 2010.06.27 13:26:56.
