data_PCOD8039251
_publ_section_title
;
Structure prediction by ZEFSAII (Michael W. Deem and Ramdas Pophale) SiO2 
 PCOD8039251
Probable space group: P -1
;
_chemical_formula_sum "Si O2"
_cell_formula_units_Z 14
_cell_length_a 15.811357
_cell_length_b 9.218299
_cell_length_c 11.945263
_cell_angle_alpha 143.387453
_cell_angle_beta 55.568416
_cell_angle_gamma 103.290183
_cell_volume 762.527301
_symmetry_space_group_name_H-M "P -1"
_symmetry_group_IT_number 2
_symmetry_cell_setting 'triclinic'
loop_
_space_group_symop_operation_xyz
x,y,z
-x,-y,-z
loop_
_atom_site_type_symbol
_atom_site_label
_atom_site_fract_x
_atom_site_fract_y
_atom_site_fract_z
Si Si1 0.961520 0.275691 0.924260
Si Si2 0.519323 0.855957 0.732567
Si Si3 0.551789 0.485091 0.275594
Si Si4 0.774379 0.723282 0.459233
Si Si5 0.801951 0.188131 0.819192
Si Si6 0.432318 0.483306 0.148176
Si Si7 0.797297 0.123757 0.536356
O O1 0.907510 0.193222 0.808190
O O2 0.870310 0.404923 0.174863
O O3 0.078917 0.004599 0.699934
O O4 0.000000 0.500000 0.000000
O O5 0.502709 0.731351 0.552022
O O6 0.458888 0.776531 0.829528
O O7 0.653646 0.734240 0.588449
O O8 0.456656 0.177716 0.965378
O O9 0.475757 0.595522 0.289417
O O10 0.684260 0.399260 0.096675
O O11 0.812142 0.879973 0.622542
O O12 0.761326 0.885382 0.450966
O O13 0.803592 0.273327 0.740391
O O14 0.295909 0.665454 0.347802
O O15 0.500000 0.500000 0.000000
#
# Coordination Sequence:
#
# PCOD8039251 Si02
#       7
#     2   2   2   2   2   2   2
#     4  10  19  33  53  79 113 147 183 230 274 331
#     4  11  22  38  56  87 111 155 194 220 287 334
#     4  11  23  36  59  84 114 153 191 231 273 346
#     4   9  18  32  55  80 107 143 185 231 265 328
#     4  10  18  33  54  82 106 143 187 234 267 327
#     4  12  20  38  54  86 123 143 179 237 296 331
#     4   9  20  33  50  82 117 140 179 223 288 331
#
# _framework density 18.359999999999999
#
# number of rings (size 3 to 8) (size 9 to 14) (size 15 to 20)
#    0.857    0.857    5.714    0.857    0.000    0.571 
#    5.143    0.000    0.000    1.714    0.000    0.000 
#    0.000    0.000    0.000    0.000    0.000    0.000 
#
# Total GULP energy -173499.531771 kJ/mol
# GULP energy per Si atom -12392.823698 kJ/mol
# Density = 1.831821 g / cm^3
# Si number density = 18.360000 Si / 1000 Ang^3
#
#
#
# Elastic Constant Matrix: (Units=GPa)
#
#
# Indices 1 2 3 4 5 6 
#
# 1 130.7400 27.5952 47.9705 3.2238 -8.3433 -0.8262
# 2 27.5952 31.1913 18.4851 -3.3518 -2.0926 -0.9428
# 3 47.9705 18.4851 94.1382 -3.7471 -26.2694 -6.4652
# 4 3.2238 -3.3518 -3.7471 12.7483 -0.3139 4.2793
# 5 -8.3433 -2.0926 -26.2694 -0.3139 41.7674 -0.1298
# 6 -0.8262 -0.9428 -6.4652 4.2793 -0.1298 22.1951
#
#
#
# Elastic Compliance Matrix: (Units=1/GPa)
#
#
# Indices 1 2 3 4 5 6 
#
# 1 0.011097 -0.007777 -0.004713 -0.006233 -0.001184 -0.000095
# 2 -0.007777 0.042887 -0.004761 0.012554 -0.002312 -0.002289
# 3 -0.004713 -0.004761 0.017057 0.003881 0.009589 0.003899
# 4 -0.006233 0.012554 0.003881 0.089850 0.002451 -0.015877
# 5 -0.001184 -0.002312 0.009589 0.002451 0.029647 0.002352
# 6 -0.000095 -0.002289 0.003899 -0.015877 0.002352 0.049165
#
#
# Mechanical properties :
#
#
# Convention : Reuss Voigt Hill
#
# Bulk Modulus (GPa) = 27.36745 49.35234 38.35990
# Shear Modulus (GPa) = 17.45912 26.14339 21.80125
#
# Velocity S-wave (km/s) = 3.08706 3.77760 3.44965
# Velocity P-wave (km/s) = 5.25785 6.77980 6.06674
#
# Compressibility (1/GPa) = 0.03653976
#
# Stress axis : x y z
#
# Youngs Moduli (GPa) = 90.11518 23.31721 58.62601
#
# Poissons Ratio (x) = 0.18133 0.27629
# Poissons Ratio (y) = 0.70080 0.27913
# Poissons Ratio (z) = 0.42469 0.11102
#
# Static dielectric constant tensor:
#      x y z
#    x 3.436700 0.094230 -0.078250 
#    y 0.094230 3.024080 -0.127210 
#    z -0.078250 -0.127210 3.838120 
# 
# 
# High freq. dielectric constant tensor:
#      x y z
#    x 1.714800 0.017810 0.004760 
#    y 0.017810 1.658470 -0.015140 
#    z 0.004760 -0.015140 1.726670 
# 
# From -- ./inp_files/404119.got.cif
#   From: 2010.06.25/outbox.cif.g09.slc.cpg/sg2_203_cif.got.tgz:404119.got - 2010.06.27 13:26:56.
