data_PCOD8039468
_publ_section_title
;
Structure prediction by ZEFSAII (Michael W. Deem and Ramdas Pophale) SiO2 
 PCOD8039468
Probable space group: P -1
;
_chemical_formula_sum "Si O2"
_cell_formula_units_Z 14
_cell_length_a 8.334486
_cell_length_b 9.012944
_cell_length_c 9.291423
_cell_angle_alpha 63.530825
_cell_angle_beta 66.941872
_cell_angle_gamma 67.085599
_cell_volume 554.985942
_symmetry_space_group_name_H-M "P -1"
_symmetry_group_IT_number 2
_symmetry_cell_setting 'triclinic'
loop_
_space_group_symop_operation_xyz
x,y,z
-x,-y,-z
loop_
_atom_site_type_symbol
_atom_site_label
_atom_site_fract_x
_atom_site_fract_y
_atom_site_fract_z
Si Si1 0.475616 0.275583 0.702901
Si Si2 0.123447 0.957710 0.335136
Si Si3 0.175321 0.567564 0.131459
Si Si4 0.586373 0.600108 0.630158
Si Si5 0.729539 0.755452 0.941108
Si Si6 0.074420 0.123635 0.819853
Si Si7 0.607280 0.174397 0.164699
O O1 0.672163 0.149097 0.657351
O O2 0.499069 0.444742 0.699608
O O3 0.364501 0.324457 0.571174
O O4 0.347047 0.205088 0.887062
O O5 0.029848 0.850395 0.307439
O O6 0.121919 0.137881 0.179214
O O7 0.000000 0.000000 0.500000
O O8 0.241138 0.454908 0.300616
O O9 0.183060 0.444926 0.043437
O O10 0.969342 0.685125 0.174884
O O11 0.299510 0.699806 0.011419
O O12 0.434049 0.749809 0.694529
O O13 0.569477 0.835469 0.852934
O O14 0.284831 0.025988 0.767673
O O15 0.000000 0.000000 0.000000
#
# Coordination Sequence:
#
# PCOD8039468 Si02
#       7
#     2   2   2   2   2   2   2
#     4  11  20  36  66  99 129 171 219 271 323 391
#     4  12  26  45  65  98 139 173 216 283 336 381
#     4  10  18  39  65 100 130 178 216 273 328 396
#     4  10  18  33  65  97 127 166 219 266 324 382
#     4  11  22  42  73  99 127 172 232 271 318 393
#     4  10  21  40  66  92 138 178 208 264 346 389
#     4  10  18  38  67  96 130 177 220 268 324 397
#
# _framework density 25.225863
#
# number of rings (size 3 to 8) (size 9 to 14) (size 15 to 20)
#    0.000    1.429    4.286    3.000    0.000    0.000 
#    0.000   12.857    9.429    0.000    0.000    0.000 
#    0.000    0.000    0.000    0.000    0.000    0.000 
#
# Total GULP energy -173575.189812 kJ/mol
# GULP energy per Si atom -12398.227844 kJ/mol
# Density = 2.516845 g / cm^3
# Si number density = 25.225863 Si / 1000 Ang^3
#
#
#
# Elastic Constant Matrix: (Units=GPa)
#
#
# Indices 1 2 3 4 5 6 
#
# 1 47.9753 36.2814 23.6631 6.9612 -1.9010 -23.9998
# 2 36.2814 182.5872 47.9397 28.9044 -9.3281 -40.4549
# 3 23.6631 47.9397 163.6630 25.6674 -4.1797 -13.5349
# 4 6.9612 28.9044 25.6674 38.1516 -1.0413 -6.2417
# 5 -1.9010 -9.3281 -4.1797 -1.0413 32.6867 -0.1019
# 6 -23.9998 -40.4549 -13.5349 -6.2417 -0.1019 40.6369
#
#
#
# Elastic Compliance Matrix: (Units=1/GPa)
#
#
# Indices 1 2 3 4 5 6 
#
# 1 0.031618 -0.002075 -0.002668 0.000201 0.000961 0.015753
# 2 -0.002075 0.008229 -0.000901 -0.004210 0.001997 0.006025
# 3 -0.002668 -0.000901 0.007322 -0.003848 0.000399 -0.000624
# 4 0.000201 -0.004210 -0.003848 0.031859 -0.000668 -0.000462
# 5 0.000961 0.001997 0.000399 -0.000668 0.031257 0.002665
# 6 0.015753 0.006025 -0.000624 -0.000462 0.002665 0.039638
#
#
# Mechanical properties :
#
#
# Convention : Reuss Voigt Hill
#
# Bulk Modulus (GPa) = 27.86943 67.77709 47.82326
# Shear Modulus (GPa) = 28.87318 41.38445 35.12882
#
# Velocity S-wave (km/s) = 3.38684 4.05477 3.73577
# Velocity P-wave (km/s) = 5.13481 6.98913 6.13246
#
# Compressibility (1/GPa) = 0.03588160
#
# Stress axis : x y z
#
# Youngs Moduli (GPa) = 31.62729 121.52040 136.57802
#
# Poissons Ratio (x) = 0.25213 0.36439
# Poissons Ratio (y) = 0.06562 0.12305
# Poissons Ratio (z) = 0.08438 0.10949
#
# Static dielectric constant tensor:
#      x y z
#    x 4.647350 -0.319820 0.176810 
#    y -0.319820 5.096400 0.185510 
#    z 0.176810 0.185510 4.522540 
# 
# 
# High freq. dielectric constant tensor:
#      x y z
#    x 1.991910 -0.002490 0.015050 
#    y -0.002490 2.029980 0.014200 
#    z 0.015050 0.014200 1.997510 
# 
# From -- ./inp_files/157130.got.cif
#   From: 2010.06.25/outbox.cif.g09.slc.cpg/sg2_79_cif.got.tgz:157130.got - 2010.06.27 13:26:56.
