data_PCOD8039564
_publ_section_title
;
Structure prediction by ZEFSAII (Michael W. Deem and Ramdas Pophale) SiO2 
 PCOD8039564
Probable space group: P -1
;
_chemical_formula_sum "Si O2"
_cell_formula_units_Z 14
_cell_length_a 16.490685
_cell_length_b 8.535916
_cell_length_c 5.158292
_cell_angle_alpha 89.022180
_cell_angle_beta 66.536524
_cell_angle_gamma 78.187587
_cell_volume 650.272783
_symmetry_space_group_name_H-M "P -1"
_symmetry_group_IT_number 2
_symmetry_cell_setting 'triclinic'
loop_
_space_group_symop_operation_xyz
x,y,z
-x,-y,-z
loop_
_atom_site_type_symbol
_atom_site_label
_atom_site_fract_x
_atom_site_fract_y
_atom_site_fract_z
Si Si1 0.329290 0.279359 0.170662
Si Si2 0.038006 0.690997 0.647336
Si Si3 0.326190 0.782077 0.714693
Si Si4 0.134243 0.387604 0.286687
Si Si5 0.603103 0.410151 0.875461
Si Si6 0.602899 0.910772 0.403554
Si Si7 0.134878 0.702808 0.031224
O O1 0.223479 0.272014 0.294523
O O2 0.332050 0.464095 0.211803
O O3 0.381923 0.169147 0.331866
O O4 0.376093 0.225090 0.838706
O O5 0.076941 0.496846 0.584148
O O6 0.064871 0.755194 0.884129
O O7 0.928930 0.723149 0.757040
O O8 0.082962 0.778034 0.356932
O O9 0.372122 0.706725 0.395025
O O10 0.383708 0.694284 0.880706
O O11 0.222042 0.774066 0.866103
O O12 0.330302 0.967906 0.715686
O O13 0.162894 0.508074 0.031264
O O14 0.500000 0.500000 0.000000
O O15 0.500000 0.000000 0.500000
#
# Coordination Sequence:
#
# PCOD8039564 Si02
#       7
#     2   2   2   2   2   2   2
#     4  12  24  40  67  92 124 156 219 260 297 371
#     4   9  19  31  58  92 127 148 188 259 312 361
#     4  12  23  41  63  87 127 162 208 250 314 380
#     4   9  20  33  59  93 121 152 199 256 306 353
#     4  12  23  40  65  93 116 154 210 276 310 352
#     4  12  27  45  60  87 129 175 203 249 322 378
#     4  10  18  34  56  88 116 155 197 241 301 359
#
# _framework density 21.529427999999999
#
# number of rings (size 3 to 8) (size 9 to 14) (size 15 to 20)
#    0.857    0.286    1.429    6.429    2.000    0.000 
#    0.000    0.000    0.000    5.143    0.000    0.000 
#    0.000    0.000    0.000    0.000    0.000    0.000 
#
# Total GULP energy -173609.132191 kJ/mol
# GULP energy per Si atom -12400.652299 kJ/mol
# Density = 2.148043 g / cm^3
# Si number density = 21.529428 Si / 1000 Ang^3
#
#
#
# Elastic Constant Matrix: (Units=GPa)
#
#
# Indices 1 2 3 4 5 6 
#
# 1 131.0277 -5.7626 19.7100 7.0287 4.4206 7.7412
# 2 -5.7626 48.1104 11.6427 -4.0191 7.7571 10.8809
# 3 19.7100 11.6427 113.8800 -10.1544 27.7593 -2.7735
# 4 7.0287 -4.0191 -10.1544 19.8649 2.8574 -7.1414
# 5 4.4206 7.7571 27.7593 2.8574 42.9133 -3.2527
# 6 7.7412 10.8809 -2.7735 -7.1414 -3.2527 26.7271
#
#
#
# Elastic Compliance Matrix: (Units=1/GPa)
#
#
# Indices 1 2 3 4 5 6 
#
# 1 0.008711 0.002292 -0.002449 -0.005786 0.000262 -0.005225
# 2 0.002292 0.024866 -0.002269 -0.000544 -0.004111 -0.011668
# 3 -0.002449 -0.002269 0.012212 0.009343 -0.007520 0.004482
# 4 -0.005786 -0.000544 0.009343 0.065167 -0.008227 0.019278
# 5 0.000262 -0.004111 -0.007520 -0.008227 0.029599 0.002221
# 6 -0.005225 -0.011668 0.004482 0.019278 0.002221 0.049565
#
#
# Mechanical properties :
#
#
# Convention : Reuss Voigt Hill
#
# Bulk Modulus (GPa) = 24.42801 38.24426 31.33614
# Shear Modulus (GPa) = 23.96714 35.72960 29.84837
#
# Velocity S-wave (km/s) = 3.34012 4.07820 3.72748
# Velocity P-wave (km/s) = 5.12311 6.32281 5.75431
#
# Compressibility (1/GPa) = 0.04093661
#
# Stress axis : x y z
#
# Youngs Moduli (GPa) = 114.79153 40.21621 81.88475
#
# Poissons Ratio (x) = -0.09218 0.20055
# Poissons Ratio (y) = -0.26312 0.18583
# Poissons Ratio (z) = 0.28114 0.09127
#
# Static dielectric constant tensor:
#      x y z
#    x 3.959360 0.196260 0.113260 
#    y 0.196260 3.667050 -0.045920 
#    z 0.113260 -0.045920 3.831900 
# 
# 
# High freq. dielectric constant tensor:
#      x y z
#    x 1.863300 0.016170 0.006490 
#    y 0.016170 1.808970 -0.009420 
#    z 0.006490 -0.009420 1.847660 
# 
# From -- ./inp_files/92594.got.cif
#   From: 2010.06.25/outbox.cif.g09.slc.cpg/sg2_47_cif.got.tgz:92594.got - 2010.06.27 13:26:56.
