data_PCOD8039258
_publ_section_title
;
Structure prediction by ZEFSAII (Michael W. Deem and Ramdas Pophale) SiO2 
 PCOD8039258
Probable space group: P -1
;
_chemical_formula_sum "Si O2"
_cell_formula_units_Z 16
_cell_length_a 11.330615
_cell_length_b 12.168868
_cell_length_c 10.271846
_cell_angle_alpha 52.268523
_cell_angle_beta 100.326321
_cell_angle_gamma 127.236676
_cell_volume 849.739763
_symmetry_space_group_name_H-M "P -1"
_symmetry_group_IT_number 2
_symmetry_cell_setting 'triclinic'
loop_
_space_group_symop_operation_xyz
x,y,z
-x,-y,-z
loop_
_atom_site_type_symbol
_atom_site_label
_atom_site_fract_x
_atom_site_fract_y
_atom_site_fract_z
Si Si1 0.706006 0.926141 0.265531
Si Si2 0.676555 0.603257 0.486644
Si Si3 0.662036 0.313152 0.584265
Si Si4 0.157302 0.969673 0.505622
Si Si5 0.813890 0.700664 0.707334
Si Si6 0.322232 0.828939 0.573360
Si Si7 0.821170 0.415826 0.025372
Si Si8 0.681367 0.159649 0.939762
O O1 0.761963 0.812410 0.320074
O O2 0.522279 0.808586 0.340998
O O3 0.792662 0.034703 0.335144
O O4 0.759078 0.067943 0.056685
O O5 0.500000 0.500000 0.500000
O O6 0.739049 0.522520 0.468933
O O7 0.686107 0.574339 0.663251
O O8 0.703970 0.290739 0.466938
O O9 0.742590 0.269184 0.737400
O O10 0.229578 0.904474 0.474675
O O11 0.972590 0.824541 0.565497
O O12 0.215797 0.167680 0.331272
O O13 0.814306 0.579960 0.903167
O O14 0.262820 0.699993 0.778842
O O15 0.500000 0.000000 0.500000
O O16 0.723874 0.293239 0.970095
O O17 0.000000 0.500000 0.000000
O O18 0.500000 0.000000 0.000000
#
# Coordination Sequence:
#
# PCOD8039258 Si02
#       8
#     2   2   2   2   2   2   2   2
#     4   9  16  32  55  79 108 156 199 235 285 355
#     4   9  18  32  54  81 115 151 201 241 294 350
#     4  10  19  32  53  82 116 150 192 247 295 348
#     4  10  19  36  59  85 118 156 198 248 312 352
#     4  10  20  36  61  87 112 155 212 252 282 364
#     4  12  22  38  58  90 132 160 193 254 323 358
#     4  12  22  39  63  91 120 161 216 250 293 368
#     4  10  18  33  54  84 113 154 207 242 288 356
#
# _framework density 18.829294000000001
#
# number of rings (size 3 to 8) (size 9 to 14) (size 15 to 20)
#    0.000    1.750    5.000    0.750    0.000    0.000 
#    0.000    4.375    0.000    0.000    0.000    7.000 
#    0.000    0.000    0.000    0.000    0.000    0.000 
#
# Total GULP energy -198253.901056 kJ/mol
# GULP energy per Si atom -12390.868816 kJ/mol
# Density = 1.878644 g / cm^3
# Si number density = 18.829294 Si / 1000 Ang^3
#
#
#
# Elastic Constant Matrix: (Units=GPa)
#
#
# Indices 1 2 3 4 5 6 
#
# 1 82.0044 31.6219 50.4923 -7.1822 18.2348 -22.5324
# 2 31.6219 86.5715 44.6592 2.8390 2.8975 -20.8752
# 3 50.4923 44.6592 129.4179 -1.6060 21.5051 -18.1048
# 4 -7.1822 2.8390 -1.6060 25.1669 -5.4469 6.7584
# 5 18.2348 2.8975 21.5051 -5.4469 35.1663 -4.5654
# 6 -22.5324 -20.8752 -18.1048 6.7584 -4.5654 41.2616
#
#
#
# Elastic Compliance Matrix: (Units=1/GPa)
#
#
# Indices 1 2 3 4 5 6 
#
# 1 0.019432 -0.003171 -0.004675 0.002783 -0.005764 0.005862
# 2 -0.003171 0.016215 -0.004109 -0.003869 0.002953 0.005629
# 3 -0.004675 -0.004109 0.011743 -0.001166 -0.004572 0.000206
# 4 0.002783 -0.003869 -0.001166 0.044101 0.005437 -0.007571
# 5 -0.005764 0.002953 -0.004572 0.005437 0.034728 -0.000708
# 6 0.005862 0.005629 0.000206 -0.007571 -0.000708 0.031537
#
#
# Mechanical properties :
#
#
# Convention : Reuss Voigt Hill
#
# Bulk Modulus (GPa) = 42.59076 61.28228 51.93652
# Shear Modulus (GPa) = 26.38637 31.73364 29.06001
#
# Velocity S-wave (km/s) = 3.74752 4.10974 3.93280
# Velocity P-wave (km/s) = 6.43379 7.42542 6.94732
#
# Compressibility (1/GPa) = 0.02347927
#
# Stress axis : x y z
#
# Youngs Moduli (GPa) = 51.46200 61.67253 85.15810
#
# Poissons Ratio (x) = 0.19557 0.39808
# Poissons Ratio (y) = 0.16319 0.34994
# Poissons Ratio (z) = 0.24056 0.25343
#
# Static dielectric constant tensor:
#      x y z
#    x 3.718220 -0.095960 0.502590 
#    y -0.095960 4.245790 -0.650370 
#    z 0.502590 -0.650370 4.032600 
# 
# 
# High freq. dielectric constant tensor:
#      x y z
#    x 1.712450 -0.000610 0.051290 
#    y -0.000610 1.752060 -0.006640 
#    z 0.051290 -0.006640 1.706250 
# 
# From -- ./inp_files/262103.got.cif
#   From: 2010.06.25/outbox.cif.g09.slc.cpg/sg2_132_cif.got.tgz:262103.got - 2010.06.27 13:26:56.
