data_PCOD8039804
_publ_section_title
;
Structure prediction by ZEFSAII (Michael W. Deem and Ramdas Pophale) SiO2 
 PCOD8039804
Probable space group: P -1
;
_chemical_formula_sum "Si O2"
_cell_formula_units_Z 14
_cell_length_a 12.701951
_cell_length_b 8.693983
_cell_length_c 17.796342
_cell_angle_alpha 55.971837
_cell_angle_beta 145.532847
_cell_angle_gamma 100.185914
_cell_volume 732.787435
_symmetry_space_group_name_H-M "P -1"
_symmetry_group_IT_number 2
_symmetry_cell_setting 'triclinic'
loop_
_space_group_symop_operation_xyz
x,y,z
-x,-y,-z
loop_
_atom_site_type_symbol
_atom_site_label
_atom_site_fract_x
_atom_site_fract_y
_atom_site_fract_z
Si Si1 0.372734 0.103353 0.217552
Si Si2 0.563891 0.218235 0.049120
Si Si3 0.260496 0.280873 0.721395
Si Si4 0.511318 0.255921 0.730391
Si Si5 0.298891 0.464382 0.974816
Si Si6 0.098249 0.751450 0.093158
Si Si7 0.790741 0.612294 0.619049
O O1 0.353293 0.006951 0.151366
O O2 0.597690 0.888685 0.453893
O O3 0.385240 0.312392 0.144543
O O4 0.126583 0.215087 0.086824
O O5 0.342089 0.298672 0.845980
O O6 0.482661 0.302142 0.062892
O O7 0.697611 0.317490 0.068553
O O8 0.743674 0.938695 0.229480
O O9 0.430002 0.271299 0.762553
O O10 0.000000 0.500000 0.500000
O O11 0.689742 0.324658 0.817841
O O12 0.287850 0.427631 0.496667
O O13 0.039355 0.560696 0.772012
O O14 0.210684 0.551167 0.277201
O O15 0.000000 0.000000 0.000000
#
# Coordination Sequence:
#
# PCOD8039804 Si02
#       7
#     2   2   2   2   2   2   2
#     4   8  17  29  50  80 104 129 166 219 258 305
#     4  10  22  35  55  73 105 141 177 216 255 305
#     4  11  22  38  50  77 108 141 176 209 256 312
#     4   9  17  31  49  75 107 137 169 211 259 304
#     4  10  18  35  54  79 101 137 177 216 261 297
#     4   9  16  27  47  78 109 129 166 214 264 305
#     4   9  17  28  49  78 106 129 164 215 260 307
#
# _framework density 19.105131
#
# number of rings (size 3 to 8) (size 9 to 14) (size 15 to 20)
#    0.857    1.714    1.429    1.286    0.000    1.143 
#    0.000    3.571    0.000    3.429    0.000    6.000 
#    0.000    0.000    0.000    0.000    0.000    0.000 
#
# Total GULP energy -173443.983999 kJ/mol
# GULP energy per Si atom -12388.856000 kJ/mol
# Density = 1.906165 g / cm^3
# Si number density = 19.105131 Si / 1000 Ang^3
#
#
#
# Elastic Constant Matrix: (Units=GPa)
#
#
# Indices 1 2 3 4 5 6 
#
# 1 72.3498 40.2720 29.5404 -17.5391 0.0937 35.2158
# 2 40.2720 71.8170 35.2266 -16.4079 1.1349 27.6033
# 3 29.5404 35.2266 128.6925 -19.0042 -3.4203 24.1033
# 4 -17.5391 -16.4079 -19.0042 12.9990 8.9334 -8.3158
# 5 0.0937 1.1349 -3.4203 8.9334 25.1061 -0.3061
# 6 35.2158 27.6033 24.1033 -8.3158 -0.3061 34.9544
#
#
#
# Elastic Compliance Matrix: (Units=1/GPa)
#
#
# Indices 1 2 3 4 5 6 
#
# 1 0.039958 -0.000347 0.003867 0.052589 -0.018689 -0.030303
# 2 -0.000347 0.027453 -0.000178 0.035235 -0.013959 -0.012947
# 3 0.003867 -0.000178 0.011128 0.021437 -0.006196 -0.006384
# 4 0.052589 0.035235 0.021437 0.267736 -0.094535 -0.032722
# 5 -0.018689 -0.013959 -0.006196 -0.094535 0.073475 0.012278
# 6 -0.030303 -0.012947 -0.006384 -0.032722 0.012278 0.066087
#
#
# Mechanical properties :
#
#
# Convention : Reuss Voigt Hill
#
# Bulk Modulus (GPa) = 11.73363 53.65971 32.69667
# Shear Modulus (GPa) = 9.85105 25.79992 17.82548
#
# Velocity S-wave (km/s) = 2.27320 3.67879 3.05785
# Velocity P-wave (km/s) = 3.61177 6.79648 5.44229
#
# Compressibility (1/GPa) = 0.08522508
#
# Stress axis : x y z
#
# Youngs Moduli (GPa) = 25.02618 36.42584 89.86382
#
# Poissons Ratio (x) = 0.01263 -0.34754
# Poissons Ratio (y) = 0.00867 0.01598
# Poissons Ratio (z) = -0.09679 0.00648
#
# Static dielectric constant tensor:
#      x y z
#    x 3.629730 0.462750 0.145570 
#    y 0.462750 3.307870 -0.065240 
#    z 0.145570 -0.065240 3.572840 
# 
# 
# High freq. dielectric constant tensor:
#      x y z
#    x 1.735230 0.038320 0.001610 
#    y 0.038320 1.709590 -0.009330 
#    z 0.001610 -0.009330 1.747530 
# 
# From -- ./inp_files/457327.got.cif
#   From: 2010.06.25/outbox.cif.g09.slc.cpg/sg2_229_cif.got.tgz:457327.got - 2010.06.27 13:26:56.
