data_PCOD8039364
_publ_section_title
;
Structure prediction by ZEFSAII (Michael W. Deem and Ramdas Pophale) SiO2 
 PCOD8039364
Probable space group: P -1
;
_chemical_formula_sum "Si O2"
_cell_formula_units_Z 16
_cell_length_a 9.360941
_cell_length_b 20.390592
_cell_length_c 14.151597
_cell_angle_alpha 24.911786
_cell_angle_beta 44.493452
_cell_angle_gamma 39.570267
_cell_volume 723.789712
_symmetry_space_group_name_H-M "P -1"
_symmetry_group_IT_number 2
_symmetry_cell_setting 'triclinic'
loop_
_space_group_symop_operation_xyz
x,y,z
-x,-y,-z
loop_
_atom_site_type_symbol
_atom_site_label
_atom_site_fract_x
_atom_site_fract_y
_atom_site_fract_z
Si Si1 0.961883 0.756790 0.678225
Si Si2 0.714000 0.427207 0.394767
Si Si3 0.482024 0.250030 0.048235
Si Si4 0.748715 0.873511 0.082829
Si Si5 0.212457 0.822991 0.632313
Si Si6 0.468642 0.006936 0.788273
Si Si7 0.181346 0.863972 0.796796
Si Si8 0.342011 0.325922 0.751246
O O1 0.782481 0.686777 0.887101
O O2 0.067705 0.672245 0.639954
O O3 0.162097 0.708762 0.725029
O O4 0.812860 0.958918 0.469709
O O5 0.596991 0.301202 0.641016
O O6 0.791675 0.494727 0.365061
O O7 0.518374 0.595312 0.218293
O O8 0.597060 0.064107 0.184072
O O9 0.618648 0.241338 0.089518
O O10 0.782841 0.684942 0.273420
O O11 0.746864 0.890390 0.175839
O O12 0.941830 0.916837 0.890381
O O13 0.500000 0.000000 0.000000
O O14 0.227283 0.748155 0.830247
O O15 0.429133 0.856212 0.460043
O O16 0.000000 0.000000 0.500000
O O17 0.648705 0.833754 0.979945
#
# Coordination Sequence:
#
# PCOD8039364 Si02
#       8
#     2   2   2   2   2   2   2   2
#     4  11  20  36  62  86 114 155 201 233 277 351
#     4  10  21  36  59  84 117 157 198 228 285 352
#     4  11  23  37  55  86 130 149 183 242 302 337
#     4  10  19  34  61  86 109 144 203 239 279 337
#     4  10  18  33  61  87 110 147 196 237 282 334
#     4  10  18  33  58  86 116 147 190 245 288 332
#     4  11  23  37  60  89 119 150 186 250 301 330
#     4   9  18  35  58  83 112 150 196 245 271 336
#
# _framework density 22.105868000000001
#
# number of rings (size 3 to 8) (size 9 to 14) (size 15 to 20)
#    0.000    1.750    2.500    6.000    1.750    0.500 
#    0.000    1.250    0.000    0.000    0.000    0.000 
#    0.000    0.000    0.000    0.000    0.000    0.000 
#
# Total GULP energy -198261.425242 kJ/mol
# GULP energy per Si atom -12391.339078 kJ/mol
# Density = 2.205555 g / cm^3
# Si number density = 22.105868 Si / 1000 Ang^3
#
#
#
# Elastic Constant Matrix: (Units=GPa)
#
#
# Indices 1 2 3 4 5 6 
#
# 1 90.3076 30.7897 21.1849 7.0682 -1.0460 13.3324
# 2 30.7897 84.0786 19.2933 27.3790 0.9575 33.2648
# 3 21.1849 19.2933 51.5149 27.8423 -4.1626 -5.9489
# 4 7.0682 27.3790 27.8423 34.8971 3.6875 5.2703
# 5 -1.0460 0.9575 -4.1626 3.6875 22.2708 1.9343
# 6 13.3324 33.2648 -5.9489 5.2703 1.9343 34.5503
#
#
#
# Elastic Compliance Matrix: (Units=1/GPa)
#
#
# Indices 1 2 3 4 5 6 
#
# 1 0.014920 -0.004287 -0.010497 0.009678 -0.002264 -0.004787
# 2 -0.004287 0.029110 -0.003038 -0.016127 0.002785 -0.024591
# 3 -0.010497 -0.003038 0.050029 -0.040023 0.013798 0.020922
# 4 0.009678 -0.016127 -0.040023 0.074006 -0.018120 -0.005374
# 5 -0.002264 0.002785 0.013798 -0.018120 0.050210 0.000521
# 6 -0.004787 -0.024591 0.020922 -0.005374 0.000521 0.058860
#
#
# Mechanical properties :
#
#
# Convention : Reuss Voigt Hill
#
# Bulk Modulus (GPa) = 17.11875 40.93742 29.02809
# Shear Modulus (GPa) = 15.04891 28.65253 21.85072
#
# Velocity S-wave (km/s) = 2.61198 3.60411 3.14739
# Velocity P-wave (km/s) = 4.10577 5.98987 5.13497
#
# Compressibility (1/GPa) = 0.05841549
#
# Stress axis : x y z
#
# Youngs Moduli (GPa) = 67.02285 34.35284 19.98848
#
# Poissons Ratio (x) = 0.14727 0.20981
# Poissons Ratio (y) = 0.28734 0.06072
# Poissons Ratio (z) = 0.70352 0.10436
#
# Static dielectric constant tensor:
#      x y z
#    x 4.502920 0.996870 -0.210060 
#    y 0.996870 4.093890 0.231670 
#    z -0.210060 0.231670 4.018170 
# 
# 
# High freq. dielectric constant tensor:
#      x y z
#    x 1.848200 0.052960 -0.017040 
#    y 0.052960 1.853190 0.030920 
#    z -0.017040 0.030920 1.862410 
# 
# From -- ./inp_files/227513.got.cif
#   From: 2010.06.25/outbox.cif.g09.slc.cpg/sg2_114_cif.got.tgz:227513.got - 2010.06.27 13:26:56.
