data_PCOD8039040
_publ_section_title
;
Structure prediction by ZEFSAII (Michael W. Deem and Ramdas Pophale) SiO2 
 PCOD8039040
Probable space group: P -1
;
_chemical_formula_sum "Si O2"
_cell_formula_units_Z 16
_cell_length_a 13.534570
_cell_length_b 10.006184
_cell_length_c 9.251535
_cell_angle_alpha 64.526118
_cell_angle_beta 55.018115
_cell_angle_gamma 94.696685
_cell_volume 830.377794
_symmetry_space_group_name_H-M "P -1"
_symmetry_group_IT_number 2
_symmetry_cell_setting 'triclinic'
loop_
_space_group_symop_operation_xyz
x,y,z
-x,-y,-z
loop_
_atom_site_type_symbol
_atom_site_label
_atom_site_fract_x
_atom_site_fract_y
_atom_site_fract_z
Si Si1 0.375920 0.480159 0.749594
Si Si2 0.849746 0.612571 0.253193
Si Si3 0.480979 0.239565 0.684869
Si Si4 0.215836 0.982713 0.138588
Si Si5 0.922656 0.850226 0.343555
Si Si6 0.936107 0.188667 0.233844
Si Si7 0.830396 0.747121 0.778637
Si Si8 0.743208 0.244436 0.565181
O O1 0.270925 0.401832 0.741978
O O2 0.473683 0.390741 0.709745
O O3 0.461830 0.678908 0.560681
O O4 0.287392 0.433139 0.992462
O O5 0.823561 0.441040 0.430123
O O6 0.861261 0.743793 0.303448
O O7 0.986102 0.673154 0.016178
O O8 0.585615 0.187433 0.698618
O O9 0.337008 0.079859 0.877979
O O10 0.209583 0.109421 0.204007
O O11 0.080933 0.899847 0.196961
O O12 0.241493 0.842942 0.262958
O O13 0.843706 0.744195 0.597765
O O14 0.898844 0.012025 0.275659
O O15 0.801552 0.197945 0.393581
O O16 0.026235 0.214637 0.289816
#
# Coordination Sequence:
#
# PCOD8039040 Si02
#       8
#     2   2   2   2   2   2   2   2
#     4   8  17  35  54  79 101 134 182 221 246 302
#     4  10  22  32  54  82 109 133 167 221 273 304
#     4   9  18  31  55  78  98 139 185 216 242 294
#     4  10  18  32  54  80 107 136 177 212 249 318
#     4  11  19  34  56  83 104 137 168 216 271 307
#     4  10  18  34  52  78 107 134 177 214 255 310
#     4   9  16  32  56  77 103 134 178 216 252 305
#     4  11  19  33  52  81 107 137 174 215 257 307
#
# _framework density 19.268339000000001
#
# number of rings (size 3 to 8) (size 9 to 14) (size 15 to 20)
#    0.000    2.250    2.500    2.625    0.000    0.500 
#    0.000    0.000    0.000   21.750    0.000    0.000 
#    0.000    0.000    0.000    0.000    0.000    0.000 
#
# Total GULP energy -198346.324833 kJ/mol
# GULP energy per Si atom -12396.645302 kJ/mol
# Density = 1.922448 g / cm^3
# Si number density = 19.268339 Si / 1000 Ang^3
#
#
#
# Elastic Constant Matrix: (Units=GPa)
#
#
# Indices 1 2 3 4 5 6 
#
# 1 60.2904 27.7162 35.6511 3.9964 -14.3788 -13.4359
# 2 27.7162 51.9710 32.1448 -5.0575 -7.0915 -10.1025
# 3 35.6511 32.1448 139.4388 -21.2914 -11.0400 6.9867
# 4 3.9964 -5.0575 -21.2914 25.1940 -3.6770 4.4329
# 5 -14.3788 -7.0915 -11.0400 -3.6770 25.1037 2.9961
# 6 -13.4359 -10.1025 6.9867 4.4329 2.9961 20.8609
#
#
#
# Elastic Compliance Matrix: (Units=1/GPa)
#
#
# Indices 1 2 3 4 5 6 
#
# 1 0.035743 -0.008121 -0.011082 -0.020193 0.007238 0.026051
# 2 -0.008121 0.028643 -0.004803 0.001280 0.000330 0.009930
# 3 -0.011082 -0.004803 0.014971 0.017261 0.003636 -0.018668
# 4 -0.020193 0.001280 0.017261 0.065064 0.009905 -0.033415
# 5 0.007238 0.000330 0.003636 0.009905 0.047764 -0.005361
# 6 0.026051 0.009930 -0.018668 -0.033415 -0.005361 0.083647
#
#
# Mechanical properties :
#
#
# Convention : Reuss Voigt Hill
#
# Bulk Modulus (GPa) = 31.90208 49.19161 40.54685
# Shear Modulus (GPa) = 14.95702 24.64425 19.80064
#
# Velocity S-wave (km/s) = 2.78915 3.58019 3.20914
# Velocity P-wave (km/s) = 5.19280 6.53265 5.90088
#
# Compressibility (1/GPa) = 0.03134592
#
# Stress axis : x y z
#
# Youngs Moduli (GPa) = 27.97753 34.91297 66.79548
#
# Poissons Ratio (x) = 0.28352 0.74023
# Poissons Ratio (y) = 0.22720 0.32080
# Poissons Ratio (z) = 0.31005 0.16768
#
# Static dielectric constant tensor:
#      x y z
#    x 3.294370 -0.300050 -0.102790 
#    y -0.300050 3.166050 -0.301950 
#    z -0.102790 -0.301950 4.015590 
# 
# 
# High freq. dielectric constant tensor:
#      x y z
#    x 1.729660 -0.032020 -0.007510 
#    y -0.032020 1.705330 -0.021780 
#    z -0.007510 -0.021780 1.777110 
# 
# From -- ./inp_files/298140.got.cif
#   From: 2010.06.25/outbox.cif.g09.slc.cpg/sg2_150_cif.got.tgz:298140.got - 2010.06.27 13:26:56.
