data_PCOD8039337
_publ_section_title
;
Structure prediction by ZEFSAII (Michael W. Deem and Ramdas Pophale) SiO2 
 PCOD8039337
Probable space group: P -1
;
_chemical_formula_sum "Si O2"
_cell_formula_units_Z 14
_cell_length_a 14.524219
_cell_length_b 15.009363
_cell_length_c 14.584097
_cell_angle_alpha 139.975479
_cell_angle_beta 159.890884
_cell_angle_gamma 42.077410
_cell_volume 699.112154
_symmetry_space_group_name_H-M "P -1"
_symmetry_group_IT_number 2
_symmetry_cell_setting 'triclinic'
loop_
_space_group_symop_operation_xyz
x,y,z
-x,-y,-z
loop_
_atom_site_type_symbol
_atom_site_label
_atom_site_fract_x
_atom_site_fract_y
_atom_site_fract_z
Si Si1 0.650212 0.036524 0.298054
Si Si2 0.350363 0.244059 0.713986
Si Si3 0.136577 0.389135 0.468589
Si Si4 0.207940 0.861249 0.674304
Si Si5 0.464536 0.919992 0.575029
Si Si6 0.970340 0.138434 0.019929
Si Si7 0.229229 0.651868 0.677789
O O1 0.698364 0.148035 0.351471
O O2 0.629622 0.115325 0.438226
O O3 0.892396 0.912806 0.427082
O O4 0.372962 0.969578 0.968925
O O5 0.383324 0.305036 0.689669
O O6 0.033623 0.261280 0.456092
O O7 0.461501 0.084294 0.688944
O O8 0.510869 0.323963 0.000647
O O9 0.937090 0.277510 0.161046
O O10 0.221885 0.483741 0.537678
O O11 0.000000 0.500000 0.500000
O O12 0.262457 0.708005 0.649650
O O13 0.765313 0.851530 0.786374
O O14 0.280554 0.855646 0.277549
O O15 0.000000 0.000000 0.000000
#
# Coordination Sequence:
#
# PCOD8039337 Si02
#       7
#     2   2   2   2   2   2   2
#     4  10  20  33  56  88 116 151 186 247 289 340
#     4  11  21  35  58  86 115 156 184 240 287 341
#     4  10  25  40  59  84 118 155 199 237 288 347
#     4  10  18  33  57  87 118 145 196 237 294 335
#     4  12  22  38  61  81 125 148 196 236 302 334
#     4  12  26  40  59  85 117 159 196 239 285 351
#     4  11  20  36  57  85 119 149 192 237 293 335
#
# _framework density 20.025397999999999
#
# number of rings (size 3 to 8) (size 9 to 14) (size 15 to 20)
#    0.000    1.143    4.286    2.571    2.000    2.286 
#    0.000    0.000    0.000    1.714    0.000    0.000 
#    0.000    0.000    0.000    0.000    0.000    0.000 
#
# Total GULP energy -173566.678444 kJ/mol
# GULP energy per Si atom -12397.619889 kJ/mol
# Density = 1.997982 g / cm^3
# Si number density = 20.025398 Si / 1000 Ang^3
#
#
#
# Elastic Constant Matrix: (Units=GPa)
#
#
# Indices 1 2 3 4 5 6 
#
# 1 110.4463 38.8454 19.8581 9.9491 -9.5278 26.8142
# 2 38.8454 70.0439 20.9235 28.0416 -8.7959 22.4494
# 3 19.8581 20.9235 84.6132 8.8227 -6.6411 4.1086
# 4 9.9491 28.0416 8.8227 31.7944 -7.2492 -1.8122
# 5 -9.5278 -8.7959 -6.6411 -7.2492 30.3778 -5.3666
# 6 26.8142 22.4494 4.1086 -1.8122 -5.3666 45.5341
#
#
#
# Elastic Compliance Matrix: (Units=1/GPa)
#
#
# Indices 1 2 3 4 5 6 
#
# 1 0.012220 -0.005430 -0.001352 0.001464 0.001581 -0.004152
# 2 -0.005430 0.034535 -0.003675 -0.029062 -0.002074 -0.014899
# 3 -0.001352 -0.003675 0.013047 0.000546 0.001788 0.001663
# 4 0.001464 -0.029062 0.000546 0.059572 0.009364 0.016891
# 5 0.001581 -0.002074 0.001788 0.009364 0.036248 0.004575
# 6 -0.004152 -0.014899 0.001663 0.016891 0.004575 0.032814
#
#
# Mechanical properties :
#
#
# Convention : Reuss Voigt Hill
#
# Bulk Modulus (GPa) = 25.71417 47.15082 36.43249
# Shear Modulus (GPa) = 22.49098 33.90635 28.19867
#
# Velocity S-wave (km/s) = 3.35494 4.11928 3.75660
# Velocity P-wave (km/s) = 5.27979 6.79862 6.08676
#
# Compressibility (1/GPa) = 0.03888907
#
# Stress axis : x y z
#
# Youngs Moduli (GPa) = 81.83606 28.95593 76.64495
#
# Poissons Ratio (x) = 0.15722 0.10363
# Poissons Ratio (y) = 0.44434 0.28165
# Poissons Ratio (z) = 0.11065 0.10640
#
# Static dielectric constant tensor:
#      x y z
#    x 3.939200 0.495940 -0.019940 
#    y 0.495940 3.886580 -0.092090 
#    z -0.019940 -0.092090 3.886360 
# 
# 
# High freq. dielectric constant tensor:
#      x y z
#    x 1.773180 0.022060 0.003010 
#    y 0.022060 1.755350 -0.014690 
#    z 0.003010 -0.014690 1.796730 
# 
# From -- ./inp_files/90781.got.cif
#   From: 2010.06.25/outbox.cif.g09.slc.cpg/sg2_46_cif.got.tgz:90781.got - 2010.06.27 13:26:56.
