data_PCOD8039902
_publ_section_title
;
Structure prediction by ZEFSAII (Michael W. Deem and Ramdas Pophale) SiO2 
 PCOD8039902
Probable space group: P -1
;
_chemical_formula_sum "Si O2"
_cell_formula_units_Z 14
_cell_length_a 11.983143
_cell_length_b 14.036618
_cell_length_c 14.582680
_cell_angle_alpha 32.053156
_cell_angle_beta 66.109457
_cell_angle_gamma 42.370018
_cell_volume 689.372351
_symmetry_space_group_name_H-M "P -1"
_symmetry_group_IT_number 2
_symmetry_cell_setting 'triclinic'
loop_
_space_group_symop_operation_xyz
x,y,z
-x,-y,-z
loop_
_atom_site_type_symbol
_atom_site_label
_atom_site_fract_x
_atom_site_fract_y
_atom_site_fract_z
Si Si1 0.923148 0.019198 0.154478
Si Si2 0.048123 0.506656 0.875185
Si Si3 0.274404 0.500374 0.313566
Si Si4 0.305377 0.828162 0.513123
Si Si5 0.215957 0.192650 0.630888
Si Si6 0.017141 0.162773 0.163586
Si Si7 0.361841 0.380075 0.946459
O O1 0.036667 0.982073 0.230743
O O2 0.806940 0.979134 0.265581
O O3 0.752656 0.356741 0.888502
O O4 0.091784 0.763561 0.231227
O O5 0.270235 0.345800 0.931248
O O6 0.865835 0.866156 0.613611
O O7 0.000000 0.500000 0.000000
O O8 0.048612 0.318290 0.972707
O O9 0.492134 0.286807 0.465933
O O10 0.269301 0.291819 0.461899
O O11 0.374001 0.559579 0.751688
O O12 0.205738 0.910874 0.378985
O O13 0.000000 0.500000 0.500000
O O14 0.402872 0.962856 0.830233
O O15 0.787434 0.431695 0.067962
#
# Coordination Sequence:
#
# PCOD8039902 Si02
#       7
#     2   2   2   2   2   2   2
#     4  10  22  38  56  84 113 147 187 235 275 329
#     4   8  16  31  53  80 108 144 179 221 275 328
#     4  10  20  39  60  76 111 152 192 223 279 335
#     4  10  18  35  60  82 111 152 185 224 279 337
#     4  10  20  37  60  79 108 154 190 223 274 338
#     4  10  20  35  56  86 115 141 187 235 279 324
#     4  10  18  35  58  83 114 148 187 227 276 337
#
# _framework density 20.308329000000001
#
# number of rings (size 3 to 8) (size 9 to 14) (size 15 to 20)
#    0.000    2.571    1.429    4.286    0.000    1.143 
#    5.143    1.429    0.000    2.571    0.000    0.000 
#    0.000    0.000    0.000    0.000    0.000    0.000 
#
# Total GULP energy -173458.476059 kJ/mol
# GULP energy per Si atom -12389.891147 kJ/mol
# Density = 2.026211 g / cm^3
# Si number density = 20.308329 Si / 1000 Ang^3
#
#
#
# Elastic Constant Matrix: (Units=GPa)
#
#
# Indices 1 2 3 4 5 6 
#
# 1 154.5334 21.9415 59.2375 6.0548 -28.3274 -16.4091
# 2 21.9415 18.4661 17.8686 1.4421 -1.8572 -9.5097
# 3 59.2375 17.8686 126.5280 -7.5334 -13.0543 -12.5441
# 4 6.0548 1.4421 -7.5334 18.3319 -13.4623 6.2275
# 5 -28.3274 -1.8572 -13.0543 -13.4623 46.3672 -1.9116
# 6 -16.4091 -9.5097 -12.5441 6.2275 -1.9116 30.3870
#
#
#
# Elastic Compliance Matrix: (Units=1/GPa)
#
#
# Indices 1 2 3 4 5 6 
#
# 1 0.009725 -0.006868 -0.002955 -0.001392 0.004531 0.002452
# 2 -0.006868 0.083012 -0.008445 -0.021790 -0.008639 0.022706
# 3 -0.002955 -0.008445 0.011301 0.009459 0.003732 -0.001277
# 4 -0.001392 -0.021790 0.009459 0.085639 0.024995 -0.019645
# 5 0.004531 -0.008639 0.003732 0.024995 0.032222 -0.001812
# 6 0.002452 0.022706 -0.001277 -0.019645 -0.001812 0.044724
#
#
# Mechanical properties :
#
#
# Convention : Reuss Voigt Hill
#
# Bulk Modulus (GPa) = 14.81462 55.29141 35.05302
# Shear Modulus (GPa) = 15.35343 32.38254 23.86799
#
# Velocity S-wave (km/s) = 2.75256 3.99751 3.43196
# Velocity P-wave (km/s) = 4.17286 6.97078 5.74476
#
# Compressibility (1/GPa) = 0.06750088
#
# Stress axis : x y z
#
# Youngs Moduli (GPa) = 102.83248 12.04644 88.48652
#
# Poissons Ratio (x) = 0.08273 0.26149
# Poissons Ratio (y) = 0.70625 0.74730
# Poissons Ratio (z) = 0.30389 0.10174
#
# Static dielectric constant tensor:
#      x y z
#    x 4.310360 -0.331960 -0.567960 
#    y -0.331960 3.126720 -0.074720 
#    z -0.567960 -0.074720 4.189980 
# 
# 
# High freq. dielectric constant tensor:
#      x y z
#    x 1.811360 -0.035300 -0.019480 
#    y -0.035300 1.729830 -0.010480 
#    z -0.019480 -0.010480 1.811290 
# 
# From -- ./inp_files/271688.got.cif
#   From: 2010.06.25/outbox.cif.g09.slc.cpg/sg2_136_cif.got.tgz:271688.got - 2010.06.27 13:26:56.
