data_PCOD8039880
_publ_section_title
;
Structure prediction by ZEFSAII (Michael W. Deem and Ramdas Pophale) SiO2 
 PCOD8039880
Probable space group: P -1
;
_chemical_formula_sum "Si O2"
_cell_formula_units_Z 12
_cell_length_a 8.528524
_cell_length_b 9.165394
_cell_length_c 13.195959
_cell_angle_alpha 89.089230
_cell_angle_beta 122.636152
_cell_angle_gamma 132.093610
_cell_volume 537.002818
_symmetry_space_group_name_H-M "P -1"
_symmetry_group_IT_number 2
_symmetry_cell_setting 'triclinic'
loop_
_space_group_symop_operation_xyz
x,y,z
-x,-y,-z
loop_
_atom_site_type_symbol
_atom_site_label
_atom_site_fract_x
_atom_site_fract_y
_atom_site_fract_z
Si Si1 0.681314 0.775889 0.287418
Si Si2 0.198141 0.319868 0.007682
Si Si3 0.177115 0.760914 0.787321
Si Si4 0.761799 0.972233 0.028668
Si Si5 0.850788 0.368974 0.843050
Si Si6 0.212209 0.300330 0.471737
O O1 0.506163 0.599853 0.132159
O O2 0.503433 0.811057 0.268354
O O3 0.694885 0.657195 0.379363
O O4 0.020090 0.036319 0.376205
O O5 0.279638 0.227353 0.971842
O O6 0.069877 0.196544 0.074892
O O7 0.946865 0.259528 0.858854
O O8 0.977485 0.542144 0.794476
O O9 0.997097 0.685686 0.622152
O O10 0.244421 0.959450 0.862970
O O11 0.487254 0.870720 0.867970
O O12 0.000000 0.500000 0.000000
O O13 0.500000 0.500000 0.500000
#
# Coordination Sequence:
#
# PCOD8039880 Si02
#       6
#     2   2   2   2   2   2
#     4  10  21  37  60  86 117 155 195 239 288 343
#     4  10  20  38  57  89 119 149 189 238 301 341
#     4  11  21  36  59  90 115 153 198 236 285 350
#     4  10  21  35  59  88 119 151 187 242 292 347
#     4  10  18  35  57  86 120 147 188 241 291 346
#     4  11  21  37  60  85 113 156 204 236 278 351
#
# _framework density 22.346252
#
# number of rings (size 3 to 8) (size 9 to 14) (size 15 to 20)
#    0.000    1.667    5.000    1.000    7.000    0.667 
#    0.000    0.833    0.000    6.000    0.000    0.000 
#    0.000    0.000    0.000    0.000    0.000    0.000 
#
# Total GULP energy -148717.060470 kJ/mol
# GULP energy per Si atom -12393.088373 kJ/mol
# Density = 2.229539 g / cm^3
# Si number density = 22.346252 Si / 1000 Ang^3
#
#
#
# Elastic Constant Matrix: (Units=GPa)
#
#
# Indices 1 2 3 4 5 6 
#
# 1 97.4992 40.4773 28.1098 -0.1669 24.6377 -24.0507
# 2 40.4773 109.7197 34.0676 6.3830 6.1169 -3.3184
# 3 28.1098 34.0676 98.2824 -22.2362 31.6755 -5.1646
# 4 -0.1669 6.3830 -22.2362 47.5219 -1.7019 12.3586
# 5 24.6377 6.1169 31.6755 -1.7019 23.4691 -6.7919
# 6 -24.0507 -3.3184 -5.1646 12.3586 -6.7919 49.0098
#
#
#
# Elastic Compliance Matrix: (Units=1/GPa)
#
#
# Indices 1 2 3 4 5 6 
#
# 1 0.019138 -0.007217 0.005066 0.001025 -0.023249 0.005956
# 2 -0.007217 0.014099 -0.009280 -0.005713 0.016040 0.000099
# 3 0.005066 -0.009280 0.028186 0.014134 -0.041202 -0.004446
# 4 0.001025 -0.005713 0.014134 0.029980 -0.018973 -0.008584
# 5 -0.023249 0.016040 -0.041202 -0.018973 0.118981 0.006608
# 6 0.005956 0.000099 -0.004446 -0.008584 0.006608 0.025946
#
#
# Mechanical properties :
#
#
# Convention : Reuss Voigt Hill
#
# Bulk Modulus (GPa) = 25.93305 56.75673 41.34489
# Shear Modulus (GPa) = 18.37933 37.52327 27.95130
#
# Velocity S-wave (km/s) = 2.87100 4.10222 3.54054
# Velocity P-wave (km/s) = 4.75610 6.92037 5.93768
#
# Compressibility (1/GPa) = 0.03856083
#
# Stress axis : x y z
#
# Youngs Moduli (GPa) = 52.25215 70.92747 35.47871
#
# Poissons Ratio (x) = 0.51185 -0.17972
# Poissons Ratio (y) = 0.37708 0.32924
# Poissons Ratio (z) = -0.26469 0.65821
#
# Static dielectric constant tensor:
#      x y z
#    x 4.069350 -0.250300 0.813770 
#    y -0.250300 4.378250 -0.459030 
#    z 0.813770 -0.459030 4.641750 
# 
# 
# High freq. dielectric constant tensor:
#      x y z
#    x 1.839200 0.019130 0.040350 
#    y 0.019130 1.904610 -0.021620 
#    z 0.040350 -0.021620 1.865670 
# 
# From -- ./inp_files/169038.got.cif
#   From: 2010.06.25/outbox.cif.g09.slc.cpg/sg2_85_cif.got.tgz:169038.got - 2010.06.27 13:26:56.
