data_PCOD8039706
_publ_section_title
;
Structure prediction by ZEFSAII (Michael W. Deem and Ramdas Pophale) SiO2 
 PCOD8039706
Probable space group: P -1
;
_chemical_formula_sum "Si O2"
_cell_formula_units_Z 16
_cell_length_a 12.548139
_cell_length_b 9.081852
_cell_length_c 21.895883
_cell_angle_alpha 46.525889
_cell_angle_beta 29.725350
_cell_angle_gamma 36.054040
_cell_volume 727.341235
_symmetry_space_group_name_H-M "P -1"
_symmetry_group_IT_number 2
_symmetry_cell_setting 'triclinic'
loop_
_space_group_symop_operation_xyz
x,y,z
-x,-y,-z
loop_
_atom_site_type_symbol
_atom_site_label
_atom_site_fract_x
_atom_site_fract_y
_atom_site_fract_z
Si Si1 0.834864 0.728336 0.061852
Si Si2 0.852099 0.852593 0.353442
Si Si3 0.346082 0.422309 0.637070
Si Si4 0.420444 0.041869 0.424191
Si Si5 0.036214 0.305616 0.436810
Si Si6 0.143548 0.352819 0.113437
Si Si7 0.671630 0.141637 0.670106
Si Si8 0.266629 0.921552 0.083241
O O1 0.525306 0.827051 0.187628
O O2 0.973889 0.630744 0.086787
O O3 0.000000 0.500000 0.000000
O O4 0.833537 0.957262 0.969401
O O5 0.774593 0.967723 0.427938
O O6 0.871996 0.594895 0.416659
O O7 0.128900 0.792552 0.211092
O O8 0.618777 0.060906 0.364055
O O9 0.500000 0.500000 0.500000
O O10 0.487671 0.346168 0.652994
O O11 0.030799 0.631403 0.746385
O O12 0.379636 0.199748 0.646249
O O13 0.240436 0.262742 0.401370
O O14 0.862683 0.216398 0.577636
O O15 0.171353 0.137879 0.356617
O O16 0.194698 0.139782 0.103378
O O17 0.419782 0.294920 0.014367
#
# Coordination Sequence:
#
# PCOD8039706 Si02
#       8
#     2   2   2   2   2   2   2   2
#     4   9  19  35  55  81 113 145 180 230 280 327
#     4  11  23  39  56  84 119 151 192 234 284 347
#     4  10  18  34  60  86 114 147 186 242 290 326
#     4  10  23  37  55  83 115 152 190 230 287 344
#     4  10  21  39  61  85 114 149 186 241 292 332
#     4   9  20  37  57  85 112 146 195 236 279 333
#     4   9  20  37  60  88 113 143 195 238 281 345
#     4  10  21  36  58  84 113 151 192 232 279 340
#
# _framework density 21.997928000000002
#
# number of rings (size 3 to 8) (size 9 to 14) (size 15 to 20)
#    0.000    2.250    0.000    1.875    0.000   13.000 
#    0.000    2.500    0.000    4.500    0.000    0.000 
#    0.000    0.000    0.000    0.000    0.000    0.000 
#
# Total GULP energy -198216.626954 kJ/mol
# GULP energy per Si atom -12388.539185 kJ/mol
# Density = 2.194786 g / cm^3
# Si number density = 21.997928 Si / 1000 Ang^3
#
#
#
# Elastic Constant Matrix: (Units=GPa)
#
#
# Indices 1 2 3 4 5 6 
#
# 1 70.0695 22.3981 24.7863 1.4989 -3.0473 -11.2015
# 2 22.3981 66.8382 44.3558 11.8618 -6.1709 -11.3236
# 3 24.7863 44.3558 171.9026 24.1466 1.3836 -5.3676
# 4 1.4989 11.8618 24.1466 36.9607 -1.2212 1.4414
# 5 -3.0473 -6.1709 1.3836 -1.2212 25.8029 4.4584
# 6 -11.2015 -11.3236 -5.3676 1.4414 4.4584 19.3899
#
#
#
# Elastic Compliance Matrix: (Units=1/GPa)
#
#
# Indices 1 2 3 4 5 6 
#
# 1 0.017110 -0.003770 -0.001434 0.001173 0.000008 0.007197
# 2 -0.003770 0.021538 -0.004163 -0.004278 0.003201 0.008830
# 3 -0.001434 -0.004163 0.007602 -0.003607 -0.001656 -0.000506
# 4 0.001173 -0.004278 -0.003607 0.031011 0.001731 -0.005523
# 5 0.000008 0.003201 -0.001656 0.001731 0.041103 -0.008164
# 6 0.007197 0.008830 -0.000506 -0.005523 -0.008164 0.063035
#
#
# Mechanical properties :
#
#
# Convention : Reuss Voigt Hill
#
# Bulk Modulus (GPa) = 36.34250 54.65452 45.49851
# Shear Modulus (GPa) = 23.88850 30.91538 27.40194
#
# Velocity S-wave (km/s) = 3.29894 3.75290 3.53322
# Velocity P-wave (km/s) = 5.57382 6.60895 6.11333
#
# Compressibility (1/GPa) = 0.02751599
#
# Stress axis : x y z
#
# Youngs Moduli (GPa) = 58.44633 46.42890 131.53588
#
# Poissons Ratio (x) = 0.17503 0.18867
# Poissons Ratio (y) = 0.22034 0.54759
# Poissons Ratio (z) = 0.08383 0.19328
#
# Static dielectric constant tensor:
#      x y z
#    x 4.026840 -0.434820 0.254950 
#    y -0.434820 3.812170 0.137190 
#    z 0.254950 0.137190 4.293010 
# 
# 
# High freq. dielectric constant tensor:
#      x y z
#    x 1.849960 -0.024810 0.015560 
#    y -0.024810 1.849550 0.026720 
#    z 0.015560 0.026720 1.871180 
# 
# From -- ./inp_files/594022.got.cif
#   From: 2010.06.25/outbox.cif.g09.slc.cpg/sg2_298_cif.got.tgz:594022.got - 2010.06.27 13:26:56.
