data_PCOD8039160
_publ_section_title
;
Structure prediction by ZEFSAII (Michael W. Deem and Ramdas Pophale) SiO2 
 PCOD8039160
Probable space group: P -1
;
_chemical_formula_sum "Si O2"
_cell_formula_units_Z 14
_cell_length_a 12.156419
_cell_length_b 8.654135
_cell_length_c 9.145176
_cell_angle_alpha 106.169712
_cell_angle_beta 120.596436
_cell_angle_gamma 51.153637
_cell_volume 643.796756
_symmetry_space_group_name_H-M "P -1"
_symmetry_group_IT_number 2
_symmetry_cell_setting 'triclinic'
loop_
_space_group_symop_operation_xyz
x,y,z
-x,-y,-z
loop_
_atom_site_type_symbol
_atom_site_label
_atom_site_fract_x
_atom_site_fract_y
_atom_site_fract_z
Si Si1 0.095633 0.580588 0.734170
Si Si2 0.366350 0.939366 0.037604
Si Si3 0.486606 0.303592 0.665726
Si Si4 0.234162 0.239594 0.518504
Si Si5 0.653470 0.701545 0.965627
Si Si6 0.267439 0.719582 0.729687
Si Si7 0.400307 0.790578 0.589293
O O1 0.152336 0.373200 0.642617
O O2 0.122781 0.714205 0.680221
O O3 0.907794 0.712392 0.673013
O O4 0.195970 0.517368 0.937201
O O5 0.378443 0.893155 0.206804
O O6 0.283840 0.173059 0.020165
O O7 0.545160 0.813957 0.064445
O O8 0.268043 0.871318 0.876629
O O9 0.341510 0.292104 0.522788
O O10 0.427105 0.492005 0.780748
O O11 0.555684 0.322876 0.566108
O O12 0.344462 0.012584 0.582849
O O13 0.553067 0.680917 0.770311
O O14 0.261271 0.790006 0.575520
#
# Coordination Sequence:
#
# PCOD8039160 Si02
#       7
#     2   2   2   2   2   2   2
#     4  10  20  36  57  81 114 142 187 223 273 318
#     4  10  18  32  59  82 109 136 194 228 266 309
#     4  11  20  36  55  87 110 145 178 230 276 322
#     4  10  20  36  57  81 111 147 182 229 266 324
#     4  10  18  34  55  86 104 143 186 229 262 321
#     4  10  21  34  55  87 110 144 179 232 271 321
#     4  11  22  34  58  84 116 139 183 225 278 323
#
# _framework density 21.745994
#
# number of rings (size 3 to 8) (size 9 to 14) (size 15 to 20)
#    0.000    1.714    4.286    3.000    2.000    0.571 
#    0.000    2.143    0.000    0.857    0.000    0.000 
#    0.000    0.000    0.000    0.000    0.000    0.000 
#
# Total GULP energy -173522.493504 kJ/mol
# GULP energy per Si atom -12394.463822 kJ/mol
# Density = 2.169650 g / cm^3
# Si number density = 21.745994 Si / 1000 Ang^3
#
#
#
# Elastic Constant Matrix: (Units=GPa)
#
#
# Indices 1 2 3 4 5 6 
#
# 1 74.4780 15.8340 33.1074 -7.0059 -8.7198 17.9640
# 2 15.8340 30.6984 2.1465 -4.3095 1.9366 17.8991
# 3 33.1074 2.1465 84.0886 -17.2664 -12.2792 -1.8415
# 4 -7.0059 -4.3095 -17.2664 29.2385 5.2605 0.4287
# 5 -8.7198 1.9366 -12.2792 5.2605 30.4079 -5.1401
# 6 17.9640 17.8991 -1.8415 0.4287 -5.1401 29.5259
#
#
#
# Elastic Compliance Matrix: (Units=1/GPa)
#
#
# Indices 1 2 3 4 5 6 
#
# 1 0.020478 -0.004217 -0.008116 -0.000582 0.001243 -0.010184
# 2 -0.004217 0.056955 -0.000327 0.009941 -0.012486 -0.034300
# 3 -0.008116 -0.000327 0.017437 0.007370 0.004630 0.006923
# 4 -0.000582 0.009941 0.007370 0.041076 -0.006091 -0.006869
# 5 0.001243 -0.012486 0.004630 -0.006091 0.039334 0.014038
# 6 -0.010184 -0.034300 0.006923 -0.006869 0.014038 0.063834
#
#
# Mechanical properties :
#
#
# Convention : Reuss Voigt Hill
#
# Bulk Modulus (GPa) = 14.37802 32.38231 23.38017
# Shear Modulus (GPa) = 17.38419 27.04629 22.21524
#
# Velocity S-wave (km/s) = 2.83047 3.53049 3.19968
# Velocity P-wave (km/s) = 4.16032 5.61628 4.94221
#
# Compressibility (1/GPa) = 0.06955060
#
# Stress axis : x y z
#
# Youngs Moduli (GPa) = 48.83202 17.55767 57.34921
#
# Poissons Ratio (x) = 0.07404 0.46545
# Poissons Ratio (y) = 0.20592 0.01875
# Poissons Ratio (z) = 0.39633 0.00574
#
# Static dielectric constant tensor:
#      x y z
#    x 3.880640 0.412810 -0.051910 
#    y 0.412810 3.866690 -0.155360 
#    z -0.051910 -0.155360 3.759740 
# 
# 
# High freq. dielectric constant tensor:
#      x y z
#    x 1.830320 0.041630 -0.005220 
#    y 0.041630 1.840920 -0.004170 
#    z -0.005220 -0.004170 1.835190 
# 
# From -- ./inp_files/168545.got.cif
#   From: 2010.06.25/outbox.cif.g09.slc.cpg/sg2_85_cif.got.tgz:168545.got - 2010.06.27 13:26:56.
