data_PCOD8039950
_publ_section_title
;
Structure prediction by ZEFSAII (Michael W. Deem and Ramdas Pophale) SiO2 
 PCOD8039950
Probable space group: P -1
;
_chemical_formula_sum "Si O2"
_cell_formula_units_Z 16
_cell_length_a 11.150137
_cell_length_b 11.611979
_cell_length_c 8.053936
_cell_angle_alpha 98.810511
_cell_angle_beta 58.248986
_cell_angle_gamma 64.489905
_cell_volume 695.406229
_symmetry_space_group_name_H-M "P -1"
_symmetry_group_IT_number 2
_symmetry_cell_setting 'triclinic'
loop_
_space_group_symop_operation_xyz
x,y,z
-x,-y,-z
loop_
_atom_site_type_symbol
_atom_site_label
_atom_site_fract_x
_atom_site_fract_y
_atom_site_fract_z
Si Si1 0.495048 0.758715 0.774062
Si Si2 0.378210 0.917009 0.211962
Si Si3 0.907385 0.056959 0.350241
Si Si4 0.057794 0.202302 0.408382
Si Si5 0.914212 0.583619 0.410803
Si Si6 0.382303 0.048518 0.755812
Si Si7 0.807237 0.225546 0.115214
Si Si8 0.005649 0.325903 0.115695
O O1 0.704177 0.661506 0.572528
O O2 0.402292 0.687476 0.755115
O O3 0.388572 0.915215 0.792464
O O4 0.451659 0.780450 0.006811
O O5 0.257351 0.932842 0.455801
O O6 0.553592 0.890659 0.143652
O O7 0.267994 0.067986 0.218230
O O8 0.849967 0.148806 0.244945
O O9 0.959989 0.125206 0.472474
O O10 0.074381 0.890532 0.145177
O O11 0.038260 0.301125 0.603449
O O12 0.992702 0.297117 0.311451
O O13 0.000000 0.500000 0.500000
O O14 0.992361 0.474773 0.168453
O O15 0.500000 0.000000 0.500000
O O16 0.184843 0.185038 0.874880
O O17 0.847299 0.344363 0.129999
#
# Coordination Sequence:
#
# PCOD8039950 Si02
#       8
#     2   2   2   2   2   2   2   2
#     4  12  22  37  62  93 117 156 209 254 296 353
#     4  12  20  33  61  93 120 148 204 260 295 348
#     4  10  20  35  58  94 124 156 190 259 310 344
#     4  10  18  35  59  87 117 152 203 245 293 355
#     4  10  22  39  61  86 122 164 197 247 309 357
#     4  12  23  38  62  91 124 156 203 254 300 353
#     4  10  20  37  58  86 128 158 199 243 305 364
#     4  10  21  40  60  84 124 167 190 240 311 359
#
# _framework density 23.008133999999998
#
# number of rings (size 3 to 8) (size 9 to 14) (size 15 to 20)
#    0.000    1.250    3.750    5.250    0.000    0.500 
#    0.000    0.625    0.000   13.500    0.000    0.000 
#    0.000    0.000    0.000    0.000    0.000    0.000 
#
# Total GULP energy -198220.546811 kJ/mol
# GULP energy per Si atom -12388.784176 kJ/mol
# Density = 2.295577 g / cm^3
# Si number density = 23.008134 Si / 1000 Ang^3
#
#
#
# Elastic Constant Matrix: (Units=GPa)
#
#
# Indices 1 2 3 4 5 6 
#
# 1 178.0829 28.7922 32.4498 19.9637 12.0624 32.4136
# 2 28.7922 24.6408 29.9058 15.4148 9.9141 21.0879
# 3 32.4498 29.9058 88.1420 6.4880 1.5764 9.9875
# 4 19.9637 15.4148 6.4880 31.1595 4.3407 1.0929
# 5 12.0624 9.9141 1.5764 4.3407 30.4820 8.2749
# 6 32.4136 21.0879 9.9875 1.0929 8.2749 33.4348
#
#
#
# Elastic Compliance Matrix: (Units=1/GPa)
#
#
# Indices 1 2 3 4 5 6 
#
# 1 0.006308 -0.031823 0.006480 0.009524 0.003199 0.010917
# 2 -0.031823 -0.755151 0.195158 0.326384 0.088636 0.416235
# 3 0.006480 0.195158 -0.038110 -0.085841 -0.022057 -0.109722
# 4 0.009524 0.326384 -0.085841 -0.105478 -0.042850 -0.175394
# 5 0.003199 0.088636 -0.022057 -0.042850 0.025518 -0.057332
# 6 0.010917 0.416235 -0.109722 -0.175394 -0.057332 -0.190503
#
#
# Mechanical properties :
#
#
# Convention : Reuss Voigt Hill
#
# Bulk Modulus (GPa) = -2.23552 52.57348 25.16898
# Shear Modulus (GPa) = -3.23383 32.32979 14.54798
#
# Velocity S-wave (km/s) = -1.18683 3.75259 2.51728
# Velocity P-wave (km/s) = 1.68873 6.45566 4.40589
#
# Compressibility (1/GPa) = -0.44732276
#
# Stress axis : x y z
#
# Youngs Moduli (GPa) = 158.51866 -1.32424 -26.24001
#
# Poissons Ratio (x) = -0.04214 0.17002
# Poissons Ratio (y) = 5.04453 5.12095
# Poissons Ratio (z) = -1.02713 0.25844
#
# Static dielectric constant tensor:
#      x y z
#    x 4.613860 0.429870 0.282360 
#    y 0.429870 3.975980 0.299960 
#    z 0.282360 0.299960 4.032310 
# 
# 
# High freq. dielectric constant tensor:
#      x y z
#    x 1.938380 0.013100 0.017270 
#    y 0.013100 1.871720 -0.002840 
#    z 0.017270 -0.002840 1.893720 
# 
# From -- ./inp_files/259381.got.cif
#   From: 2010.06.25/outbox.cif.g09.slc.cpg/sg2_130_cif.got.tgz:259381.got - 2010.06.27 13:26:56.
