data_PCOD8039492
_publ_section_title
;
Structure prediction by ZEFSAII (Michael W. Deem and Ramdas Pophale) SiO2 
 PCOD8039492
Probable space group: P -1
;
_chemical_formula_sum "Si O2"
_cell_formula_units_Z 16
_cell_length_a 8.533656
_cell_length_b 14.272915
_cell_length_c 8.536991
_cell_angle_alpha 60.761460
_cell_angle_beta 108.930563
_cell_angle_gamma 102.572794
_cell_volume 856.042017
_symmetry_space_group_name_H-M "P -1"
_symmetry_group_IT_number 2
_symmetry_cell_setting 'triclinic'
loop_
_space_group_symop_operation_xyz
x,y,z
-x,-y,-z
loop_
_atom_site_type_symbol
_atom_site_label
_atom_site_fract_x
_atom_site_fract_y
_atom_site_fract_z
Si Si1 0.580974 0.855674 0.196335
Si Si2 0.270287 0.502868 0.557475
Si Si3 0.974967 0.534125 0.218328
Si Si4 0.668654 0.076111 0.156972
Si Si5 0.924190 0.109264 0.441985
Si Si6 0.595761 0.641682 0.536274
Si Si7 0.070139 0.342841 0.204788
Si Si8 0.917537 0.956542 0.164250
O O1 0.568259 0.765087 0.396209
O O2 0.761582 0.867895 0.159388
O O3 0.553467 0.963991 0.201036
O O4 0.436308 0.834753 0.034841
O O5 0.183525 0.462001 0.723060
O O6 0.422174 0.586773 0.585017
O O7 0.345690 0.403967 0.573720
O O8 0.141364 0.557787 0.356002
O O9 0.969693 0.416876 0.229339
O O10 0.970027 0.628135 0.011074
O O11 0.729231 0.110157 0.324931
O O12 0.845341 0.060640 0.140076
O O13 0.023036 0.217301 0.321803
O O14 0.944361 0.102839 0.641787
O O15 0.000000 0.000000 0.500000
O O16 0.733371 0.630932 0.723766
O O17 0.000000 0.000000 0.000000
#
# Coordination Sequence:
#
# PCOD8039492 Si02
#       8
#     2   2   2   2   2   2   2   2
#     4   9  17  34  52  75 102 142 173 208 264 322
#     4   9  20  36  54  81 103 134 180 231 258 319
#     4   9  20  38  53  81 107 134 187 219 268 314
#     4   8  18  33  53  72 106 136 178 207 252 324
#     4  10  18  34  53  81 104 140 178 210 261 324
#     4  10  18  34  56  75 106 142 172 219 274 312
#     4  10  19  35  57  76 109 146 170 223 266 316
#     4   9  17  33  52  75 105 135 172 217 257 307
#
# _framework density 18.690670999999998
#
# number of rings (size 3 to 8) (size 9 to 14) (size 15 to 20)
#    0.750    2.000    1.250    0.000    1.750    0.500 
#    6.750    0.625    0.000    0.000    0.000    0.000 
#    0.000    0.000    0.000    0.000    0.000    0.000 
#
# Total GULP energy -198212.956730 kJ/mol
# GULP energy per Si atom -12388.309796 kJ/mol
# Density = 1.864813 g / cm^3
# Si number density = 18.690671 Si / 1000 Ang^3
#
#
#
# Elastic Constant Matrix: (Units=GPa)
#
#
# Indices 1 2 3 4 5 6 
#
# 1 66.5235 19.1421 41.0629 11.3794 4.0260 11.9811
# 2 19.1421 55.5695 29.7647 -5.8437 -2.1922 16.2759
# 3 41.0629 29.7647 142.7788 11.1283 7.1943 12.8351
# 4 11.3794 -5.8437 11.1283 29.4596 9.4568 5.5949
# 5 4.0260 -2.1922 7.1943 9.4568 31.3252 6.1109
# 6 11.9811 16.2759 12.8351 5.5949 6.1109 24.1712
#
#
#
# Elastic Compliance Matrix: (Units=1/GPa)
#
#
# Indices 1 2 3 4 5 6 
#
# 1 0.020696 -0.004528 -0.004188 -0.006873 0.000760 -0.003587
# 2 -0.004528 0.028379 -0.004031 0.011186 0.003676 -0.018243
# 3 -0.004188 -0.004031 0.009232 -0.002401 -0.001289 0.000770
# 4 -0.006873 0.011186 -0.002401 0.044735 -0.009163 -0.010888
# 5 0.000760 0.003676 -0.001289 -0.009163 0.036978 -0.009394
# 6 -0.003587 -0.018243 0.000770 -0.010888 -0.009394 0.059920
#
#
# Mechanical properties :
#
#
# Convention : Reuss Voigt Hill
#
# Bulk Modulus (GPa) = 30.47679 49.42347 39.95013
# Shear Modulus (GPa) = 21.15314 28.65133 24.90224
#
# Velocity S-wave (km/s) = 3.36780 3.91950 3.65408
# Velocity P-wave (km/s) = 5.60928 6.85446 6.26289
#
# Compressibility (1/GPa) = 0.03281185
#
# Stress axis : x y z
#
# Youngs Moduli (GPa) = 48.31774 35.23758 108.32329
#
# Poissons Ratio (x) = 0.15956 0.45370
# Poissons Ratio (y) = 0.21879 0.43664
# Poissons Ratio (z) = 0.20237 0.14204
#
# Static dielectric constant tensor:
#      x y z
#    x 3.245520 0.223520 0.352990 
#    y 0.223520 3.428760 0.204730 
#    z 0.352990 0.204730 3.620420 
# 
# 
# High freq. dielectric constant tensor:
#      x y z
#    x 1.697230 0.019350 0.025020 
#    y 0.019350 1.706300 0.000860 
#    z 0.025020 0.000860 1.735470 
# 
# From -- ./inp_files/195849.got.cif
#   From: 2010.06.25/outbox.cif.g09.slc.cpg/sg2_98_cif.got.tgz:195849.got - 2010.06.27 13:26:56.
