data_PCOD8039445
_publ_section_title
;
Structure prediction by ZEFSAII (Michael W. Deem and Ramdas Pophale) SiO2 
 PCOD8039445
Probable space group: P -1
;
_chemical_formula_sum "Si O2"
_cell_formula_units_Z 14
_cell_length_a 19.073295
_cell_length_b 7.346530
_cell_length_c 7.773832
_cell_angle_alpha 57.143205
_cell_angle_beta 127.145686
_cell_angle_gamma 131.986501
_cell_volume 627.484840
_symmetry_space_group_name_H-M "P -1"
_symmetry_group_IT_number 2
_symmetry_cell_setting 'triclinic'
loop_
_space_group_symop_operation_xyz
x,y,z
-x,-y,-z
loop_
_atom_site_type_symbol
_atom_site_label
_atom_site_fract_x
_atom_site_fract_y
_atom_site_fract_z
Si Si1 0.242307 0.988414 0.127065
Si Si2 0.586769 0.324744 0.629124
Si Si3 0.880328 0.845827 0.925715
Si Si4 0.240762 0.720244 0.927191
Si Si5 0.726949 0.826505 0.446941
Si Si6 0.387224 0.442916 0.913660
Si Si7 0.382984 0.881133 0.577705
O O1 0.275351 0.868682 0.393978
O O2 0.149806 0.017697 0.043351
O O3 0.205189 0.815148 0.992013
O O4 0.346781 0.259429 0.111992
O O5 0.631931 0.628362 0.530349
O O6 0.589955 0.226886 0.494460
O O7 0.470651 0.168143 0.604230
O O8 0.652392 0.260667 0.887781
O O9 0.827902 0.839009 0.668080
O O10 0.847424 0.567281 0.087968
O O11 0.000000 0.000000 0.000000
O O12 0.258111 0.893714 0.693519
O O13 0.701944 0.711511 0.279001
O O14 0.382511 0.694679 0.821307
O O15 0.500000 0.500000 0.000000
#
# Coordination Sequence:
#
# PCOD8039445 Si02
#       7
#     2   2   2   2   2   2   2
#     4  10  21  37  60  86 116 157 198 239 294 351
#     4   8  14  27  52  82 114 148 180 221 275 341
#     4  11  25  42  59  84 115 150 202 258 300 344
#     4   9  19  38  59  83 116 148 191 247 295 350
#     4   9  18  35  57  81 116 154 188 238 293 342
#     4  10  18  33  61  93 124 158 193 231 284 356
#     4   9  15  27  51  84 117 150 186 224 276 340
#
# _framework density 22.311295999999999
#
# number of rings (size 3 to 8) (size 9 to 14) (size 15 to 20)
#    0.000    2.571    0.000    5.143    0.000    2.286 
#    0.000    9.286    0.000   12.857    0.000    0.000 
#    0.000    0.000    0.000    0.000    0.000    0.000 
#
# Total GULP energy -173442.072294 kJ/mol
# GULP energy per Si atom -12388.719450 kJ/mol
# Density = 2.226051 g / cm^3
# Si number density = 22.311296 Si / 1000 Ang^3
#
#
#
# Elastic Constant Matrix: (Units=GPa)
#
#
# Indices 1 2 3 4 5 6 
#
# 1 59.2770 -5.7768 -1.1196 -3.2129 19.0494 -28.1989
# 2 -5.7768 66.2343 24.3284 -16.8526 23.5366 -30.1776
# 3 -1.1196 24.3284 92.7076 -22.2338 12.1537 -23.8456
# 4 -3.2129 -16.8526 -22.2338 44.4024 -8.0156 9.5170
# 5 19.0494 23.5366 12.1537 -8.0156 26.4761 1.8111
# 6 -28.1989 -30.1776 -23.8456 9.5170 1.8111 -6.5010
#
#
#
# Elastic Compliance Matrix: (Units=1/GPa)
#
#
# Indices 1 2 3 4 5 6 
#
# 1 0.009951 -0.004309 -0.002093 0.000930 -0.001099 -0.014427
# 2 -0.004309 0.012552 -0.005559 0.004096 -0.003301 -0.014106
# 3 -0.002093 -0.005559 0.012404 0.004962 0.002439 -0.002670
# 4 0.000930 0.004096 0.004962 0.027155 0.001702 -0.001024
# 5 -0.001099 -0.003301 0.002439 0.001702 0.039211 0.024563
# 6 -0.014427 -0.014106 -0.002670 -0.001024 0.024563 -0.010622
#
#
# Mechanical properties :
#
#
# Convention : Reuss Voigt Hill
#
# Bulk Modulus (GPa) = 91.03926 28.12030 59.57978
# Shear Modulus (GPa) = 42.28892 26.26129 34.27510
#
# Velocity S-wave (km/s) = 4.35835 3.43452 3.92372
# Velocity P-wave (km/s) = 8.13754 5.32531 6.87672
#
# Compressibility (1/GPa) = 0.01098427
#
# Stress axis : x y z
#
# Youngs Moduli (GPa) = 100.49352 79.66784 80.62122
#
# Poissons Ratio (x) = 0.34333 0.16871
# Poissons Ratio (y) = 0.43307 0.44819
# Poissons Ratio (z) = 0.21029 0.44289
#
# Static dielectric constant tensor:
#      x y z
#    x 3.514230 -0.242200 -0.076710 
#    y -0.242200 4.322620 -0.534140 
#    z -0.076710 -0.534140 4.431470 
# 
# 
# High freq. dielectric constant tensor:
#      x y z
#    x 1.841520 -0.023670 -0.003960 
#    y -0.023670 1.870140 -0.026850 
#    z -0.003960 -0.026850 1.889980 
# 
# From -- ./inp_files/202409.got.cif
#   From: 2010.06.25/outbox.cif.g09.slc.cpg/sg2_102_cif.got.tgz:202409.got - 2010.06.27 13:26:56.
