data_PCOD8039094
_publ_section_title
;
Structure prediction by ZEFSAII (Michael W. Deem and Ramdas Pophale) SiO2 
 PCOD8039094
Probable space group: P -1
;
_chemical_formula_sum "Si O2"
_cell_formula_units_Z 16
_cell_length_a 24.840221
_cell_length_b 5.231007
_cell_length_c 18.790531
_cell_angle_alpha 107.704135
_cell_angle_beta 18.585626
_cell_angle_gamma 109.033778
_cell_volume 735.551094
_symmetry_space_group_name_H-M "P -1"
_symmetry_group_IT_number 2
_symmetry_cell_setting 'triclinic'
loop_
_space_group_symop_operation_xyz
x,y,z
-x,-y,-z
loop_
_atom_site_type_symbol
_atom_site_label
_atom_site_fract_x
_atom_site_fract_y
_atom_site_fract_z
Si Si1 0.316814 0.601877 0.432355
Si Si2 0.102952 0.247786 0.352900
Si Si3 0.531944 0.693059 0.044693
Si Si4 0.965043 0.989235 0.726062
Si Si5 0.349558 0.143498 0.258480
Si Si6 0.831978 0.655222 0.142371
Si Si7 0.053543 0.409445 0.157706
Si Si8 0.220855 0.765678 0.712421
O O1 0.462874 0.769576 0.215903
O O2 0.325429 0.281817 0.378094
O O3 0.340848 0.671859 0.491325
O O4 0.137227 0.679726 0.636908
O O5 0.000000 0.500000 0.500000
O O6 0.144252 0.154324 0.213690
O O7 0.271002 0.334290 0.195836
O O8 0.000000 0.000000 0.500000
O O9 0.493713 0.941832 0.063282
O O10 0.580192 0.602164 0.862310
O O11 0.921103 0.293083 0.814948
O O12 0.165662 0.991452 0.454103
O O13 0.908475 0.815149 0.851982
O O14 0.740165 0.399154 0.279525
O O15 0.735538 0.915204 0.301135
O O16 0.819436 0.594907 0.068803
O O17 0.025971 0.702120 0.928415
#
# Coordination Sequence:
#
# PCOD8039094 Si02
#       8
#     2   2   2   2   2   2   2   2
#     4   8  18  28  56  77 113 146 192 228 266 312
#     4  12  27  45  61  85 117 141 174 232 290 342
#     4  10  20  38  59  83 111 146 184 231 269 333
#     4  11  20  38  61  83 108 149 186 227 277 334
#     4   9  18  34  59  85 109 138 195 227 263 318
#     4   9  17  25  39  74 116 147 178 220 279 315
#     4  10  18  32  56  81 112 149 191 231 265 321
#     4   9  16  24  40  72 115 149 176 221 279 314
#
# _framework density 21.752399
#
# number of rings (size 3 to 8) (size 9 to 14) (size 15 to 20)
#    0.750    1.500    1.250    2.250    1.750    3.000 
#    0.000    3.750    0.000    0.000    0.000    5.250 
#    0.000    0.000    0.000    0.000    0.000    0.000 
#
# Total GULP energy -198355.375932 kJ/mol
# GULP energy per Si atom -12397.210996 kJ/mol
# Density = 2.170289 g / cm^3
# Si number density = 21.752399 Si / 1000 Ang^3
#
#
#
# Elastic Constant Matrix: (Units=GPa)
#
#
# Indices 1 2 3 4 5 6 
#
# 1 109.7008 51.5367 39.7394 -5.0035 23.1242 -9.9524
# 2 51.5367 133.4068 36.8560 10.2132 11.1063 -21.8674
# 3 39.7394 36.8560 55.9466 8.4019 10.1702 -3.9052
# 4 -5.0035 10.2132 8.4019 28.9808 -1.3163 9.0874
# 5 23.1242 11.1063 10.1702 -1.3163 33.9449 -6.3709
# 6 -9.9524 -21.8674 -3.9052 9.0874 -6.3709 41.4679
#
#
#
# Elastic Compliance Matrix: (Units=1/GPa)
#
#
# Indices 1 2 3 4 5 6 
#
# 1 0.015596 -0.003923 -0.008363 0.006701 -0.006883 -0.001639
# 2 -0.003923 0.011340 -0.003615 -0.005478 0.000968 0.006047
# 3 -0.008363 -0.003615 0.027788 -0.008391 -0.001719 0.000278
# 4 0.006701 -0.005478 -0.008391 0.043679 -0.000772 -0.011761
# 5 -0.006883 0.000968 -0.001719 -0.000772 0.035116 0.004261
# 6 -0.001639 0.006047 0.000278 -0.011761 0.004261 0.030169
#
#
# Mechanical properties :
#
#
# Convention : Reuss Voigt Hill
#
# Bulk Modulus (GPa) = 43.62690 61.70205 52.66447
# Shear Modulus (GPa) = 24.61454 32.27354 28.44404
#
# Velocity S-wave (km/s) = 3.36754 3.85603 3.62004
# Velocity P-wave (km/s) = 5.93466 6.94640 6.46037
#
# Compressibility (1/GPa) = 0.02292164
#
# Stress axis : x y z
#
# Youngs Moduli (GPa) = 64.11803 88.18179 35.98647
#
# Poissons Ratio (x) = 0.34596 0.30096
# Poissons Ratio (y) = 0.25155 0.13009
# Poissons Ratio (z) = 0.53623 0.31878
#
# Static dielectric constant tensor:
#      x y z
#    x 3.976320 -0.037210 0.441610 
#    y -0.037210 3.936570 0.111850 
#    z 0.441610 0.111850 3.789950 
# 
# 
# High freq. dielectric constant tensor:
#      x y z
#    x 1.847770 -0.010020 0.043030 
#    y -0.010020 1.864670 0.016690 
#    z 0.043030 0.016690 1.826050 
# 
# From -- ./inp_files/578645.got.cif
#   From: 2010.06.25/outbox.cif.g09.slc.cpg/sg2_290_cif.got.tgz:578645.got - 2010.06.27 13:26:56.
