data_PCOD8039449
_publ_section_title
;
Structure prediction by ZEFSAII (Michael W. Deem and Ramdas Pophale) SiO2 
 PCOD8039449
Probable space group: P -1
;
_chemical_formula_sum "Si O2"
_cell_formula_units_Z 16
_cell_length_a 10.765064
_cell_length_b 8.954952
_cell_length_c 7.678304
_cell_angle_alpha 106.540757
_cell_angle_beta 85.510698
_cell_angle_gamma 93.589595
_cell_volume 706.755297
_symmetry_space_group_name_H-M "P -1"
_symmetry_group_IT_number 2
_symmetry_cell_setting 'triclinic'
loop_
_space_group_symop_operation_xyz
x,y,z
-x,-y,-z
loop_
_atom_site_type_symbol
_atom_site_label
_atom_site_fract_x
_atom_site_fract_y
_atom_site_fract_z
Si Si1 0.803168 0.537002 0.506266
Si Si2 0.531441 0.260852 0.005011
Si Si3 0.719316 0.850847 0.638750
Si Si4 0.041268 0.707308 0.708690
Si Si5 0.835455 0.786757 0.977839
Si Si6 0.446273 0.950749 0.754470
Si Si7 0.326299 0.498557 0.152030
Si Si8 0.801916 0.023074 0.371409
O O1 0.718130 0.675927 0.495661
O O2 0.847067 0.414427 0.314681
O O3 0.727852 0.445316 0.638500
O O4 0.926354 0.624105 0.596425
O O5 0.641938 0.345113 0.908598
O O6 0.447568 0.135929 0.860711
O O7 0.593793 0.159413 0.114453
O O8 0.447574 0.395618 0.136866
O O9 0.764164 0.853812 0.836158
O O10 0.579895 0.906720 0.653141
O O11 0.812456 0.958445 0.545168
O O12 0.093811 0.841551 0.619155
O O13 0.984774 0.774382 0.916355
O O14 0.776952 0.614077 0.971166
O O15 0.823601 0.894586 0.179500
O O16 0.338698 0.917785 0.614131
#
# Coordination Sequence:
#
# PCOD8039449 Si02
#       8
#     2   2   2   2   2   2   2   2
#     4   9  19  42  62  86 124 157 202 257 295 359
#     4  10  18  33  62  86 122 165 201 233 308 360
#     4  10  22  40  63  86 126 163 195 246 306 354
#     4   9  21  39  65  85 120 160 202 255 304 346
#     4  10  20  43  65  86 124 155 204 261 294 349
#     4  11  20  37  54  93 129 156 197 251 292 366
#     4   9  17  34  62  88 113 163 202 242 297 362
#     4  12  23  38  62  95 123 159 204 247 301 361
#
# _framework density 22.638670000000001
#
# number of rings (size 3 to 8) (size 9 to 14) (size 15 to 20)
#    0.000    2.250    3.750    1.500    1.750    2.000 
#    2.250    1.250    5.500    0.000    0.000    0.000 
#    0.000    0.000    0.000    0.000    0.000    0.000 
#
# Total GULP energy -198230.085796 kJ/mol
# GULP energy per Si atom -12389.380362 kJ/mol
# Density = 2.258714 g / cm^3
# Si number density = 22.638670 Si / 1000 Ang^3
#
#
#
# Elastic Constant Matrix: (Units=GPa)
#
#
# Indices 1 2 3 4 5 6 
#
# 1 51.8583 24.3049 38.0078 -3.0460 -27.4768 4.5722
# 2 24.3049 135.4078 33.9932 -30.2616 -16.4690 20.4745
# 3 38.0078 33.9932 68.3339 -9.2700 -24.7404 -2.0917
# 4 -3.0460 -30.2616 -9.2700 32.9231 -3.8108 -21.5545
# 5 -27.4768 -16.4690 -24.7404 -3.8108 31.3045 -0.7911
# 6 4.5722 20.4745 -2.0917 -21.5545 -0.7911 29.5612
#
#
#
# Elastic Compliance Matrix: (Units=1/GPa)
#
#
# Indices 1 2 3 4 5 6 
#
# 1 0.046794 -0.000286 -0.017489 -0.005339 0.026160 -0.011470
# 2 -0.000286 0.010768 -0.002183 0.009461 0.004826 -0.000541
# 3 -0.017489 -0.002183 0.034607 0.023719 0.014355 0.024345
# 4 -0.005339 0.009461 0.023719 0.089552 0.031508 0.062091
# 5 0.026160 0.004826 0.014355 0.031508 0.073094 0.018556
# 6 -0.011470 -0.000541 0.024345 0.062091 0.018556 0.083469
#
#
# Mechanical properties :
#
#
# Convention : Reuss Voigt Hill
#
# Bulk Modulus (GPa) = 19.13758 49.80133 34.46946
# Shear Modulus (GPa) = 12.63850 29.37735 21.00793
#
# Velocity S-wave (km/s) = 2.36534 3.60622 3.04956
# Velocity P-wave (km/s) = 3.99144 6.27581 5.25916
#
# Compressibility (1/GPa) = 0.05225320
#
# Stress axis : x y z
#
# Youngs Moduli (GPa) = 21.37047 92.87154 28.89562
#
# Poissons Ratio (x) = 0.02655 0.50535
# Poissons Ratio (y) = 0.00611 0.06308
# Poissons Ratio (z) = 0.37374 0.20275
#
# Static dielectric constant tensor:
#      x y z
#    x 4.184900 -0.078130 -0.778710 
#    y -0.078130 4.375900 0.185440 
#    z -0.778710 0.185440 4.226230 
# 
# 
# High freq. dielectric constant tensor:
#      x y z
#    x 1.874150 0.008270 -0.048070 
#    y 0.008270 1.900650 0.001370 
#    z -0.048070 0.001370 1.874210 
# 
# From -- ./inp_files/240272.got.cif
#   From: 2010.06.25/outbox.cif.g09.slc.cpg/sg2_121_cif.got.tgz:240272.got - 2010.06.27 13:26:56.
