data_PCOD8039151
_publ_section_title
;
Structure prediction by ZEFSAII (Michael W. Deem and Ramdas Pophale) SiO2 
 PCOD8039151
Probable space group: P -1
;
_chemical_formula_sum "Si O2"
_cell_formula_units_Z 16
_cell_length_a 9.268217
_cell_length_b 11.597885
_cell_length_c 12.646572
_cell_angle_alpha 127.305958
_cell_angle_beta 88.681909
_cell_angle_gamma 124.655875
_cell_volume 774.555642
_symmetry_space_group_name_H-M "P -1"
_symmetry_group_IT_number 2
_symmetry_cell_setting 'triclinic'
loop_
_space_group_symop_operation_xyz
x,y,z
-x,-y,-z
loop_
_atom_site_type_symbol
_atom_site_label
_atom_site_fract_x
_atom_site_fract_y
_atom_site_fract_z
Si Si1 0.620627 0.136212 0.971807
Si Si2 0.850400 0.585793 0.208008
Si Si3 0.469060 0.889435 0.644159
Si Si4 0.099514 0.836211 0.154951
Si Si5 0.330077 0.274102 0.612843
Si Si6 0.217250 0.911363 0.527396
Si Si7 0.960002 0.888698 0.672106
Si Si8 0.642113 0.504351 0.573735
O O1 0.685571 0.347529 0.101720
O O2 0.828202 0.191563 0.970751
O O3 0.500000 0.000000 0.000000
O O4 0.464777 0.002348 0.803410
O O5 0.731756 0.655550 0.256097
O O6 0.937972 0.630796 0.112106
O O7 0.028626 0.703580 0.356712
O O8 0.376665 0.897086 0.545121
O O9 0.351980 0.660560 0.552107
O O10 0.702444 0.005849 0.684469
O O11 0.001823 0.923779 0.177752
O O12 0.177361 0.189940 0.472808
O O13 0.559172 0.459640 0.670612
O O14 0.322142 0.106261 0.563112
O O15 0.156433 0.942977 0.658028
O O16 0.864494 0.725257 0.677429
O O17 0.500000 0.500000 0.500000
#
# Coordination Sequence:
#
# PCOD8039151 Si02
#       8
#     2   2   2   2   2   2   2   2
#     4  10  24  39  58  82 116 159 199 231 286 356
#     4  11  20  36  62  88 114 157 199 230 280 360
#     4  10  23  37  59  89 124 148 185 250 300 321
#     4  10  19  38  60  85 113 153 201 230 282 344
#     4  10  18  32  58  88 113 152 195 235 287 344
#     4  11  21  36  61  93 121 140 192 255 292 329
#     4  10  18  34  59  86 116 154 195 237 280 348
#     4  10  18  33  56  85 120 149 195 233 289 345
#
# _framework density 20.657005999999999
#
# number of rings (size 3 to 8) (size 9 to 14) (size 15 to 20)
#    0.750    1.000    5.000    1.125    7.000    2.500 
#    0.000    0.625    0.000    0.750    0.000    0.000 
#    0.000    0.000    0.000    0.000    0.000    0.000 
#
# Total GULP energy -198223.246434 kJ/mol
# GULP energy per Si atom -12388.952902 kJ/mol
# Density = 2.060999 g / cm^3
# Si number density = 20.657006 Si / 1000 Ang^3
#
#
#
# Elastic Constant Matrix: (Units=GPa)
#
#
# Indices 1 2 3 4 5 6 
#
# 1 61.7441 33.8061 23.5429 1.9412 -14.7923 -10.1186
# 2 33.8061 158.0759 31.0137 15.8935 -6.2229 4.5871
# 3 23.5429 31.0137 57.2137 5.9903 -18.0290 -13.3615
# 4 1.9412 15.8935 5.9903 27.6809 0.5754 -15.4521
# 5 -14.7923 -6.2229 -18.0290 0.5754 23.1472 -0.0321
# 6 -10.1186 4.5871 -13.3615 -15.4521 -0.0321 38.5924
#
#
#
# Elastic Compliance Matrix: (Units=1/GPa)
#
#
# Indices 1 2 3 4 5 6 
#
# 1 0.023910 -0.005182 -0.001722 0.006349 0.012399 0.008841
# 2 -0.005182 0.009305 -0.005338 -0.007900 -0.004782 -0.007480
# 3 -0.001722 -0.005338 0.030103 0.002791 0.020858 0.011740
# 4 0.006349 -0.007900 0.002791 0.053508 0.002812 0.024996
# 5 0.012399 -0.004782 0.020858 0.002812 0.066033 0.012221
# 6 0.008841 -0.007480 0.011740 0.024996 0.012221 0.043202
#
#
# Mechanical properties :
#
#
# Convention : Reuss Voigt Hill
#
# Bulk Modulus (GPa) = 25.75183 50.41767 38.08475
# Shear Modulus (GPa) = 18.97619 30.46216 24.71917
#
# Velocity S-wave (km/s) = 3.03418 3.84430 3.46301
# Velocity P-wave (km/s) = 4.97679 6.64567 5.87083
#
# Compressibility (1/GPa) = 0.03883220
#
# Stress axis : x y z
#
# Youngs Moduli (GPa) = 41.82402 107.47281 33.21975
#
# Poissons Ratio (x) = 0.55694 0.05722
# Poissons Ratio (y) = 0.21674 0.17732
# Poissons Ratio (z) = 0.07204 0.57367
#
# Static dielectric constant tensor:
#      x y z
#    x 3.857770 0.453720 -0.386300 
#    y 0.453720 4.187970 0.080810 
#    z -0.386300 0.080810 3.339700 
# 
# 
# High freq. dielectric constant tensor:
#      x y z
#    x 1.797840 0.012840 -0.040150 
#    y 0.012840 1.820950 0.011420 
#    z -0.040150 0.011420 1.758160 
# 
# From -- ./inp_files/499431.got.cif
#   From: 2010.06.25/outbox.cif.g09.slc.cpg/sg2_250_cif.got.tgz:499431.got - 2010.06.27 13:26:56.
