data_PCOD8039604
_publ_section_title
;
Structure prediction by ZEFSAII (Michael W. Deem and Ramdas Pophale) SiO2 
 PCOD8039604
Probable space group: P -1
;
_chemical_formula_sum "Si O2"
_cell_formula_units_Z 16
_cell_length_a 11.527730
_cell_length_b 21.170259
_cell_length_c 8.650739
_cell_angle_alpha 132.069449
_cell_angle_beta 124.789495
_cell_angle_gamma 28.060635
_cell_volume 735.918669
_symmetry_space_group_name_H-M "P -1"
_symmetry_group_IT_number 2
_symmetry_cell_setting 'triclinic'
loop_
_space_group_symop_operation_xyz
x,y,z
-x,-y,-z
loop_
_atom_site_type_symbol
_atom_site_label
_atom_site_fract_x
_atom_site_fract_y
_atom_site_fract_z
Si Si1 0.346371 0.944646 0.210394
Si Si2 0.567849 0.536256 0.979412
Si Si3 0.013539 0.418935 0.258708
Si Si4 0.895467 0.216899 0.143356
Si Si5 0.732847 0.884828 0.328957
Si Si6 0.248806 0.383566 0.093877
Si Si7 0.786988 0.849330 0.972323
Si Si8 0.189392 0.604228 0.376298
O O1 0.481437 0.954309 0.232935
O O2 0.316237 0.996115 0.446328
O O3 0.504816 0.779057 0.063058
O O4 0.069161 0.065699 0.125591
O O5 0.748862 0.520075 0.155079
O O6 0.500000 0.500000 0.000000
O O7 0.329697 0.706020 0.007912
O O8 0.684059 0.430277 0.745884
O O9 0.205793 0.352214 0.164819
O O10 0.135962 0.284121 0.229951
O O11 0.000000 0.500000 0.500000
O O12 0.767957 0.348862 0.378000
O O13 0.086500 0.155314 0.062475
O O14 0.896576 0.748234 0.350729
O O15 0.875088 0.824885 0.175626
O O16 0.294504 0.461478 0.281846
O O17 0.000000 0.500000 0.000000
O O18 0.500000 0.000000 0.000000
#
# Coordination Sequence:
#
# PCOD8039604 Si02
#       8
#     2   2   2   2   2   2   2   2
#     4  10  20  34  56  90 125 166 207 265 316 377
#     4  12  23  43  66  94 134 169 216 267 318 390
#     4  12  25  41  63  97 128 166 212 269 327 376
#     4  11  23  38  64  92 129 168 218 260 322 380
#     4  10  18  34  57  88 124 159 217 261 307 365
#     4  12  20  38  64  91 133 162 215 270 321 371
#     4  12  20  38  61  96 128 167 214 271 314 377
#     4  11  22  40  65  97 122 172 214 265 316 384
#
# _framework density 21.741533
#
# number of rings (size 3 to 8) (size 9 to 14) (size 15 to 20)
#    0.000    0.750    7.500    1.125    0.000    1.000 
#    0.000    0.625    0.000    4.500    0.000    0.000 
#    0.000    0.000    0.000    0.000    0.000    0.000 
#
# Total GULP energy -198208.931076 kJ/mol
# GULP energy per Si atom -12388.058192 kJ/mol
# Density = 2.169205 g / cm^3
# Si number density = 21.741533 Si / 1000 Ang^3
#
#
#
# Elastic Constant Matrix: (Units=GPa)
#
#
# Indices 1 2 3 4 5 6 
#
# 1 63.9814 0.4101 23.7408 -1.9130 -8.6357 -8.0730
# 2 0.4101 152.9203 48.9380 9.0981 24.2848 -14.2577
# 3 23.7408 48.9380 116.1733 12.5107 -0.6663 -12.3826
# 4 -1.9130 9.0981 12.5107 38.6929 2.5276 0.8686
# 5 -8.6357 24.2848 -0.6663 2.5276 28.0310 3.1465
# 6 -8.0730 -14.2577 -12.3826 0.8686 3.1465 16.2854
#
#
#
# Elastic Compliance Matrix: (Units=1/GPa)
#
#
# Indices 1 2 3 4 5 6 
#
# 1 0.018337 0.001012 -0.003625 0.001446 0.003837 0.006401
# 2 0.001012 0.009947 -0.003475 -0.000749 -0.009264 0.008399
# 3 -0.003625 -0.003475 0.011582 -0.003325 0.002048 0.003749
# 4 0.001446 -0.000749 -0.003325 0.027318 -0.001030 -0.003725
# 5 0.003837 -0.009264 0.002048 -0.001030 0.046550 -0.013590
# 6 0.006401 0.008399 0.003749 -0.003725 -0.013590 0.077606
#
#
# Mechanical properties :
#
#
# Convention : Reuss Voigt Hill
#
# Bulk Modulus (GPa) = 36.11215 53.25030 44.68122
# Shear Modulus (GPa) = 23.50237 33.93430 28.71833
#
# Velocity S-wave (km/s) = 3.29141 3.95499 3.63836
# Velocity P-wave (km/s) = 5.57587 6.73806 6.18433
#
# Compressibility (1/GPa) = 0.02769151
#
# Stress axis : x y z
#
# Youngs Moduli (GPa) = 54.53437 100.52953 86.34324
#
# Poissons Ratio (x) = -0.10178 0.31301
# Poissons Ratio (y) = -0.05521 0.30000
# Poissons Ratio (z) = 0.19770 0.34929
#
# Static dielectric constant tensor:
#      x y z
#    x 4.020770 -0.045530 -0.409820 
#    y -0.045530 4.391990 0.010630 
#    z -0.409820 0.010630 4.009750 
# 
# 
# High freq. dielectric constant tensor:
#      x y z
#    x 1.830580 -0.009130 -0.027140 
#    y -0.009130 1.876470 0.001050 
#    z -0.027140 0.001050 1.844070 
# 
# From -- ./inp_files/283258.got.cif
#   From: 2010.06.25/outbox.cif.g09.slc.cpg/sg2_142_cif.got.tgz:283258.got - 2010.06.27 13:26:56.
