data_PCOD8039534
_publ_section_title
;
Structure prediction by ZEFSAII (Michael W. Deem and Ramdas Pophale) SiO2 
 PCOD8039534
Probable space group: P -1
;
_chemical_formula_sum "Si O2"
_cell_formula_units_Z 16
_cell_length_a 9.848928
_cell_length_b 15.894506
_cell_length_c 11.070862
_cell_angle_alpha 138.487537
_cell_angle_beta 124.027570
_cell_angle_gamma 53.304130
_cell_volume 900.277821
_symmetry_space_group_name_H-M "P -1"
_symmetry_group_IT_number 2
_symmetry_cell_setting 'triclinic'
loop_
_space_group_symop_operation_xyz
x,y,z
-x,-y,-z
loop_
_atom_site_type_symbol
_atom_site_label
_atom_site_fract_x
_atom_site_fract_y
_atom_site_fract_z
Si Si1 0.653093 0.875716 0.485767
Si Si2 0.935055 0.865932 0.950898
Si Si3 0.346540 0.257385 0.890857
Si Si4 0.899562 0.706184 0.974687
Si Si5 0.743451 0.071533 0.901090
Si Si6 0.274108 0.531576 0.027437
Si Si7 0.151986 0.383442 0.392723
Si Si8 0.578707 0.635417 0.308971
O O1 0.742008 0.794548 0.322231
O O2 0.570030 0.783165 0.422560
O O3 0.500000 0.000000 0.500000
O O4 0.776102 0.937674 0.690488
O O5 0.879534 0.754104 0.728484
O O6 0.808542 0.013382 0.005431
O O7 0.920103 0.836796 0.055612
O O8 0.135187 0.847678 0.002631
O O9 0.252079 0.239946 0.946639
O O10 0.548528 0.171574 0.913914
O O11 0.325243 0.412581 0.023466
O O12 0.074461 0.620770 0.037778
O O13 0.847671 0.610524 0.747242
O O14 0.386424 0.628324 0.216039
O O15 0.308452 0.476288 0.848732
O O16 0.331888 0.391828 0.544245
O O17 0.000000 0.500000 0.500000
#
# Coordination Sequence:
#
# PCOD8039534 Si02
#       8
#     2   2   2   2   2   2   2   2
#     4   9  18  31  56  78 104 138 183 222 261 325
#     4   9  21  34  60  82 109 141 192 229 269 319
#     4  10  22  35  56  81 115 147 175 224 289 325
#     4  10  21  37  55  84 113 146 175 231 286 324
#     4  10  19  38  57  83 105 145 192 229 260 325
#     4  10  21  32  58  81 116 139 185 228 277 329
#     4  10  19  34  59  80 106 141 187 223 270 329
#     4  10  18  34  55  87  99 147 186 229 269 316
#
# _framework density 17.772290999999999
#
# number of rings (size 3 to 8) (size 9 to 14) (size 15 to 20)
#    0.750    1.500    2.500    0.375    8.750    0.500 
#    0.000    1.250    5.500    0.000    0.000    0.000 
#    0.000    0.000    0.000    0.000    0.000    0.000 
#
# Total GULP energy -198256.505637 kJ/mol
# GULP energy per Si atom -12391.031602 kJ/mol
# Density = 1.773184 g / cm^3
# Si number density = 17.772291 Si / 1000 Ang^3
#
#
#
# Elastic Constant Matrix: (Units=GPa)
#
#
# Indices 1 2 3 4 5 6 
#
# 1 107.8616 52.2578 40.3449 -11.3629 1.0483 3.3232
# 2 52.2578 106.4545 27.6146 -7.1455 2.8357 -1.1890
# 3 40.3449 27.6146 78.7230 -7.9053 15.4079 -1.2707
# 4 -11.3629 -7.1455 -7.9053 21.2027 0.6199 7.8144
# 5 1.0483 2.8357 15.4079 0.6199 25.0644 -3.8733
# 6 3.3232 -1.1890 -1.2707 7.8144 -3.8733 27.0849
#
#
#
# Elastic Compliance Matrix: (Units=1/GPa)
#
#
# Indices 1 2 3 4 5 6 
#
# 1 0.014675 -0.005501 -0.005701 0.005036 0.002871 -0.003352
# 2 -0.005501 0.012520 -0.001501 0.000331 -0.000111 0.001043
# 3 -0.005701 -0.001501 0.018804 0.004286 -0.011468 -0.001361
# 4 0.005036 0.000331 0.004286 0.058531 -0.007161 -0.018314
# 5 0.002871 -0.000111 -0.011468 -0.007161 0.048264 0.008073
# 6 -0.003352 0.001043 -0.001361 -0.018314 0.008073 0.043752
#
#
# Mechanical properties :
#
#
# Convention : Reuss Voigt Hill
#
# Bulk Modulus (GPa) = 48.56073 59.27487 53.91780
# Shear Modulus (GPa) = 21.85154 26.19185 24.02170
#
# Velocity S-wave (km/s) = 3.51027 3.84311 3.68045
# Velocity P-wave (km/s) = 6.61910 7.28817 6.96168
#
# Compressibility (1/GPa) = 0.02059277
#
# Stress axis : x y z
#
# Youngs Moduli (GPa) = 68.14491 79.87184 53.17962
#
# Poissons Ratio (x) = 0.43934 0.30320
# Poissons Ratio (y) = 0.37484 0.07983
# Poissons Ratio (z) = 0.38852 0.11990
#
# Static dielectric constant tensor:
#      x y z
#    x 2.936800 0.063030 0.121830 
#    y 0.063030 3.422410 -0.131200 
#    z 0.121830 -0.131200 3.738800 
# 
# 
# High freq. dielectric constant tensor:
#      x y z
#    x 1.652530 0.002030 0.015420 
#    y 0.002030 1.704380 -0.003740 
#    z 0.015420 -0.003740 1.679650 
# 
# From -- ./inp_files/399846.got.cif
#   From: 2010.06.25/outbox.cif.g09.slc.cpg/sg2_200_cif.got.tgz:399846.got - 2010.06.27 13:26:56.
