data_PCOD8039226
_publ_section_title
;
Structure prediction by ZEFSAII (Michael W. Deem and Ramdas Pophale) SiO2 
 PCOD8039226
Probable space group: P -1
;
_chemical_formula_sum "Si O2"
_cell_formula_units_Z 16
_cell_length_a 11.238939
_cell_length_b 14.929723
_cell_length_c 12.945833
_cell_angle_alpha 129.844826
_cell_angle_beta 107.375332
_cell_angle_gamma 113.636181
_cell_volume 937.198283
_symmetry_space_group_name_H-M "P -1"
_symmetry_group_IT_number 2
_symmetry_cell_setting 'triclinic'
loop_
_space_group_symop_operation_xyz
x,y,z
-x,-y,-z
loop_
_atom_site_type_symbol
_atom_site_label
_atom_site_fract_x
_atom_site_fract_y
_atom_site_fract_z
Si Si1 0.771469 0.045578 0.243218
Si Si2 0.321956 0.766676 0.555288
Si Si3 0.359749 0.976742 0.015161
Si Si4 0.131619 0.243054 0.618938
Si Si5 0.563583 0.321232 0.986293
Si Si6 0.139979 0.665390 0.902919
Si Si7 0.226159 0.049117 0.526906
Si Si8 0.617672 0.017759 0.631480
O O1 0.707971 0.119779 0.337215
O O2 0.005319 0.183956 0.439522
O O3 0.602471 0.818519 0.065843
O O4 0.775483 0.050613 0.122512
O O5 0.110020 0.533471 0.319762
O O6 0.477867 0.825843 0.725350
O O7 0.432021 0.837455 0.525951
O O8 0.208733 0.788373 0.910897
O O9 0.500000 0.000000 0.000000
O O10 0.199923 0.161559 0.567739
O O11 0.347281 0.480747 0.856090
O O12 0.981089 0.150357 0.611060
O O13 0.438369 0.192663 0.755126
O O14 0.763310 0.390228 0.110847
O O15 0.204965 0.775730 0.107974
O O16 0.253672 0.993216 0.390559
O O17 0.500000 0.000000 0.500000
#
# Coordination Sequence:
#
# PCOD8039226 Si02
#       8
#     2   2   2   2   2   2   2   2
#     4  10  18  33  53  77 107 132 164 212 261 300
#     4  10  20  32  47  76 107 133 168 206 252 308
#     4   9  18  32  48  77 111 132 157 215 263 301
#     4  10  21  35  54  76 101 135 175 210 246 307
#     4  11  18  32  52  77 106 131 168 210 250 302
#     4  11  20  31  52  79 106 136 168 203 258 309
#     4  10  22  37  51  73 106 139 170 208 254 293
#     4  11  20  35  50  73 106 137 167 210 251 298
#
# _framework density 17.07216
#
# number of rings (size 3 to 8) (size 9 to 14) (size 15 to 20)
#    0.000    1.750    6.250    1.125    0.000    4.500 
#    0.000    0.000    0.000    3.000    0.000    5.250 
#    0.000    0.000    0.000    0.000    0.000    0.000 
#
# Total GULP energy -198323.227770 kJ/mol
# GULP energy per Si atom -12395.201736 kJ/mol
# Density = 1.703330 g / cm^3
# Si number density = 17.072160 Si / 1000 Ang^3
#
#
#
# Elastic Constant Matrix: (Units=GPa)
#
#
# Indices 1 2 3 4 5 6 
#
# 1 54.6980 34.4347 24.7023 -3.5042 -3.6015 5.7823
# 2 34.4347 107.9706 69.2893 -11.9472 -2.6074 2.7428
# 3 24.7023 69.2893 111.0480 11.6087 3.4927 10.0106
# 4 -3.5042 -11.9472 11.6087 35.5449 -0.1187 1.8340
# 5 -3.6015 -2.6074 3.4927 -0.1187 18.2248 0.1579
# 6 5.7823 2.7428 10.0106 1.8340 0.1579 20.9820
#
#
#
# Elastic Compliance Matrix: (Units=1/GPa)
#
#
# Indices 1 2 3 4 5 6 
#
# 1 0.023768 -0.006813 -0.000735 0.000584 0.003913 -0.005389
# 2 -0.006813 0.021140 -0.013321 0.010566 0.004261 0.004514
# 3 -0.000735 -0.013321 0.019334 -0.010558 -0.005770 -0.006315
# 4 0.000584 0.010566 -0.010558 0.035183 0.003876 0.000390
# 5 0.003913 0.004261 -0.005770 0.003876 0.057381 0.000347
# 6 -0.005389 0.004514 -0.006315 0.000390 0.000347 0.051531
#
#
# Mechanical properties :
#
#
# Convention : Reuss Voigt Hill
#
# Bulk Modulus (GPa) = 44.43129 58.95213 51.69171
# Shear Modulus (GPa) = 19.41178 24.63637 22.02407
#
# Velocity S-wave (km/s) = 3.37566 3.80290 3.59563
# Velocity P-wave (km/s) = 6.42461 7.34090 6.89799
#
# Compressibility (1/GPa) = 0.02250666
#
# Stress axis : x y z
#
# Youngs Moduli (GPa) = 42.07406 47.30318 51.72133
#
# Poissons Ratio (x) = 0.32226 0.03799
# Poissons Ratio (y) = 0.28664 0.68896
# Poissons Ratio (z) = 0.03091 0.63011
#
# Static dielectric constant tensor:
#      x y z
#    x 2.965630 -0.097460 0.186900 
#    y -0.097460 3.703470 -0.374730 
#    z 0.186900 -0.374730 3.429930 
# 
# 
# High freq. dielectric constant tensor:
#      x y z
#    x 1.622920 -0.003080 0.019880 
#    y -0.003080 1.664990 -0.003580 
#    z 0.019880 -0.003580 1.665030 
# 
# From -- ./inp_files/96745.got.cif
#   From: 2010.06.25/outbox.cif.g09.slc.cpg/sg2_49_cif.got.tgz:96745.got - 2010.06.27 13:26:56.
