data_PCOD8039369
_publ_section_title
;
Structure prediction by ZEFSAII (Michael W. Deem and Ramdas Pophale) SiO2 
 PCOD8039369
Probable space group: P -1
;
_chemical_formula_sum "Si O2"
_cell_formula_units_Z 12
_cell_length_a 15.556896
_cell_length_b 7.717559
_cell_length_c 12.525456
_cell_angle_alpha 134.668828
_cell_angle_beta 144.773844
_cell_angle_gamma 60.002280
_cell_volume 606.682505
_symmetry_space_group_name_H-M "P -1"
_symmetry_group_IT_number 2
_symmetry_cell_setting 'triclinic'
loop_
_space_group_symop_operation_xyz
x,y,z
-x,-y,-z
loop_
_atom_site_type_symbol
_atom_site_label
_atom_site_fract_x
_atom_site_fract_y
_atom_site_fract_z
Si Si1 0.744313 0.996668 0.258635
Si Si2 0.368785 0.251388 0.327965
Si Si3 0.962871 0.660871 0.329241
Si Si4 0.479924 0.771069 0.733786
Si Si5 0.085044 0.916148 0.948997
Si Si6 0.084136 0.298893 0.949795
O O1 0.664805 0.115303 0.326580
O O2 0.865109 0.209110 0.412217
O O3 0.835297 0.792342 0.313138
O O4 0.624034 0.876724 0.997430
O O5 0.445531 0.470241 0.580179
O O6 0.488192 0.155718 0.327449
O O7 0.261813 0.377255 0.192738
O O8 0.266746 0.027146 0.193575
O O9 0.939487 0.376846 0.214905
O O10 0.941842 0.714635 0.206913
O O11 0.023136 0.031324 0.829162
O O12 0.000000 0.000000 0.000000
O O13 0.000000 0.500000 0.000000
#
# Coordination Sequence:
#
# PCOD8039369 Si02
#       6
#     2   2   2   2   2   2
#     4  10  21  34  61  81 118 162 189 227 292 349
#     4   9  20  34  60  86 111 149 194 244 285 329
#     4  11  20  38  56  92 113 148 197 240 284 341
#     4  10  18  38  58  82 116 160 191 229 289 352
#     4  10  19  33  58  91 116 143 189 251 288 330
#     4  10  18  33  58  89 112 142 184 243 293 320
#
# _framework density 19.779703000000001
#
# number of rings (size 3 to 8) (size 9 to 14) (size 15 to 20)
#    1.000    1.000    3.333    2.000    0.000    0.000 
#    0.000    9.167    0.000    2.000    0.000    0.000 
#    0.000    0.000    0.000    0.000    0.000    0.000 
#
# Total GULP energy -148656.916016 kJ/mol
# GULP energy per Si atom -12388.076335 kJ/mol
# Density = 1.973468 g / cm^3
# Si number density = 19.779703 Si / 1000 Ang^3
#
#
#
# Elastic Constant Matrix: (Units=GPa)
#
#
# Indices 1 2 3 4 5 6 
#
# 1 114.4091 55.5866 36.4569 13.8496 13.9830 -25.2900
# 2 55.5866 130.7207 44.3626 30.9048 14.3125 -7.0694
# 3 36.4569 44.3626 103.1609 24.8157 14.7702 -8.0799
# 4 13.8496 30.9048 24.8157 36.7657 5.6593 1.7624
# 5 13.9830 14.3125 14.7702 5.6593 33.9794 0.5182
# 6 -25.2900 -7.0694 -8.0799 1.7624 0.5182 46.3705
#
#
#
# Elastic Compliance Matrix: (Units=1/GPa)
#
#
# Indices 1 2 3 4 5 6 
#
# 1 0.013164 -0.004322 -0.001923 0.000117 -0.002875 0.006213
# 2 -0.004322 0.011825 -0.001761 -0.006898 -0.001279 -0.000585
# 3 -0.001923 -0.001761 0.013192 -0.006271 -0.003176 0.001255
# 4 0.000117 -0.006898 -0.006271 0.037446 -0.000600 -0.003497
# 5 -0.002875 -0.001279 -0.003176 -0.000600 0.032672 -0.002659
# 6 0.006213 -0.000585 0.001255 -0.003497 -0.002659 0.025246
#
#
# Mechanical properties :
#
#
# Convention : Reuss Voigt Hill
#
# Bulk Modulus (GPa) = 45.11020 69.01143 57.06082
# Shear Modulus (GPa) = 31.85790 37.54875 34.70332
#
# Velocity S-wave (km/s) = 4.01763 4.36173 4.19321
# Velocity P-wave (km/s) = 6.66165 7.76737 7.23566
#
# Compressibility (1/GPa) = 0.02216793
#
# Stress axis : x y z
#
# Youngs Moduli (GPa) = 75.96548 84.57006 75.80315
#
# Poissons Ratio (x) = 0.36550 0.14581
# Poissons Ratio (y) = 0.32831 0.13349
# Poissons Ratio (z) = 0.14612 0.14892
#
# Static dielectric constant tensor:
#      x y z
#    x 3.654470 -0.275080 0.309770 
#    y -0.275080 3.406400 0.051440 
#    z 0.309770 0.051440 3.600220 
# 
# 
# High freq. dielectric constant tensor:
#      x y z
#    x 1.774780 -0.033050 0.009320 
#    y -0.033050 1.741800 0.016340 
#    z 0.009320 0.016340 1.778930 
# 
# From -- ./inp_files/536858.got.cif
#   From: 2010.06.25/outbox.cif.g09.slc.cpg/sg2_269_cif.got.tgz:536858.got - 2010.06.27 13:26:56.
