data_PCOD8039238
_publ_section_title
;
Structure prediction by ZEFSAII (Michael W. Deem and Ramdas Pophale) SiO2 
 PCOD8039238
Probable space group: P -1
;
_chemical_formula_sum "Si O2"
_cell_formula_units_Z 16
_cell_length_a 18.239679
_cell_length_b 9.628285
_cell_length_c 10.894517
_cell_angle_alpha 89.753634
_cell_angle_beta 102.602932
_cell_angle_gamma 30.793582
_cell_volume 882.697091
_symmetry_space_group_name_H-M "P -1"
_symmetry_group_IT_number 2
_symmetry_cell_setting 'triclinic'
loop_
_space_group_symop_operation_xyz
x,y,z
-x,-y,-z
loop_
_atom_site_type_symbol
_atom_site_label
_atom_site_fract_x
_atom_site_fract_y
_atom_site_fract_z
Si Si1 0.695887 0.160572 0.318552
Si Si2 0.151232 0.350244 0.537535
Si Si3 0.853735 0.662867 0.741559
Si Si4 0.338506 0.793049 0.210314
Si Si5 0.812859 0.957107 0.097660
Si Si6 0.926270 0.295650 0.903855
Si Si7 0.110326 0.937365 0.200188
Si Si8 0.030482 0.102841 0.453661
O O1 0.526117 0.492107 0.300185
O O2 0.707253 0.977685 0.358199
O O3 0.702705 0.158373 0.174027
O O4 0.826945 0.049306 0.424773
O O5 0.181214 0.336817 0.406597
O O6 0.000000 0.500000 0.500000
O O7 0.125129 0.542830 0.592998
O O8 0.811067 0.612787 0.826727
O O9 0.044167 0.388721 0.823940
O O10 0.745483 0.971179 0.722709
O O11 0.270548 0.753457 0.218868
O O12 0.295359 0.913442 0.056580
O O13 0.901603 0.957864 0.097549
O O14 0.849023 0.286991 0.815821
O O15 0.956863 0.234842 0.061624
O O16 0.071271 0.021238 0.327048
O O17 0.000000 0.000000 0.500000
#
# Coordination Sequence:
#
# PCOD8039238 Si02
#       8
#     2   2   2   2   2   2   2   2
#     4  11  22  36  52  81 118 139 173 226 271 317
#     4  10  18  33  54  75 106 141 173 220 268 308
#     4  10  18  34  55  79 106 140 186 222 259 313
#     4  11  22  32  55  85 108 143 177 222 274 314
#     4   9  18  35  58  75 107 145 185 217 262 312
#     4   8  18  34  54  78 102 140 178 228 254 303
#     4  10  19  32  54  80 108 133 181 220 266 313
#     4  11  21  35  58  80 102 144 188 218 260 326
#
# _framework density 18.126262000000001
#
# number of rings (size 3 to 8) (size 9 to 14) (size 15 to 20)
#    0.750    1.250    2.500    3.750    0.000    2.000 
#    0.000    1.250    0.000    3.000    0.000    8.750 
#    0.000    0.000    0.000    0.000    0.000    0.000 
#
# Total GULP energy -198216.618044 kJ/mol
# GULP energy per Si atom -12388.538628 kJ/mol
# Density = 1.808501 g / cm^3
# Si number density = 18.126262 Si / 1000 Ang^3
#
#
#
# Elastic Constant Matrix: (Units=GPa)
#
#
# Indices 1 2 3 4 5 6 
#
# 1 74.0278 36.4623 24.4158 -1.0496 -2.2356 16.1007
# 2 36.4623 87.6837 25.1668 -3.5278 8.1046 -1.3593
# 3 24.4158 25.1668 89.1929 15.5825 -12.0348 -5.7102
# 4 -1.0496 -3.5278 15.5825 24.3863 -0.1817 -3.1961
# 5 -2.2356 8.1046 -12.0348 -0.1817 24.9275 3.1371
# 6 16.1007 -1.3593 -5.7102 -3.1961 3.1371 23.1916
#
#
#
# Elastic Compliance Matrix: (Units=1/GPa)
#
#
# Indices 1 2 3 4 5 6 
#
# 1 0.023913 -0.009509 -0.004326 -0.000028 0.005536 -0.018977
# 2 -0.009509 0.017849 -0.004229 0.005949 -0.009755 0.008746
# 3 -0.004326 -0.004229 0.016936 -0.010999 0.008548 0.004253
# 4 -0.000028 0.005949 -0.010999 0.049561 -0.007580 0.005516
# 5 0.005536 -0.009755 0.008548 -0.007580 0.049115 -0.009998
# 6 -0.018977 0.008746 0.004253 0.005516 -0.009998 0.059966
#
#
# Mechanical properties :
#
#
# Convention : Reuss Voigt Hill
#
# Bulk Modulus (GPa) = 44.30549 46.99935 45.65242
# Shear Modulus (GPa) = 19.15766 25.49171 22.32469
#
# Velocity S-wave (km/s) = 3.25453 3.75419 3.51325
# Velocity P-wave (km/s) = 6.21437 6.69157 6.45738
#
# Compressibility (1/GPa) = 0.02257057
#
# Stress axis : x y z
#
# Youngs Moduli (GPa) = 41.81783 56.02436 59.04464
#
# Poissons Ratio (x) = 0.53276 0.25542
# Poissons Ratio (y) = 0.39766 0.24969
# Poissons Ratio (z) = 0.18090 0.23692
#
# Static dielectric constant tensor:
#      x y z
#    x 3.343170 0.267050 -0.279780 
#    y 0.267050 3.306820 -0.011900 
#    z -0.279780 -0.011900 3.418560 
# 
# 
# High freq. dielectric constant tensor:
#      x y z
#    x 1.685140 0.017120 -0.025670 
#    y 0.017120 1.680580 0.013020 
#    z -0.025670 0.013020 1.707680 
# 
# From -- ./inp_files/437997.got.cif
#   From: 2010.06.25/outbox.cif.g09.slc.cpg/sg2_219_cif.got.tgz:437997.got - 2010.06.27 13:26:56.
