data_PCOD8039697
_publ_section_title
;
Structure prediction by ZEFSAII (Michael W. Deem and Ramdas Pophale) SiO2 
 PCOD8039697
Probable space group: P -1
;
_chemical_formula_sum "Si O2"
_cell_formula_units_Z 16
_cell_length_a 11.258812
_cell_length_b 20.803484
_cell_length_c 9.063030
_cell_angle_alpha 42.456882
_cell_angle_beta 76.178463
_cell_angle_gamma 44.166011
_cell_volume 785.455788
_symmetry_space_group_name_H-M "P -1"
_symmetry_group_IT_number 2
_symmetry_cell_setting 'triclinic'
loop_
_space_group_symop_operation_xyz
x,y,z
-x,-y,-z
loop_
_atom_site_type_symbol
_atom_site_label
_atom_site_fract_x
_atom_site_fract_y
_atom_site_fract_z
Si Si1 0.934867 0.965818 0.865019
Si Si2 0.093932 0.055243 0.770518
Si Si3 0.839671 0.833718 0.669607
Si Si4 0.353771 0.675313 0.051070
Si Si5 0.559730 0.673678 0.216990
Si Si6 0.269092 0.532357 0.211511
Si Si7 0.488058 0.730165 0.669900
Si Si8 0.382037 0.216288 0.226725
O O1 0.694898 0.094877 0.661572
O O2 0.978060 0.879779 0.149436
O O3 0.936682 0.078388 0.704291
O O4 0.109727 0.824680 0.930853
O O5 0.071949 0.167410 0.498053
O O6 0.334686 0.857508 0.035277
O O7 0.788335 0.759579 0.759259
O O8 0.628691 0.020749 0.479078
O O9 0.018719 0.718812 0.939931
O O10 0.517535 0.604398 0.251401
O O11 0.411405 0.534045 0.209899
O O12 0.361757 0.746588 0.797614
O O13 0.717524 0.549461 0.517035
O O14 0.671628 0.683173 0.068720
O O15 0.361912 0.428702 0.210298
O O16 0.641741 0.707515 0.745578
#
# Coordination Sequence:
#
# PCOD8039697 Si02
#       8
#     2   2   2   2   2   2   2   2
#     4  10  18  34  60  83 115 149 189 221 276 341
#     4   9  18  35  58  86 112 150 182 231 276 331
#     4  10  21  39  63  82 110 145 200 232 275 330
#     4  10  21  35  55  87 118 150 184 227 276 340
#     4   9  19  38  58  83 118 148 182 228 288 333
#     4  12  22  35  57  88 118 144 185 236 284 332
#     4  11  21  36  58  85 117 148 187 231 285 333
#     4   9  21  42  63  78 107 155 192 233 275 333
#
# _framework density 20.370339000000001
#
# number of rings (size 3 to 8) (size 9 to 14) (size 15 to 20)
#    0.000    2.000    1.250    3.375    0.000    1.000 
#    4.500    0.625    2.750    0.000    0.000    0.000 
#    0.000    0.000    0.000    0.000    0.000    0.000 
#
# Total GULP energy -198432.107131 kJ/mol
# GULP energy per Si atom -12402.006696 kJ/mol
# Density = 2.032398 g / cm^3
# Si number density = 20.370339 Si / 1000 Ang^3
#
#
#
# Elastic Constant Matrix: (Units=GPa)
#
#
# Indices 1 2 3 4 5 6 
#
# 1 104.5519 41.6547 51.1538 21.5738 -17.4636 8.4914
# 2 41.6547 86.5120 30.1077 15.3345 -4.4838 21.3246
# 3 51.1538 30.1077 112.2169 25.1997 4.2124 2.7225
# 4 21.5738 15.3345 25.1997 24.8295 1.7967 -2.2646
# 5 -17.4636 -4.4838 4.2124 1.7967 29.2242 -1.9414
# 6 8.4914 21.3246 2.7225 -2.2646 -1.9414 28.0317
#
#
#
# Elastic Compliance Matrix: (Units=1/GPa)
#
#
# Indices 1 2 3 4 5 6 
#
# 1 0.017502 -0.004174 -0.005427 -0.008053 0.010997 -0.001488
# 2 -0.004174 0.018688 -0.000948 -0.008194 0.000115 -0.013514
# 3 -0.005427 -0.000948 0.013665 -0.008214 -0.004850 0.000038
# 4 -0.008053 -0.008194 -0.008214 0.062508 -0.007800 0.013980
# 5 0.010997 0.000115 -0.004850 -0.007800 0.041941 -0.000673
# 6 -0.001488 -0.013514 0.000038 0.013980 -0.000673 0.047485
#
#
# Mechanical properties :
#
#
# Convention : Reuss Voigt Hill
#
# Bulk Modulus (GPa) = 34.77248 61.01257 47.89253
# Shear Modulus (GPa) = 21.50787 28.44139 24.97463
#
# Velocity S-wave (km/s) = 3.25290 3.74065 3.50527
# Velocity P-wave (km/s) = 5.58710 6.97663 6.32017
#
# Compressibility (1/GPa) = 0.02875837
#
# Stress axis : x y z
#
# Youngs Moduli (GPa) = 57.13539 53.50934 73.17989
#
# Poissons Ratio (x) = 0.22337 0.39712
# Poissons Ratio (y) = 0.23850 0.06935
# Poissons Ratio (z) = 0.31005 0.05071
#
# Static dielectric constant tensor:
#      x y z
#    x 3.634710 0.155240 -0.074410 
#    y 0.155240 3.630050 0.167010 
#    z -0.074410 0.167010 3.543470 
# 
# 
# High freq. dielectric constant tensor:
#      x y z
#    x 1.781060 0.013130 0.001050 
#    y 0.013130 1.791780 0.012980 
#    z 0.001050 0.012980 1.791050 
# 
# From -- ./inp_files/178250.got.cif
#   From: 2010.06.25/outbox.cif.g09.slc.cpg/sg2_90_cif.got.tgz:178250.got - 2010.06.27 13:26:56.
