data_PCOD8039418
_publ_section_title
;
Structure prediction by ZEFSAII (Michael W. Deem and Ramdas Pophale) SiO2 
 PCOD8039418
Probable space group: P -1
;
_chemical_formula_sum "Si O2"
_cell_formula_units_Z 14
_cell_length_a 13.928996
_cell_length_b 11.525603
_cell_length_c 12.231256
_cell_angle_alpha 51.664453
_cell_angle_beta 39.990451
_cell_angle_gamma 32.633713
_cell_volume 678.753165
_symmetry_space_group_name_H-M "P -1"
_symmetry_group_IT_number 2
_symmetry_cell_setting 'triclinic'
loop_
_space_group_symop_operation_xyz
x,y,z
-x,-y,-z
loop_
_atom_site_type_symbol
_atom_site_label
_atom_site_fract_x
_atom_site_fract_y
_atom_site_fract_z
Si Si1 0.690212 0.032564 0.382923
Si Si2 0.974425 0.926544 0.386155
Si Si3 0.819577 0.535243 0.218588
Si Si4 0.636032 0.472378 0.592130
Si Si5 0.795806 0.928518 0.909703
Si Si6 0.573309 0.198372 0.742968
Si Si7 0.323985 0.097874 0.750509
O O1 0.900890 0.920921 0.335427
O O2 0.771793 0.923476 0.256013
O O3 0.537127 0.285585 0.353435
O O4 0.563230 0.988940 0.577656
O O5 0.171539 0.681407 0.397358
O O6 0.778119 0.059103 0.565184
O O7 0.049348 0.041118 0.244349
O O8 0.734737 0.448633 0.403158
O O9 0.636108 0.718076 0.183766
O O10 0.839587 0.648345 0.227485
O O11 0.051404 0.330450 0.079478
O O12 0.516228 0.402458 0.719039
O O13 0.629988 0.050886 0.881365
O O14 0.662159 0.018402 0.087271
#
# Coordination Sequence:
#
# PCOD8039418 Si02
#       7
#     2   2   2   2   2   2   2
#     4  10  22  42  58  75 114 156 190 216 271 341
#     4  11  19  36  62  86 108 144 189 230 277 327
#     4  11  19  35  59  82 115 148 181 223 284 328
#     4  10  18  33  60  88 106 141 190 230 271 326
#     4  11  22  36  58  89 116 133 185 245 276 318
#     4  11  19  34  59  91 110 141 184 231 286 327
#     4  10  23  40  55  80 117 154 182 225 273 332
#
# _framework density 20.626055000000001
#
# number of rings (size 3 to 8) (size 9 to 14) (size 15 to 20)
#    0.000    1.429    5.714    2.571    0.000    1.143 
#    0.000   12.143    0.000    0.000    0.000    0.000 
#    0.000    0.000    0.000    0.000    0.000    0.000 
#
# Total GULP energy -173635.580579 kJ/mol
# GULP energy per Si atom -12402.541470 kJ/mol
# Density = 2.057911 g / cm^3
# Si number density = 20.626055 Si / 1000 Ang^3
#
#
#
# Elastic Constant Matrix: (Units=GPa)
#
#
# Indices 1 2 3 4 5 6 
#
# 1 144.3153 67.0582 32.2807 3.8794 30.6378 -10.9710
# 2 67.0582 85.8180 31.7102 -3.1968 22.0213 -17.8949
# 3 32.2807 31.7102 85.8934 0.7997 29.9413 -3.8264
# 4 3.8794 -3.1968 0.7997 20.1935 -3.4200 6.3249
# 5 30.6378 22.0213 29.9413 -3.4200 28.9341 2.3437
# 6 -10.9710 -17.8949 -3.8264 6.3249 2.3437 28.6994
#
#
#
# Elastic Compliance Matrix: (Units=1/GPa)
#
#
# Indices 1 2 3 4 5 6 
#
# 1 0.012615 -0.007542 0.001889 -0.006295 -0.010528 0.002619
# 2 -0.007542 0.022892 -0.002321 0.000152 -0.007965 0.011699
# 3 0.001889 -0.002321 0.019700 -0.006837 -0.021849 0.005193
# 4 -0.006295 0.000152 -0.006837 0.060557 0.022273 -0.018388
# 5 -0.010528 -0.007965 -0.021849 0.022273 0.078898 -0.023256
# 6 0.002619 0.011699 0.005193 -0.018388 -0.023256 0.049784
#
#
# Mechanical properties :
#
#
# Convention : Reuss Voigt Hill
#
# Bulk Modulus (GPa) = 25.47140 64.23610 44.85375
# Shear Modulus (GPa) = 18.28290 27.89723 23.09006
#
# Velocity S-wave (km/s) = 2.98047 3.68166 3.34946
# Velocity P-wave (km/s) = 4.92141 7.02023 6.06234
#
# Compressibility (1/GPa) = 0.03925971
#
# Stress axis : x y z
#
# Youngs Moduli (GPa) = 79.27295 43.68287 50.76031
#
# Poissons Ratio (x) = 0.32945 -0.09587
# Poissons Ratio (y) = 0.59787 0.11780
# Poissons Ratio (z) = -0.14972 0.10137
#
# Static dielectric constant tensor:
#      x y z
#    x 3.871980 -0.004610 0.081180 
#    y -0.004610 3.663760 -0.204290 
#    z 0.081180 -0.204290 3.709930 
# 
# 
# High freq. dielectric constant tensor:
#      x y z
#    x 1.807540 0.004310 -0.001770 
#    y 0.004310 1.794560 -0.020960 
#    z -0.001770 -0.020960 1.807880 
# 
# From -- ./inp_files/227733.got.cif
#   From: 2010.06.25/outbox.cif.g09.slc.cpg/sg2_114_cif.got.tgz:227733.got - 2010.06.27 13:26:56.
