data_PCOD8039805
_publ_section_title
;
Structure prediction by ZEFSAII (Michael W. Deem and Ramdas Pophale) SiO2 
 PCOD8039805
Probable space group: P -1
;
_chemical_formula_sum "Si O2"
_cell_formula_units_Z 14
_cell_length_a 8.984834
_cell_length_b 9.818131
_cell_length_c 11.844121
_cell_angle_alpha 48.162968
_cell_angle_beta 63.849924
_cell_angle_gamma 75.555880
_cell_volume 697.208676
_symmetry_space_group_name_H-M "P -1"
_symmetry_group_IT_number 2
_symmetry_cell_setting 'triclinic'
loop_
_space_group_symop_operation_xyz
x,y,z
-x,-y,-z
loop_
_atom_site_type_symbol
_atom_site_label
_atom_site_fract_x
_atom_site_fract_y
_atom_site_fract_z
Si Si1 0.022797 0.451637 0.201878
Si Si2 0.424272 0.746765 0.732225
Si Si3 0.264333 0.013081 0.477497
Si Si4 0.920362 0.137779 0.576393
Si Si5 0.820705 0.164120 0.043179
Si Si6 0.840906 0.985105 0.909021
Si Si7 0.236347 0.385799 0.964008
O O1 0.960986 0.332503 0.395610
O O2 0.870203 0.500117 0.148905
O O3 0.117133 0.630366 0.124801
O O4 0.143506 0.344981 0.137306
O O5 0.620464 0.798330 0.652509
O O6 0.331641 0.832625 0.821919
O O7 0.398999 0.524745 0.855283
O O8 0.356492 0.842084 0.590567
O O9 0.087402 0.028051 0.589114
O O10 0.225784 0.975038 0.380380
O O11 0.851709 0.147582 0.721775
O O12 0.757444 0.057340 0.010269
O O13 0.971453 0.065883 0.103324
O O14 0.727909 0.808051 0.997733
#
# Coordination Sequence:
#
# PCOD8039805 Si02
#       7
#     2   2   2   2   2   2   2
#     4   9  17  29  53  75 106 132 175 211 256 293
#     4  10  18  35  54  79 101 138 173 214 252 313
#     4  10  20  30  55  80 107 128 171 222 265 290
#     4  11  19  33  50  86 103 133 166 228 253 306
#     4   9  19  35  52  77 103 146 172 205 248 328
#     4  10  19  32  55  76 108 138 175 205 259 304
#     4   9  16  31  51  77 100 140 172 210 245 317
#
# _framework density 20.080069999999999
#
# number of rings (size 3 to 8) (size 9 to 14) (size 15 to 20)
#    0.000    2.286    2.857    2.571    0.000    0.571 
#    0.000    7.143    0.000    5.143    0.000    0.000 
#    0.000    0.000    0.000    0.000    0.000    0.000 
#
# Total GULP energy -173506.420934 kJ/mol
# GULP energy per Si atom -12393.315781 kJ/mol
# Density = 2.003437 g / cm^3
# Si number density = 20.080070 Si / 1000 Ang^3
#
#
#
# Elastic Constant Matrix: (Units=GPa)
#
#
# Indices 1 2 3 4 5 6 
#
# 1 75.7503 25.7573 32.5331 -0.8686 -13.2490 19.1445
# 2 25.7573 109.8075 36.3498 2.9252 -5.2010 35.2998
# 3 32.5331 36.3498 110.1595 -5.6169 1.3943 24.8944
# 4 -0.8686 2.9252 -5.6169 26.4914 8.1391 -1.7475
# 5 -13.2490 -5.2010 1.3943 8.1391 25.7337 -9.2088
# 6 19.1445 35.2998 24.8944 -1.7475 -9.2088 19.1176
#
#
#
# Elastic Compliance Matrix: (Units=1/GPa)
#
#
# Indices 1 2 3 4 5 6 
#
# 1 0.018826 0.002718 -0.002408 -0.002828 0.004535 -0.018809
# 2 0.002718 0.029890 0.006877 -0.000614 -0.020162 -0.076636
# 3 -0.002408 0.006877 0.017071 0.005299 -0.016811 -0.040130
# 4 -0.002828 -0.000614 0.005299 0.044047 -0.018617 -0.007876
# 5 0.004535 -0.020162 -0.016811 -0.018617 0.075929 0.089450
# 6 -0.018809 -0.076636 -0.040130 -0.007876 0.089450 0.307272
#
#
# Mechanical properties :
#
#
# Convention : Reuss Voigt Hill
#
# Bulk Modulus (GPa) = 12.47480 53.88865 33.18172
# Shear Modulus (GPa) = 9.89351 27.67368 18.78360
#
# Velocity S-wave (km/s) = 2.22210 3.71639 3.06181
# Velocity P-wave (km/s) = 3.57906 6.73131 5.39074
#
# Compressibility (1/GPa) = 0.08016161
#
# Stress axis : x y z
#
# Youngs Moduli (GPa) = 53.11892 33.45546 58.57787
#
# Poissons Ratio (x) = -0.09093 0.14103
# Poissons Ratio (y) = -0.14437 -0.40282
# Poissons Ratio (z) = 0.12788 -0.23006
#
# Static dielectric constant tensor:
#      x y z
#    x 3.494760 0.334860 0.010350 
#    y 0.334860 3.493250 -0.100040 
#    z 0.010350 -0.100040 3.620680 
# 
# 
# High freq. dielectric constant tensor:
#      x y z
#    x 1.765240 0.031160 0.008530 
#    y 0.031160 1.749950 -0.010790 
#    z 0.008530 -0.010790 1.792920 
# 
# From -- ./inp_files/154903.got.cif
#   From: 2010.06.25/outbox.cif.g09.slc.cpg/sg2_78_cif.got.tgz:154903.got - 2010.06.27 13:26:56.
