data_PCOD8039321
_publ_section_title
;
Structure prediction by ZEFSAII (Michael W. Deem and Ramdas Pophale) SiO2 
 PCOD8039321
Probable space group: P -1
;
_chemical_formula_sum "Si O2"
_cell_formula_units_Z 14
_cell_length_a 12.528232
_cell_length_b 10.311317
_cell_length_c 14.851507
_cell_angle_alpha 51.894598
_cell_angle_beta 27.718918
_cell_angle_gamma 55.035476
_cell_volume 700.316096
_symmetry_space_group_name_H-M "P -1"
_symmetry_group_IT_number 2
_symmetry_cell_setting 'triclinic'
loop_
_space_group_symop_operation_xyz
x,y,z
-x,-y,-z
loop_
_atom_site_type_symbol
_atom_site_label
_atom_site_fract_x
_atom_site_fract_y
_atom_site_fract_z
Si Si1 0.509559 0.775537 0.160734
Si Si2 0.075669 0.249171 0.843926
Si Si3 0.203241 0.935561 0.001648
Si Si4 0.666659 0.049389 0.608271
Si Si5 0.542048 0.163721 0.456771
Si Si6 0.151196 0.945243 0.235530
Si Si7 0.829839 0.455708 0.067316
O O1 0.389546 0.815099 0.329790
O O2 0.617880 0.589243 0.157381
O O3 0.316187 0.797532 0.218264
O O4 0.717573 0.887785 0.934976
O O5 0.296072 0.265228 0.609141
O O6 0.136398 0.120420 0.935469
O O7 0.867553 0.195312 0.961551
O O8 0.994859 0.429223 0.867892
O O9 0.480406 0.911638 0.817042
O O10 0.082928 0.904894 0.200764
O O11 0.648556 0.127829 0.490058
O O12 0.925754 0.967154 0.457932
O O13 0.722108 0.277667 0.228642
O O14 0.500000 0.000000 0.500000
O O15 0.000000 0.500000 0.000000
#
# Coordination Sequence:
#
# PCOD8039321 Si02
#       7
#     2   2   2   2   2   2   2
#     4  10  23  35  52  83 113 148 190 230 277 335
#     4  10  20  35  56  84 115 143 179 231 284 330
#     4   9  18  34  58  84 105 142 193 228 270 336
#     4  10  18  33  57  81 108 145 188 232 278 329
#     4  11  22  36  60  87 112 148 187 227 285 340
#     4  10  19  37  57  77 111 151 190 231 277 329
#     4  12  23  37  56  86 120 144 181 236 282 331
#
# _framework density 19.990973
#
# number of rings (size 3 to 8) (size 9 to 14) (size 15 to 20)
#    0.000    1.714    0.000    8.143    0.000    3.429 
#    0.000    0.714    0.000    6.000    0.000    0.000 
#    0.000    0.000    0.000    0.000    0.000    0.000 
#
# Total GULP energy -173526.353600 kJ/mol
# GULP energy per Si atom -12394.739543 kJ/mol
# Density = 1.994547 g / cm^3
# Si number density = 19.990973 Si / 1000 Ang^3
#
#
#
# Elastic Constant Matrix: (Units=GPa)
#
#
# Indices 1 2 3 4 5 6 
#
# 1 96.1829 40.9376 29.4365 13.5381 -2.2617 9.7586
# 2 40.9376 96.7058 53.3819 24.4484 -8.9776 11.3456
# 3 29.4365 53.3819 111.2362 30.0414 -9.2951 7.5340
# 4 13.5381 24.4484 30.0414 39.5346 2.7553 2.5821
# 5 -2.2617 -8.9776 -9.2951 2.7553 24.4999 3.1568
# 6 9.7586 11.3456 7.5340 2.5821 3.1568 25.6234
#
#
#
# Elastic Compliance Matrix: (Units=1/GPa)
#
#
# Indices 1 2 3 4 5 6 
#
# 1 0.012958 -0.004532 -0.000915 -0.000747 -0.000401 -0.002535
# 2 -0.004532 0.017404 -0.004891 -0.005562 0.005326 -0.004638
# 3 -0.000915 -0.004891 0.014106 -0.007602 0.004513 -0.001423
# 4 -0.000747 -0.005562 -0.007602 0.035246 -0.009287 0.002575
# 5 -0.000401 0.005326 0.004513 -0.009287 0.046562 -0.008333
# 6 -0.002535 -0.004638 -0.001423 0.002575 -0.008333 0.043231
#
#
# Mechanical properties :
#
#
# Convention : Reuss Voigt Hill
#
# Bulk Modulus (GPa) = 42.02972 61.29298 51.66135
# Shear Modulus (GPa) = 25.23804 29.95618 27.59711
#
# Velocity S-wave (km/s) = 3.55698 3.87523 3.71951
# Velocity P-wave (km/s) = 6.15950 7.12391 6.65919
#
# Compressibility (1/GPa) = 0.02379269
#
# Stress axis : x y z
#
# Youngs Moduli (GPa) = 77.16970 57.45839 70.89192
#
# Poissons Ratio (x) = 0.26039 0.06484
# Poissons Ratio (y) = 0.34972 0.34676
# Poissons Ratio (z) = 0.07058 0.28105
#
# Static dielectric constant tensor:
#      x y z
#    x 3.732880 0.075940 -0.078890 
#    y 0.075940 3.287050 0.274520 
#    z -0.078890 0.274520 3.944920 
# 
# 
# High freq. dielectric constant tensor:
#      x y z
#    x 1.784640 0.017850 -0.008760 
#    y 0.017850 1.738880 0.030760 
#    z -0.008760 0.030760 1.794730 
# 
# From -- ./inp_files/267726.got.cif
#   From: 2010.06.25/outbox.cif.g09.slc.cpg/sg2_134_cif.got.tgz:267726.got - 2010.06.27 13:26:56.
