data_PCOD8039279
_publ_section_title
;
Structure prediction by ZEFSAII (Michael W. Deem and Ramdas Pophale) SiO2 
 PCOD8039279
Probable space group: P -1
;
_chemical_formula_sum "Si O2"
_cell_formula_units_Z 14
_cell_length_a 9.825582
_cell_length_b 11.591947
_cell_length_c 9.523258
_cell_angle_alpha 120.485938
_cell_angle_beta 80.243069
_cell_angle_gamma 126.973202
_cell_volume 732.126173
_symmetry_space_group_name_H-M "P -1"
_symmetry_group_IT_number 2
_symmetry_cell_setting 'triclinic'
loop_
_space_group_symop_operation_xyz
x,y,z
-x,-y,-z
loop_
_atom_site_type_symbol
_atom_site_label
_atom_site_fract_x
_atom_site_fract_y
_atom_site_fract_z
Si Si1 0.251862 0.392564 0.959741
Si Si2 0.542884 0.728314 0.229316
Si Si3 0.893169 0.183129 0.788448
Si Si4 0.572683 0.241833 0.230814
Si Si5 0.696861 0.802925 0.552719
Si Si6 0.819670 0.596416 0.321103
Si Si7 0.473313 0.910949 0.147621
O O1 0.322737 0.282492 0.891900
O O2 0.300360 0.466596 0.837169
O O3 0.041986 0.276242 0.942717
O O4 0.349744 0.548685 0.146216
O O5 0.595658 0.774427 0.409110
O O6 0.540583 0.873751 0.249882
O O7 0.732018 0.178302 0.858644
O O8 0.977988 0.289247 0.692909
O O9 0.847595 0.001378 0.663094
O O10 0.435955 0.264587 0.336317
O O11 0.759923 0.426943 0.308597
O O12 0.584112 0.113561 0.243067
O O13 0.500114 0.161400 0.040475
O O14 0.784916 0.709219 0.488080
#
# Coordination Sequence:
#
# PCOD8039279 Si02
#       7
#     2   2   2   2   2   2   2
#     4   8  18  32  56  83 102 137 184 225 255 312
#     4  10  18  33  55  85 107 137 183 227 263 310
#     4   9  19  34  57  86 102 141 187 222 261 316
#     4  10  20  33  51  83 111 145 177 214 271 331
#     4  10  20  33  59  84 107 137 182 233 265 309
#     4   9  17  33  56  81 102 138 184 226 252 316
#     4  10  20  35  57  79 110 146 181 218 262 332
#
# _framework density 19.122388000000001
#
# number of rings (size 3 to 8) (size 9 to 14) (size 15 to 20)
#    0.857    1.714    1.429    0.857    0.000    4.571 
#    0.000    0.000    0.000   18.857    7.429    0.000 
#    0.000    0.000    0.000    0.000    0.000    0.000 
#
# Total GULP energy -173475.228632 kJ/mol
# GULP energy per Si atom -12391.087759 kJ/mol
# Density = 1.907886 g / cm^3
# Si number density = 19.122388 Si / 1000 Ang^3
#
#
#
# Elastic Constant Matrix: (Units=GPa)
#
#
# Indices 1 2 3 4 5 6 
#
# 1 72.1765 38.4664 14.8194 -5.0156 1.8520 -7.3676
# 2 38.4664 125.6850 20.0103 12.7742 -3.7392 7.0013
# 3 14.8194 20.0103 58.4361 -3.4759 -4.4057 -0.8546
# 4 -5.0156 12.7742 -3.4759 19.9894 9.9058 -5.3688
# 5 1.8520 -3.7392 -4.4057 9.9058 22.5677 2.7905
# 6 -7.3676 7.0013 -0.8546 -5.3688 2.7905 23.1629
#
#
#
# Elastic Compliance Matrix: (Units=1/GPa)
#
#
# Indices 1 2 3 4 5 6 
#
# 1 0.025451 -0.012279 -0.001696 0.029480 -0.019989 0.020986
# 2 -0.012279 0.016486 -0.003111 -0.027432 0.017330 -0.017450
# 3 -0.001696 -0.003111 0.019004 0.005020 0.000863 0.002162
# 4 0.029480 -0.027432 0.005020 0.123714 -0.067039 0.054605
# 5 -0.019989 0.017330 0.000863 -0.067039 0.083005 -0.037103
# 6 0.020986 -0.017450 0.002162 0.054605 -0.037103 0.072328
#
#
# Mechanical properties :
#
#
# Convention : Reuss Voigt Hill
#
# Bulk Modulus (GPa) = 37.36030 44.76552 41.06291
# Shear Modulus (GPa) = 13.05199 25.34410 19.19804
#
# Velocity S-wave (km/s) = 2.61540 3.64450 3.17196
# Velocity P-wave (km/s) = 5.35727 6.41644 5.91063
#
# Compressibility (1/GPa) = 0.02676638
#
# Stress axis : x y z
#
# Youngs Moduli (GPa) = 39.29110 60.65913 52.62168
#
# Poissons Ratio (x) = 0.74485 0.08926
# Poissons Ratio (y) = 0.48247 0.16373
# Poissons Ratio (z) = 0.06665 0.18874
#
# Static dielectric constant tensor:
#      x y z
#    x 3.240030 -0.016570 -0.162400 
#    y -0.016570 3.510170 0.143060 
#    z -0.162400 0.143060 3.339320 
# 
# 
# High freq. dielectric constant tensor:
#      x y z
#    x 1.718460 0.001230 -0.021640 
#    y 0.001230 1.740840 0.019660 
#    z -0.021640 0.019660 1.730620 
# 
# From -- ./inp_files/254931.got.cif
#   From: 2010.06.25/outbox.cif.g09.slc.cpg/sg2_128_cif.got.tgz:254931.got - 2010.06.27 13:26:56.
