data_PCOD8039631
_publ_section_title
;
Structure prediction by ZEFSAII (Michael W. Deem and Ramdas Pophale) SiO2 
 PCOD8039631
Probable space group: P -1
;
_chemical_formula_sum "Si O2"
_cell_formula_units_Z 16
_cell_length_a 10.240926
_cell_length_b 16.469246
_cell_length_c 10.106241
_cell_angle_alpha 145.354480
_cell_angle_beta 61.819895
_cell_angle_gamma 122.466980
_cell_volume 815.892884
_symmetry_space_group_name_H-M "P -1"
_symmetry_group_IT_number 2
_symmetry_cell_setting 'triclinic'
loop_
_space_group_symop_operation_xyz
x,y,z
-x,-y,-z
loop_
_atom_site_type_symbol
_atom_site_label
_atom_site_fract_x
_atom_site_fract_y
_atom_site_fract_z
Si Si1 0.633474 0.217111 0.663463
Si Si2 0.857384 0.816758 0.921057
Si Si3 0.171778 0.493556 0.380160
Si Si4 0.271459 0.154886 0.480190
Si Si5 0.379124 0.807684 0.670796
Si Si6 0.718227 0.961898 0.404617
Si Si7 0.679423 0.531879 0.000297
Si Si8 0.186026 0.012481 0.070700
O O1 0.667363 0.199078 0.469711
O O2 0.452573 0.148036 0.687285
O O3 0.730204 0.133400 0.593983
O O4 0.686108 0.394281 0.907773
O O5 0.798505 0.637800 0.720558
O O6 0.774759 0.858787 0.887523
O O7 0.827100 0.901307 0.178442
O O8 0.044062 0.875817 0.901607
O O9 0.289606 0.652555 0.578657
O O10 0.000000 0.500000 0.500000
O O11 0.204585 0.456446 0.163068
O O12 0.441067 0.168214 0.361510
O O13 0.230055 0.043319 0.475436
O O14 0.259723 0.317076 0.743075
O O15 0.154100 0.085555 0.323185
O O16 0.329866 0.946527 0.939395
O O17 0.500000 0.500000 0.000000
#
# Coordination Sequence:
#
# PCOD8039631 Si02
#       8
#     2   2   2   2   2   2   2   2
#     4   9  18  31  59  85 110 142 197 234 279 340
#     4  11  22  38  60  82 113 155 196 232 288 357
#     4  11  20  35  62  87 112 150 201 234 283 352
#     4  11  22  37  59  87 117 152 193 245 287 340
#     4  10  19  37  58  83 118 155 190 237 290 342
#     4  10  18  34  58  86 105 147 196 237 275 341
#     4  11  18  35  60  85 114 155 194 237 290 344
#     4  11  24  38  55  85 122 153 188 239 299 341
#
# _framework density 19.610417999999999
#
# number of rings (size 3 to 8) (size 9 to 14) (size 15 to 20)
#    0.000    1.500    7.500    0.375    0.000    0.500 
#    0.000    1.875    0.000    1.500    0.000    0.000 
#    0.000    0.000    0.000    0.000    0.000    0.000 
#
# Total GULP energy -198357.384981 kJ/mol
# GULP energy per Si atom -12397.336561 kJ/mol
# Density = 1.956578 g / cm^3
# Si number density = 19.610418 Si / 1000 Ang^3
#
#
#
# Elastic Constant Matrix: (Units=GPa)
#
#
# Indices 1 2 3 4 5 6 
#
# 1 36.5598 30.7693 29.2700 0.4050 -5.8433 -9.4054
# 2 30.7693 137.0743 43.1202 24.8382 -9.0885 -23.5295
# 3 29.2700 43.1202 102.3087 11.6659 -9.3427 -14.9987
# 4 0.4050 24.8382 11.6659 39.1206 -0.8331 -18.9404
# 5 -5.8433 -9.0885 -9.3427 -0.8331 33.0621 -2.8166
# 6 -9.4054 -23.5295 -14.9987 -18.9404 -2.8166 21.0471
#
#
#
# Elastic Compliance Matrix: (Units=1/GPa)
#
#
# Indices 1 2 3 4 5 6 
#
# 1 0.046966 -0.006430 -0.008512 0.018536 0.006752 0.025318
# 2 -0.006430 0.010865 -0.001402 -0.003996 0.001772 0.004915
# 3 -0.008512 -0.001402 0.013662 -0.001402 0.002225 0.003402
# 4 0.018536 -0.003996 -0.001402 0.053769 0.007585 0.052218
# 5 0.006752 0.001772 0.002225 0.007585 0.034280 0.017997
# 6 0.025318 0.004915 0.003402 0.052218 0.017997 0.116145
#
#
# Mechanical properties :
#
#
# Convention : Reuss Voigt Hill
#
# Bulk Modulus (GPa) = 25.76952 53.58463 39.67708
# Shear Modulus (GPa) = 15.56135 30.16485 22.86310
#
# Velocity S-wave (km/s) = 2.82001 3.92625 3.41818
# Velocity P-wave (km/s) = 4.87571 6.92371 5.98792
#
# Compressibility (1/GPa) = 0.03880554
#
# Stress axis : x y z
#
# Youngs Moduli (GPa) = 21.29209 92.03941 73.19549
#
# Poissons Ratio (x) = 0.59182 0.62304
# Poissons Ratio (y) = 0.13691 0.10259
# Poissons Ratio (z) = 0.18124 0.12900
#
# Static dielectric constant tensor:
#      x y z
#    x 3.232960 -0.046900 -0.282790 
#    y -0.046900 3.962080 0.178950 
#    z -0.282790 0.178950 3.635810 
# 
# 
# High freq. dielectric constant tensor:
#      x y z
#    x 1.727210 0.002220 -0.031460 
#    y 0.002220 1.778990 0.005750 
#    z -0.031460 0.005750 1.762630 
# 
# From -- ./inp_files/274592.got.cif
#   From: 2010.06.25/outbox.cif.g09.slc.cpg/sg2_138_cif.got.tgz:274592.got - 2010.06.27 13:26:56.
