data_PCOD8039962
_publ_section_title
;
Structure prediction by ZEFSAII (Michael W. Deem and Ramdas Pophale) SiO2 
 PCOD8039962
Probable space group: P -1
;
_chemical_formula_sum "Si O2"
_cell_formula_units_Z 16
_cell_length_a 15.524673
_cell_length_b 26.355394
_cell_length_c 11.463265
_cell_angle_alpha 26.753566
_cell_angle_beta 136.003231
_cell_angle_gamma 153.957750
_cell_volume 841.440759
_symmetry_space_group_name_H-M "P -1"
_symmetry_group_IT_number 2
_symmetry_cell_setting 'triclinic'
loop_
_space_group_symop_operation_xyz
x,y,z
-x,-y,-z
loop_
_atom_site_type_symbol
_atom_site_label
_atom_site_fract_x
_atom_site_fract_y
_atom_site_fract_z
Si Si1 0.732135 0.174245 0.222818
Si Si2 0.250390 0.871104 0.408520
Si Si3 0.837248 0.497328 0.635276
Si Si4 0.756159 0.744378 0.488637
Si Si5 0.392572 0.542284 0.699828
Si Si6 0.410954 0.223086 0.917034
Si Si7 0.493361 0.375423 0.106760
Si Si8 0.762994 0.951685 0.646482
O O1 0.808798 0.227839 0.321815
O O2 0.473527 0.984051 0.349529
O O3 0.808720 0.119376 0.342336
O O4 0.839146 0.365237 0.879673
O O5 0.070034 0.709659 0.469284
O O6 0.270185 0.020178 0.135690
O O7 0.787976 0.524786 0.410143
O O8 0.662430 0.396276 0.772917
O O9 0.629380 0.734599 0.474513
O O10 0.684203 0.728328 0.320841
O O11 0.677938 0.557739 0.822014
O O12 0.011455 0.946577 0.335258
O O13 0.398567 0.592053 0.736123
O O14 0.338438 0.367202 0.005816
O O15 0.387685 0.196943 0.086876
O O16 0.356616 0.173773 0.330408
#
# Coordination Sequence:
#
# PCOD8039962 Si02
#       8
#     2   2   2   2   2   2   2   2
#     4   9  20  34  47  83 108 132 184 206 244 329
#     4   9  18  33  55  73 107 146 169 215 254 297
#     4  10  18  35  60  75 102 146 171 218 260 293
#     4   9  19  34  52  77 107 138 169 215 259 318
#     4   8  19  40  54  79 100 128 192 224 240 314
#     4   9  20  32  48  87 111 124 182 211 248 332
#     4   9  20  38  53  76 108 135 174 225 258 298
#     4  11  21  32  53  77 113 144 159 209 275 314
#
# _framework density 19.015004999999999
#
# number of rings (size 3 to 8) (size 9 to 14) (size 15 to 20)
#    0.750    2.000    0.000    1.500    1.750    4.000 
#    0.000    0.625    0.000    1.500    0.000    0.000 
#    0.000    0.000    0.000    0.000    0.000    0.000 
#
# Total GULP energy -198314.523910 kJ/mol
# GULP energy per Si atom -12394.657744 kJ/mol
# Density = 1.897173 g / cm^3
# Si number density = 19.015005 Si / 1000 Ang^3
#
#
#
# Elastic Constant Matrix: (Units=GPa)
#
#
# Indices 1 2 3 4 5 6 
#
# 1 47.7363 39.4361 13.8526 0.5815 9.2404 -9.1498
# 2 39.4361 135.2057 42.3396 7.7777 9.3450 -11.4217
# 3 13.8526 42.3396 52.0480 10.3651 6.0166 -7.7882
# 4 0.5815 7.7777 10.3651 27.8159 -0.6063 0.9101
# 5 9.2404 9.3450 6.0166 -0.6063 12.1958 -5.4782
# 6 -9.1498 -11.4217 -7.7882 0.9101 -5.4782 22.8250
#
#
#
# Elastic Compliance Matrix: (Units=1/GPa)
#
#
# Indices 1 2 3 4 5 6 
#
# 1 0.031229 -0.007783 0.000396 0.000873 -0.015614 0.004977
# 2 -0.007783 0.012094 -0.007698 -0.000352 0.000621 0.000468
# 3 0.000396 -0.007698 0.028633 -0.008831 -0.006813 0.004793
# 4 0.000873 -0.000352 -0.008831 0.039528 0.004424 -0.003354
# 5 -0.015614 0.000621 -0.006813 0.004424 0.104390 0.016605
# 6 0.004977 0.000468 0.004793 -0.003354 0.016605 0.051795
#
#
# Mechanical properties :
#
#
# Convention : Reuss Voigt Hill
#
# Bulk Modulus (GPa) = 23.93210 47.36072 35.64641
# Shear Modulus (GPa) = 16.03749 21.85811 18.94780
#
# Velocity S-wave (km/s) = 2.90731 3.39413 3.16011
# Velocity P-wave (km/s) = 4.88704 6.34990 5.66588
#
# Compressibility (1/GPa) = 0.04178489
#
# Stress axis : x y z
#
# Youngs Moduli (GPa) = 32.02133 82.68643 34.92425
#
# Poissons Ratio (x) = 0.64357 -0.01382
# Poissons Ratio (y) = 0.24923 0.26885
# Poissons Ratio (z) = -0.01267 0.63653
#
# Static dielectric constant tensor:
#      x y z
#    x 3.197250 0.068380 0.037750 
#    y 0.068380 3.238970 0.180950 
#    z 0.037750 0.180950 3.453680 
# 
# 
# High freq. dielectric constant tensor:
#      x y z
#    x 1.703390 0.005180 0.003280 
#    y 0.005180 1.731030 0.010710 
#    z 0.003280 0.010710 1.732110 
# 
# From -- ./inp_files/467644.got.cif
#   From: 2010.06.25/outbox.cif.g09.slc.cpg/sg2_234_cif.got.tgz:467644.got - 2010.06.27 13:26:56.
