data_PCOD8039326
_publ_section_title
;
Structure prediction by ZEFSAII (Michael W. Deem and Ramdas Pophale) SiO2 
 PCOD8039326
Probable space group: P -1
;
_chemical_formula_sum "Si O2"
_cell_formula_units_Z 16
_cell_length_a 14.807685
_cell_length_b 9.841479
_cell_length_c 13.476623
_cell_angle_alpha 35.709378
_cell_angle_beta 136.191992
_cell_angle_gamma 138.302518
_cell_volume 728.070437
_symmetry_space_group_name_H-M "P -1"
_symmetry_group_IT_number 2
_symmetry_cell_setting 'triclinic'
loop_
_space_group_symop_operation_xyz
x,y,z
-x,-y,-z
loop_
_atom_site_type_symbol
_atom_site_label
_atom_site_fract_x
_atom_site_fract_y
_atom_site_fract_z
Si Si1 0.833577 0.091982 0.250524
Si Si2 0.144565 0.393208 0.353405
Si Si3 0.670545 0.288901 0.525583
Si Si4 0.611254 0.321867 0.976882
Si Si5 0.342100 0.463637 0.919649
Si Si6 0.687089 0.790716 0.138074
Si Si7 0.364853 0.965305 0.546773
Si Si8 0.368670 0.440702 0.356544
O O1 0.981680 0.336817 0.231927
O O2 0.835345 0.864206 0.453778
O O3 0.813309 0.005822 0.170059
O O4 0.703290 0.153986 0.147939
O O5 0.193218 0.592963 0.364158
O O6 0.245201 0.507439 0.270172
O O7 0.638995 0.512546 0.315164
O O8 0.699518 0.114423 0.568029
O O9 0.535582 0.116720 0.586060
O O10 0.456829 0.153285 0.003819
O O11 0.581858 0.392914 0.801670
O O12 0.687177 0.567526 0.965989
O O13 0.254307 0.224839 0.918626
O O14 0.317776 0.715210 0.724019
O O15 0.500000 0.500000 0.000000
O O16 0.301369 0.146889 0.442548
O O17 0.500000 0.500000 0.500000
#
# Coordination Sequence:
#
# PCOD8039326 Si02
#       8
#     2   2   2   2   2   2   2   2
#     4  10  21  37  61  80 116 153 186 235 283 330
#     4  10  21  39  56  84 115 152 191 229 282 340
#     4   9  17  33  58  82 110 145 190 228 277 336
#     4  11  21  36  56  86 115 144 189 240 279 335
#     4   9  20  33  55  85 115 140 182 237 283 330
#     4   9  17  36  56  87 110 145 191 233 278 331
#     4  10  18  33  57  83 110 148 182 233 286 327
#     4  12  22  36  59  85 115 145 187 235 285 341
#
# _framework density 21.975895999999999
#
# number of rings (size 3 to 8) (size 9 to 14) (size 15 to 20)
#    0.000    2.000    2.500    1.875    1.750    2.500 
#    0.000    1.250    0.000    7.500    0.000    0.000 
#    0.000    0.000    0.000    0.000    0.000    0.000 
#
# Total GULP energy -198260.600495 kJ/mol
# GULP energy per Si atom -12391.287531 kJ/mol
# Density = 2.192588 g / cm^3
# Si number density = 21.975896 Si / 1000 Ang^3
#
#
#
# Elastic Constant Matrix: (Units=GPa)
#
#
# Indices 1 2 3 4 5 6 
#
# 1 61.5988 51.2214 16.0949 14.3121 -7.5241 -23.2419
# 2 51.2214 170.3758 21.8764 24.7599 3.2385 -27.3942
# 3 16.0949 21.8764 47.0308 10.3795 8.6378 -8.3866
# 4 14.3121 24.7599 10.3795 24.8471 -8.0815 -3.8135
# 5 -7.5241 3.2385 8.6378 -8.0815 25.0111 3.0852
# 6 -23.2419 -27.3942 -8.3866 -3.8135 3.0852 39.4420
#
#
#
# Elastic Compliance Matrix: (Units=1/GPa)
#
#
# Indices 1 2 3 4 5 6 
#
# 1 0.028469 -0.005743 -0.006044 -0.003643 0.008929 0.010452
# 2 -0.005743 0.009193 0.001094 -0.007874 -0.006205 0.002958
# 3 -0.006044 0.001094 0.030119 -0.015437 -0.017782 0.003501
# 4 -0.003643 -0.007874 -0.015437 0.064343 0.026882 -0.006780
# 5 0.008929 -0.006205 -0.017782 0.026882 0.058895 -0.004837
# 6 0.010452 0.002958 0.003501 -0.006780 -0.004837 0.034034
#
#
# Mechanical properties :
#
#
# Convention : Reuss Voigt Hill
#
# Bulk Modulus (GPa) = 21.55332 50.82119 36.18726
# Shear Modulus (GPa) = 19.09098 30.51420 24.80259
#
# Velocity S-wave (km/s) = 2.95061 3.73034 3.36315
# Velocity P-wave (km/s) = 4.63002 6.45988 5.61993
#
# Compressibility (1/GPa) = 0.04639656
#
# Stress axis : x y z
#
# Youngs Moduli (GPa) = 35.12589 108.77569 33.20153
#
# Poissons Ratio (x) = 0.62466 0.20066
# Poissons Ratio (y) = 0.20172 -0.03632
# Poissons Ratio (z) = 0.21229 -0.11899
#
# Static dielectric constant tensor:
#      x y z
#    x 3.943430 -0.711170 -0.094190 
#    y -0.711170 4.572040 0.174590 
#    z -0.094190 0.174590 3.877260 
# 
# 
# High freq. dielectric constant tensor:
#      x y z
#    x 1.831040 -0.050110 -0.006140 
#    y -0.050110 1.870090 0.004370 
#    z -0.006140 0.004370 1.845040 
# 
# From -- ./inp_files/389710.got.cif
#   From: 2010.06.25/outbox.cif.g09.slc.cpg/sg2_195_cif.got.tgz:389710.got - 2010.06.27 13:26:56.
