data_PCOD8039944
_publ_section_title
;
Structure prediction by ZEFSAII (Michael W. Deem and Ramdas Pophale) SiO2 
 PCOD8039944
Probable space group: P -1
;
_chemical_formula_sum "Si O2"
_cell_formula_units_Z 14
_cell_length_a 8.335324
_cell_length_b 9.065504
_cell_length_c 20.857881
_cell_angle_alpha 55.756622
_cell_angle_beta 148.990591
_cell_angle_gamma 116.643149
_cell_volume 669.098591
_symmetry_space_group_name_H-M "P -1"
_symmetry_group_IT_number 2
_symmetry_cell_setting 'triclinic'
loop_
_space_group_symop_operation_xyz
x,y,z
-x,-y,-z
loop_
_atom_site_type_symbol
_atom_site_label
_atom_site_fract_x
_atom_site_fract_y
_atom_site_fract_z
Si Si1 0.601897 0.692898 0.343576
Si Si2 0.974332 0.590717 0.382062
Si Si3 0.058627 0.443608 0.225981
Si Si4 0.037738 0.666868 0.925260
Si Si5 0.264266 0.954314 0.250061
Si Si6 0.261335 0.306675 0.856147
Si Si7 0.480782 0.165541 0.498868
O O1 0.670614 0.682568 0.293578
O O2 0.326364 0.575126 0.297141
O O3 0.481478 0.892284 0.278198
O O4 0.920988 0.610670 0.508246
O O5 0.895724 0.577908 0.284067
O O6 0.248733 0.715231 0.460115
O O7 0.144419 0.271811 0.343045
O O8 0.033309 0.390488 0.156885
O O9 0.751268 0.559034 0.119547
O O10 0.377833 0.743332 0.024333
O O11 0.795083 0.830860 0.824095
O O12 0.000000 0.500000 0.000000
O O13 0.475539 0.890959 0.398767
O O14 0.926744 0.869830 0.155071
O O15 0.500000 0.000000 0.500000
#
# Coordination Sequence:
#
# PCOD8039944 Si02
#       7
#     2   2   2   2   2   2   2
#     4   9  18  36  60  86 113 145 187 233 287 339
#     4   9  18  34  60  85 114 145 183 234 286 334
#     4  10  20  37  62  83 112 147 189 235 285 332
#     4  12  24  39  55  83 122 153 185 238 283 329
#     4  10  21  39  61  85 111 151 195 230 278 340
#     4  10  21  39  60  82 108 156 197 226 273 345
#     4  10  18  35  59  86 112 140 183 239 284 329
#
# _framework density 20.923670999999999
#
# number of rings (size 3 to 8) (size 9 to 14) (size 15 to 20)
#    0.000    2.000    1.429    2.571    0.000    3.429 
#    2.571    8.571    0.000    0.000    0.000    0.000 
#    0.000    0.000    0.000    0.000    0.000    0.000 
#
# Total GULP energy -173503.025818 kJ/mol
# GULP energy per Si atom -12393.073273 kJ/mol
# Density = 2.087605 g / cm^3
# Si number density = 20.923671 Si / 1000 Ang^3
#
#
#
# Elastic Constant Matrix: (Units=GPa)
#
#
# Indices 1 2 3 4 5 6 
#
# 1 92.9186 39.4244 27.4853 -17.8786 4.8688 -23.2118
# 2 39.4244 93.5692 40.3145 -21.2159 -7.8130 -31.5126
# 3 27.4853 40.3145 78.1455 -14.0399 -7.7091 -9.3271
# 4 -17.8786 -21.2159 -14.0399 31.6467 -1.4769 -0.3643
# 5 4.8688 -7.8130 -7.7091 -1.4769 24.8965 -4.1906
# 6 -23.2118 -31.5126 -9.3271 -0.3643 -4.1906 32.7285
#
#
#
# Elastic Compliance Matrix: (Units=1/GPa)
#
#
# Indices 1 2 3 4 5 6 
#
# 1 0.015806 -0.000806 -0.002978 0.007069 -0.002269 0.009373
# 2 -0.000806 0.026728 -0.006627 0.015351 0.011600 0.024931
# 3 -0.002978 -0.006627 0.017578 0.001804 0.003546 -0.003010
# 4 0.007069 0.015351 0.001804 0.047432 0.010542 0.022186
# 5 -0.002269 0.011600 0.003546 0.010542 0.048825 0.016939
# 6 0.009373 0.024931 -0.003010 0.022186 0.016939 0.062764
#
#
# Mechanical properties :
#
#
# Convention : Reuss Voigt Hill
#
# Bulk Modulus (GPa) = 25.45312 53.23131 39.34221
# Shear Modulus (GPa) = 19.75883 28.34828 24.05355
#
# Velocity S-wave (km/s) = 3.07633 3.68481 3.39423
# Velocity P-wave (km/s) = 4.98092 6.60301 5.84847
#
# Compressibility (1/GPa) = 0.03928792
#
# Stress axis : x y z
#
# Youngs Moduli (GPa) = 63.26812 37.41415 56.89048
#
# Poissons Ratio (x) = 0.03017 0.16943
# Poissons Ratio (y) = 0.05102 0.37702
# Poissons Ratio (z) = 0.18843 0.24795
#
# Static dielectric constant tensor:
#      x y z
#    x 7.060930 -0.071130 -1.264080 
#    y -0.071130 3.741550 -0.116950 
#    z -1.264080 -0.116950 4.435690 
# 
# 
# High freq. dielectric constant tensor:
#      x y z
#    x 1.814870 -0.022350 0.002980 
#    y -0.022350 1.811160 -0.002340 
#    z 0.002980 -0.002340 1.813600 
# 
# From -- ./inp_files/159130.got.cif
#   From: 2010.06.25/outbox.cif.g09.slc.cpg/sg2_80_cif.got.tgz:159130.got - 2010.06.27 13:26:56.
