data_PCOD8039344
_publ_section_title
;
Structure prediction by ZEFSAII (Michael W. Deem and Ramdas Pophale) SiO2 
 PCOD8039344
Probable space group: P -1
;
_chemical_formula_sum "Si O2"
_cell_formula_units_Z 14
_cell_length_a 12.736143
_cell_length_b 8.091945
_cell_length_c 13.987594
_cell_angle_alpha 44.609651
_cell_angle_beta 46.613701
_cell_angle_gamma 45.653623
_cell_volume 670.578371
_symmetry_space_group_name_H-M "P -1"
_symmetry_group_IT_number 2
_symmetry_cell_setting 'triclinic'
loop_
_space_group_symop_operation_xyz
x,y,z
-x,-y,-z
loop_
_atom_site_type_symbol
_atom_site_label
_atom_site_fract_x
_atom_site_fract_y
_atom_site_fract_z
Si Si1 0.676339 0.825148 0.931842
Si Si2 0.796797 0.895780 0.635708
Si Si3 0.852108 0.026637 0.873806
Si Si4 0.830478 0.845141 0.156555
Si Si5 0.145859 0.740936 0.915412
Si Si6 0.178844 0.451793 0.395937
Si Si7 0.173205 0.600282 0.545166
O O1 0.696997 0.815775 0.809135
O O2 0.799293 0.938480 0.845989
O O3 0.719602 0.544026 0.067051
O O4 0.500000 0.000000 0.000000
O O5 0.740122 0.821954 0.599256
O O6 0.984339 0.737048 0.597012
O O7 0.754801 0.200554 0.545702
O O8 0.809696 0.328867 0.770627
O O9 0.761145 0.964780 0.046314
O O10 0.043090 0.859082 0.834470
O O11 0.771269 0.073463 0.178421
O O12 0.776384 0.623017 0.313833
O O13 0.023786 0.730024 0.078862
O O14 0.249970 0.466799 0.450073
O O15 0.000000 0.500000 0.500000
#
# Coordination Sequence:
#
# PCOD8039344 Si02
#       7
#     2   2   2   2   2   2   2
#     4  12  23  37  56  87 127 163 199 238 291 368
#     4  10  19  34  53  83 122 149 194 245 295 343
#     4  10  19  36  57  89 116 151 200 252 290 348
#     4   9  18  34  60  84 120 142 196 256 302 341
#     4   9  18  34  57  82 118 145 195 249 296 335
#     4  10  19  31  58  91 119 144 195 254 311 340
#     4  10  18  33  57  90 117 146 191 255 303 346
#
# _framework density 20.877500999999999
#
# number of rings (size 3 to 8) (size 9 to 14) (size 15 to 20)
#    0.857    1.143    2.857    3.000    0.000    0.000 
#    2.571    2.857    0.000    1.714    0.000    0.000 
#    0.000    0.000    0.000    0.000    0.000    0.000 
#
# Total GULP energy -173469.884291 kJ/mol
# GULP energy per Si atom -12390.706021 kJ/mol
# Density = 2.082998 g / cm^3
# Si number density = 20.877501 Si / 1000 Ang^3
#
#
#
# Elastic Constant Matrix: (Units=GPa)
#
#
# Indices 1 2 3 4 5 6 
#
# 1 47.1726 46.4883 28.2859 -3.6403 12.4707 30.4513
# 2 46.4883 98.7666 31.3805 -11.5766 -3.2078 31.4773
# 3 28.2859 31.3805 100.0434 -23.0912 19.3335 16.1227
# 4 -3.6403 -11.5766 -23.0912 38.2223 6.9585 -4.2521
# 5 12.4707 -3.2078 19.3335 6.9585 18.6450 1.1168
# 6 30.4513 31.4773 16.1227 -4.2521 1.1168 36.6133
#
#
#
# Elastic Compliance Matrix: (Units=1/GPa)
#
#
# Indices 1 2 3 4 5 6 
#
# 1 0.155998 -0.054009 0.019035 0.025703 -0.137900 -0.084501
# 2 -0.054009 0.034274 -0.011676 -0.010205 0.056878 0.017675
# 3 0.019035 -0.011676 0.023649 0.019504 -0.045789 -0.012545
# 4 0.025703 -0.010205 0.019504 0.045814 -0.055420 -0.014181
# 5 -0.137900 0.056878 -0.045789 -0.055420 0.219455 0.072825
# 6 -0.084501 0.017675 -0.012545 -0.014181 0.072825 0.084052
#
#
# Mechanical properties :
#
#
# Convention : Reuss Voigt Hill
#
# Bulk Modulus (GPa) = 8.29059 50.92135 29.60597
# Shear Modulus (GPa) = 7.17617 28.01799 17.59708
#
# Velocity S-wave (km/s) = 1.85600 3.66733 2.90638
# Velocity P-wave (km/s) = 2.92791 6.50968 5.04721
#
# Compressibility (1/GPa) = 0.12061874
#
# Stress axis : x y z
#
# Youngs Moduli (GPa) = 6.41035 29.17628 42.28590
#
# Poissons Ratio (x) = 1.57579 -0.80489
# Poissons Ratio (y) = 0.34622 0.49373
# Poissons Ratio (z) = -0.12202 0.34067
#
# Static dielectric constant tensor:
#      x y z
#    x 3.509630 0.540810 0.221040 
#    y 0.540810 3.695640 -0.175740 
#    z 0.221040 -0.175740 3.657190 
# 
# 
# High freq. dielectric constant tensor:
#      x y z
#    x 1.779760 0.048340 0.016980 
#    y 0.048340 1.794170 -0.025330 
#    z 0.016980 -0.025330 1.807560 
# 
# From -- ./inp_files/529268.got.cif
#   From: 2010.06.25/outbox.cif.g09.slc.cpg/sg2_265_cif.got.tgz:529268.got - 2010.06.27 13:26:56.
