data_PCOD8039146
_publ_section_title
;
Structure prediction by ZEFSAII (Michael W. Deem and Ramdas Pophale) SiO2 
 PCOD8039146
Probable space group: P -1
;
_chemical_formula_sum "Si O2"
_cell_formula_units_Z 16
_cell_length_a 19.377296
_cell_length_b 23.805230
_cell_length_c 13.954775
_cell_angle_alpha 25.137983
_cell_angle_beta 26.123479
_cell_angle_gamma 17.570835
_cell_volume 794.524283
_symmetry_space_group_name_H-M "P -1"
_symmetry_group_IT_number 2
_symmetry_cell_setting 'triclinic'
loop_
_space_group_symop_operation_xyz
x,y,z
-x,-y,-z
loop_
_atom_site_type_symbol
_atom_site_label
_atom_site_fract_x
_atom_site_fract_y
_atom_site_fract_z
Si Si1 0.627298 0.646749 0.273879
Si Si2 0.289836 0.035444 0.193774
Si Si3 0.727318 0.319464 0.731099
Si Si4 0.275554 0.711771 0.995287
Si Si5 0.944136 0.476681 0.963149
Si Si6 0.751586 0.006029 0.151994
Si Si7 0.374067 0.110876 0.344548
Si Si8 0.246631 0.010540 0.500934
O O1 0.557103 0.543331 0.558572
O O2 0.836274 0.585031 0.168663
O O3 0.372449 0.883606 0.240253
O O4 0.720186 0.586505 0.142369
O O5 0.282612 0.965166 0.413589
O O6 0.046624 0.272245 0.108551
O O7 0.500000 0.000000 0.000000
O O8 0.760147 0.306437 0.823453
O O9 0.650358 0.220512 0.949887
O O10 0.970677 0.211898 0.546327
O O11 0.500000 0.500000 0.000000
O O12 0.329786 0.831861 0.733415
O O13 0.035324 0.827945 0.057462
O O14 0.827867 0.646526 0.765569
O O15 0.631259 0.007012 0.211342
O O16 0.688658 0.972096 0.381119
O O17 0.381326 0.052754 0.314810
#
# Coordination Sequence:
#
# PCOD8039146 Si02
#       8
#     2   2   2   2   2   2   2   2
#     4  10  18  32  58  85 117 144 198 245 284 334
#     4  10  20  31  54  93 115 145 200 245 286 336
#     4  11  18  37  59  86 111 149 199 239 292 340
#     4  11  21  35  58  87 113 147 197 244 292 339
#     4  10  18  33  54  84 113 157 188 239 292 336
#     4  10  22  36  58  85 111 156 191 239 293 352
#     4  11  19  36  60  80 118 152 197 232 293 357
#     4  11  18  34  59  84 113 150 193 244 282 344
#
# _framework density 20.137837000000001
#
# number of rings (size 3 to 8) (size 9 to 14) (size 15 to 20)
#    0.000    1.500    5.000    3.000    0.000    1.000 
#    0.000    1.250    8.250    0.750    0.000    0.000 
#    0.000    0.000    0.000    0.000    0.000    0.000 
#
# Total GULP energy -198231.552424 kJ/mol
# GULP energy per Si atom -12389.472027 kJ/mol
# Density = 2.009200 g / cm^3
# Si number density = 20.137837 Si / 1000 Ang^3
#
#
#
# Elastic Constant Matrix: (Units=GPa)
#
#
# Indices 1 2 3 4 5 6 
#
# 1 46.3930 28.1450 18.9586 1.6475 -16.7085 -1.5962
# 2 28.1450 136.1022 44.7351 -14.2918 -12.2317 19.4120
# 3 18.9586 44.7351 104.4980 -16.3344 -5.1908 7.0162
# 4 1.6475 -14.2918 -16.3344 36.2921 5.5731 1.1864
# 5 -16.7085 -12.2317 -5.1908 5.5731 22.0702 2.6215
# 6 -1.5962 19.4120 7.0162 1.1864 2.6215 19.9502
#
#
#
# Elastic Compliance Matrix: (Units=1/GPa)
#
#
# Indices 1 2 3 4 5 6 
#
# 1 0.036919 -0.005911 -0.005067 -0.010406 0.025184 0.007797
# 2 -0.005911 0.011534 -0.002423 0.003824 0.001724 -0.011298
# 3 -0.005067 -0.002423 0.012360 0.005431 -0.003373 -0.002274
# 4 -0.010406 0.003824 0.005431 0.034086 -0.012272 -0.006878
# 5 0.025184 0.001724 -0.003373 -0.012272 0.068437 -0.006739
# 6 0.007797 -0.011298 -0.002274 -0.006878 -0.006739 0.063836
#
#
# Mechanical properties :
#
#
# Convention : Reuss Voigt Hill
#
# Bulk Modulus (GPa) = 29.40150 52.29673 40.84912
# Shear Modulus (GPa) = 18.84572 28.67281 23.75927
#
# Velocity S-wave (km/s) = 3.06246 3.77746 3.43859
# Velocity P-wave (km/s) = 5.20929 6.71203 6.00783
#
# Compressibility (1/GPa) = 0.03401187
#
# Stress axis : x y z
#
# Youngs Moduli (GPa) = 27.08609 86.69945 80.90379
#
# Poissons Ratio (x) = 0.51245 0.40993
# Poissons Ratio (y) = 0.16010 0.19606
# Poissons Ratio (z) = 0.13724 0.21011
#
# Static dielectric constant tensor:
#      x y z
#    x 3.193100 0.182690 -0.045470 
#    y 0.182690 4.256850 -0.375930 
#    z -0.045470 -0.375930 3.833680 
# 
# 
# High freq. dielectric constant tensor:
#      x y z
#    x 1.735310 0.009810 0.006570 
#    y 0.009810 1.779070 -0.019360 
#    z 0.006570 -0.019360 1.807310 
# 
# From -- ./inp_files/258539.got.cif
#   From: 2010.06.25/outbox.cif.g09.slc.cpg/sg2_130_cif.got.tgz:258539.got - 2010.06.27 13:26:56.
