data_PCOD8039808
_publ_section_title
;
Structure prediction by ZEFSAII (Michael W. Deem and Ramdas Pophale) SiO2 
 PCOD8039808
Probable space group: P -1
;
_chemical_formula_sum "Si O2"
_cell_formula_units_Z 16
_cell_length_a 23.651231
_cell_length_b 14.559966
_cell_length_c 11.904287
_cell_angle_alpha 150.819330
_cell_angle_beta 31.492908
_cell_angle_gamma 151.013863
_cell_volume 897.256095
_symmetry_space_group_name_H-M "P -1"
_symmetry_group_IT_number 2
_symmetry_cell_setting 'triclinic'
loop_
_space_group_symop_operation_xyz
x,y,z
-x,-y,-z
loop_
_atom_site_type_symbol
_atom_site_label
_atom_site_fract_x
_atom_site_fract_y
_atom_site_fract_z
Si Si1 0.273028 0.658556 0.175890
Si Si2 0.252375 0.611446 0.904613
Si Si3 0.084429 0.170117 0.944700
Si Si4 0.935230 0.133117 0.710466
Si Si5 0.079245 0.651751 0.631118
Si Si6 0.249826 0.178320 0.484952
Si Si7 0.546685 0.940057 0.968322
Si Si8 0.977523 0.476299 0.169356
O O1 0.221807 0.775028 0.472765
O O2 0.244824 0.690159 0.128160
O O3 0.197370 0.395954 0.049206
O O4 0.422246 0.773697 0.072501
O O5 0.288806 0.425373 0.652439
O O6 0.121168 0.529447 0.979038
O O7 0.360296 0.822255 0.878055
O O8 0.147101 0.079496 0.654664
O O9 0.982988 0.202206 0.078896
O O10 0.000000 0.000000 0.000000
O O11 0.031194 0.335803 0.683705
O O12 0.807861 0.972122 0.687369
O O13 0.898545 0.237916 0.988616
O O14 0.000000 0.000000 0.500000
O O15 0.073607 0.527897 0.623595
O O16 0.000000 0.500000 0.500000
O O17 0.375200 0.181882 0.316069
O O18 0.500000 0.000000 0.000000
#
# Coordination Sequence:
#
# PCOD8039808 Si02
#       8
#     2   2   2   2   2   2   2   2
#     4   9  20  34  50  80 115 148 184 215 278 348
#     4  10  18  35  54  82 110 145 189 226 282 332
#     4  10  21  29  53  84 113 147 180 223 292 339
#     4  11  22  34  58  84 114 144 191 240 288 328
#     4  10  18  35  55  77 119 146 179 228 289 349
#     4  11  21  36  56  80 117 143 190 242 272 337
#     4  10  22  34  55  78 113 158 190 225 279 334
#     4  11  20  35  56  87 111 147 186 233 291 343
#
# _framework density 17.832145000000001
#
# number of rings (size 3 to 8) (size 9 to 14) (size 15 to 20)
#    0.000    1.750    6.250    0.000    7.000    4.500 
#    0.000    0.000    0.000    0.750    0.000    1.750 
#    0.000    0.000    0.000    0.000    0.000    0.000 
#
# Total GULP energy -198213.354936 kJ/mol
# GULP energy per Si atom -12388.334684 kJ/mol
# Density = 1.779156 g / cm^3
# Si number density = 17.832145 Si / 1000 Ang^3
#
#
#
# Elastic Constant Matrix: (Units=GPa)
#
#
# Indices 1 2 3 4 5 6 
#
# 1 77.9747 30.5653 48.2541 -6.1988 -2.9166 -7.4122
# 2 30.5653 122.9886 52.2169 -10.0558 -4.0488 -1.6395
# 3 48.2541 52.2169 106.4471 -12.4093 -14.2983 1.7931
# 4 -6.1988 -10.0558 -12.4093 30.8595 -0.4700 -7.2466
# 5 -2.9166 -4.0488 -14.2983 -0.4700 35.8689 1.5607
# 6 -7.4122 -1.6395 1.7931 -7.2466 1.5607 27.0436
#
#
#
# Elastic Compliance Matrix: (Units=1/GPa)
#
#
# Indices 1 2 3 4 5 6 
#
# 1 0.019022 -0.001056 -0.008315 0.001567 -0.002138 0.006244
# 2 -0.001056 0.010462 -0.004587 0.001604 -0.000761 0.001123
# 3 -0.008315 -0.004587 0.016546 0.002817 0.005579 -0.003221
# 4 0.001567 0.001604 0.002817 0.036771 0.001473 0.010108
# 5 -0.002138 -0.000761 0.005579 0.001473 0.029964 -0.002337
# 6 0.006244 0.001123 -0.003221 0.010108 -0.002337 0.041814
#
#
# Mechanical properties :
#
#
# Convention : Reuss Voigt Hill
#
# Bulk Modulus (GPa) = 55.20747 63.27589 59.24168
# Shear Modulus (GPa) = 26.52031 30.51267 28.51649
#
# Velocity S-wave (km/s) = 3.86063 4.14104 4.00329
# Velocity P-wave (km/s) = 7.13438 7.64366 7.39340
#
# Compressibility (1/GPa) = 0.01811349
#
# Stress axis : x y z
#
# Youngs Moduli (GPa) = 52.56954 95.58305 60.43816
#
# Poissons Ratio (x) = 0.10097 0.50252
# Poissons Ratio (y) = 0.05553 0.27725
# Poissons Ratio (z) = 0.43710 0.43848
#
# Static dielectric constant tensor:
#      x y z
#    x 3.287040 0.085140 -0.134590 
#    y 0.085140 3.896060 -0.086800 
#    z -0.134590 -0.086800 3.600650 
# 
# 
# High freq. dielectric constant tensor:
#      x y z
#    x 1.670400 -0.005650 -0.013090 
#    y -0.005650 1.682680 0.011660 
#    z -0.013090 0.011660 1.679530 
# 
# From -- ./inp_files/470886.got.cif
#   From: 2010.06.25/outbox.cif.g09.slc.cpg/sg2_236_cif.got.tgz:470886.got - 2010.06.27 13:26:56.
