data_PCOD8039823
_publ_section_title
;
Structure prediction by ZEFSAII (Michael W. Deem and Ramdas Pophale) SiO2 
 PCOD8039823
Probable space group: P -1
;
_chemical_formula_sum "Si O2"
_cell_formula_units_Z 16
_cell_length_a 14.025408
_cell_length_b 14.418104
_cell_length_c 12.303324
_cell_angle_alpha 142.369170
_cell_angle_beta 132.998718
_cell_angle_gamma 28.460889
_cell_volume 723.063602
_symmetry_space_group_name_H-M "P -1"
_symmetry_group_IT_number 2
_symmetry_cell_setting 'triclinic'
loop_
_space_group_symop_operation_xyz
x,y,z
-x,-y,-z
loop_
_atom_site_type_symbol
_atom_site_label
_atom_site_fract_x
_atom_site_fract_y
_atom_site_fract_z
Si Si1 0.213381 0.640941 0.505671
Si Si2 0.905140 0.152481 0.746202
Si Si3 0.995612 0.323806 0.817334
Si Si4 0.648364 0.073704 0.721807
Si Si5 0.559066 0.887255 0.605223
Si Si6 0.891947 0.387975 0.373404
Si Si7 0.180631 0.771688 0.998772
Si Si8 0.369052 0.843350 0.581161
O O1 0.106063 0.611849 0.318856
O O2 0.152357 0.676039 0.615806
O O3 0.452827 0.412497 0.462031
O O4 0.124369 0.887358 0.637312
O O5 0.875344 0.338580 0.832021
O O6 0.739416 0.174525 0.603629
O O7 0.882457 0.205382 0.905355
O O8 0.216703 0.053334 0.742595
O O9 0.000000 0.500000 0.000000
O O10 0.550828 0.110488 0.569738
O O11 0.542134 0.083648 0.752244
O O12 0.637985 0.265486 0.903691
O O13 0.874535 0.811411 0.650183
O O14 0.796972 0.636865 0.553191
O O15 0.463899 0.912032 0.665037
O O16 0.768878 0.429129 0.210499
O O17 0.000000 0.000000 0.000000
#
# Coordination Sequence:
#
# PCOD8039823 Si02
#       8
#     2   2   2   2   2   2   2   2
#     4  10  20  41  70  93 119 167 209 259 311 369
#     4  11  21  43  66  91 124 171 209 253 315 366
#     4  11  26  45  65  92 126 161 209 268 319 371
#     4  10  18  35  55  82 129 159 202 245 292 366
#     4  10  20  34  58  89 120 168 197 247 308 359
#     4  10  20  37  59  89 126 163 204 244 306 366
#     4  10  19  38  61  91 128 161 206 254 293 374
#     4  10  21  42  67  93 124 160 217 256 307 380
#
# _framework density 22.128067000000001
#
# number of rings (size 3 to 8) (size 9 to 14) (size 15 to 20)
#    0.000    1.750    3.750    2.625    0.000    3.000 
#   15.750    0.000    0.000    0.000    0.000    0.000 
#    0.000    0.000    0.000    0.000    0.000    0.000 
#
# Total GULP energy -198211.471215 kJ/mol
# GULP energy per Si atom -12388.216951 kJ/mol
# Density = 2.207770 g / cm^3
# Si number density = 22.128067 Si / 1000 Ang^3
#
#
#
# Elastic Constant Matrix: (Units=GPa)
#
#
# Indices 1 2 3 4 5 6 
#
# 1 73.5180 27.4411 19.5101 27.4756 -9.7969 15.8099
# 2 27.4411 76.7555 37.5804 -7.0236 8.6416 -8.8707
# 3 19.5101 37.5804 64.1796 15.0164 -26.6498 19.6028
# 4 27.4756 -7.0236 15.0164 7.9649 18.8702 -1.9670
# 5 -9.7969 8.6416 -26.6498 18.8702 3.5045 8.0177
# 6 15.8099 -8.8707 19.6028 -1.9670 8.0177 22.5860
#
#
#
# Elastic Compliance Matrix: (Units=1/GPa)
#
#
# Indices 1 2 3 4 5 6 
#
# 1 0.015593 0.000467 -0.009811 -0.004427 -0.012656 0.001891
# 2 0.000467 0.011857 -0.001494 -0.009650 0.009155 0.001536
# 3 -0.009811 -0.001494 0.014036 0.017452 -0.005076 -0.002580
# 4 -0.004427 -0.009650 0.017452 0.031415 0.026359 -0.022459
# 5 -0.012656 0.009155 -0.005076 0.026359 0.016148 0.013424
# 6 0.001891 0.001536 -0.002580 -0.022459 0.013424 0.039073
#
#
# Mechanical properties :
#
#
# Convention : Reuss Voigt Hill
#
# Bulk Modulus (GPa) = 50.48127 42.61292 46.54709
# Shear Modulus (GPa) = 31.96948 15.47250 23.72099
#
# Velocity S-wave (km/s) = 3.80511 2.64715 3.27767
# Velocity P-wave (km/s) = 6.49368 5.35186 5.95022
#
# Compressibility (1/GPa) = 0.01980933
#
# Stress axis : x y z
#
# Youngs Moduli (GPa) = 64.13306 84.34083 71.24664
#
# Poissons Ratio (x) = -0.03941 0.69899
# Poissons Ratio (y) = -0.02997 0.10647
# Poissons Ratio (z) = 0.62920 0.12603
#
# Static dielectric constant tensor:
#      x y z
#    x 4.043060 0.044410 0.179750 
#    y 0.044410 4.331030 0.087030 
#    z 0.179750 0.087030 4.184110 
# 
# 
# High freq. dielectric constant tensor:
#      x y z
#    x 1.871520 0.006410 0.004790 
#    y 0.006410 1.884650 0.000000 
#    z 0.004790 0.000000 1.843030 
# 
# From -- ./inp_files/455087.got.cif
#   From: 2010.06.25/outbox.cif.g09.slc.cpg/sg2_228_cif.got.tgz:455087.got - 2010.06.27 13:26:56.
