data_PCOD8039636
_publ_section_title
;
Structure prediction by ZEFSAII (Michael W. Deem and Ramdas Pophale) SiO2 
 PCOD8039636
Probable space group: P -1
;
_chemical_formula_sum "Si O2"
_cell_formula_units_Z 16
_cell_length_a 9.112005
_cell_length_b 14.726693
_cell_length_c 9.620785
_cell_angle_alpha 68.007629
_cell_angle_beta 65.017826
_cell_angle_gamma 31.896058
_cell_volume 617.980471
_symmetry_space_group_name_H-M "P -1"
_symmetry_group_IT_number 2
_symmetry_cell_setting 'triclinic'
loop_
_space_group_symop_operation_xyz
x,y,z
-x,-y,-z
loop_
_atom_site_type_symbol
_atom_site_label
_atom_site_fract_x
_atom_site_fract_y
_atom_site_fract_z
Si Si1 0.135715 0.090353 0.044903
Si Si2 0.253090 0.188617 0.732311
Si Si3 0.287242 0.297058 0.069106
Si Si4 0.175966 0.509885 0.446232
Si Si5 0.849598 0.833554 0.705660
Si Si6 0.363617 0.340205 0.733223
Si Si7 0.027364 0.910603 0.414524
Si Si8 0.613116 0.226981 0.222275
O O1 0.147727 0.098808 0.199270
O O2 0.853353 0.168980 0.077957
O O3 0.110982 0.206941 0.911841
O O4 0.424091 0.892804 0.998914
O O5 0.349766 0.249590 0.698310
O O6 0.023354 0.301825 0.633792
O O7 0.526950 0.992103 0.684555
O O8 0.072167 0.317227 0.195603
O O9 0.364356 0.323410 0.157471
O O10 0.177859 0.416656 0.907418
O O11 0.242776 0.487283 0.597130
O O12 0.466401 0.364089 0.323658
O O13 0.000000 0.500000 0.500000
O O14 0.040793 0.792100 0.535855
O O15 0.686366 0.208443 0.718197
O O16 0.762694 0.057386 0.330023
O O17 0.000000 0.000000 0.500000
#
# Coordination Sequence:
#
# PCOD8039636 Si02
#       8
#     2   2   2   2   2   2   2   2
#     4  11  19  35  64  88 118 148 199 246 291 347
#     4  10  18  34  58  88 110 153 207 236 272 345
#     4  11  22  36  60  95 124 144 189 251 314 337
#     4  10  22  37  59  84 114 163 206 232 278 360
#     4  11  19  36  64  89 115 158 195 244 289 356
#     4  11  18  36  61  84 115 157 192 241 288 352
#     4  12  18  32  59  87 117 149 200 239 289 348
#     4  12  23  36  58  96 119 152 192 252 298 343
#
# _framework density 25.890785999999999
#
# number of rings (size 3 to 8) (size 9 to 14) (size 15 to 20)
#    0.000    1.000    7.500    1.875    0.000    1.000 
#    0.000    2.500    0.000    0.750    0.000    0.000 
#    0.000    0.000    0.000    0.000    0.000    0.000 
#
# Total GULP energy -198344.463242 kJ/mol
# GULP energy per Si atom -12396.528953 kJ/mol
# Density = 2.583186 g / cm^3
# Si number density = 25.890786 Si / 1000 Ang^3
#
#
#
# Elastic Constant Matrix: (Units=GPa)
#
#
# Indices 1 2 3 4 5 6 
#
# 1 71.2902 1.1860 48.5017 -6.5565 -13.4936 -1.6370
# 2 1.1860 51.3228 47.9223 -23.6854 0.6336 -3.0910
# 3 48.5017 47.9223 178.9404 -27.5458 -14.2640 -6.5589
# 4 -6.5565 -23.6854 -27.5458 57.4627 -5.6510 0.2742
# 5 -13.4936 0.6336 -14.2640 -5.6510 56.9511 -5.3575
# 6 -1.6370 -3.0910 -6.5589 0.2742 -5.3575 13.3915
#
#
#
# Elastic Compliance Matrix: (Units=1/GPa)
#
#
# Indices 1 2 3 4 5 6 
#
# 1 0.019010 0.006435 -0.006207 0.002159 0.003284 0.002039
# 2 0.006435 0.032234 -0.008688 0.009871 0.000337 0.003905
# 3 -0.006207 -0.008688 0.009896 0.000581 0.001410 0.002635
# 4 0.002159 0.009871 0.000581 0.022283 0.003098 0.003610
# 5 0.003284 0.000337 0.001410 0.003098 0.019845 0.009046
# 6 0.002039 0.003905 0.002635 0.003610 0.009046 0.080660
#
#
# Mechanical properties :
#
#
# Convention : Reuss Voigt Hill
#
# Bulk Modulus (GPa) = 22.61343 55.19703 38.90523
# Shear Modulus (GPa) = 23.19241 39.15729 31.17485
#
# Velocity S-wave (km/s) = 2.99620 3.89318 3.47377
# Velocity P-wave (km/s) = 4.55223 6.44784 5.58110
#
# Compressibility (1/GPa) = 0.04422151
#
# Stress axis : x y z
#
# Youngs Moduli (GPa) = 52.60345 31.02310 101.05169
#
# Poissons Ratio (x) = -0.19965 0.62726
# Poissons Ratio (y) = -0.33853 0.87789
# Poissons Ratio (z) = 0.32653 0.26951
#
# Static dielectric constant tensor:
#      x y z
#    x 4.364730 -0.373170 -0.185510 
#    y -0.373170 4.959220 -0.617860 
#    z -0.185510 -0.617860 5.533040 
# 
# 
# High freq. dielectric constant tensor:
#      x y z
#    x 2.001670 -0.020960 -0.016060 
#    y -0.020960 2.036160 -0.012180 
#    z -0.016060 -0.012180 2.065420 
# 
# From -- ./inp_files/206255.got.cif
#   From: 2010.06.25/outbox.cif.g09.slc.cpg/sg2_104_cif.got.tgz:206255.got - 2010.06.27 13:26:56.
