data_PCOD8039107
_publ_section_title
;
Structure prediction by ZEFSAII (Michael W. Deem and Ramdas Pophale) SiO2 
 PCOD8039107
Probable space group: P -1
;
_chemical_formula_sum "Si O2"
_cell_formula_units_Z 14
_cell_length_a 10.220238
_cell_length_b 11.887538
_cell_length_c 10.269995
_cell_angle_alpha 68.575766
_cell_angle_beta 36.525792
_cell_angle_gamma 68.301539
_cell_volume 684.750760
_symmetry_space_group_name_H-M "P -1"
_symmetry_group_IT_number 2
_symmetry_cell_setting 'triclinic'
loop_
_space_group_symop_operation_xyz
x,y,z
-x,-y,-z
loop_
_atom_site_type_symbol
_atom_site_label
_atom_site_fract_x
_atom_site_fract_y
_atom_site_fract_z
Si Si1 0.571592 0.560666 0.716651
Si Si2 0.700681 0.075980 0.826633
Si Si3 0.070327 0.304899 0.705129
Si Si4 0.166713 0.930256 0.557481
Si Si5 0.566877 0.901351 0.595434
Si Si6 0.226736 0.755274 0.826880
Si Si7 0.610855 0.326753 0.929654
O O1 0.798733 0.578079 0.452918
O O2 0.372744 0.621817 0.755467
O O3 0.554972 0.418553 0.812877
O O4 0.565710 0.632610 0.831204
O O5 0.792449 0.125036 0.596116
O O6 0.601943 0.189042 0.948766
O O7 0.914272 0.994703 0.755670
O O8 0.500000 0.000000 0.000000
O O9 0.218537 0.188244 0.579378
O O10 0.853547 0.343970 0.777224
O O11 0.010607 0.266232 0.916445
O O12 0.208943 0.821679 0.674835
O O13 0.350299 0.025161 0.379454
O O14 0.351238 0.829468 0.808793
O O15 0.500000 0.000000 0.500000
#
# Coordination Sequence:
#
# PCOD8039107 Si02
#       7
#     2   2   2   2   2   2   2
#     4   9  20  35  60  87 111 141 190 248 280 331
#     4  11  25  37  59  79 114 163 187 226 276 341
#     4  10  18  32  56  86 110 147 178 237 296 324
#     4  10  22  39  52  82 116 151 194 225 276 349
#     4   9  18  31  53  80 114 142 178 233 279 333
#     4   9  20  35  57  86 114 142 185 241 291 329
#     4  10  20  38  56  83 115 149 193 233 281 332
#
# _framework density 20.445395999999999
#
# number of rings (size 3 to 8) (size 9 to 14) (size 15 to 20)
#    0.000    2.286    1.429    0.429    6.000    5.714 
#    0.000    0.714    0.000    1.714    0.000    0.000 
#    0.000    0.000    0.000    0.000    0.000    0.000 
#
# Total GULP energy -173437.720066 kJ/mol
# GULP energy per Si atom -12388.408576 kJ/mol
# Density = 2.039886 g / cm^3
# Si number density = 20.445396 Si / 1000 Ang^3
#
#
#
# Elastic Constant Matrix: (Units=GPa)
#
#
# Indices 1 2 3 4 5 6 
#
# 1 72.9259 22.2740 18.8805 -5.0921 3.6305 -21.4008
# 2 22.2740 72.7654 19.2739 -4.8567 2.4813 -21.9411
# 3 18.8805 19.2739 103.8495 -14.7901 -3.2525 -7.5145
# 4 -5.0921 -4.8567 -14.7901 27.0987 -3.3006 8.1154
# 5 3.6305 2.4813 -3.2525 -3.3006 26.8643 -5.8075
# 6 -21.4008 -21.9411 -7.5145 8.1154 -5.8075 33.4549
#
#
#
# Elastic Compliance Matrix: (Units=1/GPa)
#
#
# Indices 1 2 3 4 5 6 
#
# 1 0.017711 -0.001922 -0.002359 -0.001293 -0.000551 0.009757
# 2 -0.001922 0.018024 -0.002448 -0.001561 0.000373 0.010485
# 3 -0.002359 -0.002448 0.011331 0.006075 0.002308 -0.001642
# 4 -0.001293 -0.001561 0.006075 0.043275 0.004153 -0.010263
# 5 -0.000551 0.000373 0.002308 0.004153 0.039403 0.006244
# 6 0.009757 0.010485 -0.001642 -0.010263 0.006244 0.046214
#
#
# Mechanical properties :
#
#
# Convention : Reuss Voigt Hill
#
# Bulk Modulus (GPa) = 29.75371 41.15530 35.45451
# Shear Modulus (GPa) = 24.92306 30.09107 27.50706
#
# Velocity S-wave (km/s) = 3.49521 3.84054 3.67194
# Velocity P-wave (km/s) = 5.55635 6.31184 5.94611
#
# Compressibility (1/GPa) = 0.03360925
#
# Stress axis : x y z
#
# Youngs Moduli (GPa) = 56.46308 55.48104 88.25249
#
# Poissons Ratio (x) = 0.10664 0.20815
# Poissons Ratio (y) = 0.10853 0.21602
# Poissons Ratio (z) = 0.13317 0.13580
#
# Static dielectric constant tensor:
#      x y z
#    x 3.684410 -0.186510 -0.131630 
#    y -0.186510 4.050450 -0.276040 
#    z -0.131630 -0.276040 3.854630 
# 
# 
# High freq. dielectric constant tensor:
#      x y z
#    x 1.780110 -0.036060 -0.005490 
#    y -0.036060 1.785700 -0.014730 
#    z -0.005490 -0.014730 1.807250 
# 
# From -- ./inp_files/186269.got.cif
#   From: 2010.06.25/outbox.cif.g09.slc.cpg/sg2_94_cif.got.tgz:186269.got - 2010.06.27 13:26:56.
