data_PCOD8039512
_publ_section_title
;
Structure prediction by ZEFSAII (Michael W. Deem and Ramdas Pophale) SiO2 
 PCOD8039512
Probable space group: P -1
;
_chemical_formula_sum "Si O2"
_cell_formula_units_Z 16
_cell_length_a 29.848883
_cell_length_b 14.417864
_cell_length_c 8.486449
_cell_angle_alpha 131.153485
_cell_angle_beta 41.120146
_cell_angle_gamma 159.123860
_cell_volume 839.387455
_symmetry_space_group_name_H-M "P -1"
_symmetry_group_IT_number 2
_symmetry_cell_setting 'triclinic'
loop_
_space_group_symop_operation_xyz
x,y,z
-x,-y,-z
loop_
_atom_site_type_symbol
_atom_site_label
_atom_site_fract_x
_atom_site_fract_y
_atom_site_fract_z
Si Si1 0.964317 0.075952 0.613358
Si Si2 0.355989 0.114415 0.014293
Si Si3 0.624686 0.084733 0.469006
Si Si4 0.706596 0.477994 0.256414
Si Si5 0.209635 0.564803 0.280819
Si Si6 0.138112 0.431888 0.820160
Si Si7 0.687512 0.682041 0.716330
Si Si8 0.144474 0.652112 0.280970
O O1 0.064453 0.285389 0.439858
O O2 0.996791 0.206467 0.829405
O O3 0.000000 0.000000 0.500000
O O4 0.796784 0.814615 0.712790
O O5 0.279746 0.123794 0.193436
O O6 0.288645 0.958533 0.184182
O O7 0.528814 0.410906 0.912407
O O8 0.328848 0.978103 0.785800
O O9 0.668524 0.182200 0.642820
O O10 0.709873 0.321698 0.404913
O O11 0.451828 0.829256 0.617030
O O12 0.838247 0.644656 0.209398
O O13 0.704904 0.624467 0.446757
O O14 0.734623 0.468688 0.997163
O O15 0.174771 0.624247 0.327148
O O16 0.104589 0.499403 0.076294
O O17 0.000000 0.500000 0.500000
#
# Coordination Sequence:
#
# PCOD8039512 Si02
#       8
#     2   2   2   2   2   2   2   2
#     4  11  21  38  54  82 114 147 185 222 273 339
#     4   9  20  38  60  82 108 151 192 218 275 331
#     4   9  18  34  57  79 111 143 184 230 270 327
#     4  10  18  34  54  83 112 144 176 233 279 323
#     4  10  22  35  56  84 111 139 188 231 281 323
#     4   9  19  34  55  82 107 144 191 218 275 331
#     4  10  20  36  60  80 114 152 186 222 267 340
#     4  10  20  38  58  84 110 142 184 238 277 318
#
# _framework density 19.061520000000002
#
# number of rings (size 3 to 8) (size 9 to 14) (size 15 to 20)
#    0.000    2.250    1.250    1.500    0.000    2.500 
#    4.500    3.750    0.000    3.000    0.000    0.000 
#    0.000    0.000    0.000    0.000    0.000    0.000 
#
# Total GULP energy -198209.000116 kJ/mol
# GULP energy per Si atom -12388.062507 kJ/mol
# Density = 1.901813 g / cm^3
# Si number density = 19.061520 Si / 1000 Ang^3
#
#
#
# Elastic Constant Matrix: (Units=GPa)
#
#
# Indices 1 2 3 4 5 6 
#
# 1 107.3539 48.1915 42.9542 2.5107 3.3841 -0.0614
# 2 48.1915 81.9599 31.3406 8.4051 1.1969 7.0517
# 3 42.9542 31.3406 80.3345 3.7277 0.7254 6.8682
# 4 2.5107 8.4051 3.7277 22.6676 3.1106 1.4086
# 5 3.3841 1.1969 0.7254 3.1106 28.2331 0.8570
# 6 -0.0614 7.0517 6.8682 1.4086 0.8570 36.7362
#
#
#
# Elastic Compliance Matrix: (Units=1/GPa)
#
#
# Indices 1 2 3 4 5 6 
#
# 1 0.014559 -0.006876 -0.005373 0.001896 -0.001595 0.002313
# 2 -0.006876 0.018143 -0.002921 -0.005425 0.000812 -0.002759
# 3 -0.005373 -0.002921 0.016720 -0.000985 0.000524 -0.002549
# 4 0.001896 -0.005425 -0.000985 0.046809 -0.005116 -0.000447
# 5 -0.001595 0.000812 0.000524 -0.005116 0.036154 -0.000904
# 6 0.002313 -0.002759 -0.002549 -0.000447 -0.000904 0.028269
#
#
# Mechanical properties :
#
#
# Convention : Reuss Voigt Hill
#
# Bulk Modulus (GPa) = 52.41003 57.18010 54.79507
# Shear Modulus (GPa) = 25.33509 27.33819 26.33664
#
# Velocity S-wave (km/s) = 3.64967 3.79120 3.72111
# Velocity P-wave (km/s) = 6.73164 7.01620 6.87539
#
# Compressibility (1/GPa) = 0.01908032
#
# Stress axis : x y z
#
# Youngs Moduli (GPa) = 68.68687 55.11774 59.81007
#
# Poissons Ratio (x) = 0.37898 0.32138
# Poissons Ratio (y) = 0.47228 0.17472
# Poissons Ratio (z) = 0.36908 0.16102
#
# Static dielectric constant tensor:
#      x y z
#    x 2.697950 -0.633910 -0.090200 
#    y -0.633910 3.393700 0.038470 
#    z -0.090200 0.038470 3.582080 
# 
# 
# High freq. dielectric constant tensor:
#      x y z
#    x 1.725400 -0.000310 -0.001910 
#    y -0.000310 1.752070 0.007960 
#    z -0.001910 0.007960 1.742810 
# 
# From -- ./inp_files/252930.got.cif
#   From: 2010.06.25/outbox.cif.g09.slc.cpg/sg2_127_cif.got.tgz:252930.got - 2010.06.27 13:26:56.
