data_PCOD8039883
_publ_section_title
;
Structure prediction by ZEFSAII (Michael W. Deem and Ramdas Pophale) SiO2 
 PCOD8039883
Probable space group: P -1
;
_chemical_formula_sum "Si O2"
_cell_formula_units_Z 16
_cell_length_a 18.162296
_cell_length_b 10.488791
_cell_length_c 8.786174
_cell_angle_alpha 106.802906
_cell_angle_beta 38.847858
_cell_angle_gamma 125.495754
_cell_volume 809.985106
_symmetry_space_group_name_H-M "P -1"
_symmetry_group_IT_number 2
_symmetry_cell_setting 'triclinic'
loop_
_space_group_symop_operation_xyz
x,y,z
-x,-y,-z
loop_
_atom_site_type_symbol
_atom_site_label
_atom_site_fract_x
_atom_site_fract_y
_atom_site_fract_z
Si Si1 0.570695 0.729693 0.569618
Si Si2 0.858193 0.529127 0.108735
Si Si3 0.379739 0.963454 0.558572
Si Si4 0.605658 0.691483 0.851186
Si Si5 0.269783 0.383107 0.895900
Si Si6 0.361560 0.672148 0.361483
Si Si7 0.081526 0.728223 0.079024
Si Si8 0.819335 0.654474 0.637151
O O1 0.609553 0.737231 0.686097
O O2 0.411187 0.569385 0.738928
O O3 0.690523 0.733688 0.277371
O O4 0.567719 0.881436 0.578325
O O5 0.851715 0.626027 0.013285
O O6 0.703333 0.435437 0.416033
O O7 0.885552 0.398739 0.958563
O O8 0.990129 0.662861 0.048378
O O9 0.339501 0.815900 0.456411
O O10 0.233217 0.905769 0.865415
O O11 0.500000 0.000000 0.500000
O O12 0.765663 0.748304 0.660015
O O13 0.500000 0.500000 0.000000
O O14 0.535514 0.763436 0.091123
O O15 0.197738 0.316265 0.151699
O O16 0.271250 0.542890 0.323268
O O17 0.989827 0.745693 0.360070
#
# Coordination Sequence:
#
# PCOD8039883 Si02
#       8
#     2   2   2   2   2   2   2   2
#     4  11  22  35  59  90 119 155 196 241 289 345
#     4   9  18  34  62  85 111 157 195 246 280 343
#     4  11  24  39  62  85 118 158 192 242 295 353
#     4  10  18  35  57  89 116 151 191 240 288 336
#     4  11  21  34  59  93 116 143 205 247 285 335
#     4   9  18  36  59  85 119 151 194 234 292 344
#     4   9  19  39  58  81 117 156 194 229 303 348
#     4  10  20  35  64  88 116 155 191 252 284 333
#
# _framework density 19.753450000000001
#
# number of rings (size 3 to 8) (size 9 to 14) (size 15 to 20)
#    0.000    2.000    2.500    4.500    3.500    1.000 
#    0.000    3.125    2.750    0.000    0.000    0.000 
#    0.000    0.000    0.000    0.000    0.000    0.000 
#
# Total GULP energy -198322.420639 kJ/mol
# GULP energy per Si atom -12395.151290 kJ/mol
# Density = 1.970849 g / cm^3
# Si number density = 19.753450 Si / 1000 Ang^3
#
#
#
# Elastic Constant Matrix: (Units=GPa)
#
#
# Indices 1 2 3 4 5 6 
#
# 1 120.0944 34.9090 55.0898 3.1427 13.5854 -20.2183
# 2 34.9090 53.0239 30.1571 -1.8843 4.6004 -16.1902
# 3 55.0898 30.1571 155.4939 14.2365 -8.5264 -6.6584
# 4 3.1427 -1.8843 14.2365 22.5691 -1.6755 -1.0247
# 5 13.5854 4.6004 -8.5264 -1.6755 33.0682 -5.3306
# 6 -20.2183 -16.1902 -6.6584 -1.0247 -5.3306 21.9139
#
#
#
# Elastic Compliance Matrix: (Units=1/GPa)
#
#
# Indices 1 2 3 4 5 6 
#
# 1 0.012828 -0.003819 -0.003791 0.000250 -0.004615 0.006751
# 2 -0.003819 0.029206 -0.004195 0.006347 -0.000522 0.016949
# 3 -0.003791 -0.004195 0.009156 -0.005466 0.003715 -0.003167
# 4 0.000250 0.006347 -0.005466 0.048588 0.000997 0.005774
# 5 -0.004615 -0.000522 0.003715 0.000997 0.033991 0.004800
# 6 0.006751 0.016949 -0.003167 0.005774 0.004800 0.064859
#
#
# Mechanical properties :
#
#
# Convention : Reuss Voigt Hill
#
# Bulk Modulus (GPa) = 36.25810 63.21377 49.73593
# Shear Modulus (GPa) = 21.60462 29.40734 25.50598
#
# Velocity S-wave (km/s) = 3.31072 3.86258 3.59725
# Velocity P-wave (km/s) = 5.74540 7.20857 6.51817
#
# Compressibility (1/GPa) = 0.02758004
#
# Stress axis : x y z
#
# Youngs Moduli (GPa) = 77.95470 34.23997 109.21237
#
# Poissons Ratio (x) = 0.13075 0.41404
# Poissons Ratio (y) = 0.29767 0.45819
# Poissons Ratio (z) = 0.29554 0.14365
#
# Static dielectric constant tensor:
#      x y z
#    x 3.609080 -0.125610 -0.309780 
#    y -0.125610 3.390090 0.302820 
#    z -0.309780 0.302820 3.998110 
# 
# 
# High freq. dielectric constant tensor:
#      x y z
#    x 1.762040 -0.011670 -0.011760 
#    y -0.011670 1.736630 0.018750 
#    z -0.011760 0.018750 1.779310 
# 
# From -- ./inp_files/329272.got.cif
#   From: 2010.06.25/outbox.cif.g09.slc.cpg/sg2_165_cif.got.tgz:329272.got - 2010.06.27 13:26:56.
