data_PCOD8039887
_publ_section_title
;
Structure prediction by ZEFSAII (Michael W. Deem and Ramdas Pophale) SiO2 
 PCOD8039887
Probable space group: P -1
;
_chemical_formula_sum "Si O2"
_cell_formula_units_Z 16
_cell_length_a 5.057259
_cell_length_b 17.973830
_cell_length_c 18.066153
_cell_angle_alpha 31.592386
_cell_angle_beta 113.274810
_cell_angle_gamma 105.938294
_cell_volume 783.702701
_symmetry_space_group_name_H-M "P -1"
_symmetry_group_IT_number 2
_symmetry_cell_setting 'triclinic'
loop_
_space_group_symop_operation_xyz
x,y,z
-x,-y,-z
loop_
_atom_site_type_symbol
_atom_site_label
_atom_site_fract_x
_atom_site_fract_y
_atom_site_fract_z
Si Si1 0.087297 0.652068 0.806995
Si Si2 0.768927 0.962558 0.725302
Si Si3 0.548277 0.718578 0.443619
Si Si4 0.734042 0.665152 0.901770
Si Si5 0.924357 0.633753 0.428550
Si Si6 0.168761 0.145417 0.519764
Si Si7 0.250893 0.000526 0.139107
Si Si8 0.257008 0.121061 0.894411
O O1 0.387348 0.675707 0.859539
O O2 0.829433 0.672771 0.820566
O O3 0.016129 0.776525 0.633331
O O4 0.120312 0.488013 0.917910
O O5 0.830909 0.798949 0.843573
O O6 0.859620 0.954971 0.828811
O O7 0.433997 0.029431 0.619647
O O8 0.962541 0.062251 0.618105
O O9 0.732034 0.608843 0.500682
O O10 0.710228 0.721211 0.537785
O O11 0.219120 0.687811 0.444612
O O12 0.542569 0.885482 0.274589
O O13 0.707144 0.732256 0.266613
O O14 0.000000 0.500000 0.500000
O O15 0.284609 0.137542 0.973805
O O16 0.048359 0.915425 0.137929
O O17 0.500000 0.000000 0.000000
#
# Coordination Sequence:
#
# PCOD8039887 Si02
#       8
#     2   2   2   2   2   2   2   2
#     4  10  22  41  63  84 120 164 193 224 303 365
#     4  11  23  37  60  91 120 147 197 256 288 330
#     4  10  20  38  58  78 117 152 186 238 296 341
#     4  10  22  41  61  87 123 156 189 244 292 349
#     4  11  22  37  56  82 115 150 194 242 285 338
#     4  11  22  38  63  89 115 155 199 238 293 353
#     4   9  20  34  57  82 111 150 191 235 291 339
#     4  10  18  35  58  78 108 154 193 230 284 351
#
# _framework density 20.415907000000001
#
# number of rings (size 3 to 8) (size 9 to 14) (size 15 to 20)
#    0.000    1.750    1.250    4.125    1.750    3.000 
#    2.250    0.000    0.000    0.000    0.000    0.000 
#    0.000    0.000    0.000    0.000    0.000    0.000 
#
# Total GULP energy -198213.597905 kJ/mol
# GULP energy per Si atom -12388.349869 kJ/mol
# Density = 2.036944 g / cm^3
# Si number density = 20.415907 Si / 1000 Ang^3
#
#
#
# Elastic Constant Matrix: (Units=GPa)
#
#
# Indices 1 2 3 4 5 6 
#
# 1 95.4777 10.0662 21.6940 1.2390 2.6312 -10.3489
# 2 10.0662 82.8527 38.6513 -8.9008 0.8567 -14.6626
# 3 21.6940 38.6513 84.1541 2.6354 -1.3821 -8.0801
# 4 1.2390 -8.9008 2.6354 27.9908 -5.5482 4.8539
# 5 2.6312 0.8567 -1.3821 -5.5482 27.6213 -2.4578
# 6 -10.3489 -14.6626 -8.0801 4.8539 -2.4578 26.9850
#
#
#
# Elastic Compliance Matrix: (Units=1/GPa)
#
#
# Indices 1 2 3 4 5 6 
#
# 1 0.011529 0.000517 -0.002819 -0.000981 -0.001102 0.003934
# 2 0.000517 0.017230 -0.007582 0.005186 0.000650 0.006416
# 3 -0.002819 -0.007582 0.016258 -0.003768 0.000596 0.000399
# 4 -0.000981 0.005186 -0.003768 0.040137 0.007340 -0.005238
# 5 -0.001102 0.000650 0.000596 0.007340 0.037993 0.002249
# 6 0.003934 0.006416 0.000399 -0.005238 0.002249 0.043319
#
#
# Mechanical properties :
#
#
# Convention : Reuss Voigt Hill
#
# Bulk Modulus (GPa) = 39.60738 44.81196 42.20967
# Shear Modulus (GPa) = 25.68683 29.32429 27.50556
#
# Velocity S-wave (km/s) = 3.55093 3.79403 3.67449
# Velocity P-wave (km/s) = 6.02117 6.41795 6.22272
#
# Compressibility (1/GPa) = 0.02524782
#
# Stress axis : x y z
#
# Youngs Moduli (GPa) = 86.73581 58.03823 61.50685
#
# Poissons Ratio (x) = -0.02998 0.17339
# Poissons Ratio (y) = -0.04480 0.46637
# Poissons Ratio (z) = 0.24451 0.44007
#
# Static dielectric constant tensor:
#      x y z
#    x 0.000000 0.000000 0.000000 
#    y 0.000000 0.000000 0.000000 
#    z 0.000000 0.000000 0.000000 
# 
# 
# High freq. dielectric constant tensor:
#      x y z
#    x 1.809630 -0.007870 0.005310 
#    y -0.007870 1.779960 0.007210 
#    z 0.005310 0.007210 1.791170 
# 
# From -- ./inp_files/550425.got.cif
#   From: 2010.06.25/outbox.cif.g09.slc.cpg/sg2_276_cif.got.tgz:550425.got - 2010.06.27 13:26:56.
