data_PCOD8039118
_publ_section_title
;
Structure prediction by ZEFSAII (Michael W. Deem and Ramdas Pophale) SiO2 
 PCOD8039118
Probable space group: P -1
;
_chemical_formula_sum "Si O2"
_cell_formula_units_Z 12
_cell_length_a 16.531694
_cell_length_b 11.455215
_cell_length_c 12.854379
_cell_angle_alpha 124.171965
_cell_angle_beta 29.173425
_cell_angle_gamma 142.812488
_cell_volume 638.836437
_symmetry_space_group_name_H-M "P -1"
_symmetry_group_IT_number 2
_symmetry_cell_setting 'triclinic'
loop_
_space_group_symop_operation_xyz
x,y,z
-x,-y,-z
loop_
_atom_site_type_symbol
_atom_site_label
_atom_site_fract_x
_atom_site_fract_y
_atom_site_fract_z
Si Si1 0.488984 0.645206 0.816367
Si Si2 0.075127 0.249450 0.508933
Si Si3 0.442450 0.081923 0.969296
Si Si4 0.087821 0.155405 0.071299
Si Si5 0.508137 0.656524 0.128752
Si Si6 0.740070 0.986558 0.559183
O O1 0.735889 0.744480 0.649971
O O2 0.557044 0.733497 0.664916
O O3 0.425329 0.751294 0.999450
O O4 0.244870 0.387233 0.962592
O O5 0.246638 0.496916 0.410514
O O6 0.966336 0.120108 0.456990
O O7 0.853523 0.145059 0.787024
O O8 0.471281 0.196228 0.893123
O O9 0.591923 0.035907 0.761638
O O10 0.258775 0.179108 0.971436
O O11 0.840354 0.046916 0.358835
O O12 0.000000 0.000000 0.000000
O O13 0.500000 0.500000 0.000000
#
# Coordination Sequence:
#
# PCOD8039118 Si02
#       6
#     2   2   2   2   2   2
#     4  10  19  35  58  83 111 146 190 226 278 331
#     4  10  18  32  57  82 113 142 183 232 274 325
#     4  11  20  32  57  90 115 138 178 244 287 320
#     4  11  23  39  58  80 112 153 192 227 269 335
#     4  11  19  37  59  82 108 150 192 225 272 329
#     4  11  21  33  55  88 117 141 182 236 287 323
#
# _framework density 18.78415
#
# number of rings (size 3 to 8) (size 9 to 14) (size 15 to 20)
#    0.000    1.333    5.000    5.000    0.000    4.667 
#    0.000    0.833    0.000    5.000    0.000    0.000 
#    0.000    0.000    0.000    0.000    0.000    0.000 
#
# Total GULP energy -148715.073128 kJ/mol
# GULP energy per Si atom -12392.922761 kJ/mol
# Density = 1.874140 g / cm^3
# Si number density = 18.784150 Si / 1000 Ang^3
#
#
#
# Elastic Constant Matrix: (Units=GPa)
#
#
# Indices 1 2 3 4 5 6 
#
# 1 98.5573 66.1998 56.3282 -7.6212 12.8989 -16.4128
# 2 66.1998 96.5886 82.2302 -9.8397 16.0514 -8.4379
# 3 56.3282 82.2302 131.6434 -6.2325 24.7093 -14.1036
# 4 -7.6212 -9.8397 -6.2325 21.5843 -7.0475 10.9562
# 5 12.8989 16.0514 24.7093 -7.0475 17.4473 -7.4599
# 6 -16.4128 -8.4379 -14.1036 10.9562 -7.4599 33.5084
#
#
#
# Elastic Compliance Matrix: (Units=1/GPa)
#
#
# Indices 1 2 3 4 5 6 
#
# 1 0.020329 -0.014435 0.001294 -0.003456 -0.001722 0.007613
# 2 -0.014435 0.033443 -0.015613 0.010677 0.002878 -0.008071
# 3 0.001294 -0.015613 0.019927 -0.008387 -0.016415 0.004177
# 4 -0.003456 0.010677 -0.008387 0.064369 0.022688 -0.018530
# 5 -0.001722 0.002878 -0.016415 0.022688 0.090822 0.005774
# 6 0.007613 -0.008071 0.004177 -0.018530 0.005774 0.040642
#
#
# Mechanical properties :
#
#
# Convention : Reuss Voigt Hill
#
# Bulk Modulus (GPa) = 61.76600 81.81175 71.78887
# Shear Modulus (GPa) = 15.04051 22.64342 18.84197
#
# Velocity S-wave (km/s) = 2.83274 3.47573 3.17058
# Velocity P-wave (km/s) = 6.60701 7.73019 7.19056
#
# Compressibility (1/GPa) = 0.01619014
#
# Stress axis : x y z
#
# Youngs Moduli (GPa) = 49.19094 29.90179 50.18420
#
# Poissons Ratio (x) = 0.43164 -0.06492
# Poissons Ratio (y) = 0.71008 0.78350
# Poissons Ratio (z) = -0.06363 0.46684
#
# Static dielectric constant tensor:
#      x y z
#    x 3.666440 -0.392170 0.379360 
#    y -0.392170 3.247660 -0.438940 
#    z 0.379360 -0.438940 3.784620 
# 
# 
# High freq. dielectric constant tensor:
#      x y z
#    x 1.729070 -0.036850 0.015020 
#    y -0.036850 1.691290 -0.028060 
#    z 0.015020 -0.028060 1.739410 
# 
# From -- ./inp_files/152216.got.cif
#   From: 2010.06.25/outbox.cif.g09.slc.cpg/sg2_77_cif.got.tgz:152216.got - 2010.06.27 13:26:56.
