data_PCOD8039591
_publ_section_title
;
Structure prediction by ZEFSAII (Michael W. Deem and Ramdas Pophale) SiO2 
 PCOD8039591
Probable space group: P -1
;
_chemical_formula_sum "Si O2"
_cell_formula_units_Z 14
_cell_length_a 8.987388
_cell_length_b 9.476693
_cell_length_c 11.157654
_cell_angle_alpha 91.015898
_cell_angle_beta 120.146911
_cell_angle_gamma 118.265107
_cell_volume 681.824843
_symmetry_space_group_name_H-M "P -1"
_symmetry_group_IT_number 2
_symmetry_cell_setting 'triclinic'
loop_
_space_group_symop_operation_xyz
x,y,z
-x,-y,-z
loop_
_atom_site_type_symbol
_atom_site_label
_atom_site_fract_x
_atom_site_fract_y
_atom_site_fract_z
Si Si1 0.832611 0.829030 0.588929
Si Si2 0.214612 0.186995 0.708783
Si Si3 0.992768 0.329108 0.763360
Si Si4 0.588868 0.388362 0.016347
Si Si5 0.331478 0.708495 0.703303
Si Si6 0.626744 0.974306 0.649092
Si Si7 0.875626 0.543446 0.577107
O O1 0.755520 0.801636 0.420728
O O2 0.817796 0.660152 0.626314
O O3 0.683983 0.848624 0.616091
O O4 0.065982 0.994436 0.692276
O O5 0.115571 0.291888 0.712471
O O6 0.442377 0.251910 0.854669
O O7 0.833367 0.158294 0.769739
O O8 0.865522 0.397650 0.651026
O O9 0.168370 0.481631 0.922125
O O10 0.574610 0.293114 0.131742
O O11 0.500000 0.500000 0.000000
O O12 0.291517 0.554634 0.598980
O O13 0.106978 0.679289 0.622848
O O14 0.492564 0.892679 0.713177
O O15 0.500000 0.000000 0.500000
#
# Coordination Sequence:
#
# PCOD8039591 Si02
#       7
#     2   2   2   2   2   2   2
#     4  10  21  33  58  85 113 140 188 235 279 325
#     4   9  18  34  56  86 108 147 187 230 272 328
#     4   9  18  35  57  81 112 148 184 227 274 329
#     4   9  17  34  59  84 108 149 192 227 263 333
#     4  10  20  33  60  85 112 147 187 225 280 330
#     4  11  22  37  55  86 117 146 179 234 290 326
#     4  10  18  34  57  85 107 143 195 231 260 329
#
# _framework density 20.533131000000001
#
# number of rings (size 3 to 8) (size 9 to 14) (size 15 to 20)
#    0.000    2.286    1.429    3.429    4.000    0.571 
#    0.000    9.286    0.000    0.857    0.000    0.000 
#    0.000    0.000    0.000    0.000    0.000    0.000 
#
# Total GULP energy -173487.282737 kJ/mol
# GULP energy per Si atom -12391.948767 kJ/mol
# Density = 2.048640 g / cm^3
# Si number density = 20.533131 Si / 1000 Ang^3
#
#
#
# Elastic Constant Matrix: (Units=GPa)
#
#
# Indices 1 2 3 4 5 6 
#
# 1 51.3095 45.8658 15.0347 -0.5893 7.2329 6.9125
# 2 45.8658 124.0205 46.4917 -1.3351 7.0984 8.9130
# 3 15.0347 46.4917 117.6607 18.2956 17.2900 12.0522
# 4 -0.5893 -1.3351 18.2956 28.7646 1.4263 2.3801
# 5 7.2329 7.0984 17.2900 1.4263 13.9280 -0.7249
# 6 6.9125 8.9130 12.0522 2.3801 -0.7249 46.3939
#
#
#
# Elastic Compliance Matrix: (Units=1/GPa)
#
#
# Indices 1 2 3 4 5 6 
#
# 1 0.031635 -0.011862 0.003291 -0.000988 -0.014548 -0.003466
# 2 -0.011862 0.014213 -0.005489 0.003612 0.005380 0.000362
# 3 0.003291 -0.005489 0.014134 -0.008152 -0.015775 -0.002936
# 4 -0.000988 0.003612 -0.008152 0.039898 0.004685 -0.000403
# 5 -0.014548 0.005380 -0.015775 0.004685 0.096052 0.006492
# 6 -0.003466 0.000362 -0.002936 -0.000403 0.006492 0.022886
#
#
# Mechanical properties :
#
#
# Convention : Reuss Voigt Hill
#
# Bulk Modulus (GPa) = 31.38612 56.41946 43.90279
# Shear Modulus (GPa) = 19.41298 30.19054 24.80176
#
# Velocity S-wave (km/s) = 3.07815 3.83865 3.47924
# Velocity P-wave (km/s) = 5.28697 6.86906 6.12928
#
# Compressibility (1/GPa) = 0.03186122
#
# Stress axis : x y z
#
# Youngs Moduli (GPa) = 31.61046 70.35891 70.75150
#
# Poissons Ratio (x) = 0.83460 -0.23285
# Poissons Ratio (y) = 0.37496 0.38839
# Poissons Ratio (z) = -0.10403 0.38623
#
# Static dielectric constant tensor:
#      x y z
#    x 3.505870 0.082680 0.321760 
#    y 0.082680 4.029490 0.485290 
#    z 0.321760 0.485290 4.090590 
# 
# 
# High freq. dielectric constant tensor:
#      x y z
#    x 1.771880 0.001260 0.026170 
#    y 0.001260 1.817820 0.011620 
#    z 0.026170 0.011620 1.781320 
# 
# From -- ./inp_files/252145.got.cif
#   From: 2010.06.25/outbox.cif.g09.slc.cpg/sg2_127_cif.got.tgz:252145.got - 2010.06.27 13:26:56.
