data_PCOD8039690
_publ_section_title
;
Structure prediction by ZEFSAII (Michael W. Deem and Ramdas Pophale) SiO2 
 PCOD8039690
Probable space group: P -1
;
_chemical_formula_sum "Si O2"
_cell_formula_units_Z 16
_cell_length_a 17.505416
_cell_length_b 19.505181
_cell_length_c 10.907911
_cell_angle_alpha 43.196496
_cell_angle_beta 126.686277
_cell_angle_gamma 159.448808
_cell_volume 836.833137
_symmetry_space_group_name_H-M "P -1"
_symmetry_group_IT_number 2
_symmetry_cell_setting 'triclinic'
loop_
_space_group_symop_operation_xyz
x,y,z
-x,-y,-z
loop_
_atom_site_type_symbol
_atom_site_label
_atom_site_fract_x
_atom_site_fract_y
_atom_site_fract_z
Si Si1 0.716393 0.017819 0.617799
Si Si2 0.900129 0.153967 0.219160
Si Si3 0.478637 0.143757 0.612113
Si Si4 0.523864 0.654845 0.532684
Si Si5 0.036880 0.186972 0.558015
Si Si6 0.948950 0.553083 0.449787
Si Si7 0.776458 0.530363 0.100959
Si Si8 0.298485 0.313813 0.148566
O O1 0.914014 0.127290 0.630030
O O2 0.822237 0.199246 0.577348
O O3 0.626608 0.987691 0.449127
O O4 0.494040 0.752701 0.813997
O O5 0.026176 0.238755 0.354162
O O6 0.080996 0.368313 0.014585
O O7 0.714191 0.065281 0.194222
O O8 0.745486 0.912009 0.333319
O O9 0.518807 0.304533 0.449799
O O10 0.727885 0.327732 0.624953
O O11 0.307043 0.432028 0.526855
O O12 0.588615 0.610369 0.712120
O O13 0.918251 0.965335 0.725635
O O14 0.881076 0.574405 0.260986
O O15 0.000000 0.500000 0.500000
O O16 0.808259 0.678649 0.955689
O O17 0.500000 0.500000 0.000000
#
# Coordination Sequence:
#
# PCOD8039690 Si02
#       8
#     2   2   2   2   2   2   2   2
#     4  10  18  36  59  81 108 145 185 228 284 327
#     4   8  19  37  54  80 116 154 183 225 276 325
#     4   8  17  36  59  78 107 147 185 223 269 335
#     4   9  18  33  56  79 113 153 188 215 266 326
#     4  10  18  34  60  81 111 160 191 215 270 336
#     4  11  23  39  62  85 106 141 189 241 287 332
#     4  11  23  37  55  84 122 143 183 241 276 326
#     4  11  20  33  51  87 119 151 186 226 272 322
#
# _framework density 19.119702
#
# number of rings (size 3 to 8) (size 9 to 14) (size 15 to 20)
#    0.750    1.500    3.750    0.750    0.000    6.500 
#    0.000    1.875    0.000    3.750    0.000    0.000 
#    0.000    0.000    0.000    0.000    0.000    0.000 
#
# Total GULP energy -198223.988922 kJ/mol
# GULP energy per Si atom -12388.999308 kJ/mol
# Density = 1.907618 g / cm^3
# Si number density = 19.119702 Si / 1000 Ang^3
#
#
#
# Elastic Constant Matrix: (Units=GPa)
#
#
# Indices 1 2 3 4 5 6 
#
# 1 83.3087 19.9197 17.8119 -10.0385 -3.3919 0.1915
# 2 19.9197 116.4827 20.7240 -12.0526 -2.1492 -16.9208
# 3 17.8119 20.7240 34.0789 -11.0956 -21.4400 1.5814
# 4 -10.0385 -12.0526 -11.0956 16.9333 7.0025 1.9391
# 5 -3.3919 -2.1492 -21.4400 7.0025 33.0358 -6.1047
# 6 0.1915 -16.9208 1.5814 1.9391 -6.1047 32.3945
#
#
#
# Elastic Compliance Matrix: (Units=1/GPa)
#
#
# Indices 1 2 3 4 5 6 
#
# 1 0.014455 -0.000656 -0.009227 0.004595 -0.005769 -0.001340
# 2 -0.000656 0.011238 -0.008572 0.003313 -0.004637 0.005220
# 3 -0.009227 -0.008572 0.070728 0.018280 0.040267 -0.001381
# 4 0.004595 0.003313 0.018280 0.078755 -0.005039 -0.004853
# 5 -0.005769 -0.004637 0.040267 -0.005039 0.057843 0.006848
# 6 -0.001340 0.005220 -0.001381 -0.004853 0.006848 0.035252
#
#
# Mechanical properties :
#
#
# Convention : Reuss Voigt Hill
#
# Bulk Modulus (GPa) = 16.80359 38.97571 27.88965
# Shear Modulus (GPa) = 15.38374 28.16705 21.77539
#
# Velocity S-wave (km/s) = 2.83963 3.84239 3.37842
# Velocity P-wave (km/s) = 4.42256 6.33361 5.46231
#
# Compressibility (1/GPa) = 0.05951111
#
# Stress axis : x y z
#
# Youngs Moduli (GPa) = 69.17956 88.98606 14.13862
#
# Poissons Ratio (x) = 0.05837 0.13046
# Poissons Ratio (y) = 0.04537 0.12120
# Poissons Ratio (z) = 0.63833 0.76278
#
# Static dielectric constant tensor:
#      x y z
#    x 3.382950 0.145480 -0.151160 
#    y 0.145480 3.546580 -0.179990 
#    z -0.151160 -0.179990 3.206800 
# 
# 
# High freq. dielectric constant tensor:
#      x y z
#    x 1.730110 0.007660 -0.014390 
#    y 0.007660 1.751040 -0.014060 
#    z -0.014390 -0.014060 1.709600 
# 
# From -- ./inp_files/466873.got.cif
#   From: 2010.06.25/outbox.cif.g09.slc.cpg/sg2_234_cif.got.tgz:466873.got - 2010.06.27 13:26:56.
