data_PCOD8039686
_publ_section_title
;
Structure prediction by ZEFSAII (Michael W. Deem and Ramdas Pophale) SiO2 
 PCOD8039686
Probable space group: P -1
;
_chemical_formula_sum "Si O2"
_cell_formula_units_Z 16
_cell_length_a 11.494726
_cell_length_b 8.489988
_cell_length_c 11.691580
_cell_angle_alpha 87.009693
_cell_angle_beta 47.887222
_cell_angle_gamma 70.172972
_cell_volume 770.709405
_symmetry_space_group_name_H-M "P -1"
_symmetry_group_IT_number 2
_symmetry_cell_setting 'triclinic'
loop_
_space_group_symop_operation_xyz
x,y,z
-x,-y,-z
loop_
_atom_site_type_symbol
_atom_site_label
_atom_site_fract_x
_atom_site_fract_y
_atom_site_fract_z
Si Si1 0.305119 0.478207 0.424652
Si Si2 0.353766 0.826726 0.782986
Si Si3 0.724406 0.363507 0.966770
Si Si4 0.831454 0.021256 0.540600
Si Si5 0.639284 0.269698 0.473202
Si Si6 0.636758 0.860810 0.334598
Si Si7 0.401551 0.686808 0.181980
Si Si8 0.093075 0.302541 0.645264
O O1 0.446597 0.284942 0.313066
O O2 0.376745 0.539421 0.489212
O O3 0.282085 0.604024 0.327455
O O4 0.125275 0.465618 0.569637
O O5 0.310195 0.776046 0.688965
O O6 0.319137 0.031126 0.800050
O O7 0.236751 0.778651 0.952598
O O8 0.628434 0.303961 0.933626
O O9 0.895365 0.367907 0.804355
O O10 0.600422 0.558653 0.083116
O O11 0.804555 0.139239 0.441130
O O12 0.662634 0.118692 0.730976
O O13 0.846998 0.837745 0.490844
O O14 0.000000 0.000000 0.500000
O O15 0.462146 0.257139 0.635150
O O16 0.805877 0.756719 0.299890
O O17 0.500000 0.000000 0.500000
#
# Coordination Sequence:
#
# PCOD8039686 Si02
#       8
#     2   2   2   2   2   2   2   2
#     4  10  20  34  65  88 115 164 211 248 292 357
#     4  10  18  35  59  85 118 166 193 245 313 365
#     4  10  22  38  59  90 130 160 197 245 318 359
#     4  11  20  37  63  90 116 156 206 256 287 346
#     4  10  19  36  61  90 119 154 210 250 296 356
#     4  10  18  34  59  93 118 153 202 259 294 354
#     4   9  21  41  61  83 123 172 196 243 307 369
#     4  12  21  36  63  98 119 154 209 259 292 356
#
# _framework density 20.760096000000001
#
# number of rings (size 3 to 8) (size 9 to 14) (size 15 to 20)
#    0.000    1.750    6.250    0.375    0.000    1.000 
#    0.000    0.625    0.000   26.250    0.000    0.000 
#    0.000    0.000    0.000    0.000    0.000    0.000 
#
# Total GULP energy -198240.996368 kJ/mol
# GULP energy per Si atom -12390.062273 kJ/mol
# Density = 2.071284 g / cm^3
# Si number density = 20.760096 Si / 1000 Ang^3
#
#
#
# Elastic Constant Matrix: (Units=GPa)
#
#
# Indices 1 2 3 4 5 6 
#
# 1 88.3295 31.5942 29.4959 -3.3899 3.2853 1.9549
# 2 31.5942 88.8767 46.1244 0.5187 -7.3601 19.7400
# 3 29.4959 46.1244 105.2799 2.0308 -1.1428 11.2563
# 4 -3.3899 0.5187 2.0308 27.6881 -5.1532 -2.0984
# 5 3.2853 -7.3601 -1.1428 -5.1532 35.9912 -5.4955
# 6 1.9549 19.7400 11.2563 -2.0984 -5.4955 31.9776
#
#
#
# Elastic Compliance Matrix: (Units=1/GPa)
#
#
# Indices 1 2 3 4 5 6 
#
# 1 0.013720 -0.004423 -0.002228 0.001823 -0.001581 0.002524
# 2 -0.004423 0.017814 -0.005633 -0.000630 0.002502 -0.008355
# 3 -0.002228 -0.005633 0.012726 -0.001354 -0.000908 -0.001111
# 4 0.001823 -0.000630 -0.001354 0.037836 0.005724 0.004220
# 5 -0.001581 0.002502 -0.000908 0.005724 0.029901 0.004386
# 6 0.002524 -0.008355 -0.001111 0.004220 0.004386 0.037697
#
#
# Mechanical properties :
#
#
# Convention : Reuss Voigt Hill
#
# Bulk Modulus (GPa) = 50.78350 55.21280 52.99815
# Shear Modulus (GPa) = 27.65105 30.81613 29.23359
#
# Velocity S-wave (km/s) = 3.65352 3.85696 3.75662
# Velocity P-wave (km/s) = 6.50483 6.81823 6.66337
#
# Compressibility (1/GPa) = 0.01969143
#
# Stress axis : x y z
#
# Youngs Moduli (GPa) = 72.88439 56.13720 78.58207
#
# Poissons Ratio (x) = 0.24830 0.17511
# Poissons Ratio (y) = 0.32237 0.44262
# Poissons Ratio (z) = 0.16241 0.31620
#
# Static dielectric constant tensor:
#      x y z
#    x 4.139860 0.197950 0.164160 
#    y 0.197950 4.325640 -0.148890 
#    z 0.164160 -0.148890 3.701990 
# 
# 
# High freq. dielectric constant tensor:
#      x y z
#    x 1.811090 -0.010880 0.014280 
#    y -0.010880 1.807530 -0.003230 
#    z 0.014280 -0.003230 1.780810 
# 
# From -- ./inp_files/417308.got.cif
#   From: 2010.06.25/outbox.cif.g09.slc.cpg/sg2_209_cif.got.tgz:417308.got - 2010.06.27 13:26:56.
