data_PCOD8039815
_publ_section_title
;
Structure prediction by ZEFSAII (Michael W. Deem and Ramdas Pophale) SiO2 
 PCOD8039815
Probable space group: P -1
;
_chemical_formula_sum "Si O2"
_cell_formula_units_Z 14
_cell_length_a 12.561673
_cell_length_b 8.410248
_cell_length_c 14.709293
_cell_angle_alpha 58.003766
_cell_angle_beta 117.101974
_cell_angle_gamma 68.815023
_cell_volume 706.391737
_symmetry_space_group_name_H-M "P -1"
_symmetry_group_IT_number 2
_symmetry_cell_setting 'triclinic'
loop_
_space_group_symop_operation_xyz
x,y,z
-x,-y,-z
loop_
_atom_site_type_symbol
_atom_site_label
_atom_site_fract_x
_atom_site_fract_y
_atom_site_fract_z
Si Si1 0.840176 0.346218 0.364296
Si Si2 0.511950 0.362367 0.634695
Si Si3 0.138700 0.812167 0.973126
Si Si4 0.871944 0.365295 0.578592
Si Si5 0.056183 0.221365 0.969173
Si Si6 0.942768 0.625769 0.651496
Si Si7 0.573139 0.361493 0.294490
O O1 0.895397 0.352423 0.483890
O O2 0.629348 0.498523 0.233950
O O3 0.858899 0.499297 0.256498
O O4 0.000000 0.000000 0.500000
O O5 0.500000 0.500000 0.500000
O O6 0.356793 0.387052 0.559831
O O7 0.458728 0.572776 0.630787
O O8 0.728630 0.998656 0.839827
O O9 0.078922 0.036752 0.957386
O O10 0.369907 0.538934 0.117438
O O11 0.007290 0.020388 0.769826
O O12 0.087598 0.670870 0.037954
O O13 0.937513 0.473372 0.619128
O O14 0.962660 0.521181 0.793352
O O15 0.744655 0.996590 0.454274
#
# Coordination Sequence:
#
# PCOD8039815 Si02
#       7
#     2   2   2   2   2   2   2
#     4   9  19  38  57  75 107 146 179 218 269 317
#     4  10  18  35  55  77 107 147 180 206 268 328
#     4   9  17  33  53  81 106 141 180 211 270 321
#     4  10  19  34  59  81 104 138 184 225 258 316
#     4   9  18  32  54  79 110 142 173 220 264 320
#     4  10  20  36  54  82 110 137 181 226 265 306
#     4   9  20  35  56  78 107 147 176 218 271 316
#
# _framework density 19.819032
#
# number of rings (size 3 to 8) (size 9 to 14) (size 15 to 20)
#    0.000    2.571    1.429    0.429    2.000    0.571 
#    0.000   20.714    0.000    0.000    0.000    0.000 
#    0.000    0.000    0.000    0.000    0.000    0.000 
#
# Total GULP energy -173514.346838 kJ/mol
# GULP energy per Si atom -12393.881917 kJ/mol
# Density = 1.977392 g / cm^3
# Si number density = 19.819032 Si / 1000 Ang^3
#
#
#
# Elastic Constant Matrix: (Units=GPa)
#
#
# Indices 1 2 3 4 5 6 
#
# 1 167.0009 23.7095 65.7144 -1.1343 1.2432 1.2261
# 2 23.7095 36.7445 3.6364 -7.2621 1.5930 1.6891
# 3 65.7144 3.6364 97.2253 -1.7762 9.7747 7.1992
# 4 -1.1343 -7.2621 -1.7762 15.5851 1.3658 0.9316
# 5 1.2432 1.5930 9.7747 1.3658 32.7493 -4.0619
# 6 1.2261 1.6891 7.1992 0.9316 -4.0619 19.8754
#
#
#
# Elastic Compliance Matrix: (Units=1/GPa)
#
#
# Indices 1 2 3 4 5 6 
#
# 1 0.009463 -0.006371 -0.006694 -0.003441 0.002470 0.003049
# 2 -0.006371 0.034688 0.004149 0.016871 -0.004093 -0.005685
# 3 -0.006694 0.004149 0.015827 0.004172 -0.005718 -0.007037
# 4 -0.003441 0.016871 0.004172 0.073208 -0.005902 -0.007370
# 5 0.002470 -0.004093 -0.005718 -0.005902 0.033765 0.009444
# 6 0.003049 -0.005685 -0.007037 -0.007370 0.009444 0.055433
#
#
# Mechanical properties :
#
#
# Convention : Reuss Voigt Hill
#
# Bulk Modulus (GPa) = 23.72711 54.12124 38.92417
# Shear Modulus (GPa) = 19.66466 27.50267 23.58367
#
# Velocity S-wave (km/s) = 3.15336 3.72921 3.45331
# Velocity P-wave (km/s) = 5.02554 6.77567 5.96514
#
# Compressibility (1/GPa) = 0.04214589
#
# Stress axis : x y z
#
# Youngs Moduli (GPa) = 105.68002 28.82834 63.18278
#
# Poissons Ratio (x) = 0.18365 0.42297
# Poissons Ratio (y) = 0.67325 -0.26215
# Poissons Ratio (z) = 0.70747 -0.11961
#
# Static dielectric constant tensor:
#      x y z
#    x 4.355070 -0.039060 0.068700 
#    y -0.039060 3.276520 0.131530 
#    z 0.068700 0.131530 3.655600 
# 
# 
# High freq. dielectric constant tensor:
#      x y z
#    x 1.793970 -0.004720 0.003530 
#    y -0.004720 1.745800 0.008440 
#    z 0.003530 0.008440 1.755670 
# 
# From -- ./inp_files/151041.got.cif
#   From: 2010.06.25/outbox.cif.g09.slc.cpg/sg2_76_cif.got.tgz:151041.got - 2010.06.27 13:26:56.
