data_PCOD8039363
_publ_section_title
;
Structure prediction by ZEFSAII (Michael W. Deem and Ramdas Pophale) SiO2 
 PCOD8039363
Probable space group: P -1
;
_chemical_formula_sum "Si O2"
_cell_formula_units_Z 14
_cell_length_a 9.042814
_cell_length_b 9.510759
_cell_length_c 17.106196
_cell_angle_alpha 105.860921
_cell_angle_beta 29.968255
_cell_angle_gamma 107.331631
_cell_volume 701.170091
_symmetry_space_group_name_H-M "P -1"
_symmetry_group_IT_number 2
_symmetry_cell_setting 'triclinic'
loop_
_space_group_symop_operation_xyz
x,y,z
-x,-y,-z
loop_
_atom_site_type_symbol
_atom_site_label
_atom_site_fract_x
_atom_site_fract_y
_atom_site_fract_z
Si Si1 0.501048 0.581447 0.327922
Si Si2 0.641061 0.921456 0.852872
Si Si3 0.161209 0.780041 0.252635
Si Si4 0.477393 0.358484 0.433658
Si Si5 0.406120 0.541719 0.191203
Si Si6 0.903309 0.288671 0.346162
Si Si7 0.840612 0.324716 0.940083
O O1 0.526097 0.423065 0.333691
O O2 0.334177 0.551518 0.317616
O O3 0.330804 0.691282 0.474367
O O4 0.832724 0.662534 0.170323
O O5 0.940235 0.856248 0.732652
O O6 0.734066 0.043910 0.762303
O O7 0.389175 0.789120 0.920463
O O8 0.500000 0.000000 0.000000
O O9 0.406443 0.700618 0.174929
O O10 0.145347 0.727905 0.162929
O O11 0.838466 0.743244 0.434462
O O12 0.500000 0.500000 0.500000
O O13 0.735541 0.267383 0.335259
O O14 0.141672 0.434268 0.255138
O O15 0.722163 0.483926 0.021677
#
# Coordination Sequence:
#
# PCOD8039363 Si02
#       7
#     2   2   2   2   2   2   2
#     4  11  20  35  58  87 113 138 185 229 275 323
#     4   9  22  37  56  81 110 146 185 225 270 327
#     4  11  19  37  57  83 110 144 190 224 267 327
#     4  10  18  33  58  86 109 135 184 238 268 312
#     4  11  21  33  60  85 110 147 181 225 278 323
#     4  10  19  37  58  80 110 146 181 225 274 320
#     4  10  20  38  56  80 114 145 181 232 270 320
#
# _framework density 19.966623999999999
#
# number of rings (size 3 to 8) (size 9 to 14) (size 15 to 20)
#    0.000    1.714    5.714    1.286    0.000    2.857 
#    0.000    1.429    0.000    0.000    0.000    0.000 
#    0.000    0.000    0.000    0.000    0.000    0.000 
#
# Total GULP energy -173550.905372 kJ/mol
# GULP energy per Si atom -12396.493241 kJ/mol
# Density = 1.992118 g / cm^3
# Si number density = 19.966624 Si / 1000 Ang^3
#
#
#
# Elastic Constant Matrix: (Units=GPa)
#
#
# Indices 1 2 3 4 5 6 
#
# 1 51.6222 29.1206 7.7708 -0.7836 2.2027 -10.0463
# 2 29.1206 139.3126 46.8216 -4.6468 -15.0869 -27.8795
# 3 7.7708 46.8216 88.2218 4.0298 -26.6150 0.1191
# 4 -0.7836 -4.6468 4.0298 38.4194 -5.0459 -3.9101
# 5 2.2027 -15.0869 -26.6150 -5.0459 20.9414 2.0075
# 6 -10.0463 -27.8795 0.1191 -3.9101 2.0075 15.4736
#
#
#
# Elastic Compliance Matrix: (Units=1/GPa)
#
#
# Indices 1 2 3 4 5 6 
#
# 1 0.024299 -0.001985 -0.004359 0.000715 -0.010677 0.013799
# 2 -0.001985 0.017208 -0.009639 0.006100 -0.001193 0.031485
# 3 -0.004359 -0.009639 0.025215 -0.002829 0.027242 -0.024640
# 4 0.000715 0.006100 -0.002829 0.029736 0.006144 0.018193
# 5 -0.010677 -0.001193 0.027242 0.006144 0.085929 -0.018886
# 6 0.013799 0.031485 -0.024640 0.018193 -0.018886 0.137550
#
#
# Mechanical properties :
#
#
# Convention : Reuss Voigt Hill
#
# Bulk Modulus (GPa) = 28.77137 49.62029 39.19583
# Shear Modulus (GPa) = 13.75558 27.99646 20.87602
#
# Velocity S-wave (km/s) = 2.62759 3.74861 3.23700
# Velocity P-wave (km/s) = 4.86278 6.60618 5.80036
#
# Compressibility (1/GPa) = 0.03475677
#
# Stress axis : x y z
#
# Youngs Moduli (GPa) = 41.15323 58.11371 39.65856
#
# Poissons Ratio (x) = 0.11537 0.17287
# Poissons Ratio (y) = 0.08170 0.38225
# Poissons Ratio (z) = 0.17939 0.56013
#
# Static dielectric constant tensor:
#      x y z
#    x 3.626010 -0.260580 -0.274170 
#    y -0.260580 4.120850 -0.168420 
#    z -0.274170 -0.168420 3.838920 
# 
# 
# High freq. dielectric constant tensor:
#      x y z
#    x 1.753640 -0.018030 -0.018440 
#    y -0.018030 1.763360 -0.004080 
#    z -0.018440 -0.004080 1.785110 
# 
# From -- ./inp_files/154032.got.cif
#   From: 2010.06.25/outbox.cif.g09.slc.cpg/sg2_78_cif.got.tgz:154032.got - 2010.06.27 13:26:56.
