data_PCOD8039746
_publ_section_title
;
Structure prediction by ZEFSAII (Michael W. Deem and Ramdas Pophale) SiO2 
 PCOD8039746
Probable space group: P -1
;
_chemical_formula_sum "Si O2"
_cell_formula_units_Z 16
_cell_length_a 17.537690
_cell_length_b 7.824951
_cell_length_c 9.345003
_cell_angle_alpha 131.236292
_cell_angle_beta 84.575388
_cell_angle_gamma 66.504061
_cell_volume 756.444597
_symmetry_space_group_name_H-M "P -1"
_symmetry_group_IT_number 2
_symmetry_cell_setting 'triclinic'
loop_
_space_group_symop_operation_xyz
x,y,z
-x,-y,-z
loop_
_atom_site_type_symbol
_atom_site_label
_atom_site_fract_x
_atom_site_fract_y
_atom_site_fract_z
Si Si1 0.388385 0.146445 0.586222
Si Si2 0.269824 0.170653 0.877403
Si Si3 0.703088 0.007431 0.697651
Si Si4 0.094472 0.981937 0.142147
Si Si5 0.291062 0.800281 0.916128
Si Si6 0.900331 0.740650 0.224672
Si Si7 0.896441 0.443806 0.315407
Si Si8 0.183369 0.773708 0.310997
O O1 0.376788 0.970103 0.373281
O O2 0.328213 0.474713 0.724669
O O3 0.500000 0.000000 0.500000
O O4 0.351677 0.123545 0.733361
O O5 0.234204 0.436485 0.136659
O O6 0.184245 0.230878 0.828007
O O7 0.311498 0.889728 0.812255
O O8 0.791118 0.668256 0.529557
O O9 0.736715 0.175967 0.703735
O O10 0.655016 0.164344 0.944703
O O11 0.113807 0.867641 0.236951
O O12 0.175227 0.016935 0.095178
O O13 0.103020 0.762765 0.908567
O O14 0.984293 0.276787 0.321029
O O15 0.911838 0.643025 0.331954
O O16 0.874103 0.055874 0.435082
O O17 0.000000 0.500000 0.000000
#
# Coordination Sequence:
#
# PCOD8039746 Si02
#       8
#     2   2   2   2   2   2   2   2
#     4  12  25  48  74  95 128 171 217 280 339 386
#     4  12  23  45  64  98 136 168 218 276 322 395
#     4  10  20  43  66  94 127 172 221 263 331 389
#     4  10  18  36  61  90 125 174 220 260 316 386
#     4  11  24  41  69  97 131 168 218 266 333 388
#     4  11  22  36  58  94 136 177 221 263 321 381
#     4  10  18  34  62  86 129 178 216 259 319 383
#     4  10  20  39  64  85 135 181 211 268 326 379
#
# _framework density 21.151581
#
# number of rings (size 3 to 8) (size 9 to 14) (size 15 to 20)
#    0.000    1.250    7.500    0.750    0.000    8.000 
#    4.500    0.625    0.000    0.000    0.000    0.000 
#    0.000    0.000    0.000    0.000    0.000    0.000 
#
# Total GULP energy -198272.969618 kJ/mol
# GULP energy per Si atom -12392.060601 kJ/mol
# Density = 2.110344 g / cm^3
# Si number density = 21.151581 Si / 1000 Ang^3
#
#
#
# Elastic Constant Matrix: (Units=GPa)
#
#
# Indices 1 2 3 4 5 6 
#
# 1 83.6069 28.4593 33.9561 -1.4257 4.8040 -15.7246
# 2 28.4593 71.2167 5.1228 -2.2796 -6.4004 11.1050
# 3 33.9561 5.1228 78.7579 -9.0000 13.2921 -0.4996
# 4 -1.4257 -2.2796 -9.0000 16.8672 1.6442 -0.7370
# 5 4.8040 -6.4004 13.2921 1.6442 39.2906 -1.8628
# 6 -15.7246 11.1050 -0.4996 -0.7370 -1.8628 30.9216
#
#
#
# Elastic Compliance Matrix: (Units=1/GPa)
#
#
# Indices 1 2 3 4 5 6 
#
# 1 0.021959 -0.010582 -0.009023 -0.003697 -0.000504 0.014703
# 2 -0.010582 0.020335 0.002970 0.002613 0.002905 -0.012399
# 3 -0.009023 0.002970 0.018363 0.009714 -0.005290 -0.005446
# 4 -0.003697 0.002613 0.009714 0.064955 -0.005194 -0.001427
# 5 -0.000504 0.002905 -0.005290 -0.005194 0.028002 0.000178
# 6 0.014703 -0.012399 -0.005446 -0.001427 0.000178 0.044159
#
#
# Mechanical properties :
#
#
# Convention : Reuss Voigt Hill
#
# Bulk Modulus (GPa) = 36.51688 40.96199 38.73943
# Shear Modulus (GPa) = 20.81845 28.48543 24.65194
#
# Velocity S-wave (km/s) = 3.14068 3.67376 3.41763
# Velocity P-wave (km/s) = 5.51849 6.11583 5.82482
#
# Compressibility (1/GPa) = 0.02738460
#
# Stress axis : x y z
#
# Youngs Moduli (GPa) = 45.53974 49.17612 54.45844
#
# Poissons Ratio (x) = 0.52040 0.49139
# Poissons Ratio (y) = 0.48192 -0.16172
# Poissons Ratio (z) = 0.41092 -0.14603
#
# Static dielectric constant tensor:
#      x y z
#    x 3.780960 -0.042950 0.281440 
#    y -0.042950 3.673760 -0.027600 
#    z 0.281440 -0.027600 4.213450 
# 
# 
# High freq. dielectric constant tensor:
#      x y z
#    x 1.815040 0.001020 0.033620 
#    y 0.001020 1.806580 0.000300 
#    z 0.033620 0.000300 1.837280 
# 
# From -- ./inp_files/329588.got.cif
#   From: 2010.06.25/outbox.cif.g09.slc.cpg/sg2_165_cif.got.tgz:329588.got - 2010.06.27 13:26:56.
