data_PCOD8039406
_publ_section_title
;
Structure prediction by ZEFSAII (Michael W. Deem and Ramdas Pophale) SiO2 
 PCOD8039406
Probable space group: P -1
;
_chemical_formula_sum "Si O2"
_cell_formula_units_Z 16
_cell_length_a 15.485435
_cell_length_b 21.205996
_cell_length_c 7.435662
_cell_angle_alpha 130.739386
_cell_angle_beta 133.937553
_cell_angle_gamma 22.444077
_cell_volume 670.717803
_symmetry_space_group_name_H-M "P -1"
_symmetry_group_IT_number 2
_symmetry_cell_setting 'triclinic'
loop_
_space_group_symop_operation_xyz
x,y,z
-x,-y,-z
loop_
_atom_site_type_symbol
_atom_site_label
_atom_site_fract_x
_atom_site_fract_y
_atom_site_fract_z
Si Si1 0.623636 0.454615 0.854716
Si Si2 0.582062 0.787879 0.200082
Si Si3 0.944081 0.942045 0.603464
Si Si4 0.781688 0.759033 0.123273
Si Si5 0.888573 0.889725 0.064377
Si Si6 0.612246 0.238244 0.927939
Si Si7 0.812863 0.366842 0.563351
Si Si8 0.643285 0.872392 0.755394
O O1 0.711941 0.419371 0.715474
O O2 0.415340 0.509734 0.667119
O O3 0.850283 0.281038 0.968020
O O4 0.521854 0.602761 0.059373
O O5 0.738290 0.704616 0.088368
O O6 0.584787 0.693629 0.110721
O O7 0.698573 0.782352 0.497472
O O8 0.302399 0.975420 0.113235
O O9 0.895898 0.959259 0.352636
O O10 0.996966 0.821102 0.544515
O O11 0.710448 0.120989 0.691892
O O12 0.173561 0.863534 0.818430
O O13 0.058085 0.622321 0.270181
O O14 0.622230 0.931928 0.285088
O O15 0.684493 0.793171 0.848071
O O16 0.825781 0.839808 0.976649
#
# Coordination Sequence:
#
# PCOD8039406 Si02
#       8
#     2   2   2   2   2   2   2   2
#     4   9  18  34  61  91 115 163 197 250 310 358
#     4  11  24  34  59  98 123 155 203 257 296 361
#     4   9  18  35  62  84 117 167 199 242 302 357
#     4  10  18  33  59  91 114 157 203 256 293 346
#     4  10  19  38  64  91 114 157 214 249 298 356
#     4  10  21  36  56  92 128 155 198 247 309 368
#     4   9  16  33  62  88 112 156 217 240 292 368
#     4  10  20  35  60  90 119 156 207 257 289 348
#
# _framework density 23.855041
#
# number of rings (size 3 to 8) (size 9 to 14) (size 15 to 20)
#    0.000    2.250    2.500    3.000    3.500    0.500 
#    0.000    1.250    0.000   24.750    0.000    0.875 
#    0.000    0.000    0.000    0.000    0.000    0.000 
#
# Total GULP energy -198304.259790 kJ/mol
# GULP energy per Si atom -12394.016237 kJ/mol
# Density = 2.380075 g / cm^3
# Si number density = 23.855041 Si / 1000 Ang^3
#
#
#
# Elastic Constant Matrix: (Units=GPa)
#
#
# Indices 1 2 3 4 5 6 
#
# 1 79.1749 9.9383 22.3435 -4.6222 10.4435 -14.3905
# 2 9.9383 81.0074 20.4897 -1.0849 4.2504 -21.1073
# 3 22.3435 20.4897 98.5735 0.6681 0.5929 -2.5211
# 4 -4.6222 -1.0849 0.6681 25.0691 -10.9479 2.8982
# 5 10.4435 4.2504 0.5929 -10.9479 27.2746 -8.9108
# 6 -14.3905 -21.1073 -2.5211 2.8982 -8.9108 22.6773
#
#
#
# Elastic Compliance Matrix: (Units=1/GPa)
#
#
# Indices 1 2 3 4 5 6 
#
# 1 0.015653 0.001769 -0.003648 0.000762 -0.002599 0.010055
# 2 0.001769 0.017637 -0.003621 0.000262 0.002691 0.018160
# 3 -0.003648 -0.003621 0.011618 -0.000617 0.000059 -0.004291
# 4 0.000762 0.000262 -0.000617 0.048478 0.019883 0.002276
# 5 -0.002599 0.002691 0.000059 0.019883 0.051250 0.018459
# 6 0.010055 0.018160 -0.004291 0.002276 0.018459 0.073866
#
#
# Mechanical properties :
#
#
# Convention : Reuss Voigt Hill
#
# Bulk Modulus (GPa) = 29.49075 40.47764 34.98419
# Shear Modulus (GPa) = 20.76364 28.73648 24.75006
#
# Velocity S-wave (km/s) = 2.95347 3.47454 3.22455
# Velocity P-wave (km/s) = 4.90102 5.75340 5.34423
#
# Compressibility (1/GPa) = 0.03390894
#
# Stress axis : x y z
#
# Youngs Moduli (GPa) = 63.88731 56.69738 86.07144
#
# Poissons Ratio (x) = -0.10029 0.31399
# Poissons Ratio (y) = -0.11301 0.31163
# Poissons Ratio (z) = 0.23306 0.20528
#
# Static dielectric constant tensor:
#      x y z
#    x 4.075560 -0.274490 0.184840 
#    y -0.274490 4.308040 -0.082230 
#    z 0.184840 -0.082230 4.181880 
# 
# 
# High freq. dielectric constant tensor:
#      x y z
#    x 1.928130 -0.023290 0.007530 
#    y -0.023290 1.920120 -0.014020 
#    z 0.007530 -0.014020 1.942030 
# 
# From -- ./inp_files/338625.got.cif
#   From: 2010.06.25/outbox.cif.g09.slc.cpg/sg2_170_cif.got.tgz:338625.got - 2010.06.27 13:26:56.
