data_PCOD8039149
_publ_section_title
;
Structure prediction by ZEFSAII (Michael W. Deem and Ramdas Pophale) SiO2 
 PCOD8039149
Probable space group: P -1
;
_chemical_formula_sum "Si O2"
_cell_formula_units_Z 16
_cell_length_a 9.046505
_cell_length_b 8.929196
_cell_length_c 15.135155
_cell_angle_alpha 104.028478
_cell_angle_beta 61.339760
_cell_angle_gamma 61.868745
_cell_volume 752.931677
_symmetry_space_group_name_H-M "P -1"
_symmetry_group_IT_number 2
_symmetry_cell_setting 'triclinic'
loop_
_space_group_symop_operation_xyz
x,y,z
-x,-y,-z
loop_
_atom_site_type_symbol
_atom_site_label
_atom_site_fract_x
_atom_site_fract_y
_atom_site_fract_z
Si Si1 0.107558 0.098742 0.651444
Si Si2 0.017786 0.166456 0.498411
Si Si3 0.536013 0.161461 0.786529
Si Si4 0.899517 0.658474 0.166098
Si Si5 0.590954 0.371110 0.545197
Si Si6 0.879963 0.330976 0.177641
Si Si7 0.210897 0.915938 0.140074
Si Si8 0.272626 0.614970 0.950833
O O1 0.013732 0.244537 0.609301
O O2 0.192893 0.176828 0.704353
O O3 0.920493 0.102796 0.751056
O O4 0.328763 0.854821 0.527307
O O5 0.797219 0.349007 0.525189
O O6 0.259954 0.041007 0.360299
O O7 0.000000 0.000000 0.500000
O O8 0.299216 0.225106 0.835802
O O9 0.601598 0.097590 0.862755
O O10 0.497477 0.373476 0.819230
O O11 0.973019 0.445345 0.152269
O O12 0.126397 0.590279 0.049633
O O13 0.500000 0.500000 0.500000
O O14 0.384532 0.491397 0.690468
O O15 0.876748 0.241655 0.072040
O O16 0.033727 0.142192 0.175918
O O17 0.339084 0.724383 0.004261
#
# Coordination Sequence:
#
# PCOD8039149 Si02
#       8
#     2   2   2   2   2   2   2   2
#     4  10  20  37  57  86 116 148 191 230 280 339
#     4  10  18  32  58  86 116 143 191 236 275 336
#     4  11  19  36  59  85 112 152 189 235 287 328
#     4  10  23  39  59  81 119 153 191 231 281 348
#     4  11  20  36  60  91 118 143 185 244 285 329
#     4  11  21  37  61  83 117 154 186 230 298 331
#     4  11  21  36  59  87 115 143 196 243 276 331
#     4  10  22  39  59  83 111 154 197 234 276 341
#
# _framework density 21.250267000000001
#
# number of rings (size 3 to 8) (size 9 to 14) (size 15 to 20)
#    0.000    1.500    3.750    5.250    0.000    2.000 
#    0.000    3.750    0.000    3.000    0.000    0.000 
#    0.000    0.000    0.000    0.000    0.000    0.000 
#
# Total GULP energy -198248.286041 kJ/mol
# GULP energy per Si atom -12390.517878 kJ/mol
# Density = 2.120190 g / cm^3
# Si number density = 21.250267 Si / 1000 Ang^3
#
#
#
# Elastic Constant Matrix: (Units=GPa)
#
#
# Indices 1 2 3 4 5 6 
#
# 1 115.6770 49.0232 35.6648 -1.1462 36.5056 -26.2727
# 2 49.0232 87.1953 33.9509 -3.5275 16.8945 -37.2735
# 3 35.6648 33.9509 68.7861 -3.2960 27.9673 -7.0408
# 4 -1.1462 -3.5275 -3.2960 25.4716 -4.8531 0.8486
# 5 36.5056 16.8945 27.9673 -4.8531 38.0578 -5.8170
# 6 -26.2727 -37.2735 -7.0408 0.8486 -5.8170 35.1495
#
#
#
# Elastic Compliance Matrix: (Units=1/GPa)
#
#
# Indices 1 2 3 4 5 6 
#
# 1 0.015556 -0.003876 -0.000796 -0.002425 -0.012098 0.005415
# 2 -0.003876 0.027861 -0.010306 0.002091 0.003015 0.025032
# 3 -0.000796 -0.010306 0.024973 -0.000690 -0.014461 -0.008897
# 4 -0.002425 0.002091 -0.000690 0.040700 0.007167 0.000470
# 5 -0.012098 0.003015 -0.014461 0.007167 0.047933 -0.000983
# 6 0.005415 0.025032 -0.008897 0.000470 -0.000983 0.057086
#
#
# Mechanical properties :
#
#
# Convention : Reuss Voigt Hill
#
# Bulk Modulus (GPa) = 26.01716 56.54848 41.28282
# Shear Modulus (GPa) = 19.46468 29.93707 24.70087
#
# Velocity S-wave (km/s) = 3.02979 3.75745 3.41307
# Velocity P-wave (km/s) = 4.95069 6.74485 5.91618
#
# Compressibility (1/GPa) = 0.03843617
#
# Stress axis : x y z
#
# Youngs Moduli (GPa) = 64.28218 35.89274 40.04323
#
# Poissons Ratio (x) = 0.13910 0.03187
# Poissons Ratio (y) = 0.24913 0.41267
# Poissons Ratio (z) = 0.05117 0.36989
#
# Static dielectric constant tensor:
#      x y z
#    x 5.032600 -0.853720 0.597440 
#    y -0.853720 3.928530 -0.207150 
#    z 0.597440 -0.207150 4.526500 
# 
# 
# High freq. dielectric constant tensor:
#      x y z
#    x 1.827460 -0.037410 0.022000 
#    y -0.037410 1.805360 -0.002480 
#    z 0.022000 -0.002480 1.846250 
# 
# From -- ./inp_files/242716.got.cif
#   From: 2010.06.25/outbox.cif.g09.slc.cpg/sg2_122_cif.got.tgz:242716.got - 2010.06.27 13:26:56.
