data_PCOD8039663
_publ_section_title
;
Structure prediction by ZEFSAII (Michael W. Deem and Ramdas Pophale) SiO2 
 PCOD8039663
Probable space group: P -1
;
_chemical_formula_sum "Si O2"
_cell_formula_units_Z 14
_cell_length_a 13.622566
_cell_length_b 10.809203
_cell_length_c 11.864915
_cell_angle_alpha 44.238213
_cell_angle_beta 55.887567
_cell_angle_gamma 33.822141
_cell_volume 675.768121
_symmetry_space_group_name_H-M "P -1"
_symmetry_group_IT_number 2
_symmetry_cell_setting 'triclinic'
loop_
_space_group_symop_operation_xyz
x,y,z
-x,-y,-z
loop_
_atom_site_type_symbol
_atom_site_label
_atom_site_fract_x
_atom_site_fract_y
_atom_site_fract_z
Si Si1 0.800156 0.771522 0.696236
Si Si2 0.503606 0.075509 0.074355
Si Si3 0.527538 0.450159 0.765061
Si Si4 0.774406 0.191037 0.445010
Si Si5 0.141817 0.761899 0.408210
Si Si6 0.633454 0.014849 0.405077
Si Si7 0.811820 0.680356 0.300398
O O1 0.670603 0.785137 0.835946
O O2 0.997762 0.471499 0.771978
O O3 0.792531 0.973123 0.628192
O O4 0.753788 0.856539 0.540228
O O5 0.676598 0.811581 0.198071
O O6 0.504991 0.286564 0.944869
O O7 0.500000 0.000000 0.000000
O O8 0.417272 0.567139 0.643470
O O9 0.736322 0.244624 0.740247
O O10 0.462224 0.687342 0.727748
O O11 0.798626 0.300873 0.458503
O O12 0.934119 0.045035 0.346074
O O13 0.172841 0.523517 0.509674
O O14 0.500000 0.000000 0.500000
O O15 0.747955 0.891216 0.297684
#
# Coordination Sequence:
#
# PCOD8039663 Si02
#       7
#     2   2   2   2   2   2   2
#     4  10  22  40  63  87 117 155 197 246 295 341
#     4  12  25  39  58  89 127 161 188 230 298 365
#     4  11  22  35  57  84 118 152 190 237 292 345
#     4   9  19  34  57  85 109 145 202 245 286 336
#     4  10  18  34  59  83 109 149 197 248 286 332
#     4  11  20  42  66  86 113 150 207 253 287 333
#     4  11  22  40  63  87 117 157 198 245 291 343
#
# _framework density 20.717165000000001
#
# number of rings (size 3 to 8) (size 9 to 14) (size 15 to 20)
#    0.000    1.429    2.857    3.429    0.000    2.286 
#    0.000    0.714    0.000    0.000    0.000    0.000 
#    0.000    0.000    0.000    0.000    0.000    0.000 
#
# Total GULP energy -173584.569495 kJ/mol
# GULP energy per Si atom -12398.897821 kJ/mol
# Density = 2.067001 g / cm^3
# Si number density = 20.717165 Si / 1000 Ang^3
#
#
#
# Elastic Constant Matrix: (Units=GPa)
#
#
# Indices 1 2 3 4 5 6 
#
# 1 80.2377 37.4538 26.1991 7.5544 -12.8407 -4.1122
# 2 37.4538 115.4115 46.0458 18.9851 -16.3303 -18.5607
# 3 26.1991 46.0458 75.8235 16.6055 -20.7498 -9.3248
# 4 7.5544 18.9851 16.6055 22.0812 0.0009 -6.8231
# 5 -12.8407 -16.3303 -20.7498 0.0009 40.3457 7.7631
# 6 -4.1122 -18.5607 -9.3248 -6.8231 7.7631 43.5069
#
#
#
# Elastic Compliance Matrix: (Units=1/GPa)
#
#
# Indices 1 2 3 4 5 6 
#
# 1 0.015388 -0.003808 -0.002380 -0.000569 0.002361 -0.001191
# 2 -0.003808 0.013464 -0.004956 -0.005538 0.001061 0.003264
# 3 -0.002380 -0.004956 0.021813 -0.011648 0.008654 -0.001035
# 4 -0.000569 -0.005538 -0.011648 0.060971 -0.009640 0.006369
# 5 0.002361 0.001061 0.008654 -0.009640 0.031296 -0.004566
# 6 -0.001191 0.003264 -0.001035 0.006369 -0.004566 0.025856
#
#
# Mechanical properties :
#
#
# Convention : Reuss Voigt Hill
#
# Bulk Modulus (GPa) = 35.24120 54.54112 44.89116
# Shear Modulus (GPa) = 24.93327 31.97170 28.45248
#
# Velocity S-wave (km/s) = 3.47292 3.93268 3.70993
# Velocity P-wave (km/s) = 5.75579 6.85602 6.32986
#
# Compressibility (1/GPa) = 0.02837587
#
# Stress axis : x y z
#
# Youngs Moduli (GPa) = 64.98546 74.27400 45.84507
#
# Poissons Ratio (x) = 0.28284 0.10912
# Poissons Ratio (y) = 0.24747 0.22721
# Poissons Ratio (z) = 0.15468 0.36810
#
# Static dielectric constant tensor:
#      x y z
#    x 4.109150 0.008460 -0.135920 
#    y 0.008460 3.990230 -0.042010 
#    z -0.135920 -0.042010 3.373900 
# 
# 
# High freq. dielectric constant tensor:
#      x y z
#    x 1.825190 -0.004840 -0.014340 
#    y -0.004840 1.825550 -0.000980 
#    z -0.014340 -0.000980 1.768520 
# 
# From -- ./inp_files/250962.got.cif
#   From: 2010.06.25/outbox.cif.g09.slc.cpg/sg2_126_cif.got.tgz:250962.got - 2010.06.27 13:26:56.
