data_PCOD8039489
_publ_section_title
;
Structure prediction by ZEFSAII (Michael W. Deem and Ramdas Pophale) SiO2 
 PCOD8039489
Probable space group: P -1
;
_chemical_formula_sum "Si O2"
_cell_formula_units_Z 14
_cell_length_a 7.008710
_cell_length_b 13.153296
_cell_length_c 14.890844
_cell_angle_alpha 134.804175
_cell_angle_beta 58.249725
_cell_angle_gamma 125.440725
_cell_volume 776.933962
_symmetry_space_group_name_H-M "P -1"
_symmetry_group_IT_number 2
_symmetry_cell_setting 'triclinic'
loop_
_space_group_symop_operation_xyz
x,y,z
-x,-y,-z
loop_
_atom_site_type_symbol
_atom_site_label
_atom_site_fract_x
_atom_site_fract_y
_atom_site_fract_z
Si Si1 0.801084 0.814854 0.348935
Si Si2 0.183562 0.382801 0.038641
Si Si3 0.671911 0.972420 0.641375
Si Si4 0.755925 0.916748 0.229637
Si Si5 0.617426 0.495672 0.114740
Si Si6 0.651833 0.239383 0.071197
Si Si7 0.290838 0.069013 0.195286
O O1 0.667506 0.852173 0.490344
O O2 0.728879 0.890724 0.326907
O O3 0.713771 0.632338 0.247352
O O4 0.087595 0.878726 0.331210
O O5 0.355668 0.486668 0.136913
O O6 0.911004 0.329985 0.106434
O O7 0.271564 0.240535 0.910937
O O8 0.204153 0.475262 0.997192
O O9 0.658241 0.885032 0.684679
O O10 0.443762 0.022637 0.720089
O O11 0.016222 0.041260 0.220617
O O12 0.588738 0.337459 0.070771
O O13 0.457533 0.205580 0.177501
O O14 0.649844 0.084966 0.928760
#
# Coordination Sequence:
#
# PCOD8039489 Si02
#       7
#     2   2   2   2   2   2   2
#     4   9  20  32  50  77  97 124 167 197 240 295
#     4   9  19  31  50  77  98 124 162 194 245 300
#     4  10  18  34  53  71  99 129 159 205 241 278
#     4   9  17  32  52  74  97 124 160 205 243 280
#     4  10  19  32  49  74 102 126 157 201 244 288
#     4  10  19  34  51  71 102 130 157 203 242 282
#     4   9  20  33  50  75  96 127 171 195 234 295
#
# _framework density 18.019551
#
# number of rings (size 3 to 8) (size 9 to 14) (size 15 to 20)
#    0.000    2.571    0.000    2.571    0.000    4.571 
#    0.000    5.000    0.000    1.714    0.000    0.000 
#    0.000    0.000    0.000    0.000    0.000    0.000 
#
# Total GULP energy -173608.624013 kJ/mol
# GULP energy per Si atom -12400.616001 kJ/mol
# Density = 1.797854 g / cm^3
# Si number density = 18.019551 Si / 1000 Ang^3
#
#
#
# Elastic Constant Matrix: (Units=GPa)
#
#
# Indices 1 2 3 4 5 6 
#
# 1 96.1427 45.4819 37.2121 -2.3017 -3.9193 5.9792
# 2 45.4819 113.1753 35.9261 -10.7498 -6.5218 6.3683
# 3 37.2121 35.9261 63.0230 -9.1989 8.7262 3.1190
# 4 -2.3017 -10.7498 -9.1989 21.6057 5.0511 -3.3887
# 5 -3.9193 -6.5218 8.7262 5.0511 26.5726 4.3010
# 6 5.9792 6.3683 3.1190 -3.3887 4.3010 22.0743
#
#
#
# Elastic Compliance Matrix: (Units=1/GPa)
#
#
# Indices 1 2 3 4 5 6 
#
# 1 0.015879 -0.003538 -0.008879 -0.005946 0.006191 -0.004145
# 2 -0.003538 0.012487 -0.005157 0.002288 0.004187 -0.002380
# 3 -0.008879 -0.005157 0.027688 0.012491 -0.014817 0.004785
# 4 -0.005946 0.002288 0.012491 0.057944 -0.017285 0.011449
# 5 0.006191 0.004187 -0.014817 -0.017285 0.049855 -0.013159
# 6 -0.004145 -0.002380 0.004785 0.011449 -0.013159 0.050756
#
#
# Mechanical properties :
#
#
# Convention : Reuss Voigt Hill
#
# Bulk Modulus (GPa) = 47.83417 56.62013 52.22715
# Shear Modulus (GPa) = 19.47597 24.29859 21.88728
#
# Velocity S-wave (km/s) = 3.29116 3.67612 3.48895
# Velocity P-wave (km/s) = 6.40668 7.03620 6.72881
#
# Compressibility (1/GPa) = 0.02090556
#
# Stress axis : x y z
#
# Youngs Moduli (GPa) = 62.97501 80.08185 36.11669
#
# Poissons Ratio (x) = 0.28330 0.32069
# Poissons Ratio (y) = 0.22278 0.18627
# Poissons Ratio (z) = 0.55918 0.41302
#
# Static dielectric constant tensor:
#      x y z
#    x 3.326090 0.170320 0.128030 
#    y 0.170320 3.312630 -0.132320 
#    z 0.128030 -0.132320 3.166720 
# 
# 
# High freq. dielectric constant tensor:
#      x y z
#    x 1.708320 0.010390 0.008230 
#    y 0.010390 1.685170 -0.007550 
#    z 0.008230 -0.007550 1.671380 
# 
# From -- ./inp_files/65873.got.cif
#   From: 2010.06.25/outbox.cif.g09.slc.cpg/sg2_33_cif.got.tgz:65873.got - 2010.06.27 13:26:56.
