data_PCOD8039947
_publ_section_title
;
Structure prediction by ZEFSAII (Michael W. Deem and Ramdas Pophale) SiO2 
 PCOD8039947
Probable space group: P -1
;
_chemical_formula_sum "Si O2"
_cell_formula_units_Z 16
_cell_length_a 11.641060
_cell_length_b 14.661394
_cell_length_c 9.915349
_cell_angle_alpha 138.908619
_cell_angle_beta 51.308252
_cell_angle_gamma 105.045445
_cell_volume 790.903055
_symmetry_space_group_name_H-M "P -1"
_symmetry_group_IT_number 2
_symmetry_cell_setting 'triclinic'
loop_
_space_group_symop_operation_xyz
x,y,z
-x,-y,-z
loop_
_atom_site_type_symbol
_atom_site_label
_atom_site_fract_x
_atom_site_fract_y
_atom_site_fract_z
Si Si1 0.976712 0.681529 0.866591
Si Si2 0.509084 0.304697 0.138847
Si Si3 0.901262 0.822521 0.588837
Si Si4 0.144987 0.355713 0.799809
Si Si5 0.810318 0.664483 0.712684
Si Si6 0.147919 0.842468 0.251999
Si Si7 0.543084 0.609999 0.422130
Si Si8 0.200999 0.824865 0.902631
O O1 0.118234 0.515725 0.557139
O O2 0.057211 0.800326 0.903229
O O3 0.831531 0.711865 0.901865
O O4 0.910110 0.701853 0.089357
O O5 0.379526 0.269564 0.107515
O O6 0.543990 0.445450 0.216537
O O7 0.446093 0.340510 0.377157
O O8 0.680741 0.155182 0.826332
O O9 0.798616 0.784033 0.504896
O O10 0.907561 0.729999 0.615960
O O11 0.083744 0.764467 0.328731
O O12 0.826563 0.000597 0.876122
O O13 0.297326 0.391636 0.768125
O O14 0.000000 0.500000 0.000000
O O15 0.197580 0.750638 0.971216
O O16 0.000000 0.000000 0.500000
O O17 0.379263 0.731079 0.606097
#
# Coordination Sequence:
#
# PCOD8039947 Si02
#       8
#     2   2   2   2   2   2   2   2
#     4  11  23  40  61  84 128 157 203 248 300 362
#     4  10  18  35  59  86 122 153 198 244 308 350
#     4  11  21  37  62  90 117 154 206 243 304 358
#     4  12  21  36  62  94 117 150 207 257 293 351
#     4  11  23  40  59  89 119 167 199 244 302 366
#     4   9  19  34  57  92 118 150 193 254 300 346
#     4  10  20  33  59  90 118 150 196 257 298 348
#     4  10  21  38  58  90 123 156 193 253 307 353
#
# _framework density 20.230039999999999
#
# number of rings (size 3 to 8) (size 9 to 14) (size 15 to 20)
#    0.000    1.500    5.000    0.750    1.750    1.000 
#    2.250    1.875    0.000    3.750    0.000    0.000 
#    0.000    0.000    0.000    0.000    0.000    0.000 
#
# Total GULP energy -198255.834734 kJ/mol
# GULP energy per Si atom -12390.989671 kJ/mol
# Density = 2.018400 g / cm^3
# Si number density = 20.230040 Si / 1000 Ang^3
#
#
#
# Elastic Constant Matrix: (Units=GPa)
#
#
# Indices 1 2 3 4 5 6 
#
# 1 125.2940 43.8059 39.3716 3.3091 -18.7680 10.1107
# 2 43.8059 68.7780 23.7899 -1.7040 5.4424 14.5273
# 3 39.3716 23.7899 60.5316 7.7273 -13.6488 3.1261
# 4 3.3091 -1.7040 7.7273 28.7145 4.9830 1.7228
# 5 -18.7680 5.4424 -13.6488 4.9830 38.1628 -5.9864
# 6 10.1107 14.5273 3.1261 1.7228 -5.9864 30.7238
#
#
#
# Elastic Compliance Matrix: (Units=1/GPa)
#
#
# Indices 1 2 3 4 5 6 
#
# 1 0.012740 -0.007715 -0.003557 -0.002182 0.006570 0.001220
# 2 -0.007715 0.026323 -0.008782 0.007905 -0.013621 -0.012111
# 3 -0.003557 -0.008782 0.025592 -0.009172 0.010687 0.005316
# 4 -0.002182 0.007905 -0.009172 0.040463 -0.011808 -0.006656
# 5 0.006570 -0.013621 0.010687 -0.011808 0.038523 0.011359
# 6 0.001220 -0.012111 0.005316 -0.006656 0.011359 0.039919
#
#
# Mechanical properties :
#
#
# Convention : Reuss Voigt Hill
#
# Bulk Modulus (GPa) = 40.74121 52.05980 46.40051
# Shear Modulus (GPa) = 21.56573 29.36264 25.46419
#
# Velocity S-wave (km/s) = 3.26855 3.81391 3.55171
# Velocity P-wave (km/s) = 5.86747 6.72193 6.30918
#
# Compressibility (1/GPa) = 0.02454517
#
# Stress axis : x y z
#
# Youngs Moduli (GPa) = 78.49460 37.98959 39.07543
#
# Poissons Ratio (x) = 0.29310 0.13900
# Poissons Ratio (y) = 0.60561 0.34316
# Poissons Ratio (z) = 0.27922 0.33363
#
# Static dielectric constant tensor:
#      x y z
#    x 3.759600 0.198290 -0.209640 
#    y 0.198290 3.680840 -0.129190 
#    z -0.209640 -0.129190 3.668460 
# 
# 
# High freq. dielectric constant tensor:
#      x y z
#    x 1.781140 0.023270 -0.017910 
#    y 0.023270 1.778200 0.000500 
#    z -0.017910 0.000500 1.774050 
# 
# From -- ./inp_files/238444.got.cif
#   From: 2010.06.25/outbox.cif.g09.slc.cpg/sg2_120_cif.got.tgz:238444.got - 2010.06.27 13:26:56.
