data_PCOD8039181
_publ_section_title
;
Structure prediction by ZEFSAII (Michael W. Deem and Ramdas Pophale) SiO2 
 PCOD8039181
Probable space group: P -1
;
_chemical_formula_sum "Si O2"
_cell_formula_units_Z 16
_cell_length_a 19.796899
_cell_length_b 9.030915
_cell_length_c 9.283587
_cell_angle_alpha 83.123737
_cell_angle_beta 124.187552
_cell_angle_gamma 51.629399
_cell_volume 744.276274
_symmetry_space_group_name_H-M "P -1"
_symmetry_group_IT_number 2
_symmetry_cell_setting 'triclinic'
loop_
_space_group_symop_operation_xyz
x,y,z
-x,-y,-z
loop_
_atom_site_type_symbol
_atom_site_label
_atom_site_fract_x
_atom_site_fract_y
_atom_site_fract_z
Si Si1 0.405440 0.005826 0.337143
Si Si2 0.173710 0.019078 0.686204
Si Si3 0.022479 0.054675 0.734582
Si Si4 0.726825 0.385644 0.349756
Si Si5 0.886674 0.984498 0.846375
Si Si6 0.077713 0.630240 0.861550
Si Si7 0.411110 0.698162 0.504509
Si Si8 0.552043 0.225967 0.879529
O O1 0.500000 0.000000 0.500000
O O2 0.431622 0.845470 0.515188
O O3 0.460160 0.853881 0.269267
O O4 0.235992 0.312226 0.077776
O O5 0.116286 0.035927 0.765477
O O6 0.033834 0.286472 0.390721
O O7 0.271641 0.748737 0.748684
O O8 0.276581 0.007979 0.840279
O O9 0.843241 0.338812 0.445208
O O10 0.080005 0.800097 0.792506
O O11 0.042583 0.037888 0.931819
O O12 0.552671 0.697017 0.134058
O O13 0.796922 0.232542 0.605620
O O14 0.017887 0.704017 0.944894
O O15 0.767021 0.049464 0.756396
O O16 0.500000 0.500000 0.500000
O O17 0.479293 0.504526 0.744295
#
# Coordination Sequence:
#
# PCOD8039181 Si02
#       8
#     2   2   2   2   2   2   2   2
#     4  11  25  36  57  88 125 157 188 250 307 342
#     4  10  20  37  61  88 114 160 198 242 287 356
#     4  10  18  32  61  89 118 154 197 244 293 346
#     4   9  18  33  56  91 115 147 200 249 287 340
#     4   9  18  33  60  84 115 156 199 244 284 344
#     4  10  22  36  56  88 123 151 199 242 296 351
#     4   9  19  36  55  86 113 152 196 235 286 347
#     4  10  21  37  62  84 117 158 202 236 293 358
#
# _framework density 21.497394
#
# number of rings (size 3 to 8) (size 9 to 14) (size 15 to 20)
#    0.000    2.500    0.000    4.875    8.750    1.000 
#    0.000    0.000    0.000    4.500    0.000    0.000 
#    0.000    0.000    0.000    0.000    0.000    0.000 
#
# Total GULP energy -198223.392593 kJ/mol
# GULP energy per Si atom -12388.962037 kJ/mol
# Density = 2.144846 g / cm^3
# Si number density = 21.497394 Si / 1000 Ang^3
#
#
#
# Elastic Constant Matrix: (Units=GPa)
#
#
# Indices 1 2 3 4 5 6 
#
# 1 69.1363 35.8997 30.6695 -6.0584 26.2075 -13.2287
# 2 35.8997 68.6222 45.6566 -0.0285 13.3180 -6.0689
# 3 30.6695 45.6566 108.3660 9.1108 20.9931 -0.1343
# 4 -6.0584 -0.0285 9.1108 42.5569 -4.9583 4.0139
# 5 26.2075 13.3180 20.9931 -4.9583 35.6199 0.6582
# 6 -13.2287 -6.0689 -0.1343 4.0139 0.6582 36.6359
#
#
#
# Elastic Compliance Matrix: (Units=1/GPa)
#
#
# Indices 1 2 3 4 5 6 
#
# 1 0.028081 -0.010426 -0.000472 0.001368 -0.016452 0.008556
# 2 -0.010426 0.024876 -0.008226 0.000660 0.003307 0.000194
# 3 -0.000472 -0.008226 0.014184 -0.003649 -0.005427 -0.000984
# 4 0.001368 0.000660 -0.003649 0.025205 0.004447 -0.002251
# 5 -0.016452 0.003307 -0.005427 0.004447 0.042883 -0.006670
# 6 0.008556 0.000194 -0.000984 -0.002251 -0.006670 0.030780
#
#
# Mechanical properties :
#
#
# Convention : Reuss Voigt Hill
#
# Bulk Modulus (GPa) = 34.61052 52.28624 43.44838
# Shear Modulus (GPa) = 23.37682 31.88912 27.63297
#
# Velocity S-wave (km/s) = 3.30119 3.85566 3.58915
# Velocity P-wave (km/s) = 5.53763 6.64804 6.11808
#
# Compressibility (1/GPa) = 0.02889295
#
# Stress axis : x y z
#
# Youngs Moduli (GPa) = 35.61115 40.20017 70.50255
#
# Poissons Ratio (x) = 0.41915 0.03326
# Poissons Ratio (y) = 0.37130 0.57992
# Poissons Ratio (z) = 0.01680 0.33067
#
# Static dielectric constant tensor:
#      x y z
#    x 3.993150 -0.236080 0.216350 
#    y -0.236080 3.683100 -0.037910 
#    z 0.216350 -0.037910 3.905020 
# 
# 
# High freq. dielectric constant tensor:
#      x y z
#    x 1.837760 -0.031200 0.030310 
#    y -0.031200 1.815830 0.011910 
#    z 0.030310 0.011910 1.845050 
# 
# From -- ./inp_files/473677.got.cif
#   From: 2010.06.25/outbox.cif.g09.slc.cpg/sg2_237_cif.got.tgz:473677.got - 2010.06.27 13:26:56.
