data_PCOD8039303
_publ_section_title
;
Structure prediction by ZEFSAII (Michael W. Deem and Ramdas Pophale) SiO2 
 PCOD8039303
Probable space group: P -1
;
_chemical_formula_sum "Si O2"
_cell_formula_units_Z 12
_cell_length_a 8.495280
_cell_length_b 8.880440
_cell_length_c 13.855670
_cell_angle_alpha 65.898303
_cell_angle_beta 44.105367
_cell_angle_gamma 86.993748
_cell_volume 614.540711
_symmetry_space_group_name_H-M "P -1"
_symmetry_group_IT_number 2
_symmetry_cell_setting 'triclinic'
loop_
_space_group_symop_operation_xyz
x,y,z
-x,-y,-z
loop_
_atom_site_type_symbol
_atom_site_label
_atom_site_fract_x
_atom_site_fract_y
_atom_site_fract_z
Si Si1 0.160932 0.782887 0.502561
Si Si2 0.777309 0.539732 0.391489
Si Si3 0.893566 0.096759 0.827616
Si Si4 0.292176 0.406793 0.379227
Si Si5 0.694228 0.932971 0.479503
Si Si6 0.462260 0.803399 0.182138
O O1 0.161527 0.631071 0.619844
O O2 0.390909 0.824435 0.318150
O O3 0.906385 0.712162 0.577626
O O4 0.190795 0.958180 0.502916
O O5 0.500000 0.500000 0.500000
O O6 0.956263 0.728101 0.218105
O O7 0.837668 0.562095 0.474612
O O8 0.714218 0.145891 0.823612
O O9 0.083646 0.038383 0.699272
O O10 0.741307 0.936808 0.007526
O O11 0.437471 0.278600 0.378854
O O12 0.454665 0.602860 0.215804
O O13 0.500000 0.000000 0.500000
#
# Coordination Sequence:
#
# PCOD8039303 Si02
#       6
#     2   2   2   2   2   2
#     4  11  18  35  59  85 107 149 196 223 272 334
#     4  10  18  33  56  82 113 147 184 227 274 336
#     4  10  20  37  57  86 115 140 187 237 285 316
#     4  10  19  36  56  84 108 148 197 222 271 337
#     4  11  23  37  55  83 118 150 184 228 285 340
#     4  10  19  36  61  86 108 142 190 246 267 319
#
# _framework density 19.526776000000002
#
# number of rings (size 3 to 8) (size 9 to 14) (size 15 to 20)
#    0.000    1.667    5.000    3.500    0.000    0.000 
#    0.000   10.833    0.000    0.000    0.000    0.000 
#    0.000    0.000    0.000    0.000    0.000    0.000 
#
# Total GULP energy -148686.153486 kJ/mol
# GULP energy per Si atom -12390.512790 kJ/mol
# Density = 1.948233 g / cm^3
# Si number density = 19.526776 Si / 1000 Ang^3
#
#
#
# Elastic Constant Matrix: (Units=GPa)
#
#
# Indices 1 2 3 4 5 6 
#
# 1 59.5901 10.5131 31.1263 -6.4400 -4.4308 -18.1603
# 2 10.5131 102.8369 62.4130 -20.5179 5.3743 -18.1289
# 3 31.1263 62.4130 144.6912 -31.4348 -11.1903 -7.8433
# 4 -6.4400 -20.5179 -31.4348 29.1488 -1.1322 4.5231
# 5 -4.4308 5.3743 -11.1903 -1.1322 20.6537 -3.5730
# 6 -18.1603 -18.1289 -7.8433 4.5231 -3.5730 37.0082
#
#
#
# Elastic Compliance Matrix: (Units=1/GPa)
#
#
# Indices 1 2 3 4 5 6 
#
# 1 0.022856 0.002673 -0.005268 -0.000448 0.003368 0.011789
# 2 0.002673 0.015622 -0.006741 0.003067 -0.005834 0.006598
# 3 -0.005268 -0.006741 0.013410 0.009389 0.007809 -0.003439
# 4 -0.000448 0.003067 0.009389 0.047031 0.006451 -0.001853
# 5 0.003368 -0.005834 0.007809 0.006451 0.056122 0.005080
# 6 0.011789 0.006598 -0.003439 -0.001853 0.005080 0.036026
#
#
# Mechanical properties :
#
#
# Convention : Reuss Voigt Hill
#
# Bulk Modulus (GPa) = 30.10525 57.24699 43.67612
# Shear Modulus (GPa) = 22.64406 30.89986 26.77196
#
# Velocity S-wave (km/s) = 3.40905 3.98230 3.70677
# Velocity P-wave (km/s) = 5.56294 7.10815 6.38248
#
# Compressibility (1/GPa) = 0.03321680
#
# Stress axis : x y z
#
# Youngs Moduli (GPa) = 43.75240 64.01287 74.57330
#
# Poissons Ratio (x) = -0.17112 0.39283
# Poissons Ratio (y) = -0.11696 0.50269
# Poissons Ratio (z) = 0.23047 0.43150
#
# Static dielectric constant tensor:
#      x y z
#    x 3.483330 -0.030490 0.068400 
#    y -0.030490 3.865900 -0.542010 
#    z 0.068400 -0.542010 3.815170 
# 
# 
# High freq. dielectric constant tensor:
#      x y z
#    x 1.761990 -0.008420 0.001430 
#    y -0.008420 1.764080 -0.041270 
#    z 0.001430 -0.041270 1.729020 
# 
# From -- ./inp_files/492242.got.cif
#   From: 2010.06.25/outbox.cif.g09.slc.cpg/sg2_247_cif.got.tgz:492242.got - 2010.06.27 13:26:56.
