data_PCOD8039450
_publ_section_title
;
Structure prediction by ZEFSAII (Michael W. Deem and Ramdas Pophale) SiO2 
 PCOD8039450
Probable space group: P -1
;
_chemical_formula_sum "Si O2"
_cell_formula_units_Z 16
_cell_length_a 16.416609
_cell_length_b 30.122682
_cell_length_c 9.577512
_cell_angle_alpha 146.586515
_cell_angle_beta 43.817552
_cell_angle_gamma 161.670088
_cell_volume 748.508854
_symmetry_space_group_name_H-M "P -1"
_symmetry_group_IT_number 2
_symmetry_cell_setting 'triclinic'
loop_
_space_group_symop_operation_xyz
x,y,z
-x,-y,-z
loop_
_atom_site_type_symbol
_atom_site_label
_atom_site_fract_x
_atom_site_fract_y
_atom_site_fract_z
Si Si1 0.157859 0.578138 0.868001
Si Si2 0.721634 0.854740 0.284692
Si Si3 0.356216 0.223308 0.517699
Si Si4 0.682355 0.963057 0.096948
Si Si5 0.720262 0.098180 0.161727
Si Si6 0.663621 0.481512 0.568530
Si Si7 0.172572 0.181423 0.195919
Si Si8 0.403018 0.812230 0.568929
O O1 0.317608 0.592988 0.727455
O O2 0.919403 0.421775 0.630521
O O3 0.394192 0.791397 0.093891
O O4 0.000000 0.500000 0.000000
O O5 0.558688 0.728083 0.296867
O O6 0.598788 0.862716 0.399032
O O7 0.676893 0.756485 0.968929
O O8 0.051238 0.075350 0.489833
O O9 0.582440 0.419636 0.669702
O O10 0.347039 0.128186 0.216098
O O11 0.722050 0.071546 0.250094
O O12 0.955884 0.118891 0.265572
O O13 0.607390 0.119508 0.348609
O O14 0.038693 0.286029 0.198342
O O15 0.511169 0.909511 0.839912
O O16 0.407914 0.364750 0.492124
O O17 0.000000 0.000000 0.000000
#
# Coordination Sequence:
#
# PCOD8039450 Si02
#       8
#     2   2   2   2   2   2   2   2
#     4  10  20  35  61  86 110 147 202 243 274 333
#     4  10  18  33  62  88 111 139 205 246 283 324
#     4   9  18  34  61  87 109 144 195 256 277 325
#     4  10  20  37  60  86 114 149 191 244 290 336
#     4  10  22  40  54  81 126 156 186 226 295 356
#     4  10  20  38  58  85 118 154 191 231 300 348
#     4  11  19  35  66  89 109 150 193 249 294 331
#     4  10  21  36  59  81 116 161 183 233 285 350
#
# _framework density 21.375834000000001
#
# number of rings (size 3 to 8) (size 9 to 14) (size 15 to 20)
#    0.000    2.000    5.000    0.750    0.000    1.000 
#    4.500    3.125    2.750    0.000    0.000    0.000 
#    0.000    0.000    0.000    0.000    0.000    0.000 
#
# Total GULP energy -198353.784597 kJ/mol
# GULP energy per Si atom -12397.111537 kJ/mol
# Density = 2.132718 g / cm^3
# Si number density = 21.375834 Si / 1000 Ang^3
#
#
#
# Elastic Constant Matrix: (Units=GPa)
#
#
# Indices 1 2 3 4 5 6 
#
# 1 147.7095 68.7478 25.2247 11.5461 4.4604 0.4953
# 2 68.7478 139.2851 32.7655 6.4677 5.3656 -14.4810
# 3 25.2247 32.7655 41.6064 9.2567 15.1533 0.4472
# 4 11.5461 6.4677 9.2567 29.3367 2.6253 6.3625
# 5 4.4604 5.3656 15.1533 2.6253 26.7608 -3.9089
# 6 0.4953 -14.4810 0.4472 6.3625 -3.9089 39.4876
#
#
#
# Elastic Compliance Matrix: (Units=1/GPa)
#
#
# Indices 1 2 3 4 5 6 
#
# 1 0.009165 -0.004098 -0.002082 -0.001816 0.000468 -0.001255
# 2 -0.004098 0.011386 -0.007868 0.000270 0.003503 0.004619
# 3 -0.002082 -0.007868 0.040907 -0.007555 -0.021111 -0.004195
# 4 -0.001816 0.000270 -0.007555 0.038438 -0.000120 -0.005998
# 5 0.000468 0.003503 -0.021111 -0.000120 0.049494 0.006437
# 6 -0.001255 0.004619 -0.004195 -0.005998 0.006437 0.028685
#
#
# Mechanical properties :
#
#
# Convention : Reuss Voigt Hill
#
# Bulk Modulus (GPa) = 29.97336 64.67522 47.32429
# Shear Modulus (GPa) = 23.01064 32.57455 27.79259
#
# Velocity S-wave (km/s) = 3.28453 3.90795 3.60972
# Velocity P-wave (km/s) = 5.33261 7.11931 6.28973
#
# Compressibility (1/GPa) = 0.03336296
#
# Stress axis : x y z
#
# Youngs Moduli (GPa) = 109.11101 87.82936 24.44547
#
# Poissons Ratio (x) = 0.35993 0.05090
# Poissons Ratio (y) = 0.44714 0.19232
# Poissons Ratio (z) = 0.22717 0.69100
#
# Static dielectric constant tensor:
#      x y z
#    x 4.050290 0.137440 0.208630 
#    y 0.137440 4.067700 0.096020 
#    z 0.208630 0.096020 3.505970 
# 
# 
# High freq. dielectric constant tensor:
#      x y z
#    x 1.844040 0.011270 0.017100 
#    y 0.011270 1.838160 0.002490 
#    z 0.017100 0.002490 1.794990 
# 
# From -- ./inp_files/314267.got.cif
#   From: 2010.06.25/outbox.cif.g09.slc.cpg/sg2_158_cif.got.tgz:314267.got - 2010.06.27 13:26:56.
