data_PCOD8039700
_publ_section_title
;
Structure prediction by ZEFSAII (Michael W. Deem and Ramdas Pophale) SiO2 
 PCOD8039700
Probable space group: P -1
;
_chemical_formula_sum "Si O2"
_cell_formula_units_Z 16
_cell_length_a 8.806024
_cell_length_b 14.734771
_cell_length_c 13.682146
_cell_angle_alpha 88.416662
_cell_angle_beta 82.442959
_cell_angle_gamma 28.116155
_cell_volume 814.402194
_symmetry_space_group_name_H-M "P -1"
_symmetry_group_IT_number 2
_symmetry_cell_setting 'triclinic'
loop_
_space_group_symop_operation_xyz
x,y,z
-x,-y,-z
loop_
_atom_site_type_symbol
_atom_site_label
_atom_site_fract_x
_atom_site_fract_y
_atom_site_fract_z
Si Si1 0.349977 0.428718 0.333371
Si Si2 0.132979 0.131443 0.283801
Si Si3 0.886820 0.129150 0.153122
Si Si4 0.398986 0.452016 0.035555
Si Si5 0.214412 0.805432 0.528069
Si Si6 0.491251 0.304450 0.845466
Si Si7 0.515864 0.551762 0.326767
Si Si8 0.171877 0.295938 0.777479
O O1 0.598256 0.245098 0.245779
O O2 0.445560 0.345181 0.437582
O O3 0.401805 0.509869 0.314270
O O4 0.980434 0.601253 0.320679
O O5 0.048031 0.135990 0.183971
O O6 0.026786 0.117820 0.378419
O O7 0.921731 0.335559 0.310469
O O8 0.530374 0.932660 0.259198
O O9 0.726855 0.232700 0.058482
O O10 0.164885 0.906536 0.128896
O O11 0.097148 0.610357 0.133131
O O12 0.500000 0.500000 0.000000
O O13 0.285500 0.458585 0.946607
O O14 0.329870 0.679223 0.436235
O O15 0.000000 0.000000 0.500000
O O16 0.581115 0.330399 0.754970
O O17 0.292263 0.326363 0.813897
#
# Coordination Sequence:
#
# PCOD8039700 Si02
#       8
#     2   2   2   2   2   2   2   2
#     4   9  18  35  56  80 110 143 181 224 267 326
#     4   9  18  35  54  79 112 143 178 227 272 318
#     4   8  17  33  54  78 104 139 181 221 265 321
#     4  11  21  37  58  80 107 147 188 224 268 328
#     4  10  18  34  60  84 108 146 185 220 266 327
#     4  11  20  35  56  81 111 143 180 230 276 317
#     4  10  19  36  58  81 106 147 187 217 265 331
#     4  10  21  37  54  81 113 140 176 231 280 318
#
# _framework density 19.646312000000002
#
# number of rings (size 3 to 8) (size 9 to 14) (size 15 to 20)
#    0.000    2.500    0.000    6.750    0.000    0.000 
#    0.000   18.125    0.000    0.000    0.000    0.000 
#    0.000    0.000    0.000    0.000    0.000    0.000 
#
# Total GULP energy -198224.548194 kJ/mol
# GULP energy per Si atom -12389.034262 kJ/mol
# Density = 1.960160 g / cm^3
# Si number density = 19.646312 Si / 1000 Ang^3
#
#
#
# Elastic Constant Matrix: (Units=GPa)
#
#
# Indices 1 2 3 4 5 6 
#
# 1 55.8270 51.9751 34.7236 -4.3257 3.5849 0.1844
# 2 51.9751 140.0182 38.6930 -3.9389 2.5269 -10.0798
# 3 34.7236 38.6930 94.5888 -7.6646 10.9331 -2.3852
# 4 -4.3257 -3.9389 -7.6646 38.5798 3.6740 0.5527
# 5 3.5849 2.5269 10.9331 3.6740 21.7428 -4.4286
# 6 0.1844 -10.0798 -2.3852 0.5527 -4.4286 33.6232
#
#
#
# Elastic Compliance Matrix: (Units=1/GPa)
#
#
# Indices 1 2 3 4 5 6 
#
# 1 0.032188 -0.010091 -0.007527 0.001270 -0.001366 -0.003937
# 2 -0.010091 0.011411 -0.001100 -0.000399 0.001697 0.003628
# 3 -0.007527 -0.001100 0.014745 0.002595 -0.006513 -0.000143
# 4 0.001270 -0.000399 0.002595 0.027156 -0.006305 -0.001219
# 5 -0.001366 0.001697 -0.006513 -0.006305 0.051782 0.006978
# 6 -0.003937 0.003628 -0.000143 -0.001219 0.006978 0.031780
#
#
# Mechanical properties :
#
#
# Convention : Reuss Voigt Hill
#
# Bulk Modulus (GPa) = 47.83034 60.13527 53.98280
# Shear Modulus (GPa) = 23.42272 29.79197 26.60735
#
# Velocity S-wave (km/s) = 3.45660 3.89834 3.68410
# Velocity P-wave (km/s) = 6.35054 7.13710 6.75528
#
# Compressibility (1/GPa) = 0.02090723
#
# Stress axis : x y z
#
# Youngs Moduli (GPa) = 31.06722 87.63217 67.82050
#
# Poissons Ratio (x) = 0.88433 0.51047
# Poissons Ratio (y) = 0.31351 0.07463
# Poissons Ratio (z) = 0.23384 0.09643
#
# Static dielectric constant tensor:
#      x y z
#    x 3.209520 -0.128920 0.208260 
#    y -0.128920 4.046540 -0.039830 
#    z 0.208260 -0.039830 3.677800 
# 
# 
# High freq. dielectric constant tensor:
#      x y z
#    x 1.721370 0.000380 0.019560 
#    y 0.000380 1.783740 -0.003980 
#    z 0.019560 -0.003980 1.771540 
# 
# From -- ./inp_files/315780.got.cif
#   From: 2010.06.25/outbox.cif.g09.slc.cpg/sg2_158_cif.got.tgz:315780.got - 2010.06.27 13:26:56.
