data_PCOD8039419
_publ_section_title
;
Structure prediction by ZEFSAII (Michael W. Deem and Ramdas Pophale) SiO2 
 PCOD8039419
Probable space group: P -1
;
_chemical_formula_sum "Si O2"
_cell_formula_units_Z 16
_cell_length_a 18.932258
_cell_length_b 12.233969
_cell_length_c 17.261169
_cell_angle_alpha 147.434550
_cell_angle_beta 157.769878
_cell_angle_gamma 39.928650
_cell_volume 812.409920
_symmetry_space_group_name_H-M "P -1"
_symmetry_group_IT_number 2
_symmetry_cell_setting 'triclinic'
loop_
_space_group_symop_operation_xyz
x,y,z
-x,-y,-z
loop_
_atom_site_type_symbol
_atom_site_label
_atom_site_fract_x
_atom_site_fract_y
_atom_site_fract_z
Si Si1 0.862488 0.303599 0.054898
Si Si2 0.451818 0.218977 0.605042
Si Si3 0.369520 0.483872 0.285432
Si Si4 0.877136 0.880220 0.199175
Si Si5 0.964267 0.224359 0.863548
Si Si6 0.302075 0.405406 0.418355
Si Si7 0.132463 0.063046 0.278829
Si Si8 0.069010 0.703501 0.432871
O O1 0.962992 0.203833 0.170448
O O2 0.960805 0.518421 0.257722
O O3 0.649275 0.350897 0.892012
O O4 0.871058 0.146702 0.898933
O O5 0.307025 0.283517 0.430896
O O6 0.328282 0.199953 0.547109
O O7 0.500000 0.000000 0.500000
O O8 0.500000 0.500000 0.500000
O O9 0.179160 0.598611 0.169329
O O10 0.485562 0.575793 0.385368
O O11 0.323089 0.241567 0.087262
O O12 0.010729 0.823063 0.229727
O O13 0.937385 0.803456 0.297972
O O14 0.858418 0.123543 0.328252
O O15 0.884572 0.012293 0.694870
O O16 0.160052 0.297445 0.147435
O O17 0.241294 0.627715 0.512897
#
# Coordination Sequence:
#
# PCOD8039419 Si02
#       8
#     2   2   2   2   2   2   2   2
#     4  10  18  36  58  90 119 154 201 252 297 356
#     4  10  19  30  56  96 118 147 201 253 298 349
#     4  12  23  38  63  93 121 157 206 256 302 349
#     4  11  24  41  61  88 124 167 200 248 305 367
#     4  12  22  40  62  91 124 155 206 254 303 360
#     4  12  21  36  65  89 122 160 197 258 300 354
#     4  10  18  33  60  88 118 152 200 255 302 342
#     4  11  22  41  63  87 125 164 201 243 311 367
#
# _framework density 19.694489999999998
#
# number of rings (size 3 to 8) (size 9 to 14) (size 15 to 20)
#    0.000    1.000    5.000    4.875    0.000    0.500 
#    0.000    1.875    0.000    0.750    0.000    0.000 
#    0.000    0.000    0.000    0.000    0.000    0.000 
#
# Total GULP energy -198293.088919 kJ/mol
# GULP energy per Si atom -12393.318057 kJ/mol
# Density = 1.964966 g / cm^3
# Si number density = 19.694490 Si / 1000 Ang^3
#
#
#
# Elastic Constant Matrix: (Units=GPa)
#
#
# Indices 1 2 3 4 5 6 
#
# 1 78.7447 16.7502 48.0898 13.9298 15.8864 7.7368
# 2 16.7502 79.8271 43.8305 8.1840 -2.0383 11.4389
# 3 48.0898 43.8305 102.9099 8.9631 10.5306 0.8022
# 4 13.9298 8.1840 8.9631 31.8336 -1.7831 4.5027
# 5 15.8864 -2.0383 10.5306 -1.7831 25.6643 5.0128
# 6 7.7368 11.4389 0.8022 4.5027 5.0128 33.2289
#
#
#
# Elastic Compliance Matrix: (Units=1/GPa)
#
#
# Indices 1 2 3 4 5 6 
#
# 1 0.021318 0.001327 -0.008909 -0.007291 -0.009395 -0.002800
# 2 0.001327 0.018413 -0.008843 -0.001515 0.005544 -0.007065
# 3 -0.008909 -0.008843 0.017954 0.000182 -0.003557 0.005197
# 4 -0.007291 -0.001515 0.000182 0.035901 0.007553 -0.003789
# 5 -0.009395 0.005544 -0.003557 0.007553 0.048770 -0.008016
# 6 -0.002800 -0.007065 0.005197 -0.003789 -0.008016 0.034776
#
#
# Mechanical properties :
#
#
# Convention : Reuss Voigt Hill
#
# Bulk Modulus (GPa) = 40.26368 53.20252 46.73310
# Shear Modulus (GPa) = 22.90841 28.33280 25.62060
#
# Velocity S-wave (km/s) = 3.41425 3.79702 3.61071
# Velocity P-wave (km/s) = 6.00261 6.80410 6.41588
#
# Compressibility (1/GPa) = 0.02483628
#
# Stress axis : x y z
#
# Youngs Moduli (GPa) = 46.90887 54.30873 55.69687
#
# Poissons Ratio (x) = -0.07209 0.49620
# Poissons Ratio (y) = -0.06226 0.49253
# Poissons Ratio (z) = 0.41791 0.48025
#
# Static dielectric constant tensor:
#      x y z
#    x 3.949460 0.009980 0.632240 
#    y 0.009980 4.161310 0.165210 
#    z 0.632240 0.165210 4.243940 
# 
# 
# High freq. dielectric constant tensor:
#      x y z
#    x 1.757320 0.019180 0.034080 
#    y 0.019180 1.771950 -0.005850 
#    z 0.034080 -0.005850 1.751610 
# 
# From -- ./inp_files/282494.got.cif
#   From: 2010.06.25/outbox.cif.g09.slc.cpg/sg2_142_cif.got.tgz:282494.got - 2010.06.27 13:26:56.
