data_PCOD8039610
_publ_section_title
;
Structure prediction by ZEFSAII (Michael W. Deem and Ramdas Pophale) SiO2 
 PCOD8039610
Probable space group: P -1
;
_chemical_formula_sum "Si O2"
_cell_formula_units_Z 16
_cell_length_a 9.139203
_cell_length_b 8.044146
_cell_length_c 15.605946
_cell_angle_alpha 73.353516
_cell_angle_beta 132.681741
_cell_angle_gamma 89.095407
_cell_volume 771.320295
_symmetry_space_group_name_H-M "P -1"
_symmetry_group_IT_number 2
_symmetry_cell_setting 'triclinic'
loop_
_space_group_symop_operation_xyz
x,y,z
-x,-y,-z
loop_
_atom_site_type_symbol
_atom_site_label
_atom_site_fract_x
_atom_site_fract_y
_atom_site_fract_z
Si Si1 0.167512 0.479569 0.142595
Si Si2 0.527512 0.238084 0.585777
Si Si3 0.557904 0.131751 0.343874
Si Si4 0.882074 0.650826 0.684044
Si Si5 0.929372 0.386619 0.414717
Si Si6 0.869750 0.060890 0.628685
Si Si7 0.236660 0.096901 0.676325
Si Si8 0.521617 0.622745 0.274038
O O1 0.341843 0.286569 0.238167
O O2 0.053750 0.486590 0.188959
O O3 0.285630 0.634023 0.150588
O O4 0.000000 0.500000 0.000000
O O5 0.360337 0.329372 0.433049
O O6 0.761942 0.181850 0.649703
O O7 0.487039 0.383176 0.625262
O O8 0.487742 0.057511 0.630664
O O9 0.726695 0.150299 0.477534
O O10 0.649530 0.105055 0.286155
O O11 0.027385 0.563634 0.672991
O O12 0.899420 0.848790 0.685863
O O13 0.678448 0.432823 0.324522
O O14 0.000000 0.500000 0.500000
O O15 0.076505 0.184108 0.520877
O O16 0.099678 0.084547 0.706680
O O17 0.397136 0.209922 0.750410
#
# Coordination Sequence:
#
# PCOD8039610 Si02
#       8
#     2   2   2   2   2   2   2   2
#     4  12  26  42  60  82 117 170 212 244 284 339
#     4  10  18  36  60  95 121 152 187 253 315 350
#     4  10  18  36  58  86 120 154 197 244 290 361
#     4  11  20  36  60  92 126 151 200 244 297 357
#     4  10  18  34  57  97 132 150 175 239 327 375
#     4  11  18  31  64  96 123 145 190 248 312 361
#     4  10  20  33  56  93 121 155 181 231 321 371
#     4  10  23  38  56  88 130 153 190 244 302 368
#
# _framework density 20.743652000000001
#
# number of rings (size 3 to 8) (size 9 to 14) (size 15 to 20)
#    0.000    1.500    7.500    1.875    1.750    2.500 
#    0.000    3.125    0.000    0.750    0.000    0.000 
#    0.000    0.000    0.000    0.000    0.000    0.000 
#
# Total GULP energy -198223.690171 kJ/mol
# GULP energy per Si atom -12388.980636 kJ/mol
# Density = 2.069644 g / cm^3
# Si number density = 20.743652 Si / 1000 Ang^3
#
#
#
# Elastic Constant Matrix: (Units=GPa)
#
#
# Indices 1 2 3 4 5 6 
#
# 1 172.7369 41.6954 34.9213 20.4065 -5.9697 -11.2309
# 2 41.6954 54.1157 19.0615 12.4695 6.0086 -12.0040
# 3 34.9213 19.0615 74.5142 19.5482 0.1756 11.7226
# 4 20.4065 12.4695 19.5482 17.7855 1.6313 7.7185
# 5 -5.9697 6.0086 0.1756 1.6313 17.0662 9.0854
# 6 -11.2309 -12.0040 11.7226 7.7185 9.0854 38.4115
#
#
#
# Elastic Compliance Matrix: (Units=1/GPa)
#
#
# Indices 1 2 3 4 5 6 
#
# 1 0.008075 -0.004597 -0.001399 -0.005527 0.004204 0.001468
# 2 -0.004597 0.036051 -0.004577 -0.022065 -0.023489 0.021309
# 3 -0.001399 -0.004577 0.020210 -0.015185 0.005724 -0.006310
# 4 -0.005527 -0.022065 -0.015185 0.105747 0.010594 -0.027632
# 5 0.004204 -0.023489 0.005724 0.010594 0.083037 -0.029627
# 6 0.001468 0.021309 -0.006310 -0.027632 -0.029627 0.047608
#
#
# Mechanical properties :
#
#
# Convention : Reuss Voigt Hill
#
# Bulk Modulus (GPa) = 23.15286 54.74702 38.94994
# Shear Modulus (GPa) = 14.86895 28.36521 21.61708
#
# Velocity S-wave (km/s) = 2.68021 3.70187 3.23167
# Velocity P-wave (km/s) = 4.55672 6.68740 5.72210
#
# Compressibility (1/GPa) = 0.04319121
#
# Stress axis : x y z
#
# Youngs Moduli (GPa) = 123.83431 27.73812 49.48118
#
# Poissons Ratio (x) = 0.12750 0.06925
# Poissons Ratio (y) = 0.56921 0.22645
# Poissons Ratio (z) = 0.17330 0.12695
#
# Static dielectric constant tensor:
#      x y z
#    x 4.437470 -0.195110 0.120780 
#    y -0.195110 4.040040 0.007540 
#    z 0.120780 0.007540 3.089350 
# 
# 
# High freq. dielectric constant tensor:
#      x y z
#    x 1.847640 -0.004200 0.003590 
#    y -0.004200 1.822050 0.005890 
#    z 0.003590 0.005890 1.712180 
# 
# From -- ./inp_files/392391.got.cif
#   From: 2010.06.25/outbox.cif.g09.slc.cpg/sg2_197_cif.got.tgz:392391.got - 2010.06.27 13:26:56.
