data_PCOD8039754
_publ_section_title
;
Structure prediction by ZEFSAII (Michael W. Deem and Ramdas Pophale) SiO2 
 PCOD8039754
Probable space group: P -1
;
_chemical_formula_sum "Si O2"
_cell_formula_units_Z 16
_cell_length_a 19.844302
_cell_length_b 8.402398
_cell_length_c 12.065499
_cell_angle_alpha 125.939164
_cell_angle_beta 124.422010
_cell_angle_gamma 29.844623
_cell_volume 802.665246
_symmetry_space_group_name_H-M "P -1"
_symmetry_group_IT_number 2
_symmetry_cell_setting 'triclinic'
loop_
_space_group_symop_operation_xyz
x,y,z
-x,-y,-z
loop_
_atom_site_type_symbol
_atom_site_label
_atom_site_fract_x
_atom_site_fract_y
_atom_site_fract_z
Si Si1 0.888142 0.274417 0.421698
Si Si2 0.759912 0.554398 0.909206
Si Si3 0.746310 0.240011 0.934458
Si Si4 0.628188 0.752512 0.650439
Si Si5 0.453067 0.697779 0.926989
Si Si6 0.634715 0.522644 0.346349
Si Si7 0.980233 0.860698 0.157416
Si Si8 0.833856 0.665841 0.705860
O O1 0.773915 0.325618 0.340551
O O2 0.844770 0.574911 0.548766
O O3 0.949474 0.137449 0.297781
O O4 0.000000 0.000000 0.500000
O O5 0.780964 0.375769 0.961119
O O6 0.683954 0.578765 0.751011
O O7 0.908594 0.338151 0.917913
O O8 0.667889 0.917293 0.004807
O O9 0.585594 0.549645 0.939240
O O10 0.786092 0.982259 0.786591
O O11 0.839588 0.045898 0.052228
O O12 0.634851 0.556144 0.492900
O O13 0.717003 0.762721 0.693731
O O14 0.475746 0.126647 0.673944
O O15 0.392043 0.655807 0.768275
O O16 0.500000 0.500000 0.000000
O O17 0.030767 0.621937 0.208280
#
# Coordination Sequence:
#
# PCOD8039754 Si02
#       8
#     2   2   2   2   2   2   2   2
#     4   9  19  34  60  91 112 138 198 250 283 329
#     4  11  24  40  55  84 126 155 190 240 296 340
#     4  12  23  38  58  88 121 155 190 241 294 348
#     4   9  18  36  60  82 112 147 191 239 286 339
#     4  12  22  39  61  88 112 154 198 242 283 346
#     4  10  18  34  63  86 108 146 197 243 283 330
#     4  10  21  39  59  84 114 161 195 236 284 347
#     4   9  18  37  61  89 111 147 196 245 282 342
#
# _framework density 19.933591
#
# number of rings (size 3 to 8) (size 9 to 14) (size 15 to 20)
#    0.000    1.750    2.500    3.375    0.000    2.000 
#    0.000    2.500    0.000    0.000    0.000    0.000 
#    0.000    0.000    0.000    0.000    0.000    0.000 
#
# Total GULP energy -198300.301586 kJ/mol
# GULP energy per Si atom -12393.768849 kJ/mol
# Density = 1.988822 g / cm^3
# Si number density = 19.933591 Si / 1000 Ang^3
#
#
#
# Elastic Constant Matrix: (Units=GPa)
#
#
# Indices 1 2 3 4 5 6 
#
# 1 48.8710 37.9321 27.3621 15.3376 4.5939 -3.7215
# 2 37.9321 96.1132 50.9010 13.0108 4.0308 -19.4668
# 3 27.3621 50.9010 128.4521 18.9837 10.7490 -7.4376
# 4 15.3376 13.0108 18.9837 41.5850 -8.7353 1.6224
# 5 4.5939 4.0308 10.7490 -8.7353 20.7924 -1.0037
# 6 -3.7215 -19.4668 -7.4376 1.6224 -1.0037 29.6671
#
#
#
# Elastic Compliance Matrix: (Units=1/GPa)
#
#
# Indices 1 2 3 4 5 6 
#
# 1 0.033971 -0.012159 -0.000273 -0.010474 -0.009578 -0.003537
# 2 -0.012159 0.019688 -0.004890 0.000610 0.002147 0.010206
# 3 -0.000273 -0.004890 0.011028 -0.004800 -0.006731 -0.000444
# 4 -0.010474 0.000610 -0.004800 0.033989 0.018796 -0.003340
# 5 -0.009578 0.002147 -0.006731 0.018796 0.061149 -0.000439
# 6 -0.003537 0.010206 -0.000444 -0.003340 -0.000439 0.040017
#
#
# Mechanical properties :
#
#
# Convention : Reuss Voigt Hill
#
# Bulk Modulus (GPa) = 33.28768 56.20295 44.74532
# Shear Modulus (GPa) = 20.44983 28.89166 24.67075
#
# Velocity S-wave (km/s) = 3.20644 3.81122 3.52184
# Velocity P-wave (km/s) = 5.51760 6.90098 6.24770
#
# Compressibility (1/GPa) = 0.03004114
#
# Stress axis : x y z
#
# Youngs Moduli (GPa) = 29.43710 50.79363 90.67826
#
# Poissons Ratio (x) = 0.61759 0.02479
# Poissons Ratio (y) = 0.35792 0.44344
# Poissons Ratio (z) = 0.00805 0.24840
#
# Static dielectric constant tensor:
#      x y z
#    x 3.199450 -0.346640 -0.074310 
#    y -0.346640 3.691920 0.154890 
#    z -0.074310 0.154890 4.597530 
# 
# 
# High freq. dielectric constant tensor:
#      x y z
#    x 1.728910 -0.037280 0.000500 
#    y -0.037280 1.784290 0.005020 
#    z 0.000500 0.005020 1.800470 
# 
# From -- ./inp_files/218641.got.cif
#   From: 2010.06.25/outbox.cif.g09.slc.cpg/sg2_110_cif.got.tgz:218641.got - 2010.06.27 13:26:56.
