data_PCOD8039293
_publ_section_title
;
Structure prediction by ZEFSAII (Michael W. Deem and Ramdas Pophale) SiO2 
 PCOD8039293
Probable space group: P -1
;
_chemical_formula_sum "Si O2"
_cell_formula_units_Z 16
_cell_length_a 16.934884
_cell_length_b 8.679260
_cell_length_c 17.786539
_cell_angle_alpha 115.777702
_cell_angle_beta 146.753861
_cell_angle_gamma 41.147411
_cell_volume 793.612463
_symmetry_space_group_name_H-M "P -1"
_symmetry_group_IT_number 2
_symmetry_cell_setting 'triclinic'
loop_
_space_group_symop_operation_xyz
x,y,z
-x,-y,-z
loop_
_atom_site_type_symbol
_atom_site_label
_atom_site_fract_x
_atom_site_fract_y
_atom_site_fract_z
Si Si1 0.623093 0.766848 0.258906
Si Si2 0.821857 0.182036 0.752153
Si Si3 0.914338 0.815277 0.531282
Si Si4 0.682750 0.360211 0.506969
Si Si5 0.975392 0.685380 0.237240
Si Si6 0.929842 0.369267 0.212580
Si Si7 0.524434 0.289959 0.011068
Si Si8 0.886351 0.764068 0.008474
O O1 0.711574 0.878174 0.355364
O O2 0.534053 0.807724 0.113732
O O3 0.848612 0.430526 0.382950
O O4 0.395836 0.957873 0.172931
O O5 0.754990 0.265915 0.630360
O O6 0.596027 0.397403 0.672299
O O7 0.998852 0.166657 0.914306
O O8 0.936540 0.887835 0.790062
O O9 0.971614 0.722023 0.643924
O O10 0.811328 0.101304 0.501386
O O11 0.770428 0.467735 0.576699
O O12 0.956928 0.532075 0.237123
O O13 0.939717 0.680477 0.120301
O O14 0.789363 0.003195 0.186467
O O15 0.659391 0.558581 0.035395
O O16 0.500000 0.500000 0.000000
O O17 0.000000 0.500000 0.000000
#
# Coordination Sequence:
#
# PCOD8039293 Si02
#       8
#     2   2   2   2   2   2   2   2
#     4   9  17  29  51  77  97 125 171 209 242 291
#     4   9  18  31  49  71  96 133 174 206 245 300
#     4   9  17  31  52  74  99 130 165 209 252 299
#     4   9  17  31  49  70  96 131 173 208 241 293
#     4  10  20  32  51  78 102 130 167 209 258 302
#     4  10  19  32  51  77 107 130 159 210 262 301
#     4  10  18  33  56  78 101 133 171 206 242 297
#     4  10  19  33  52  73 100 135 176 212 245 296
#
# _framework density 20.160974
#
# number of rings (size 3 to 8) (size 9 to 14) (size 15 to 20)
#    0.000    2.500    0.000    4.875    0.000    1.500 
#    0.000    0.625    0.000   19.500    0.000    0.000 
#    0.000    0.000    0.000    0.000    0.000    0.000 
#
# Total GULP energy -198267.325292 kJ/mol
# GULP energy per Si atom -12391.707831 kJ/mol
# Density = 2.011509 g / cm^3
# Si number density = 20.160974 Si / 1000 Ang^3
#
#
#
# Elastic Constant Matrix: (Units=GPa)
#
#
# Indices 1 2 3 4 5 6 
#
# 1 64.1085 50.2141 33.9727 -5.9973 32.2018 16.2515
# 2 50.2141 167.0731 59.8544 -10.9689 34.9274 3.2379
# 3 33.9727 59.8544 120.0687 -5.2832 49.8118 -6.3572
# 4 -5.9973 -10.9689 -5.2832 33.4159 -7.5193 8.4260
# 5 32.2018 34.9274 49.8118 -7.5193 39.3420 1.9866
# 6 16.2515 3.2379 -6.3572 8.4260 1.9866 30.9138
#
#
#
# Elastic Compliance Matrix: (Units=1/GPa)
#
#
# Indices 1 2 3 4 5 6 
#
# 1 0.037224 -0.005976 0.003107 0.003411 -0.027562 -0.017462
# 2 -0.005976 0.008670 -0.002998 0.001261 0.001170 0.001198
# 3 0.003107 -0.002998 0.019977 -0.004648 -0.026353 0.005749
# 4 0.003411 0.001261 -0.004648 0.035678 0.009459 -0.013213
# 5 -0.027562 0.001170 -0.026353 0.009459 0.082059 0.001096
# 6 -0.017462 0.001198 0.005749 -0.013213 0.001096 0.046116
#
#
# Mechanical properties :
#
#
# Convention : Reuss Voigt Hill
#
# Bulk Modulus (GPa) = 18.47173 71.03697 44.75435
# Shear Modulus (GPa) = 19.26765 34.54829 26.90797
#
# Velocity S-wave (km/s) = 3.09478 4.14408 3.65726
# Velocity P-wave (km/s) = 4.68532 7.62950 6.33094
#
# Compressibility (1/GPa) = 0.05413679
#
# Stress axis : x y z
#
# Youngs Moduli (GPa) = 26.86470 115.33370 50.05823
#
# Poissons Ratio (x) = 0.68927 -0.15554
# Poissons Ratio (y) = 0.16055 0.15007
# Poissons Ratio (z) = -0.08347 0.34575
#
# Static dielectric constant tensor:
#      x y z
#    x 3.203330 -0.228290 0.490290 
#    y -0.228290 3.895780 -0.166670 
#    z 0.490290 -0.166670 4.008090 
# 
# 
# High freq. dielectric constant tensor:
#      x y z
#    x 1.730860 -0.009190 0.041950 
#    y -0.009190 1.803750 0.000150 
#    z 0.041950 0.000150 1.790900 
# 
# From -- ./inp_files/256911.got.cif
#   From: 2010.06.25/outbox.cif.g09.slc.cpg/sg2_129_cif.got.tgz:256911.got - 2010.06.27 13:26:56.
