data_PCOD8039713
_publ_section_title
;
Structure prediction by ZEFSAII (Michael W. Deem and Ramdas Pophale) SiO2 
 PCOD8039713
Probable space group: P -1
;
_chemical_formula_sum "Si O2"
_cell_formula_units_Z 16
_cell_length_a 14.651308
_cell_length_b 19.003154
_cell_length_c 25.423784
_cell_angle_alpha 160.793769
_cell_angle_beta 18.651341
_cell_angle_gamma 152.997205
_cell_volume 744.234634
_symmetry_space_group_name_H-M "P -1"
_symmetry_group_IT_number 2
_symmetry_cell_setting 'triclinic'
loop_
_space_group_symop_operation_xyz
x,y,z
-x,-y,-z
loop_
_atom_site_type_symbol
_atom_site_label
_atom_site_fract_x
_atom_site_fract_y
_atom_site_fract_z
Si Si1 0.402759 0.155132 0.390471
Si Si2 0.186564 0.809377 0.433248
Si Si3 0.385507 0.541703 0.225037
Si Si4 0.742434 0.867465 0.931388
Si Si5 0.628912 0.155260 0.458858
Si Si6 0.666474 0.609787 0.306361
Si Si7 0.209777 0.816366 0.111493
Si Si8 0.835320 0.265757 0.726746
O O1 0.478572 0.333614 0.518344
O O2 0.172877 0.260044 0.549736
O O3 0.286215 0.957439 0.346827
O O4 0.682106 0.070986 0.146569
O O5 0.165873 0.624717 0.358061
O O6 0.220439 0.700920 0.281115
O O7 0.467260 0.937790 0.385468
O O8 0.904926 0.965390 0.699335
O O9 0.230186 0.353480 0.207272
O O10 0.457855 0.734348 0.360778
O O11 0.683694 0.459501 0.978389
O O12 0.034355 0.902015 0.765868
O O13 0.486568 0.860417 0.024957
O O14 0.548902 0.322309 0.574434
O O15 0.966803 0.730041 0.222499
O O16 0.724566 0.355140 0.091415
#
# Coordination Sequence:
#
# PCOD8039713 Si02
#       8
#     2   2   2   2   2   2   2   2
#     4  10  18  34  60  90 113 155 204 245 287 338
#     4  11  22  41  60  91 120 155 201 243 294 351
#     4  11  23  37  62  90 121 159 191 245 304 348
#     4  11  22  39  63  87 123 155 199 243 296 350
#     4  11  23  39  59  90 126 154 194 248 295 352
#     4  10  19  33  59  89 116 148 209 245 277 338
#     4  10  19  35  61  84 117 156 198 248 276 351
#     4  10  19  35  62  90 114 153 205 248 279 351
#
# _framework density 21.498597
#
# number of rings (size 3 to 8) (size 9 to 14) (size 15 to 20)
#    0.000    1.500    5.000    2.625    3.500    0.500 
#    0.000    0.625    0.000    0.750    0.000    0.000 
#    0.000    0.000    0.000    0.000    0.000    0.000 
#
# Total GULP energy -198428.188007 kJ/mol
# GULP energy per Si atom -12401.761750 kJ/mol
# Density = 2.144967 g / cm^3
# Si number density = 21.498597 Si / 1000 Ang^3
#
#
#
# Elastic Constant Matrix: (Units=GPa)
#
#
# Indices 1 2 3 4 5 6 
#
# 1 148.5202 32.0478 64.1900 0.8910 5.2706 11.0735
# 2 32.0478 28.7551 32.4248 -5.5866 -9.4888 3.1663
# 3 64.1900 32.4248 138.2128 -0.7895 10.6038 7.3705
# 4 0.8910 -5.5866 -0.7895 21.2273 6.5763 -9.0023
# 5 5.2706 -9.4888 10.6038 6.5763 52.0455 10.0135
# 6 11.0735 3.1663 7.3705 -9.0023 10.0135 17.5036
#
#
#
# Elastic Compliance Matrix: (Units=1/GPa)
#
#
# Indices 1 2 3 4 5 6 
#
# 1 0.010260 -0.009428 -0.002209 -0.005696 -0.000318 -0.006603
# 2 -0.009428 0.066358 -0.012066 0.011310 0.014773 -0.003593
# 3 -0.002209 -0.012066 0.011378 -0.001016 -0.004307 0.000731
# 4 -0.005696 0.011310 -0.001016 0.077255 -0.016790 0.051323
# 5 -0.000318 0.014773 -0.004307 -0.016790 0.030032 -0.026474
# 6 -0.006603 -0.003593 0.000731 0.051323 -0.026474 0.103192
#
#
# Mechanical properties :
#
#
# Convention : Reuss Voigt Hill
#
# Bulk Modulus (GPa) = 24.63736 63.64592 44.14164
# Shear Modulus (GPa) = 13.91162 30.61031 22.26097
#
# Velocity S-wave (km/s) = 2.54656 3.77746 3.22135
# Velocity P-wave (km/s) = 4.48682 6.97815 5.86626
#
# Compressibility (1/GPa) = 0.04058876
#
# Stress axis : x y z
#
# Youngs Moduli (GPa) = 97.46496 15.06971 87.89170
#
# Poissons Ratio (x) = 0.14208 0.19418
# Poissons Ratio (y) = 0.91891 1.06052
# Poissons Ratio (z) = 0.21533 0.18183
#
# Static dielectric constant tensor:
#      x y z
#    x 3.975540 0.089450 0.078260 
#    y 0.089450 3.263470 0.187150 
#    z 0.078260 0.187150 4.308080 
# 
# 
# High freq. dielectric constant tensor:
#      x y z
#    x 1.852250 0.015760 0.004310 
#    y 0.015760 1.783380 0.011750 
#    z 0.004310 0.011750 1.864730 
# 
# From -- ./inp_files/619856.got.cif
#   From: 2010.06.25/outbox.cif.g09.slc.cpg/sg2_310_cif.got.tgz:619856.got - 2010.06.27 13:26:56.
