data_PCOD8039005
_publ_section_title
;
Structure prediction by ZEFSAII (Michael W. Deem and Ramdas Pophale) SiO2 
 PCOD8039005
Probable space group: P -1
;
_chemical_formula_sum "Si O2"
_cell_formula_units_Z 16
_cell_length_a 15.472193
_cell_length_b 11.253016
_cell_length_c 9.400508
_cell_angle_alpha 66.848653
_cell_angle_beta 110.160446
_cell_angle_gamma 142.767499
_cell_volume 909.072893
_symmetry_space_group_name_H-M "P -1"
_symmetry_group_IT_number 2
_symmetry_cell_setting 'triclinic'
loop_
_space_group_symop_operation_xyz
x,y,z
-x,-y,-z
loop_
_atom_site_type_symbol
_atom_site_label
_atom_site_fract_x
_atom_site_fract_y
_atom_site_fract_z
Si Si1 0.840337 0.865866 0.934243
Si Si2 0.887395 0.005812 0.584877
Si Si3 0.403856 0.683871 0.321150
Si Si4 0.560124 0.078981 0.153817
Si Si5 0.795402 0.703729 0.442137
Si Si6 0.382150 0.584074 0.040948
Si Si7 0.688530 0.802390 0.138623
Si Si8 0.716859 0.005276 0.311976
O O1 0.748889 0.636055 0.993503
O O2 0.830592 0.925393 0.749070
O O3 0.777804 0.899076 0.997767
O O4 0.000000 0.000000 0.000000
O O5 0.832126 0.084699 0.457226
O O6 0.058425 0.190320 0.592968
O O7 0.823691 0.823086 0.538635
O O8 0.296949 0.519276 0.458055
O O9 0.340324 0.587802 0.173045
O O10 0.435634 0.872927 0.274417
O O11 0.559200 0.778984 0.371928
O O12 0.706629 0.150667 0.222565
O O13 0.589973 0.260747 0.119189
O O14 0.500000 0.000000 0.000000
O O15 0.706466 0.683613 0.281906
O O16 0.521850 0.644509 0.087319
O O17 0.756388 0.987801 0.188310
#
# Coordination Sequence:
#
# PCOD8039005 Si02
#       8
#     2   2   2   2   2   2   2   2
#     4  12  23  36  49  78 114 151 167 209 269 324
#     4  10  20  32  51  75 112 141 175 214 264 312
#     4   8  16  30  57  80 102 126 174 222 265 298
#     4   8  15  33  56  84 104 128 174 231 264 293
#     4  10  18  32  52  79 108 135 174 223 262 313
#     4  10  19  33  56  78 110 136 174 218 264 312
#     4  10  20  32  53  83 108 134 173 215 271 319
#     4   8  18  32  58  83 101 132 176 227 260 311
#
# _framework density 17.600349000000001
#
# number of rings (size 3 to 8) (size 9 to 14) (size 15 to 20)
#    0.750    1.750    3.750    0.375    1.750    1.500 
#    0.000    0.000    2.750    6.000    0.000    0.000 
#    0.000    0.000    0.000    0.000    0.000    0.000 
#
# Total GULP energy -198237.218615 kJ/mol
# GULP energy per Si atom -12389.826163 kJ/mol
# Density = 1.756029 g / cm^3
# Si number density = 17.600349 Si / 1000 Ang^3
#
#
#
# Elastic Constant Matrix: (Units=GPa)
#
#
# Indices 1 2 3 4 5 6 
#
# 1 70.2322 58.2583 57.1506 -9.7039 16.6240 6.0620
# 2 58.2583 84.2585 44.4246 -9.6962 12.6136 8.7320
# 3 57.1506 44.4246 102.6613 -14.0934 8.9057 1.9052
# 4 -9.7039 -9.6962 -14.0934 26.4576 2.9553 0.7834
# 5 16.6240 12.6136 8.9057 2.9553 40.0032 -1.9667
# 6 6.0620 8.7320 1.9052 0.7834 -1.9667 13.5407
#
#
#
# Elastic Compliance Matrix: (Units=1/GPa)
#
#
# Indices 1 2 3 4 5 6 
#
# 1 0.051160 -0.024011 -0.016723 0.002426 -0.010476 -0.006728
# 2 -0.024011 0.028923 0.001393 0.002787 -0.000064 -0.008269
# 3 -0.016723 0.001393 0.018724 0.003980 0.002247 0.004050
# 4 0.002426 0.002787 0.003980 0.042729 -0.006265 -0.006825
# 5 -0.010476 -0.000064 0.002247 -0.006265 0.029782 0.009103
# 6 -0.006728 -0.008269 0.004050 -0.006825 0.009103 0.083343
#
#
# Mechanical properties :
#
#
# Convention : Reuss Voigt Hill
#
# Bulk Modulus (GPa) = 49.69368 64.09098 56.89233
# Shear Modulus (GPa) = 14.70357 22.48821 18.59589
#
# Velocity S-wave (km/s) = 2.89349 3.57839 3.25401
# Velocity P-wave (km/s) = 6.28162 7.31894 6.82003
#
# Compressibility (1/GPa) = 0.02012328
#
# Stress axis : x y z
#
# Youngs Moduli (GPa) = 19.54645 34.57422 53.40712
#
# Poissons Ratio (x) = 0.83018 0.89314
# Poissons Ratio (y) = 0.46934 -0.07437
# Poissons Ratio (z) = 0.32688 -0.04815
#
# Static dielectric constant tensor:
#      x y z
#    x 3.244710 -0.023940 0.201430 
#    y -0.023940 3.152160 -0.130730 
#    z 0.201430 -0.130730 3.356850 
# 
# 
# High freq. dielectric constant tensor:
#      x y z
#    x 1.661040 0.012020 0.012990 
#    y 0.012020 1.654020 -0.001250 
#    z 0.012990 -0.001250 1.679820 
# 
# From -- ./inp_files/305020.got.cif
#   From: 2010.06.25/outbox.cif.g09.slc.cpg/sg2_153_cif.got.tgz:305020.got - 2010.06.27 13:26:56.
