data_PCOD8039734
_publ_section_title
;
Structure prediction by ZEFSAII (Michael W. Deem and Ramdas Pophale) SiO2 
 PCOD8039734
Probable space group: P -1
;
_chemical_formula_sum "Si O2"
_cell_formula_units_Z 16
_cell_length_a 11.077300
_cell_length_b 14.102453
_cell_length_c 9.779102
_cell_angle_alpha 91.228024
_cell_angle_beta 63.089712
_cell_angle_gamma 46.100210
_cell_volume 837.355239
_symmetry_space_group_name_H-M "P -1"
_symmetry_group_IT_number 2
_symmetry_cell_setting 'triclinic'
loop_
_space_group_symop_operation_xyz
x,y,z
-x,-y,-z
loop_
_atom_site_type_symbol
_atom_site_label
_atom_site_fract_x
_atom_site_fract_y
_atom_site_fract_z
Si Si1 0.331602 0.011750 0.943871
Si Si2 0.274981 0.087889 0.286804
Si Si3 0.048413 0.584970 0.598057
Si Si4 0.943716 0.138326 0.558352
Si Si5 0.319510 0.345380 0.217433
Si Si6 0.252415 0.654546 0.592518
Si Si7 0.074991 0.850936 0.941341
Si Si8 0.380607 0.661155 0.027659
O O1 0.466683 0.031437 0.828289
O O2 0.491059 0.834118 0.855096
O O3 0.233806 0.080130 0.148903
O O4 0.139606 0.099046 0.933970
O O5 0.127772 0.261809 0.402287
O O6 0.184935 0.055780 0.432242
O O7 0.245550 0.434479 0.400926
O O8 0.142587 0.609410 0.659107
O O9 0.897429 0.583213 0.740884
O O10 0.783417 0.280993 0.537757
O O11 0.825369 0.205792 0.765780
O O12 0.000000 0.000000 0.500000
O O13 0.430914 0.362067 0.062413
O O14 0.500000 0.500000 0.500000
O O15 0.158127 0.786945 0.744065
O O16 0.272662 0.713237 0.935203
O O17 0.000000 0.000000 0.000000
O O18 0.500000 0.500000 0.000000
#
# Coordination Sequence:
#
# PCOD8039734 Si02
#       8
#     2   2   2   2   2   2   2   2
#     4  10  18  34  61  88 109 144 199 251 275 327
#     4   9  18  35  59  85 112 150 194 237 288 335
#     4   9  18  34  57  86 111 144 199 245 271 334
#     4  11  21  38  57  86 117 153 186 231 293 359
#     4  10  19  34  57  87 113 149 194 238 283 336
#     4  11  22  39  62  85 114 151 198 245 284 333
#     4  12  22  38  59  91 115 147 202 246 280 336
#     4  12  24  37  58  85 123 156 184 234 303 353
#
# _framework density 19.107780999999999
#
# number of rings (size 3 to 8) (size 9 to 14) (size 15 to 20)
#    0.000    1.500    3.750    4.500    0.000    0.000 
#    0.000    0.625    2.750    1.500    0.000    0.000 
#    0.000    0.000    0.000    0.000    0.000    0.000 
#
# Total GULP energy -198209.901921 kJ/mol
# GULP energy per Si atom -12388.118870 kJ/mol
# Density = 1.906429 g / cm^3
# Si number density = 19.107781 Si / 1000 Ang^3
#
#
#
# Elastic Constant Matrix: (Units=GPa)
#
#
# Indices 1 2 3 4 5 6 
#
# 1 144.2705 35.6012 45.4541 -2.4237 -27.4037 6.1102
# 2 35.6012 68.6795 6.5497 7.4838 -6.1946 5.2786
# 3 45.4541 6.5497 98.2050 9.1542 -19.8316 14.3688
# 4 -2.4237 7.4838 9.1542 29.9647 9.6235 3.5129
# 5 -27.4037 -6.1946 -19.8316 9.6235 45.1432 1.7980
# 6 6.1102 5.2786 14.3688 3.5129 1.7980 33.4741
#
#
#
# Elastic Compliance Matrix: (Units=1/GPa)
#
#
# Indices 1 2 3 4 5 6 
#
# 1 0.009964 -0.004749 -0.003866 0.002109 0.003241 0.000194
# 2 -0.004749 0.017800 0.002297 -0.005864 0.001915 -0.002414
# 3 -0.003866 0.002297 0.014427 -0.006553 0.005922 -0.005480
# 4 0.002109 -0.005864 -0.006553 0.040594 -0.011044 -0.000314
# 5 0.003241 0.001915 0.005922 -0.011044 0.029492 -0.003861
# 6 0.000194 -0.002414 -0.005480 -0.000314 -0.003861 0.032812
#
#
# Mechanical properties :
#
#
# Convention : Reuss Voigt Hill
#
# Bulk Modulus (GPa) = 33.83233 54.04054 43.93644
# Shear Modulus (GPa) = 29.83734 36.61973 33.22854
#
# Velocity S-wave (km/s) = 3.95591 4.38251 4.17466
# Velocity P-wave (km/s) = 6.21370 7.34520 6.80301
#
# Compressibility (1/GPa) = 0.02955752
#
# Stress axis : x y z
#
# Youngs Moduli (GPa) = 100.36059 56.17937 69.31309
#
# Poissons Ratio (x) = 0.26678 0.26793
# Poissons Ratio (y) = 0.47659 -0.15923
# Poissons Ratio (z) = 0.38795 -0.12906
#
# Static dielectric constant tensor:
#      x y z
#    x 4.218270 0.026340 -0.308360 
#    y 0.026340 3.352460 0.343930 
#    z -0.308360 0.343930 3.566080 
# 
# 
# High freq. dielectric constant tensor:
#      x y z
#    x 1.761000 0.019670 -0.017530 
#    y 0.019670 1.715330 0.045520 
#    z -0.017530 0.045520 1.740190 
# 
# From -- ./inp_files/270151.got.cif
#   From: 2010.06.25/outbox.cif.g09.slc.cpg/sg2_136_cif.got.tgz:270151.got - 2010.06.27 13:26:56.
