data_PCOD8039857
_publ_section_title
;
Structure prediction by ZEFSAII (Michael W. Deem and Ramdas Pophale) SiO2 
 PCOD8039857
Probable space group: P -1
;
_chemical_formula_sum "Si O2"
_cell_formula_units_Z 16
_cell_length_a 19.059355
_cell_length_b 13.701994
_cell_length_c 10.280892
_cell_angle_alpha 32.514926
_cell_angle_beta 139.139631
_cell_angle_gamma 139.688620
_cell_volume 882.705275
_symmetry_space_group_name_H-M "P -1"
_symmetry_group_IT_number 2
_symmetry_cell_setting 'triclinic'
loop_
_space_group_symop_operation_xyz
x,y,z
-x,-y,-z
loop_
_atom_site_type_symbol
_atom_site_label
_atom_site_fract_x
_atom_site_fract_y
_atom_site_fract_z
Si Si1 0.736439 0.018520 0.541389
Si Si2 0.345938 0.060483 0.755292
Si Si3 0.070856 0.781260 0.239491
Si Si4 0.602830 0.311245 0.765128
Si Si5 0.842846 0.549007 0.295253
Si Si6 0.622431 0.696152 0.230304
Si Si7 0.631559 0.328628 0.071306
Si Si8 0.224443 0.179136 0.944847
O O1 0.861873 0.177840 0.572593
O O2 0.638246 0.113199 0.315327
O O3 0.738943 0.948562 0.474911
O O4 0.708893 0.842571 0.804617
O O5 0.469001 0.196623 0.724023
O O6 0.313813 0.158281 0.726930
O O7 0.339027 0.842049 0.027525
O O8 0.103882 0.611584 0.406650
O O9 0.935133 0.714360 0.149806
O O10 0.116400 0.977003 0.995975
O O11 0.624105 0.481150 0.498941
O O12 0.652820 0.412657 0.859571
O O13 0.725093 0.466029 0.144409
O O14 0.821092 0.645086 0.290452
O O15 0.691128 0.778527 0.104197
O O16 0.494103 0.691427 0.032985
#
# Coordination Sequence:
#
# PCOD8039857 Si02
#       8
#     2   2   2   2   2   2   2   2
#     4   8  18  34  53  79  97 133 181 210 248 300
#     4   9  17  35  53  68 103 143 176 210 244 292
#     4   8  19  36  55  77  99 129 178 218 253 300
#     4   9  19  32  51  74  98 143 185 203 238 305
#     4  10  18  35  57  75 100 135 172 220 255 291
#     4  11  22  32  49  79 116 137 161 207 261 315
#     4   9  18  34  52  78 103 136 180 209 243 304
#     4  10  22  33  49  83 109 131 167 211 264 309
#
# _framework density 18.126094999999999
#
# number of rings (size 3 to 8) (size 9 to 14) (size 15 to 20)
#    0.750    2.000    0.000    2.625    3.500    2.000 
#    0.000    0.000    0.000    3.000    0.000    7.000 
#    0.000    0.000    0.000    0.000    0.000    0.000 
#
# Total GULP energy -198261.082116 kJ/mol
# GULP energy per Si atom -12391.317632 kJ/mol
# Density = 1.808484 g / cm^3
# Si number density = 18.126095 Si / 1000 Ang^3
#
#
#
# Elastic Constant Matrix: (Units=GPa)
#
#
# Indices 1 2 3 4 5 6 
#
# 1 107.8407 56.8357 42.3236 -3.1147 4.4260 -2.6791
# 2 56.8357 69.0387 24.6079 -15.2381 1.6220 -6.4707
# 3 42.3236 24.6079 49.6176 -11.4832 0.2316 -9.6648
# 4 -3.1147 -15.2381 -11.4832 18.4772 -3.3188 0.9141
# 5 4.4260 1.6220 0.2316 -3.3188 15.7529 -3.6974
# 6 -2.6791 -6.4707 -9.6648 0.9141 -3.6974 17.7909
#
#
#
# Elastic Compliance Matrix: (Units=1/GPa)
#
#
# Indices 1 2 3 4 5 6 
#
# 1 0.034357 -0.028092 -0.028327 -0.037369 -0.019514 -0.022567
# 2 -0.028092 0.042729 0.016929 0.043077 0.017465 0.021924
# 3 -0.028327 0.016929 0.052422 0.044175 0.022442 0.032764
# 4 -0.037369 0.043077 0.044175 0.115895 0.038290 0.036041
# 5 -0.019514 0.017465 0.022442 0.038290 0.082108 0.030702
# 6 -0.022567 0.021924 0.032764 0.036041 0.030702 0.083111
#
#
# Mechanical properties :
#
#
# Convention : Reuss Voigt Hill
#
# Bulk Modulus (GPa) = 19.79110 52.67015 36.23062
# Shear Modulus (GPa) = 9.87276 17.25287 13.56281
#
# Velocity S-wave (km/s) = 2.33635 3.08851 2.73838
# Velocity P-wave (km/s) = 4.26853 6.46833 5.47994
#
# Compressibility (1/GPa) = 0.05052778
#
# Stress axis : x y z
#
# Youngs Moduli (GPa) = 29.10657 23.40325 19.07597
#
# Poissons Ratio (x) = 0.65744 0.54037
# Poissons Ratio (y) = 0.81765 -0.32293
# Poissons Ratio (z) = 0.82450 -0.39619
#
# Static dielectric constant tensor:
#      x y z
#    x 3.016740 -0.237870 0.148670 
#    y -0.237870 3.403680 -0.082190 
#    z 0.148670 -0.082190 3.389420 
# 
# 
# High freq. dielectric constant tensor:
#      x y z
#    x 1.664460 -0.017650 0.018180 
#    y -0.017650 1.698530 -0.013920 
#    z 0.018180 -0.013920 1.700630 
# 
# From -- ./inp_files/465752.got.cif
#   From: 2010.06.25/outbox.cif.g09.slc.cpg/sg2_233_cif.got.tgz:465752.got - 2010.06.27 13:26:56.
