data_PCOD8039938
_publ_section_title
;
Structure prediction by ZEFSAII (Michael W. Deem and Ramdas Pophale) SiO2 
 PCOD8039938
Probable space group: P -1
;
_chemical_formula_sum "Si O2"
_cell_formula_units_Z 14
_cell_length_a 17.866494
_cell_length_b 9.677395
_cell_length_c 8.064415
_cell_angle_alpha 134.452976
_cell_angle_beta 65.372228
_cell_angle_gamma 139.048332
_cell_volume 633.315458
_symmetry_space_group_name_H-M "P -1"
_symmetry_group_IT_number 2
_symmetry_cell_setting 'triclinic'
loop_
_space_group_symop_operation_xyz
x,y,z
-x,-y,-z
loop_
_atom_site_type_symbol
_atom_site_label
_atom_site_fract_x
_atom_site_fract_y
_atom_site_fract_z
Si Si1 0.482075 0.546979 0.831121
Si Si2 0.790690 0.584138 0.264762
Si Si3 0.884346 0.375898 0.178149
Si Si4 0.664623 0.973887 0.260889
Si Si5 0.309459 0.824540 0.259257
Si Si6 0.858488 0.133614 0.662724
Si Si7 0.559422 0.336419 0.369377
O O1 0.379726 0.300129 0.841614
O O2 0.560705 0.499143 0.650462
O O3 0.418196 0.535016 0.724753
O O4 0.569192 0.847193 0.094908
O O5 0.872537 0.570844 0.274740
O O6 0.673263 0.391078 0.327532
O O7 0.849928 0.890063 0.444080
O O8 0.769106 0.472561 0.001578
O O9 0.018529 0.586331 0.296352
O O10 0.796563 0.179078 0.243260
O O11 0.858884 0.173914 0.892257
O O12 0.668027 0.154839 0.545769
O O13 0.250712 0.937641 0.380347
O O14 0.435439 0.017745 0.214264
#
# Coordination Sequence:
#
# PCOD8039938 Si02
#       7
#     2   2   2   2   2   2   2
#     4   9  18  33  59  84 111 149 183 221 279 333
#     4  11  20  36  59  82 109 146 189 229 269 328
#     4  10  22  38  59  84 109 143 189 234 274 321
#     4  10  19  35  52  83 120 141 178 231 279 329
#     4  10  22  36  56  85 114 146 184 225 276 331
#     4  10  21  40  61  79 106 149 194 229 266 325
#     4  10  18  35  59  84 110 145 189 227 268 329
#
# _framework density 22.105889000000001
#
# number of rings (size 3 to 8) (size 9 to 14) (size 15 to 20)
#    0.000    2.000    0.000    6.000    0.000    0.571 
#    0.000   12.857    0.000    0.000    0.000    0.000 
#    0.000    0.000    0.000    0.000    0.000    0.000 
#
# Total GULP energy -173515.760728 kJ/mol
# GULP energy per Si atom -12393.982909 kJ/mol
# Density = 2.205558 g / cm^3
# Si number density = 22.105889 Si / 1000 Ang^3
#
#
#
# Elastic Constant Matrix: (Units=GPa)
#
#
# Indices 1 2 3 4 5 6 
#
# 1 31.2725 6.9481 24.4814 -0.3112 -0.4318 9.5360
# 2 6.9481 128.5504 25.4572 -12.0034 8.4150 6.9025
# 3 24.4814 25.4572 111.4813 3.0807 1.8887 -11.4976
# 4 -0.3112 -12.0034 3.0807 28.2365 -3.3033 0.9536
# 5 -0.4318 8.4150 1.8887 -3.3033 27.4953 0.9901
# 6 9.5360 6.9025 -11.4976 0.9536 0.9901 25.9210
#
#
#
# Elastic Compliance Matrix: (Units=1/GPa)
#
#
# Indices 1 2 3 4 5 6 
#
# 1 0.050750 0.001678 -0.014338 0.004019 0.002678 -0.025727
# 2 0.001678 0.009019 -0.002965 0.004105 -0.001878 -0.004413
# 3 -0.014338 -0.002965 0.014206 -0.003529 -0.001169 0.012540
# 4 0.004019 0.004105 -0.003529 0.038232 0.003847 -0.005690
# 5 0.002678 -0.001878 -0.001169 0.003847 0.037622 -0.002582
# 6 -0.025727 -0.004413 0.012540 -0.005690 -0.002582 0.055089
#
#
# Mechanical properties :
#
#
# Convention : Reuss Voigt Hill
#
# Bulk Modulus (GPa) = 23.40497 42.78640 33.09568
# Shear Modulus (GPa) = 19.96730 30.62505 25.29618
#
# Velocity S-wave (km/s) = 3.00868 3.72611 3.38645
# Velocity P-wave (km/s) = 4.76238 6.15703 5.50406
#
# Compressibility (1/GPa) = 0.04272598
#
# Stress axis : x y z
#
# Youngs Moduli (GPa) = 19.70433 110.88084 70.39130
#
# Poissons Ratio (x) = -0.18602 1.00925
# Poissons Ratio (y) = -0.03306 0.20869
# Poissons Ratio (z) = 0.28251 0.32872
#
# Static dielectric constant tensor:
#      x y z
#    x 3.705120 0.226850 0.098290 
#    y 0.226850 3.905930 -0.090480 
#    z 0.098290 -0.090480 4.186420 
# 
# 
# High freq. dielectric constant tensor:
#      x y z
#    x 1.839570 0.017510 0.006760 
#    y 0.017510 1.862860 0.002780 
#    z 0.006760 0.002780 1.883380 
# 
# From -- ./inp_files/346443.got.cif
#   From: 2010.06.25/outbox.cif.g09.slc.cpg/sg2_174_cif.got.tgz:346443.got - 2010.06.27 13:26:56.
