data_PCOD8039056
_publ_section_title
;
Structure prediction by ZEFSAII (Michael W. Deem and Ramdas Pophale) SiO2 
 PCOD8039056
Probable space group: P -1
;
_chemical_formula_sum "Si O2"
_cell_formula_units_Z 14
_cell_length_a 7.307060
_cell_length_b 10.721463
_cell_length_c 12.459504
_cell_angle_alpha 57.153381
_cell_angle_beta 124.472908
_cell_angle_gamma 122.090827
_cell_volume 639.625342
_symmetry_space_group_name_H-M "P -1"
_symmetry_group_IT_number 2
_symmetry_cell_setting 'triclinic'
loop_
_space_group_symop_operation_xyz
x,y,z
-x,-y,-z
loop_
_atom_site_type_symbol
_atom_site_label
_atom_site_fract_x
_atom_site_fract_y
_atom_site_fract_z
Si Si1 0.848791 0.063694 0.339760
Si Si2 0.831169 0.555451 0.533737
Si Si3 0.269258 0.268952 0.257196
Si Si4 0.632966 0.948709 0.758822
Si Si5 0.266847 0.750786 0.479846
Si Si6 0.546354 0.092413 0.862477
Si Si7 0.606830 0.434626 0.730326
O O1 0.014744 0.201920 0.257836
O O2 0.653125 0.117069 0.315623
O O3 0.698184 0.926123 0.272522
O O4 0.000000 0.000000 0.500000
O O5 0.820285 0.379064 0.582514
O O6 0.758236 0.552388 0.634629
O O7 0.664113 0.610889 0.371686
O O8 0.087879 0.685523 0.549789
O O9 0.464593 0.222143 0.412362
O O10 0.339662 0.459625 0.192014
O O11 0.268764 0.194595 0.172129
O O12 0.746036 0.085378 0.645655
O O13 0.702105 0.018020 0.870477
O O14 0.674507 0.277035 0.842754
O O15 0.500000 0.000000 0.000000
#
# Coordination Sequence:
#
# PCOD8039056 Si02
#       7
#     2   2   2   2   2   2   2
#     4  10  22  38  65  92 130 164 205 259 311 365
#     4   9  19  31  55  90 127 161 196 264 308 358
#     4  11  22  34  57  96 123 163 201 261 318 366
#     4  10  22  36  59  91 131 159 206 257 309 371
#     4  10  18  32  54  92 131 154 200 253 320 358
#     4  10  23  45  66  86 124 172 212 253 306 377
#     4  10  21  37  59  89 129 162 214 252 314 374
#
# _framework density 21.887813999999999
#
# number of rings (size 3 to 8) (size 9 to 14) (size 15 to 20)
#    0.857    1.143    2.857    0.429    8.000    0.000 
#    0.000    2.143    0.000    0.000    0.000    0.000 
#    0.000    0.000    0.000    0.000    0.000    0.000 
#
# Total GULP energy -173449.530634 kJ/mol
# GULP energy per Si atom -12389.252188 kJ/mol
# Density = 2.183800 g / cm^3
# Si number density = 21.887814 Si / 1000 Ang^3
#
#
#
# Elastic Constant Matrix: (Units=GPa)
#
#
# Indices 1 2 3 4 5 6 
#
# 1 92.4894 48.6136 20.1952 -19.2136 -16.4712 2.6158
# 2 48.6136 124.6953 30.2544 -19.9539 -12.1284 -35.9537
# 3 20.1952 30.2544 53.4338 -5.6522 -14.7045 -18.2811
# 4 -19.2136 -19.9539 -5.6522 18.6527 3.8908 2.0615
# 5 -16.4712 -12.1284 -14.7045 3.8908 16.3285 -5.2906
# 6 2.6158 -35.9537 -18.2811 2.0615 -5.2906 45.6687
#
#
#
# Elastic Compliance Matrix: (Units=1/GPa)
#
#
# Indices 1 2 3 4 5 6 
#
# 1 0.018148 -0.005872 -0.002713 0.010880 0.006819 -0.006450
# 2 -0.005872 0.016590 0.001874 0.008314 0.010981 0.015045
# 3 -0.002713 0.001874 0.036061 0.000004 0.037751 0.020439
# 4 0.010880 0.008314 0.000004 0.073302 0.000555 0.002679
# 5 0.006819 0.010981 0.037751 0.000555 0.122295 0.037509
# 6 -0.006450 0.015045 0.020439 0.002679 0.037509 0.046517
#
#
# Mechanical properties :
#
#
# Convention : Reuss Voigt Hill
#
# Bulk Modulus (GPa) = 17.42860 52.08277 34.75568
# Shear Modulus (GPa) = 14.47338 27.56700 21.02019
#
# Velocity S-wave (km/s) = 2.57427 3.55275 3.10233
# Velocity P-wave (km/s) = 4.10071 6.37780 5.36154
#
# Compressibility (1/GPa) = 0.05737695
#
# Stress axis : x y z
#
# Youngs Moduli (GPa) = 55.10222 60.27590 27.73064
#
# Poissons Ratio (x) = 0.35395 0.07524
# Poissons Ratio (y) = 0.32357 -0.05197
# Poissons Ratio (z) = 0.14951 -0.11297
#
# Static dielectric constant tensor:
#      x y z
#    x 4.156550 -0.229020 -0.221170 
#    y -0.229020 4.098640 -0.028420 
#    z -0.221170 -0.028420 3.154250 
# 
# 
# High freq. dielectric constant tensor:
#      x y z
#    x 1.861430 -0.011050 -0.023540 
#    y -0.011050 1.879760 -0.012260 
#    z -0.023540 -0.012260 1.788070 
# 
# From -- ./inp_files/496359.got.cif
#   From: 2010.06.25/outbox.cif.g09.slc.cpg/sg2_249_cif.got.tgz:496359.got - 2010.06.27 13:26:56.
