data_PCOD8039810
_publ_section_title
;
Structure prediction by ZEFSAII (Michael W. Deem and Ramdas Pophale) SiO2 
 PCOD8039810
Probable space group: P -1
;
_chemical_formula_sum "Si O2"
_cell_formula_units_Z 16
_cell_length_a 12.008159
_cell_length_b 11.126974
_cell_length_c 11.133776
_cell_angle_alpha 39.790112
_cell_angle_beta 55.409635
_cell_angle_gamma 67.812804
_cell_volume 778.897933
_symmetry_space_group_name_H-M "P -1"
_symmetry_group_IT_number 2
_symmetry_cell_setting 'triclinic'
loop_
_space_group_symop_operation_xyz
x,y,z
-x,-y,-z
loop_
_atom_site_type_symbol
_atom_site_label
_atom_site_fract_x
_atom_site_fract_y
_atom_site_fract_z
Si Si1 0.095046 0.458910 0.736158
Si Si2 0.277351 0.918159 0.708895
Si Si3 0.881196 0.843727 0.236742
Si Si4 0.999309 0.832419 0.801358
Si Si5 0.343554 0.127575 0.283141
Si Si6 0.404358 0.639676 0.004432
Si Si7 0.157529 0.383200 0.339512
Si Si8 0.154772 0.864627 0.442203
O O1 0.156669 0.316634 0.716031
O O2 0.189167 0.661878 0.525078
O O3 0.943812 0.491838 0.760531
O O4 0.089895 0.355612 0.949212
O O5 0.344774 0.740065 0.849381
O O6 0.126890 0.871112 0.781414
O O7 0.255739 0.056752 0.728591
O O8 0.375287 0.015921 0.470914
O O9 0.923015 0.748841 0.409716
O O10 0.000000 0.000000 0.000000
O O11 0.044034 0.800314 0.662491
O O12 0.912267 0.013758 0.712538
O O13 0.493586 0.225925 0.074645
O O14 0.229400 0.265798 0.282381
O O15 0.288326 0.987269 0.318450
O O16 0.500000 0.500000 0.000000
O O17 0.272963 0.521714 0.236139
#
# Coordination Sequence:
#
# PCOD8039810 Si02
#       8
#     2   2   2   2   2   2   2   2
#     4  12  21  33  57  83 117 152 186 220 286 348
#     4  10  18  35  54  84 113 141 182 237 282 330
#     4  11  21  34  54  82 117 149 182 228 292 340
#     4  10  19  35  54  82 120 149 177 236 285 330
#     4   9  20  35  57  79 116 149 182 231 281 331
#     4  10  19  35  57  84 109 144 188 236 291 325
#     4  10  20  34  55  87 115 140 187 239 280 337
#     4  10  21  35  52  83 119 152 186 224 279 338
#
# _framework density 20.541844000000001
#
# number of rings (size 3 to 8) (size 9 to 14) (size 15 to 20)
#    0.000    1.750    2.500    4.125    0.000    0.000 
#    2.250    0.000    0.000    1.500    0.000    0.000 
#    0.000    0.000    0.000    0.000    0.000    0.000 
#
# Total GULP energy -198215.636987 kJ/mol
# GULP energy per Si atom -12388.477312 kJ/mol
# Density = 2.049509 g / cm^3
# Si number density = 20.541844 Si / 1000 Ang^3
#
#
#
# Elastic Constant Matrix: (Units=GPa)
#
#
# Indices 1 2 3 4 5 6 
#
# 1 102.5856 41.9683 50.6069 -16.4657 -9.1238 6.2693
# 2 41.9683 88.0651 33.4005 -27.8549 1.2226 7.3624
# 3 50.6069 33.4005 101.4291 -23.5288 0.4382 0.1020
# 4 -16.4657 -27.8549 -23.5288 29.8876 -0.2135 -0.1436
# 5 -9.1238 1.2226 0.4382 -0.2135 41.6653 -22.2131
# 6 6.2693 7.3624 0.1020 -0.1436 -22.2131 27.7806
#
#
#
# Elastic Compliance Matrix: (Units=1/GPa)
#
#
# Indices 1 2 3 4 5 6 
#
# 1 0.015057 -0.005588 -0.006078 -0.001659 0.004361 0.001584
# 2 -0.005588 0.019705 -0.000169 0.015062 -0.006611 -0.009169
# 3 -0.006078 -0.000169 0.014849 0.008177 -0.001206 0.000440
# 4 -0.001659 0.015062 0.008177 0.052957 -0.004215 -0.006744
# 5 0.004361 -0.006611 -0.001206 -0.004215 0.044519 0.036347
# 6 0.001584 -0.009169 0.000440 -0.006744 0.036347 0.067095
#
#
# Mechanical properties :
#
#
# Convention : Reuss Voigt Hill
#
# Bulk Modulus (GPa) = 38.54862 60.44791 49.49826
# Shear Modulus (GPa) = 20.28415 30.94030 25.61222
#
# Velocity S-wave (km/s) = 3.14579 3.88520 3.53488
# Velocity P-wave (km/s) = 5.65697 7.04393 6.38820
#
# Compressibility (1/GPa) = 0.02594127
#
# Stress axis : x y z
#
# Youngs Moduli (GPa) = 66.41396 50.74946 67.34570
#
# Poissons Ratio (x) = 0.28359 0.40930
# Poissons Ratio (y) = 0.37113 0.01138
# Poissons Ratio (z) = 0.40364 0.00857
#
# Static dielectric constant tensor:
#      x y z
#    x 3.748780 0.088430 -0.186190 
#    y 0.088430 3.741060 -0.418940 
#    z -0.186190 -0.418940 4.278600 
# 
# 
# High freq. dielectric constant tensor:
#      x y z
#    x 1.780050 0.001710 0.006580 
#    y 0.001710 1.782320 -0.039910 
#    z 0.006580 -0.039910 1.805400 
# 
# From -- ./inp_files/424916.got.cif
#   From: 2010.06.25/outbox.cif.g09.slc.cpg/sg2_213_cif.got.tgz:424916.got - 2010.06.27 13:26:56.
