data_PCOD8039785
_publ_section_title
;
Structure prediction by ZEFSAII (Michael W. Deem and Ramdas Pophale) SiO2 
 PCOD8039785
Probable space group: P -1
;
_chemical_formula_sum "Si O2"
_cell_formula_units_Z 16
_cell_length_a 9.490078
_cell_length_b 14.742544
_cell_length_c 10.858789
_cell_angle_alpha 71.755993
_cell_angle_beta 68.334062
_cell_angle_gamma 127.196732
_cell_volume 775.329224
_symmetry_space_group_name_H-M "P -1"
_symmetry_group_IT_number 2
_symmetry_cell_setting 'triclinic'
loop_
_space_group_symop_operation_xyz
x,y,z
-x,-y,-z
loop_
_atom_site_type_symbol
_atom_site_label
_atom_site_fract_x
_atom_site_fract_y
_atom_site_fract_z
Si Si1 0.014178 0.643013 0.555572
Si Si2 0.411097 0.553847 0.559719
Si Si3 0.989533 0.599634 0.857069
Si Si4 0.387004 0.696529 0.299610
Si Si5 0.097636 0.653147 0.059176
Si Si6 0.372820 0.147175 0.079261
Si Si7 0.874344 0.778567 0.489531
Si Si8 0.572707 0.643728 0.876230
O O1 0.034183 0.679026 0.679961
O O2 0.288356 0.744532 0.372201
O O3 0.812528 0.452713 0.673594
O O4 0.928746 0.693635 0.487663
O O5 0.500000 0.500000 0.500000
O O6 0.457002 0.657975 0.398307
O O7 0.610845 0.678911 0.551685
O O8 0.107339 0.390840 0.773310
O O9 0.060621 0.526958 0.834346
O O10 0.149802 0.722049 0.873182
O O11 0.688103 0.449059 0.063616
O O12 0.631625 0.853883 0.068290
O O13 0.373889 0.781479 0.983394
O O14 0.361226 0.252640 0.075915
O O15 0.119331 0.963798 0.286715
O O16 0.824083 0.773538 0.651440
O O17 0.500000 0.500000 0.000000
#
# Coordination Sequence:
#
# PCOD8039785 Si02
#       8
#     2   2   2   2   2   2   2   2
#     4  11  20  39  65  92 120 170 217 254 302 383
#     4  12  24  38  65  96 122 163 225 266 297 370
#     4  10  18  34  66  89 113 156 220 254 292 364
#     4  11  21  40  63  86 125 171 218 251 306 384
#     4  10  20  38  62  92 118 163 214 257 301 381
#     4  11  25  41  62  93 135 167 201 259 332 377
#     4  12  25  40  63  99 131 161 205 273 325 357
#     4  11  20  39  68  92 118 166 214 255 304 381
#
# _framework density 20.636393999999999
#
# number of rings (size 3 to 8) (size 9 to 14) (size 15 to 20)
#    0.000    1.000    7.500    1.125    0.000    1.000 
#    0.000    0.625    2.750    0.000    0.000    0.000 
#    0.000    0.000    0.000    0.000    0.000    0.000 
#
# Total GULP energy -198271.816175 kJ/mol
# GULP energy per Si atom -12391.988511 kJ/mol
# Density = 2.058942 g / cm^3
# Si number density = 20.636394 Si / 1000 Ang^3
#
#
#
# Elastic Constant Matrix: (Units=GPa)
#
#
# Indices 1 2 3 4 5 6 
#
# 1 102.8670 30.4136 45.2724 16.0009 -1.1887 -6.4913
# 2 30.4136 48.6283 42.8604 17.7012 -3.1695 -3.9873
# 3 45.2724 42.8604 147.4558 23.4215 0.0781 -7.0105
# 4 16.0009 17.7012 23.4215 33.5496 3.3076 -0.3023
# 5 -1.1887 -3.1695 0.0781 3.3076 31.9989 13.6752
# 6 -6.4913 -3.9873 -7.0105 -0.3023 13.6752 31.6995
#
#
#
# Elastic Compliance Matrix: (Units=1/GPa)
#
#
# Indices 1 2 3 4 5 6 
#
# 1 0.012537 -0.005432 -0.001919 -0.001696 -0.000624 0.001713
# 2 -0.005432 0.034023 -0.006442 -0.011307 0.004480 -0.000298
# 3 -0.001919 -0.006442 0.009679 -0.002323 -0.001084 0.001383
# 4 -0.001696 -0.011307 -0.002323 0.038735 -0.005349 0.000394
# 5 -0.000624 0.004480 -0.001084 -0.005349 0.039436 -0.016868
# 6 0.001713 -0.000298 0.001383 0.000394 -0.016868 0.039446
#
#
# Mechanical properties :
#
#
# Convention : Reuss Voigt Hill
#
# Bulk Modulus (GPa) = 34.90144 59.56042 47.23093
# Shear Modulus (GPa) = 23.69764 31.47660 27.58712
#
# Velocity S-wave (km/s) = 3.39240 3.90974 3.66022
# Velocity P-wave (km/s) = 5.68276 7.02182 6.38747
#
# Compressibility (1/GPa) = 0.02865211
#
# Stress axis : x y z
#
# Youngs Moduli (GPa) = 79.76628 29.39175 103.31998
#
# Poissons Ratio (x) = 0.15966 0.19826
# Poissons Ratio (y) = 0.43331 0.66559
# Poissons Ratio (z) = 0.15306 0.18934
#
# Static dielectric constant tensor:
#      x y z
#    x 4.203550 -0.048410 -0.140610 
#    y -0.048410 3.664700 0.491830 
#    z -0.140610 0.491830 3.711170 
# 
# 
# High freq. dielectric constant tensor:
#      x y z
#    x 1.819570 -0.005630 -0.000660 
#    y -0.005630 1.780550 0.046920 
#    z -0.000660 0.046920 1.795780 
# 
# From -- ./inp_files/393130.got.cif
#   From: 2010.06.25/outbox.cif.g09.slc.cpg/sg2_197_cif.got.tgz:393130.got - 2010.06.27 13:26:56.
