data_PCOD8039490
_publ_section_title
;
Structure prediction by ZEFSAII (Michael W. Deem and Ramdas Pophale) SiO2 
 PCOD8039490
Probable space group: P -1
;
_chemical_formula_sum "Si O2"
_cell_formula_units_Z 16
_cell_length_a 16.264365
_cell_length_b 9.846567
_cell_length_c 25.742337
_cell_angle_alpha 134.530130
_cell_angle_beta 161.951232
_cell_angle_gamma 44.355337
_cell_volume 888.569467
_symmetry_space_group_name_H-M "P -1"
_symmetry_group_IT_number 2
_symmetry_cell_setting 'triclinic'
loop_
_space_group_symop_operation_xyz
x,y,z
-x,-y,-z
loop_
_atom_site_type_symbol
_atom_site_label
_atom_site_fract_x
_atom_site_fract_y
_atom_site_fract_z
Si Si1 0.076572 0.239600 0.897824
Si Si2 0.185754 0.021761 0.007677
Si Si3 0.151620 0.871073 0.376839
Si Si4 0.816612 0.443194 0.603392
Si Si5 0.728389 0.642966 0.780085
Si Si6 0.602205 0.016424 0.122104
Si Si7 0.602005 0.698516 0.116960
Si Si8 0.754113 0.811941 0.729690
O O1 0.936539 0.154690 0.742195
O O2 0.962401 0.469489 0.897087
O O3 0.031025 0.118141 0.888828
O O4 0.407747 0.205944 0.082075
O O5 0.311791 0.175776 0.156664
O O6 0.439987 0.837898 0.101794
O O7 0.954360 0.958958 0.886315
O O8 0.182892 0.665703 0.370279
O O9 0.440225 0.934042 0.569948
O O10 0.921059 0.026692 0.312372
O O11 0.550409 0.432248 0.407972
O O12 0.814145 0.665216 0.677346
O O13 0.070179 0.358504 0.694633
O O14 0.812468 0.699674 0.788927
O O15 0.553369 0.819370 0.066838
O O16 0.500000 0.000000 0.000000
O O17 0.500000 0.500000 0.000000
#
# Coordination Sequence:
#
# PCOD8039490 Si02
#       8
#     2   2   2   2   2   2   2   2
#     4  10  18  34  53  75 108 139 171 212 260 313
#     4  11  24  33  51  83 111 136 169 214 273 310
#     4   9  16  32  55  80  97 134 182 218 248 303
#     4  10  18  34  60  75 100 140 182 213 251 306
#     4  11  21  37  54  76 107 145 175 207 258 319
#     4   8  17  29  50  78  99 132 173 210 250 306
#     4  10  19  34  53  77 107 132 169 223 261 299
#     4  11  19  35  56  78 103 136 179 222 253 298
#
# _framework density 18.006471000000001
#
# number of rings (size 3 to 8) (size 9 to 14) (size 15 to 20)
#    0.000    2.000    3.750    1.500    0.000    1.000 
#    0.000    0.000    0.000    0.750    0.000    0.000 
#    0.000    0.000    0.000    0.000    0.000    0.000 
#
# Total GULP energy -198262.975891 kJ/mol
# GULP energy per Si atom -12391.435993 kJ/mol
# Density = 1.796549 g / cm^3
# Si number density = 18.006471 Si / 1000 Ang^3
#
#
#
# Elastic Constant Matrix: (Units=GPa)
#
#
# Indices 1 2 3 4 5 6 
#
# 1 63.0408 37.3295 39.9342 -5.3406 17.4558 -8.9756
# 2 37.3295 98.8759 46.2215 -13.6948 8.8533 -20.4709
# 3 39.9342 46.2215 75.0255 -13.2383 14.5553 -8.1284
# 4 -5.3406 -13.6948 -13.2383 28.5131 -8.9380 1.2595
# 5 17.4558 8.8533 14.5553 -8.9380 29.3424 -1.5640
# 6 -8.9756 -20.4709 -8.1284 1.2595 -1.5640 23.0683
#
#
#
# Elastic Compliance Matrix: (Units=1/GPa)
#
#
# Indices 1 2 3 4 5 6 
#
# 1 0.028792 -0.005159 -0.010599 -0.005865 -0.011973 0.002398
# 2 -0.005159 0.018074 -0.006867 0.005007 0.003163 0.011553
# 3 -0.010599 -0.006867 0.024354 0.005439 -0.002157 -0.002080
# 4 -0.005865 0.005007 0.005439 0.042682 0.012420 0.002590
# 5 -0.011973 0.003163 -0.002157 0.012420 0.045089 -0.000232
# 6 0.002398 0.011553 -0.002080 0.002590 -0.000232 0.053645
#
#
# Mechanical properties :
#
#
# Convention : Reuss Voigt Hill
#
# Bulk Modulus (GPa) = 38.50779 53.76808 46.13794
# Shear Modulus (GPa) = 18.75870 23.74855 21.25363
#
# Velocity S-wave (km/s) = 3.23116 3.63559 3.43932
# Velocity P-wave (km/s) = 5.94579 6.89555 6.43821
#
# Compressibility (1/GPa) = 0.02596877
#
# Stress axis : x y z
#
# Youngs Moduli (GPa) = 34.73247 55.32859 41.06063
#
# Poissons Ratio (x) = 0.28544 0.43520
# Poissons Ratio (y) = 0.17919 0.28198
# Poissons Ratio (z) = 0.36813 0.37996
#
# Static dielectric constant tensor:
#      x y z
#    x 3.395950 -0.068500 0.401010 
#    y -0.068500 3.303880 -0.465100 
#    z 0.401010 -0.465100 3.566640 
# 
# 
# High freq. dielectric constant tensor:
#      x y z
#    x 1.696760 -0.002370 0.018270 
#    y -0.002370 1.685880 -0.028140 
#    z 0.018270 -0.028140 1.683820 
# 
# From -- ./inp_files/205659.got.cif
#   From: 2010.06.25/outbox.cif.g09.slc.cpg/sg2_103_cif.got.tgz:205659.got - 2010.06.27 13:26:56.
