data_PCOD8039819
_publ_section_title
;
Structure prediction by ZEFSAII (Michael W. Deem and Ramdas Pophale) SiO2 
 PCOD8039819
Probable space group: P -1
;
_chemical_formula_sum "Si O2"
_cell_formula_units_Z 16
_cell_length_a 8.564063
_cell_length_b 19.379457
_cell_length_c 13.276185
_cell_angle_alpha 154.745507
_cell_angle_beta 92.078796
_cell_angle_gamma 74.416321
_cell_volume 782.634802
_symmetry_space_group_name_H-M "P -1"
_symmetry_group_IT_number 2
_symmetry_cell_setting 'triclinic'
loop_
_space_group_symop_operation_xyz
x,y,z
-x,-y,-z
loop_
_atom_site_type_symbol
_atom_site_label
_atom_site_fract_x
_atom_site_fract_y
_atom_site_fract_z
Si Si1 0.462126 0.317958 0.524261
Si Si2 0.053904 0.786891 0.506856
Si Si3 0.473545 0.844280 0.465447
Si Si4 0.901679 0.664140 0.521075
Si Si5 0.549272 0.598902 0.964319
Si Si6 0.140585 0.003157 0.931685
Si Si7 0.226949 0.264753 0.951825
Si Si8 0.123655 0.280316 0.751464
O O1 0.503297 0.234307 0.526813
O O2 0.282676 0.339224 0.498561
O O3 0.433190 0.529234 0.808195
O O4 0.644673 0.170231 0.266234
O O5 0.253869 0.586223 0.238015
O O6 0.927481 0.761822 0.552138
O O7 0.953642 0.835737 0.460082
O O8 0.083354 0.959557 0.763864
O O9 0.660545 0.825798 0.410599
O O10 0.301968 0.069072 0.757177
O O11 0.432921 0.723232 0.224341
O O12 0.879542 0.791466 0.787621
O O13 0.081823 0.447982 0.259479
O O14 0.594627 0.725464 0.060609
O O15 0.000000 0.000000 0.000000
O O16 0.108865 0.273183 0.862013
O O17 0.000000 0.500000 0.000000
#
# Coordination Sequence:
#
# PCOD8039819 Si02
#       8
#     2   2   2   2   2   2   2   2
#     4  11  20  33  59  84 107 139 187 231 277 318
#     4   9  16  30  55  85 103 142 186 224 264 313
#     4  11  20  33  52  86 119 148 175 221 278 330
#     4  10  18  35  55  81 106 143 188 232 265 317
#     4   9  18  32  53  81 113 147 177 218 263 327
#     4   9  20  35  57  83 105 134 188 244 271 311
#     4  10  21  34  56  80 118 154 177 214 273 330
#     4  11  15  30  57  84 110 142 191 218 258 326
#
# _framework density 20.443763000000001
#
# number of rings (size 3 to 8) (size 9 to 14) (size 15 to 20)
#    0.000    2.000    5.000    3.000    0.000    0.000 
#    0.000    1.250    5.500    0.750    3.250    0.000 
#    0.000    0.000    0.000    0.000    0.000    0.000 
#
# Total GULP energy -198299.475186 kJ/mol
# GULP energy per Si atom -12393.717199 kJ/mol
# Density = 2.039723 g / cm^3
# Si number density = 20.443763 Si / 1000 Ang^3
#
#
#
# Elastic Constant Matrix: (Units=GPa)
#
#
# Indices 1 2 3 4 5 6 
#
# 1 95.6466 4.2960 46.0922 -6.0038 17.5481 -11.7773
# 2 4.2960 18.7168 25.6393 -0.0698 6.6819 -3.3037
# 3 46.0922 25.6393 144.1321 -14.4772 13.8126 -11.6331
# 4 -6.0038 -0.0698 -14.4772 16.5125 -8.6810 2.5197
# 5 17.5481 6.6819 13.8126 -8.6810 39.3524 -11.5842
# 6 -11.7773 -3.3037 -11.6331 2.5197 -11.5842 19.6050
#
#
#
# Elastic Compliance Matrix: (Units=1/GPa)
#
#
# Indices 1 2 3 4 5 6 
#
# 1 0.013773 0.006004 -0.004946 -0.002428 -0.004842 0.003802
# 2 0.006004 0.080250 -0.016711 -0.019925 -0.014473 0.001223
# 3 -0.004946 -0.016711 0.012393 0.010595 0.003741 0.002416
# 4 -0.002428 -0.019925 0.010595 0.078369 0.018768 0.002487
# 5 -0.004842 -0.014473 0.003741 0.018768 0.037799 0.016795
# 6 0.003802 0.001223 0.002416 0.002487 0.016795 0.064535
#
#
# Mechanical properties :
#
#
# Convention : Reuss Voigt Hill
#
# Bulk Modulus (GPa) = 13.31369 45.61673 29.46521
# Shear Modulus (GPa) = 14.55769 27.25850 20.90810
#
# Velocity S-wave (km/s) = 2.67139 3.65546 3.20146
# Velocity P-wave (km/s) = 4.00519 6.33863 5.30187
#
# Compressibility (1/GPa) = 0.07511065
#
# Stress axis : x y z
#
# Youngs Moduli (GPa) = 72.60716 12.46101 80.69103
#
# Poissons Ratio (x) = -0.07482 0.39906
# Poissons Ratio (y) = -0.43593 1.34844
# Poissons Ratio (z) = 0.35908 0.20824
#
# Static dielectric constant tensor:
#      x y z
#    x 4.005180 -0.066310 0.247010 
#    y -0.066310 3.301100 -0.482250 
#    z 0.247010 -0.482250 4.365780 
# 
# 
# High freq. dielectric constant tensor:
#      x y z
#    x 1.803380 -0.001250 0.003380 
#    y -0.001250 1.741190 -0.026120 
#    z 0.003380 -0.026120 1.810660 
# 
# From -- ./inp_files/217275.got.cif
#   From: 2010.06.25/outbox.cif.g09.slc.cpg/sg2_109_cif.got.tgz:217275.got - 2010.06.27 13:26:56.
