data_PCOD8039497
_publ_section_title
;
Structure prediction by ZEFSAII (Michael W. Deem and Ramdas Pophale) SiO2 
 PCOD8039497
Probable space group: P -1
;
_chemical_formula_sum "Si O2"
_cell_formula_units_Z 16
_cell_length_a 14.460456
_cell_length_b 8.621314
_cell_length_c 11.053890
_cell_angle_alpha 63.120299
_cell_angle_beta 42.282786
_cell_angle_gamma 85.232135
_cell_volume 750.929317
_symmetry_space_group_name_H-M "P -1"
_symmetry_group_IT_number 2
_symmetry_cell_setting 'triclinic'
loop_
_space_group_symop_operation_xyz
x,y,z
-x,-y,-z
loop_
_atom_site_type_symbol
_atom_site_label
_atom_site_fract_x
_atom_site_fract_y
_atom_site_fract_z
Si Si1 0.230201 0.100619 0.214857
Si Si2 0.008762 0.361990 0.717904
Si Si3 0.658285 0.460872 0.597606
Si Si4 0.042785 0.281182 0.445093
Si Si5 0.701520 0.091930 0.220532
Si Si6 0.516210 0.205407 0.044689
Si Si7 0.418578 0.130585 0.815005
Si Si8 0.460754 0.234987 0.353006
O O1 0.193036 0.262941 0.259588
O O2 0.365137 0.078034 0.163399
O O3 0.291045 0.175922 0.993677
O O4 0.095164 0.893106 0.420634
O O5 0.953326 0.523235 0.678331
O O6 0.159777 0.439310 0.626785
O O7 0.035260 0.267435 0.602615
O O8 0.878341 0.202880 0.980509
O O9 0.585651 0.296937 0.622677
O O10 0.582366 0.607995 0.596083
O O11 0.626845 0.379655 0.793559
O O12 0.620019 0.237223 0.244931
O O13 0.618065 0.906471 0.277547
O O14 0.671775 0.980992 0.417342
O O15 0.472825 0.282356 0.182415
O O16 0.602719 0.074961 0.039096
#
# Coordination Sequence:
#
# PCOD8039497 Si02
#       8
#     2   2   2   2   2   2   2   2
#     4  10  18  34  53  90 117 155 180 242 290 348
#     4  11  22  36  58  90 117 153 184 248 287 342
#     4  11  22  35  63  91 115 144 198 242 296 334
#     4  10  21  31  56  86 126 143 191 234 301 336
#     4  10  23  42  61  79 122 159 195 230 290 342
#     4  10  20  35  61  85 121 146 193 236 298 336
#     4  10  20  37  59  85 118 158 186 235 294 350
#     4  10  23  40  60  86 111 162 199 237 272 354
#
# _framework density 21.306932
#
# number of rings (size 3 to 8) (size 9 to 14) (size 15 to 20)
#    0.000    1.750    1.250    4.125    8.750    1.000 
#    0.000    0.000    0.000    7.500    0.000    0.000 
#    0.000    0.000    0.000    0.000    0.000    0.000 
#
# Total GULP energy -198351.213544 kJ/mol
# GULP energy per Si atom -12396.950847 kJ/mol
# Density = 2.125844 g / cm^3
# Si number density = 21.306932 Si / 1000 Ang^3
#
#
#
# Elastic Constant Matrix: (Units=GPa)
#
#
# Indices 1 2 3 4 5 6 
#
# 1 38.1320 4.1986 29.8915 -7.6896 -7.7453 2.7884
# 2 4.1986 74.2196 21.9414 1.4115 -6.1856 -5.8037
# 3 29.8915 21.9414 111.8908 -0.8180 -24.9412 -0.0108
# 4 -7.6896 1.4115 -0.8180 29.5543 -1.8217 -3.9985
# 5 -7.7453 -6.1856 -24.9412 -1.8217 22.8351 -5.5816
# 6 2.7884 -5.8037 -0.0108 -3.9985 -5.5816 18.5033
#
#
#
# Elastic Compliance Matrix: (Units=1/GPa)
#
#
# Indices 1 2 3 4 5 6 
#
# 1 0.035712 0.000482 -0.009022 0.008821 0.002460 -0.002587
# 2 0.000482 0.014821 -0.002373 0.000282 0.002961 0.005529
# 3 -0.009022 -0.002373 0.014848 -0.000353 0.013625 0.004658
# 4 0.008821 0.000282 -0.000353 0.037865 0.007989 0.009352
# 5 0.002460 0.002961 0.013625 0.007989 0.066404 0.022323
# 6 -0.002587 0.005529 0.004658 0.009352 0.022323 0.064926
#
#
# Mechanical properties :
#
#
# Convention : Reuss Voigt Hill
#
# Bulk Modulus (GPa) = 22.95936 37.36726 30.16331
# Shear Modulus (GPa) = 18.45559 25.39259 21.92409
#
# Velocity S-wave (km/s) = 2.94628 3.45592 3.21123
# Velocity P-wave (km/s) = 4.73001 5.78794 5.28551
#
# Compressibility (1/GPa) = 0.04355522
#
# Stress axis : x y z
#
# Youngs Moduli (GPa) = 28.00193 67.46997 67.35049
#
# Poissons Ratio (x) = -0.03252 0.60765
# Poissons Ratio (y) = -0.01350 0.15979
# Poissons Ratio (z) = 0.25264 0.16008
#
# Static dielectric constant tensor:
#      x y z
#    x 3.628340 0.082300 -0.008140 
#    y 0.082300 4.009530 0.264920 
#    z -0.008140 0.264920 3.898350 
# 
# 
# High freq. dielectric constant tensor:
#      x y z
#    x 1.807400 0.000710 -0.007940 
#    y 0.000710 1.841320 0.008190 
#    z -0.007940 0.008190 1.834050 
# 
# From -- ./inp_files/218971.got.cif
#   From: 2010.06.25/outbox.cif.g09.slc.cpg/sg2_110_cif.got.tgz:218971.got - 2010.06.27 13:26:56.
