data_PCOD8039769
_publ_section_title
;
Structure prediction by ZEFSAII (Michael W. Deem and Ramdas Pophale) SiO2 
 PCOD8039769
Probable space group: P -1
;
_chemical_formula_sum "Si O2"
_cell_formula_units_Z 12
_cell_length_a 13.114422
_cell_length_b 9.225340
_cell_length_c 9.424550
_cell_angle_alpha 117.266761
_cell_angle_beta 132.343696
_cell_angle_gamma 32.812234
_cell_volume 439.775157
_symmetry_space_group_name_H-M "P -1"
_symmetry_group_IT_number 2
_symmetry_cell_setting 'triclinic'
loop_
_space_group_symop_operation_xyz
x,y,z
-x,-y,-z
loop_
_atom_site_type_symbol
_atom_site_label
_atom_site_fract_x
_atom_site_fract_y
_atom_site_fract_z
Si Si1 0.588845 0.039588 0.444919
Si Si2 0.211954 0.338434 0.023266
Si Si3 0.953836 0.457845 0.584744
Si Si4 0.703989 0.391884 0.905545
Si Si5 0.058538 0.033545 0.300241
Si Si6 0.732628 0.376702 0.455938
O O1 0.800078 0.935206 0.511509
O O2 0.407535 0.343819 0.474324
O O3 0.717433 0.789620 0.563811
O O4 0.454141 0.062141 0.207392
O O5 0.169138 0.271544 0.812182
O O6 0.228092 0.510856 0.071045
O O7 0.000000 0.500000 0.000000
O O8 0.880841 0.331989 0.450444
O O9 0.000000 0.500000 0.500000
O O10 0.806639 0.145935 0.798852
O O11 0.424642 0.618663 0.751570
O O12 0.793397 0.312093 0.116785
O O13 0.076456 0.878837 0.369978
#
# Coordination Sequence:
#
# PCOD8039769 Si02
#       6
#     2   2   2   2   2   2
#     4  11  21  39  69  94 126 166 214 265 312 375
#     4  12  22  39  69 100 123 167 218 260 314 379
#     4  12  28  44  60  94 138 169 209 265 321 375
#     4  10  19  33  62  98 127 155 207 267 316 367
#     4  10  18  34  64 100 126 151 207 275 312 359
#     4  11  21  39  66  97 122 164 213 263 314 375
#
# _framework density 27.286674000000001
#
# number of rings (size 3 to 8) (size 9 to 14) (size 15 to 20)
#    0.000    1.000    6.667    1.500    0.000    2.000 
#    0.000    1.667    0.000    0.000    0.000    0.000 
#    0.000    0.000    0.000    0.000    0.000    0.000 
#
# Total GULP energy -148734.794066 kJ/mol
# GULP energy per Si atom -12394.566172 kJ/mol
# Density = 2.722457 g / cm^3
# Si number density = 27.286674 Si / 1000 Ang^3
#
#
#
# Elastic Constant Matrix: (Units=GPa)
#
#
# Indices 1 2 3 4 5 6 
#
# 1 201.7427 37.0653 94.3743 -7.7910 17.6087 36.5716
# 2 37.0653 85.3486 19.0480 -6.6074 6.5918 27.8539
# 3 94.3743 19.0480 240.8114 -20.2224 13.1038 20.9797
# 4 -7.7910 -6.6074 -20.2224 41.8690 6.2725 -3.1489
# 5 17.6087 6.5918 13.1038 6.2725 45.1002 3.8605
# 6 36.5716 27.8539 20.9797 -3.1489 3.8605 43.7788
#
#
#
# Elastic Compliance Matrix: (Units=1/GPa)
#
#
# Indices 1 2 3 4 5 6 
#
# 1 0.007080 -0.001157 -0.002252 -0.000011 -0.001600 -0.003958
# 2 -0.001157 0.015214 0.000227 0.001855 -0.001362 -0.008568
# 3 -0.002252 0.000227 0.005310 0.002284 -0.000967 -0.000558
# 4 -0.000011 0.001855 0.002284 0.025958 -0.004541 0.000002
# 5 -0.001600 -0.001362 -0.000967 -0.004541 0.023889 0.000234
# 6 -0.003958 -0.008568 -0.000558 0.000002 0.000234 0.031847
#
#
# Mechanical properties :
#
#
# Convention : Reuss Voigt Hill
#
# Bulk Modulus (GPa) = 47.08571 92.09754 69.59163
# Shear Modulus (GPa) = 40.73537 51.31059 46.02298
#
# Velocity S-wave (km/s) = 3.86796 4.34109 4.11134
# Velocity P-wave (km/s) = 6.10258 7.67801 6.93518
#
# Compressibility (1/GPa) = 0.02123787
#
# Stress axis : x y z
#
# Youngs Moduli (GPa) = 141.24805 65.73041 188.31214
#
# Poissons Ratio (x) = 0.07608 0.42408
# Poissons Ratio (y) = 0.16349 -0.04265
# Poissons Ratio (z) = 0.31809 -0.01489
#
# Static dielectric constant tensor:
#      x y z
#    x 5.440390 -0.587270 0.423640 
#    y -0.587270 7.214700 -0.757160 
#    z 0.423640 -0.757160 6.032690 
# 
# 
# High freq. dielectric constant tensor:
#      x y z
#    x 2.124360 -0.003580 0.004590 
#    y -0.003580 2.112310 -0.001790 
#    z 0.004590 -0.001790 2.108040 
# 
# From -- ./inp_files/173926.got.cif
#   From: 2010.06.25/outbox.cif.g09.slc.cpg/sg2_87_cif.got.tgz:173926.got - 2010.06.27 13:26:56.
