data_PCOD8039190
_publ_section_title
;
Structure prediction by ZEFSAII (Michael W. Deem and Ramdas Pophale) SiO2 
 PCOD8039190
Probable space group: P -1
;
_chemical_formula_sum "Si O2"
_cell_formula_units_Z 16
_cell_length_a 9.019821
_cell_length_b 13.641795
_cell_length_c 11.629516
_cell_angle_alpha 72.179555
_cell_angle_beta 142.008040
_cell_angle_gamma 89.634976
_cell_volume 760.076097
_symmetry_space_group_name_H-M "P -1"
_symmetry_group_IT_number 2
_symmetry_cell_setting 'triclinic'
loop_
_space_group_symop_operation_xyz
x,y,z
-x,-y,-z
loop_
_atom_site_type_symbol
_atom_site_label
_atom_site_fract_x
_atom_site_fract_y
_atom_site_fract_z
Si Si1 0.562449 0.464208 0.422001
Si Si2 0.267858 0.768657 0.300340
Si Si3 0.988079 0.455706 0.360263
Si Si4 0.809982 0.943817 0.357566
Si Si5 0.693670 0.672644 0.201255
Si Si6 0.182398 0.244971 0.405405
Si Si7 0.783633 0.310926 0.951245
Si Si8 0.770314 0.884228 0.096027
O O1 0.500000 0.500000 0.500000
O O2 0.618357 0.332031 0.497295
O O3 0.819239 0.481296 0.538711
O O4 0.319317 0.550944 0.163059
O O5 0.501310 0.805764 0.398177
O O6 0.179493 0.731748 0.141284
O O7 0.011228 0.869654 0.162416
O O8 0.056545 0.372556 0.541835
O O9 0.034008 0.378584 0.303368
O O10 0.704140 0.566889 0.162875
O O11 0.889231 0.829127 0.519865
O O12 0.852385 0.916671 0.257688
O O13 0.000000 0.000000 0.500000
O O14 0.496848 0.020539 0.155883
O O15 0.425208 0.722617 0.094468
O O16 0.715445 0.771977 0.105281
O O17 0.064827 0.244374 0.208140
#
# Coordination Sequence:
#
# PCOD8039190 Si02
#       8
#     2   2   2   2   2   2   2   2
#     4   9  16  35  57  89 131 164 194 247 302 371
#     4  11  22  41  64  93 128 163 209 253 310 384
#     4  10  18  32  64  93 124 163 199 253 305 371
#     4  11  26  46  67  92 121 160 218 269 305 365
#     4  10  18  37  64  91 125 160 207 253 308 366
#     4  12  23  41  64  92 130 169 208 256 317 366
#     4  10  22  36  59  93 131 172 200 251 306 375
#     4  11  23  43  72  91 118 170 207 259 323 363
#
# _framework density 21.050523999999999
#
# number of rings (size 3 to 8) (size 9 to 14) (size 15 to 20)
#    0.000    1.500    6.250    0.750    0.000    3.500 
#    0.000    2.500    0.000    0.000    0.000    0.000 
#    0.000    0.000    0.000    0.000    0.000    0.000 
#
# Total GULP energy -198230.866513 kJ/mol
# GULP energy per Si atom -12389.429157 kJ/mol
# Density = 2.100261 g / cm^3
# Si number density = 21.050524 Si / 1000 Ang^3
#
#
#
# Elastic Constant Matrix: (Units=GPa)
#
#
# Indices 1 2 3 4 5 6 
#
# 1 100.9632 35.3487 30.1775 3.9940 11.1524 -18.9473
# 2 35.3487 82.2413 38.4289 4.3640 8.8382 -6.2384
# 3 30.1775 38.4289 97.3637 10.9527 -6.9959 -15.6803
# 4 3.9940 4.3640 10.9527 21.9531 -2.0442 2.2754
# 5 11.1524 8.8382 -6.9959 -2.0442 26.2443 -11.1998
# 6 -18.9473 -6.2384 -15.6803 2.2754 -11.1998 31.8573
#
#
#
# Elastic Compliance Matrix: (Units=1/GPa)
#
#
# Indices 1 2 3 4 5 6 
#
# 1 0.013198 -0.004200 -0.001526 -0.001601 -0.002351 0.005564
# 2 -0.004200 0.017852 -0.007349 0.000673 -0.008555 -0.005675
# 3 -0.001526 -0.007349 0.016935 -0.006723 0.011617 0.010553
# 4 -0.001601 0.000673 -0.006723 0.049810 -0.000870 -0.007993
# 5 -0.002351 -0.008555 0.011617 -0.000870 0.054317 0.021802
# 6 0.005564 -0.005675 0.010553 -0.007993 0.021802 0.047018
#
#
# Mechanical properties :
#
#
# Convention : Reuss Voigt Hill
#
# Bulk Modulus (GPa) = 45.79675 54.27536 50.03605
# Shear Modulus (GPa) = 21.50007 27.78516 24.64261
#
# Velocity S-wave (km/s) = 3.19933 3.63702 3.42518
# Velocity P-wave (km/s) = 5.95403 6.59368 6.28200
#
# Compressibility (1/GPa) = 0.02183561
#
# Stress axis : x y z
#
# Youngs Moduli (GPa) = 75.76664 56.01730 59.05057
#
# Poissons Ratio (x) = 0.23529 0.09009
# Poissons Ratio (y) = 0.31825 0.43393
# Poissons Ratio (z) = 0.11560 0.41164
#
# Static dielectric constant tensor:
#      x y z
#    x 3.810020 -0.035290 -0.004410 
#    y -0.035290 3.793290 -0.297810 
#    z -0.004410 -0.297810 3.754070 
# 
# 
# High freq. dielectric constant tensor:
#      x y z
#    x 1.835310 -0.001330 -0.003040 
#    y -0.001330 1.802780 -0.019070 
#    z -0.003040 -0.019070 1.806930 
# 
# From -- ./inp_files/399002.got.cif
#   From: 2010.06.25/outbox.cif.g09.slc.cpg/sg2_200_cif.got.tgz:399002.got - 2010.06.27 13:26:56.
