data_PCOD8039437
_publ_section_title
;
Structure prediction by ZEFSAII (Michael W. Deem and Ramdas Pophale) SiO2 
 PCOD8039437
Probable space group: P -1
;
_chemical_formula_sum "Si O2"
_cell_formula_units_Z 16
_cell_length_a 9.438061
_cell_length_b 10.752096
_cell_length_c 18.084392
_cell_angle_alpha 145.008365
_cell_angle_beta 71.678602
_cell_angle_gamma 124.130153
_cell_volume 829.322145
_symmetry_space_group_name_H-M "P -1"
_symmetry_group_IT_number 2
_symmetry_cell_setting 'triclinic'
loop_
_space_group_symop_operation_xyz
x,y,z
-x,-y,-z
loop_
_atom_site_type_symbol
_atom_site_label
_atom_site_fract_x
_atom_site_fract_y
_atom_site_fract_z
Si Si1 0.252364 0.797368 0.336652
Si Si2 0.118118 0.445686 0.773285
Si Si3 0.476968 0.606638 0.426896
Si Si4 0.564143 0.184731 0.009085
Si Si5 0.852909 0.010429 0.417687
Si Si6 0.858915 0.535651 0.498917
Si Si7 0.645895 0.293570 0.277410
Si Si8 0.521022 0.411230 0.757367
O O1 0.327961 0.616624 0.245166
O O2 0.088438 0.644984 0.231055
O O3 0.405369 0.085323 0.422875
O O4 0.169137 0.809060 0.433827
O O5 0.124450 0.191431 0.637820
O O6 0.213126 0.621969 0.771286
O O7 0.222575 0.598931 0.906378
O O8 0.275264 0.467729 0.421907
O O9 0.569284 0.474329 0.385125
O O10 0.462647 0.562321 0.320591
O O11 0.519940 0.008647 0.857224
O O12 0.460517 0.330441 0.088927
O O13 0.500000 0.000000 0.000000
O O14 0.673493 0.850904 0.318884
O O15 0.027860 0.183699 0.423055
O O16 0.743613 0.311937 0.347082
O O17 0.000000 0.500000 0.500000
#
# Coordination Sequence:
#
# PCOD8039437 Si02
#       8
#     2   2   2   2   2   2   2   2
#     4  11  18  31  56  87 113 135 185 238 278 315
#     4  10  18  33  61  83 102 146 191 231 265 321
#     4  11  21  35  55  85 115 144 179 226 283 334
#     4   9  18  37  57  79 107 148 192 225 268 328
#     4  10  18  35  56  79 116 146 182 225 277 336
#     4  12  24  35  53  86 120 146 173 226 289 333
#     4  11  20  38  58  81 111 152 184 224 272 335
#     4  10  19  34  59  84 110 145 183 235 273 319
#
# _framework density 19.292864999999999
#
# number of rings (size 3 to 8) (size 9 to 14) (size 15 to 20)
#    0.000    1.500    6.250    4.500    0.000    0.000 
#    0.000    3.750    0.000   13.500    0.000    0.000 
#    0.000    0.000    0.000    0.000    0.000    0.000 
#
# Total GULP energy -198352.292213 kJ/mol
# GULP energy per Si atom -12397.018263 kJ/mol
# Density = 1.924895 g / cm^3
# Si number density = 19.292865 Si / 1000 Ang^3
#
#
#
# Elastic Constant Matrix: (Units=GPa)
#
#
# Indices 1 2 3 4 5 6 
#
# 1 161.6197 20.6930 59.4250 12.2169 2.8266 5.6130
# 2 20.6930 72.9804 23.1969 5.2529 -0.4604 19.9236
# 3 59.4250 23.1969 86.1107 16.5931 3.9654 -9.1915
# 4 12.2169 5.2529 16.5931 19.2178 -4.7624 -1.0203
# 5 2.8266 -0.4604 3.9654 -4.7624 24.6974 0.5821
# 6 5.6130 19.9236 -9.1915 -1.0203 0.5821 25.9772
#
#
#
# Elastic Compliance Matrix: (Units=1/GPa)
#
#
# Indices 1 2 3 4 5 6 
#
# 1 0.008765 0.001144 -0.006895 -0.000155 0.000218 -0.005222
# 2 0.001144 0.021699 -0.009008 0.000625 0.002314 -0.020104
# 3 -0.006895 -0.009008 0.023563 -0.014191 -0.006283 0.016320
# 4 -0.000155 0.000625 -0.014191 0.067882 0.015472 -0.003148
# 5 0.000218 0.002314 -0.006283 0.015472 0.044605 -0.004437
# 6 -0.005222 -0.020104 0.016320 -0.003148 -0.004437 0.060793
#
#
# Mechanical properties :
#
#
# Convention : Reuss Voigt Hill
#
# Bulk Modulus (GPa) = 40.79854 58.59340 49.69597
# Shear Modulus (GPa) = 18.86824 28.47154 23.66989
#
# Velocity S-wave (km/s) = 3.13068 3.84572 3.50647
# Velocity P-wave (km/s) = 5.85329 7.08208 6.49680
#
# Compressibility (1/GPa) = 0.02451068
#
# Stress axis : x y z
#
# Youngs Moduli (GPa) = 114.08769 46.08476 42.43862
#
# Poissons Ratio (x) = -0.05274 0.29260
# Poissons Ratio (y) = -0.13056 0.38229
# Poissons Ratio (z) = 0.78661 0.41514
#
# Static dielectric constant tensor:
#      x y z
#    x 3.738570 0.203580 0.178160 
#    y 0.203580 3.508720 0.320940 
#    z 0.178160 0.320940 3.645480 
# 
# 
# High freq. dielectric constant tensor:
#      x y z
#    x 1.760180 0.008280 0.005510 
#    y 0.008280 1.729890 0.023370 
#    z 0.005510 0.023370 1.723940 
# 
# From -- ./inp_files/189346.got.cif
#   From: 2010.06.25/outbox.cif.g09.slc.cpg/sg2_95_cif.got.tgz:189346.got - 2010.06.27 13:26:56.
