data_PCOD8039018
_publ_section_title
;
Structure prediction by ZEFSAII (Michael W. Deem and Ramdas Pophale) SiO2 
 PCOD8039018
Probable space group: P -1
;
_chemical_formula_sum "Si O2"
_cell_formula_units_Z 16
_cell_length_a 9.541547
_cell_length_b 9.244617
_cell_length_c 13.472366
_cell_angle_alpha 76.660642
_cell_angle_beta 86.770546
_cell_angle_gamma 48.470564
_cell_volume 857.979076
_symmetry_space_group_name_H-M "P -1"
_symmetry_group_IT_number 2
_symmetry_cell_setting 'triclinic'
loop_
_space_group_symop_operation_xyz
x,y,z
-x,-y,-z
loop_
_atom_site_type_symbol
_atom_site_label
_atom_site_fract_x
_atom_site_fract_y
_atom_site_fract_z
Si Si1 0.836193 0.704707 0.529773
Si Si2 0.713277 0.035240 0.776066
Si Si3 0.300388 0.363062 0.763204
Si Si4 0.966851 0.607320 0.882976
Si Si5 0.331692 0.225251 0.280371
Si Si6 0.126322 0.718097 0.580428
Si Si7 0.048500 0.902108 0.354027
Si Si8 0.263838 0.093746 0.693292
O O1 0.722076 0.688054 0.618329
O O2 0.700547 0.867008 0.425474
O O3 0.000000 0.500000 0.500000
O O4 0.928216 0.770478 0.581535
O O5 0.518704 0.209958 0.814708
O O6 0.805615 0.122405 0.721248
O O7 0.862735 0.839982 0.871180
O O8 0.656823 0.964929 0.698322
O O9 0.285176 0.496698 0.654504
O O10 0.233104 0.248693 0.747403
O O11 0.166092 0.500439 0.838746
O O12 0.828532 0.605238 0.817966
O O13 0.000000 0.500000 0.000000
O O14 0.541441 0.136097 0.256674
O O15 0.170238 0.732553 0.462126
O O16 0.101071 0.879642 0.624687
O O17 0.922417 0.876333 0.299526
#
# Coordination Sequence:
#
# PCOD8039018 Si02
#       8
#     2   2   2   2   2   2   2   2
#     4  11  16  28  52  75 108 150 183 216 269 322
#     4   9  20  36  58  79 111 143 185 235 276 326
#     4  11  19  38  58  84 110 146 192 233 262 343
#     4  10  20  37  64  84 106 142 189 247 283 312
#     4   9  18  35  49  80 107 142 185 232 265 332
#     4  10  18  32  53  77 118 153 188 218 265 340
#     4  10  19  34  53  80 119 155 176 224 283 325
#     4  10  21  30  55  84 112 149 182 225 275 333
#
# _framework density 18.648475000000001
#
# number of rings (size 3 to 8) (size 9 to 14) (size 15 to 20)
#    0.750    1.250    5.000    0.375    0.000    1.000 
#    0.000    3.750    0.000    1.500    0.000    0.000 
#    0.000    0.000    0.000    0.000    0.000    0.000 
#
# Total GULP energy -198221.472128 kJ/mol
# GULP energy per Si atom -12388.842008 kJ/mol
# Density = 1.860603 g / cm^3
# Si number density = 18.648475 Si / 1000 Ang^3
#
#
#
# Elastic Constant Matrix: (Units=GPa)
#
#
# Indices 1 2 3 4 5 6 
#
# 1 80.8956 36.1629 38.7628 -4.9861 -11.0600 -12.0121
# 2 36.1629 95.6339 42.1404 -9.3695 -7.0618 -25.1493
# 3 38.7628 42.1404 90.6895 -16.6128 -9.4602 -21.6312
# 4 -4.9861 -9.3695 -16.6128 16.7962 2.5678 0.9757
# 5 -11.0600 -7.0618 -9.4602 2.5678 15.8175 0.0584
# 6 -12.0121 -25.1493 -21.6312 0.9757 0.0584 32.6658
#
#
#
# Elastic Compliance Matrix: (Units=1/GPa)
#
#
# Indices 1 2 3 4 5 6 
#
# 1 0.017656 -0.004069 -0.005583 -0.003728 0.007796 -0.000240
# 2 -0.004069 0.016087 -0.002553 0.004399 0.002062 0.009063
# 3 -0.005583 -0.002553 0.019979 0.015505 0.004356 0.008740
# 4 -0.003728 0.004399 0.015505 0.076216 -0.003779 0.010014
# 5 0.007796 0.002062 0.004356 -0.003779 0.072785 0.007322
# 6 -0.000240 0.009063 0.008740 0.010014 0.007322 0.042978
#
#
# Mechanical properties :
#
#
# Convention : Reuss Voigt Hill
#
# Bulk Modulus (GPa) = 34.11604 55.70569 44.91087
# Shear Modulus (GPa) = 17.86469 23.06610 20.46539
#
# Velocity S-wave (km/s) = 3.09847 3.52076 3.31634
# Velocity P-wave (km/s) = 5.57984 6.81645 6.22891
#
# Compressibility (1/GPa) = 0.02931172
#
# Stress axis : x y z
#
# Youngs Moduli (GPa) = 56.63722 62.16247 50.05345
#
# Poissons Ratio (x) = 0.25294 0.27944
# Poissons Ratio (y) = 0.23046 0.12780
# Poissons Ratio (z) = 0.31619 0.15871
#
# Static dielectric constant tensor:
#      x y z
#    x 3.309290 -0.093160 -0.030760 
#    y -0.093160 3.382510 -0.149270 
#    z -0.030760 -0.149270 3.088440 
# 
# 
# High freq. dielectric constant tensor:
#      x y z
#    x 1.702340 -0.016180 -0.002200 
#    y -0.016180 1.720910 -0.004850 
#    z -0.002200 -0.004850 1.680540 
# 
# From -- ./inp_files/492488.got.cif
#   From: 2010.06.25/outbox.cif.g09.slc.cpg/sg2_247_cif.got.tgz:492488.got - 2010.06.27 13:26:56.
