data_PCOD8039229
_publ_section_title
;
Structure prediction by ZEFSAII (Michael W. Deem and Ramdas Pophale) SiO2 
 PCOD8039229
Probable space group: P -1
;
_chemical_formula_sum "Si O2"
_cell_formula_units_Z 16
_cell_length_a 21.791473
_cell_length_b 11.363694
_cell_length_c 15.884530
_cell_angle_alpha 130.729062
_cell_angle_beta 28.825569
_cell_angle_gamma 150.931438
_cell_volume 806.586978
_symmetry_space_group_name_H-M "P -1"
_symmetry_group_IT_number 2
_symmetry_cell_setting 'triclinic'
loop_
_space_group_symop_operation_xyz
x,y,z
-x,-y,-z
loop_
_atom_site_type_symbol
_atom_site_label
_atom_site_fract_x
_atom_site_fract_y
_atom_site_fract_z
Si Si1 0.170148 0.437544 0.799046
Si Si2 0.835143 0.249795 0.993578
Si Si3 0.990892 0.914783 0.779453
Si Si4 0.514475 0.148017 0.622830
Si Si5 0.894549 0.967326 0.487586
Si Si6 0.988177 0.228431 0.657693
Si Si7 0.394749 0.351702 0.787380
Si Si8 0.628443 0.758305 0.414173
O O1 0.102983 0.504966 0.977965
O O2 0.071427 0.173110 0.820844
O O3 0.445945 0.708700 0.586400
O O4 0.059976 0.382335 0.817180
O O5 0.623443 0.031131 0.209627
O O6 0.796772 0.137686 0.894800
O O7 0.978490 0.857106 0.669471
O O8 0.159026 0.970828 0.656917
O O9 0.738337 0.655969 0.999922
O O10 0.398643 0.188595 0.750019
O O11 0.773232 0.440857 0.474777
O O12 0.500000 0.000000 0.500000
O O13 0.642823 0.670991 0.623833
O O14 0.013420 0.940337 0.374433
O O15 0.907264 0.124681 0.610088
O O16 0.276889 0.217398 0.775206
O O17 0.500000 0.500000 0.500000
#
# Coordination Sequence:
#
# PCOD8039229 Si02
#       8
#     2   2   2   2   2   2   2   2
#     4  10  18  33  53  79 112 138 165 225 273 308
#     4  11  19  34  53  78 113 139 172 214 268 325
#     4  11  20  34  54  80 108 141 180 221 264 310
#     4  11  21  31  54  83 111 139 172 218 271 320
#     4  10  20  36  50  75 113 142 177 219 257 317
#     4  10  21  34  52  76 110 148 174 211 268 314
#     4  11  19  33  53  81 105 138 180 216 271 316
#     4  10  19  33  53  77 112 136 174 223 274 307
#
# _framework density 19.836670999999999
#
# number of rings (size 3 to 8) (size 9 to 14) (size 15 to 20)
#    0.000    1.500    5.000    3.375    0.000    1.000 
#    0.000    3.750    0.000    0.750    0.000    4.375 
#    0.000    0.000    0.000    0.000    0.000    0.000 
#
# Total GULP energy -198266.197025 kJ/mol
# GULP energy per Si atom -12391.637314 kJ/mol
# Density = 1.979152 g / cm^3
# Si number density = 19.836671 Si / 1000 Ang^3
#
#
#
# Elastic Constant Matrix: (Units=GPa)
#
#
# Indices 1 2 3 4 5 6 
#
# 1 68.6972 15.8644 35.0087 9.2478 18.7025 21.0203
# 2 15.8644 52.0577 5.7313 23.2772 12.5792 12.3068
# 3 35.0087 5.7313 99.4850 18.4147 22.3793 10.0679
# 4 9.2478 23.2772 18.4147 25.7528 10.5335 10.3125
# 5 18.7025 12.5792 22.3793 10.5335 38.8950 9.0179
# 6 21.0203 12.3068 10.0679 10.3125 9.0179 23.4279
#
#
#
# Elastic Compliance Matrix: (Units=1/GPa)
#
#
# Indices 1 2 3 4 5 6 
#
# 1 0.025790 -0.006696 -0.007961 0.012237 -0.004353 -0.019913
# 2 -0.006696 0.036828 0.007473 -0.034820 -0.003599 0.000163
# 3 -0.007961 0.007473 0.015802 -0.015256 -0.004697 0.004950
# 4 0.012237 -0.034820 -0.015256 0.087834 -0.004264 -0.023154
# 5 -0.004353 -0.003599 -0.004697 -0.004264 0.033574 -0.003232
# 6 -0.019913 0.000163 0.004950 -0.023154 -0.003232 0.069774
#
#
# Mechanical properties :
#
#
# Convention : Reuss Voigt Hill
#
# Bulk Modulus (GPa) = 15.61202 37.04985 26.33093
# Shear Modulus (GPa) = 16.37627 28.52418 22.45022
#
# Velocity S-wave (km/s) = 2.87636 3.79615 3.36780
# Velocity P-wave (km/s) = 4.34956 6.15892 5.33156
#
# Compressibility (1/GPa) = 0.06405320
#
# Stress axis : x y z
#
# Youngs Moduli (GPa) = 38.77420 27.15349 63.28215
#
# Poissons Ratio (x) = 0.18181 0.50377
# Poissons Ratio (y) = 0.25962 -0.47289
# Poissons Ratio (z) = 0.30867 -0.20291
#
# Static dielectric constant tensor:
#      x y z
#    x 3.721200 0.145610 -0.174760 
#    y 0.145610 3.467480 0.098430 
#    z -0.174760 0.098430 4.020130 
# 
# 
# High freq. dielectric constant tensor:
#      x y z
#    x 1.752600 0.009450 0.013470 
#    y 0.009450 1.735890 0.001820 
#    z 0.013470 0.001820 1.787260 
# 
# From -- ./inp_files/431107.got.cif
#   From: 2010.06.25/outbox.cif.g09.slc.cpg/sg2_216_cif.got.tgz:431107.got - 2010.06.27 13:26:56.
