data_PCOD8039652
_publ_section_title
;
Structure prediction by ZEFSAII (Michael W. Deem and Ramdas Pophale) SiO2 
 PCOD8039652
Probable space group: P -1
;
_chemical_formula_sum "Si O2"
_cell_formula_units_Z 10
_cell_length_a 12.849791
_cell_length_b 11.622097
_cell_length_c 6.557429
_cell_angle_alpha 126.608592
_cell_angle_beta 80.818680
_cell_angle_gamma 136.738432
_cell_volume 466.762552
_symmetry_space_group_name_H-M "P -1"
_symmetry_group_IT_number 2
_symmetry_cell_setting 'triclinic'
loop_
_space_group_symop_operation_xyz
x,y,z
-x,-y,-z
loop_
_atom_site_type_symbol
_atom_site_label
_atom_site_fract_x
_atom_site_fract_y
_atom_site_fract_z
Si Si1 0.833372 0.739170 0.048237
Si Si2 0.568737 0.414629 0.451722
Si Si3 0.214485 0.106487 0.410218
Si Si4 0.368646 0.995317 0.335739
Si Si5 0.366866 0.678119 0.063128
O O1 0.771889 0.799745 0.279337
O O2 0.737761 0.658640 0.777653
O O3 0.779248 0.530102 0.949481
O O4 0.043097 0.966739 0.189902
O O5 0.392672 0.328875 0.448440
O O6 0.516630 0.204871 0.348108
O O7 0.620428 0.435186 0.226029
O O8 0.205982 0.928014 0.282395
O O9 0.445002 0.096785 0.648508
O O10 0.308226 0.766285 0.076070
#
# Coordination Sequence:
#
# PCOD8039652 Si02
#       5
#     2   2   2   2   2
#     4  10  20  37  52  78 105 138 170 214 251 311
#     4   9  19  35  56  75 105 136 170 214 256 300
#     4   9  20  38  52  73 114 133 166 217 263 289
#     4   8  19  35  54  76 106 137 164 217 259 300
#     4  10  18  34  59  76 101 137 179 204 256 310
#
# _framework density 21.424168999999999
#
# number of rings (size 3 to 8) (size 9 to 14) (size 15 to 20)
#    1.200    1.600    0.000    1.200    0.000    1.600 
#    3.600    3.000    0.000    0.000    0.000    0.000 
#    0.000    0.000    0.000    0.000    0.000    0.000 
#
# Total GULP energy -123935.805308 kJ/mol
# GULP energy per Si atom -12393.580531 kJ/mol
# Density = 2.137541 g / cm^3
# Si number density = 21.424169 Si / 1000 Ang^3
#
#
#
# Elastic Constant Matrix: (Units=GPa)
#
#
# Indices 1 2 3 4 5 6 
#
# 1 113.3381 40.4747 46.3094 1.1415 -2.0142 11.0936
# 2 40.4747 79.1233 29.9414 -2.7743 2.8643 17.2215
# 3 46.3094 29.9414 116.1186 -4.3452 7.9291 18.8753
# 4 1.1415 -2.7743 -4.3452 23.1084 -2.1298 -0.9182
# 5 -2.0142 2.8643 7.9291 -2.1298 32.8550 6.1733
# 6 11.0936 17.2215 18.8753 -0.9182 6.1733 27.8567
#
#
#
# Elastic Compliance Matrix: (Units=1/GPa)
#
#
# Indices 1 2 3 4 5 6 
#
# 1 0.012187 -0.004991 -0.003825 -0.001729 0.001929 0.000339
# 2 -0.004991 0.017418 -0.001143 0.001812 0.000065 -0.007960
# 3 -0.003825 -0.001143 0.011448 0.001835 -0.001828 -0.005062
# 4 -0.001729 0.001812 0.001835 0.044104 0.002289 -0.000729
# 5 0.001929 0.000065 -0.001828 0.002289 0.032393 -0.006673
# 6 0.000339 -0.007960 -0.005062 -0.000729 -0.006673 0.045569
#
#
# Mechanical properties :
#
#
# Convention : Reuss Voigt Hill
#
# Bulk Modulus (GPa) = 47.31579 60.22566 53.77073
# Shear Modulus (GPa) = 26.30434 29.55431 27.92933
#
# Velocity S-wave (km/s) = 3.50778 3.71817 3.61451
# Velocity P-wave (km/s) = 6.20800 6.82680 6.52474
#
# Compressibility (1/GPa) = 0.02113459
#
# Stress axis : x y z
#
# Youngs Moduli (GPa) = 82.05564 57.41147 87.34854
#
# Poissons Ratio (x) = 0.28654 0.33410
# Poissons Ratio (y) = 0.40954 0.09988
# Poissons Ratio (z) = 0.31386 0.06565
#
# Static dielectric constant tensor:
#      x y z
#    x 3.849400 -0.276650 -0.031800 
#    y -0.276650 3.751050 0.063260 
#    z -0.031800 0.063260 3.622140 
# 
# 
# High freq. dielectric constant tensor:
#      x y z
#    x 1.841630 -0.026800 -0.004990 
#    y -0.026800 1.840240 -0.000360 
#    z -0.004990 -0.000360 1.827820 
# 
# From -- ./inp_files/17982.got.cif
#   From: 2010.06.25/outbox.cif.g09.slc.cpg/sg2_9_cif.got.tgz:17982.got - 2010.06.27 13:26:56.
