data_PCOD8039780
_publ_section_title
;
Structure prediction by ZEFSAII (Michael W. Deem and Ramdas Pophale) SiO2 
 PCOD8039780
Probable space group: P -1
;
_chemical_formula_sum "Si O2"
_cell_formula_units_Z 16
_cell_length_a 12.577481
_cell_length_b 9.578909
_cell_length_c 15.998117
_cell_angle_alpha 92.421646
_cell_angle_beta 26.743474
_cell_angle_gamma 81.394439
_cell_volume 787.727249
_symmetry_space_group_name_H-M "P -1"
_symmetry_group_IT_number 2
_symmetry_cell_setting 'triclinic'
loop_
_space_group_symop_operation_xyz
x,y,z
-x,-y,-z
loop_
_atom_site_type_symbol
_atom_site_label
_atom_site_fract_x
_atom_site_fract_y
_atom_site_fract_z
Si Si1 0.224036 0.601573 0.162192
Si Si2 0.178284 0.801438 0.652624
Si Si3 0.956272 0.671550 0.516593
Si Si4 0.906259 0.590923 0.872454
Si Si5 0.614089 0.363625 0.665118
Si Si6 0.642997 0.718421 0.445241
Si Si7 0.507695 0.715698 0.731331
Si Si8 0.034695 0.851922 0.165329
O O1 0.063052 0.697905 0.354137
O O2 0.117230 0.478803 0.202352
O O3 0.217376 0.717510 0.096526
O O4 0.500000 0.500000 0.000000
O O5 0.351537 0.722312 0.448794
O O6 0.364400 0.767319 0.601014
O O7 0.959176 0.740582 0.824608
O O8 0.030346 0.982578 0.745539
O O9 0.110125 0.724264 0.479824
O O10 0.000000 0.500000 0.500000
O O11 0.648660 0.761559 0.713105
O O12 0.164054 0.453248 0.727272
O O13 0.638305 0.641428 0.113300
O O14 0.556187 0.538967 0.696953
O O15 0.606917 0.739296 0.571406
O O16 0.769694 0.834122 0.330941
O O17 0.202328 0.825085 0.961398
#
# Coordination Sequence:
#
# PCOD8039780 Si02
#       8
#     2   2   2   2   2   2   2   2
#     4  11  18  39  70  92 122 168 217 254 304 388
#     4  12  27  42  60  97 137 165 210 271 329 362
#     4  10  18  34  64  97 119 157 213 266 302 371
#     4  11  21  39  65  98 123 168 216 261 314 375
#     4  11  22  39  65  95 131 165 209 266 321 378
#     4  11  23  43  69  89 125 175 222 263 305 389
#     4  11  20  40  69  94 120 167 229 255 309 382
#     4  11  25  43  64  97 128 167 215 268 319 376
#
# _framework density 20.311598
#
# number of rings (size 3 to 8) (size 9 to 14) (size 15 to 20)
#    0.000    1.000    7.500    2.250    0.000    3.000 
#    0.000    3.125    0.000    0.000    0.000    0.000 
#    0.000    0.000    0.000    0.000    0.000    0.000 
#
# Total GULP energy -198211.645107 kJ/mol
# GULP energy per Si atom -12388.227819 kJ/mol
# Density = 2.026537 g / cm^3
# Si number density = 20.311598 Si / 1000 Ang^3
#
#
#
# Elastic Constant Matrix: (Units=GPa)
#
#
# Indices 1 2 3 4 5 6 
#
# 1 95.4537 27.2791 26.8486 2.0894 -16.1669 -4.4466
# 2 27.2791 97.7274 37.4553 -1.3757 -11.4164 19.3316
# 3 26.8486 37.4553 114.4049 -14.6476 0.9097 7.5589
# 4 2.0894 -1.3757 -14.6476 29.1055 2.5069 0.5443
# 5 -16.1669 -11.4164 0.9097 2.5069 32.4926 1.0402
# 6 -4.4466 19.3316 7.5589 0.5443 1.0402 16.6218
#
#
#
# Elastic Compliance Matrix: (Units=1/GPa)
#
#
# Indices 1 2 3 4 5 6 
#
# 1 0.013947 -0.003999 -0.003073 -0.003396 0.005577 0.009542
# 2 -0.003999 0.017137 -0.003501 -0.000711 0.004815 -0.019687
# 3 -0.003073 -0.003501 0.011563 0.006213 -0.003498 -0.001994
# 4 -0.003396 -0.000711 0.006213 0.038192 -0.004937 -0.003848
# 5 0.005577 0.004815 -0.003498 -0.004937 0.035869 -0.004600
# 6 0.009542 -0.019687 -0.001994 -0.003848 -0.004600 0.086932
#
#
# Mechanical properties :
#
#
# Convention : Reuss Voigt Hill
#
# Bulk Modulus (GPa) = 46.50874 54.52799 50.51837
# Shear Modulus (GPa) = 21.55609 30.04418 25.80013
#
# Velocity S-wave (km/s) = 3.26125 3.85016 3.56788
# Velocity P-wave (km/s) = 6.09330 6.83147 6.47292
#
# Compressibility (1/GPa) = 0.02150133
#
# Stress axis : x y z
#
# Youngs Moduli (GPa) = 71.70015 58.35256 86.48047
#
# Poissons Ratio (x) = 0.23335 0.26579
# Poissons Ratio (y) = 0.28672 0.30274
# Poissons Ratio (z) = 0.22036 0.20428
#
# Static dielectric constant tensor:
#      x y z
#    x 3.842360 0.000710 -0.235600 
#    y 0.000710 3.415150 -0.052040 
#    z -0.235600 -0.052040 4.184940 
# 
# 
# High freq. dielectric constant tensor:
#      x y z
#    x 1.792100 -0.001690 -0.011040 
#    y -0.001690 1.763460 -0.021190 
#    z -0.011040 -0.021190 1.808510 
# 
# From -- ./inp_files/515594.got.cif
#   From: 2010.06.25/outbox.cif.g09.slc.cpg/sg2_258_cif.got.tgz:515594.got - 2010.06.27 13:26:56.
