data_PCOD8039741
_publ_section_title
;
Structure prediction by ZEFSAII (Michael W. Deem and Ramdas Pophale) SiO2 
 PCOD8039741
Probable space group: P -1
;
_chemical_formula_sum "Si O2"
_cell_formula_units_Z 14
_cell_length_a 10.830855
_cell_length_b 11.025172
_cell_length_c 10.948285
_cell_angle_alpha 131.923831
_cell_angle_beta 45.186107
_cell_angle_gamma 130.688301
_cell_volume 648.188506
_symmetry_space_group_name_H-M "P -1"
_symmetry_group_IT_number 2
_symmetry_cell_setting 'triclinic'
loop_
_space_group_symop_operation_xyz
x,y,z
-x,-y,-z
loop_
_atom_site_type_symbol
_atom_site_label
_atom_site_fract_x
_atom_site_fract_y
_atom_site_fract_z
Si Si1 0.048776 0.365730 0.672629
Si Si2 0.987753 0.686495 0.610107
Si Si3 0.191195 0.971986 0.831338
Si Si4 0.669859 0.348994 0.044891
Si Si5 0.325860 0.749124 0.754829
Si Si6 0.394238 0.316086 0.010112
Si Si7 0.634000 0.642591 0.412609
O O1 0.998865 0.271826 0.514485
O O2 0.172166 0.566144 0.704145
O O3 0.165678 0.268536 0.602768
O O4 0.868706 0.358771 0.866668
O O5 0.794497 0.685068 0.797574
O O6 0.000000 0.500000 0.500000
O O7 0.165785 0.837321 0.646482
O O8 0.246298 0.895596 0.865855
O O9 0.346497 0.164384 0.837059
O O10 0.000000 0.000000 0.000000
O O11 0.630906 0.235451 0.119781
O O12 0.517216 0.264776 0.992166
O O13 0.665439 0.543938 0.202904
O O14 0.520121 0.774325 0.561538
O O15 0.500000 0.500000 0.000000
O O16 0.500000 0.500000 0.500000
#
# Coordination Sequence:
#
# PCOD8039741 Si02
#       7
#     2   2   2   2   2   2   2
#     4  10  18  34  61  94 125 164 205 248 319 381
#     4  11  20  38  67  87 125 168 207 254 315 379
#     4  10  24  40  63  94 125 168 215 257 314 376
#     4  10  20  34  61  96 124 165 206 259 313 375
#     4  10  18  36  64  92 125 159 215 260 307 374
#     4  11  24  42  61  93 127 165 215 262 317 371
#     4   8  16  31  57  92 119 155 205 253 306 368
#
# _framework density 21.598655000000001
#
# number of rings (size 3 to 8) (size 9 to 14) (size 15 to 20)
#    0.000    2.286    1.429    5.143    2.000    0.571 
#    0.000    2.857    0.000    4.286    0.000    0.000 
#    0.000    0.000    0.000    0.000    0.000    0.000 
#
# Total GULP energy -173459.559030 kJ/mol
# GULP energy per Si atom -12389.968502 kJ/mol
# Density = 2.154950 g / cm^3
# Si number density = 21.598655 Si / 1000 Ang^3
#
#
#
# Elastic Constant Matrix: (Units=GPa)
#
#
# Indices 1 2 3 4 5 6 
#
# 1 139.6733 50.2886 54.0028 11.8057 -12.9380 23.1441
# 2 50.2886 86.4117 41.0063 16.7691 4.3276 18.0930
# 3 54.0028 41.0063 121.8040 -8.3991 -12.3418 18.9286
# 4 11.8057 16.7691 -8.3991 33.3647 9.4410 0.8940
# 5 -12.9380 4.3276 -12.3418 9.4410 50.4469 8.8364
# 6 23.1441 18.0930 18.9286 0.8940 8.8364 30.1201
#
#
#
# Elastic Compliance Matrix: (Units=1/GPa)
#
#
# Indices 1 2 3 4 5 6 
#
# 1 0.011151 -0.003397 -0.002715 -0.003972 0.004274 -0.005957
# 2 -0.003397 0.018616 -0.004700 -0.008900 -0.001069 -0.005041
# 3 -0.002715 -0.004700 0.012179 0.005858 0.002215 -0.003568
# 4 -0.003972 -0.008900 0.005858 0.039196 -0.007147 0.005650
# 5 0.004274 -0.001069 0.002215 -0.007147 0.024836 -0.011108
# 6 -0.005957 -0.005041 -0.003568 0.005650 -0.011108 0.046139
#
#
# Mechanical properties :
#
#
# Convention : Reuss Voigt Hill
#
# Bulk Modulus (GPa) = 49.20892 70.94273 60.07583
# Shear Modulus (GPa) = 27.69861 36.29242 31.99552
#
# Velocity S-wave (km/s) = 3.58498 4.10360 3.85303
# Velocity P-wave (km/s) = 6.32209 7.44110 6.90430
#
# Compressibility (1/GPa) = 0.02032152
#
# Stress axis : x y z
#
# Youngs Moduli (GPa) = 89.67605 53.71790 82.10991
#
# Poissons Ratio (x) = 0.18248 0.22296
# Poissons Ratio (y) = 0.30463 0.38590
# Poissons Ratio (z) = 0.24351 0.25246
#
# Static dielectric constant tensor:
#      x y z
#    x 4.604440 0.342350 -0.240980 
#    y 0.342350 3.645290 0.267560 
#    z -0.240980 0.267560 4.446370 
# 
# 
# High freq. dielectric constant tensor:
#      x y z
#    x 1.870710 0.020430 -0.011550 
#    y 0.020430 1.800150 0.005130 
#    z -0.011550 0.005130 1.852590 
# 
# From -- ./inp_files/307447.got.cif
#   From: 2010.06.25/outbox.cif.g09.slc.cpg/sg2_154_cif.got.tgz:307447.got - 2010.06.27 13:26:56.
