data_PCOD8039586
_publ_section_title
;
Structure prediction by ZEFSAII (Michael W. Deem and Ramdas Pophale) SiO2 
 PCOD8039586
Probable space group: P -1
;
_chemical_formula_sum "Si O2"
_cell_formula_units_Z 14
_cell_length_a 8.038616
_cell_length_b 14.035906
_cell_length_c 18.800727
_cell_angle_alpha 22.338269
_cell_angle_beta 73.593647
_cell_angle_gamma 88.693583
_cell_volume 585.072891
_symmetry_space_group_name_H-M "P -1"
_symmetry_group_IT_number 2
_symmetry_cell_setting 'triclinic'
loop_
_space_group_symop_operation_xyz
x,y,z
-x,-y,-z
loop_
_atom_site_type_symbol
_atom_site_label
_atom_site_fract_x
_atom_site_fract_y
_atom_site_fract_z
Si Si1 0.243839 0.509471 0.298593
Si Si2 0.085200 0.872720 0.023984
Si Si3 0.265860 0.750903 0.598962
Si Si4 0.625984 0.614870 0.095027
Si Si5 0.835416 0.897882 0.288866
Si Si6 0.758942 0.828587 0.778070
Si Si7 0.907909 0.471402 0.953009
O O1 0.464041 0.665690 0.115463
O O2 0.288575 0.448232 0.415825
O O3 0.220744 0.788089 0.110455
O O4 0.018737 0.158553 0.536794
O O5 0.872264 0.541215 0.240492
O O6 0.000000 0.000000 0.000000
O O7 0.243334 0.150541 0.750802
O O8 0.448475 0.735742 0.625860
O O9 0.374999 0.085231 0.311380
O O10 0.107152 0.716259 0.703458
O O11 0.605263 0.624496 0.006403
O O12 0.892546 0.901658 0.884218
O O13 0.771109 0.096127 0.200919
O O14 0.758362 0.581487 0.899459
O O15 0.000000 0.500000 0.000000
#
# Coordination Sequence:
#
# PCOD8039586 Si02
#       7
#     2   2   2   2   2   2   2
#     4  10  19  33  57  77 101 140 169 207 263 303
#     4   9  19  36  56  78 102 132 174 215 255 309
#     4   9  19  32  52  75 105 139 170 211 260 300
#     4   9  18  33  51  77 106 133 172 214 248 303
#     4   9  20  36  52  76 108 135 171 215 252 301
#     4  10  18  33  52  75 107 142 171 206 252 302
#     4  10  14  31  54  75 103 140 174 206 248 303
#
# _framework density 23.928643000000001
#
# number of rings (size 3 to 8) (size 9 to 14) (size 15 to 20)
#    0.000    2.857    4.286    0.429    0.000    1.714 
#    0.000    9.286    0.000   20.571    0.000    0.000 
#    0.000    0.000    0.000    0.000    0.000    0.000 
#
# Total GULP energy -173442.331901 kJ/mol
# GULP energy per Si atom -12388.737993 kJ/mol
# Density = 2.387418 g / cm^3
# Si number density = 23.928643 Si / 1000 Ang^3
#
#
#
# Elastic Constant Matrix: (Units=GPa)
#
#
# Indices 1 2 3 4 5 6 
#
# 1 56.1070 51.2632 89.6263 8.9885 54.1955 -20.9347
# 2 51.2632 181.2737 72.1256 19.3640 48.8631 -25.3666
# 3 89.6263 72.1256 77.8726 23.5094 55.5203 -8.5335
# 4 8.9885 19.3640 23.5094 23.7923 13.0897 10.9777
# 5 54.1955 48.8631 55.5203 13.0897 65.9716 -0.3825
# 6 -20.9347 -25.3666 -8.5335 10.9777 -0.3825 40.8760
#
#
#
# Elastic Compliance Matrix: (Units=1/GPa)
#
#
# Indices 1 2 3 4 5 6 
#
# 1 -0.011647 -0.003465 0.026832 -0.016116 -0.007239 0.001747
# 2 -0.003465 0.008429 0.001176 -0.007842 -0.002797 0.005782
# 3 0.026832 0.001176 -0.000121 -0.006583 -0.021413 0.016014
# 4 -0.016116 -0.007842 -0.006583 0.070709 0.010365 -0.033387
# 5 -0.007239 -0.002797 -0.021413 0.010365 0.039069 -0.012332
# 6 0.001747 0.005782 0.016014 -0.033387 -0.012332 0.041141
#
#
# Mechanical properties :
#
#
# Convention : Reuss Voigt Hill
#
# Bulk Modulus (GPa) = 21.85896 82.36483 52.11190
# Shear Modulus (GPa) = 43.95879 32.94386 38.45133
#
# Velocity S-wave (km/s) = 4.29077 3.71449 4.01299
# Velocity P-wave (km/s) = 5.80538 7.27271 6.58007
#
# Compressibility (1/GPa) = 0.04574782
#
# Stress axis : x y z
#
# Youngs Moduli (GPa) = -85.86082 118.63546 -8239.14273
#
# Poissons Ratio (x) = 0.41107 221.07291
# Poissons Ratio (y) = -0.29751 9.69218
# Poissons Ratio (z) = 2.30382 -0.13956
#
# Static dielectric constant tensor:
#      x y z
#    x 3.343470 -2.039970 0.845390 
#    y -2.039970 0.517050 0.205820 
#    z 0.845390 0.205820 4.660300 
# 
# 
# High freq. dielectric constant tensor:
#      x y z
#    x 1.941090 -0.005090 0.038760 
#    y -0.005090 1.939160 0.028270 
#    z 0.038760 0.028270 1.942080 
# 
# From -- ./inp_files/590396.got.cif
#   From: 2010.06.25/outbox.cif.g09.slc.cpg/sg2_296_cif.got.tgz:590396.got - 2010.06.27 13:26:56.
