data_PCOD8039387
_publ_section_title
;
Structure prediction by ZEFSAII (Michael W. Deem and Ramdas Pophale) SiO2 
 PCOD8039387
Probable space group: P -1
;
_chemical_formula_sum "Si O2"
_cell_formula_units_Z 16
_cell_length_a 18.863685
_cell_length_b 9.335478
_cell_length_c 10.057238
_cell_angle_alpha 150.601321
_cell_angle_beta 104.974841
_cell_angle_gamma 80.713650
_cell_volume 832.251940
_symmetry_space_group_name_H-M "P -1"
_symmetry_group_IT_number 2
_symmetry_cell_setting 'triclinic'
loop_
_space_group_symop_operation_xyz
x,y,z
-x,-y,-z
loop_
_atom_site_type_symbol
_atom_site_label
_atom_site_fract_x
_atom_site_fract_y
_atom_site_fract_z
Si Si1 0.194174 0.719640 0.493365
Si Si2 0.392207 0.213680 0.947357
Si Si3 0.353783 0.984961 0.219979
Si Si4 0.682454 0.672076 0.273007
Si Si5 0.512267 0.296279 0.464806
Si Si6 0.170811 0.181847 0.662217
Si Si7 0.914186 0.393669 0.860796
Si Si8 0.730470 0.854828 0.942881
O O1 0.110852 0.591550 0.296689
O O2 0.245603 0.467283 0.305643
O O3 0.220911 0.988302 0.620805
O O4 0.202288 0.882360 0.772867
O O5 0.447344 0.510630 0.241500
O O6 0.334678 0.141823 0.980775
O O7 0.355804 0.260986 0.827736
O O8 0.437196 0.940230 0.748781
O O9 0.327747 0.068094 0.420282
O O10 0.435479 0.138482 0.355470
O O11 0.295900 0.082434 0.165667
O O12 0.353813 0.635342 0.930661
O O13 0.770961 0.657866 0.285255
O O14 0.500000 0.500000 0.500000
O O15 0.105071 0.947685 0.375201
O O16 0.133867 0.414170 0.918682
O O17 0.000000 0.500000 0.000000
#
# Coordination Sequence:
#
# PCOD8039387 Si02
#       8
#     2   2   2   2   2   2   2   2
#     4  10  19  34  61  90 120 147 204 234 293 348
#     4  12  24  40  70  79 117 160 199 258 318 358
#     4  12  28  40  60  86 123 153 208 255 306 366
#     4  12  25  43  60  91 121 159 200 251 306 361
#     4  12  26  42  62  88 115 154 209 258 316 365
#     4  10  20  35  60  90 127 155 192 241 293 355
#     4  10  18  33  59 101 132 150 188 250 293 336
#     4  12  22  39  62  89 112 163 202 256 295 349
#
# _framework density 19.224948000000001
#
# number of rings (size 3 to 8) (size 9 to 14) (size 15 to 20)
#    0.750    0.000    3.750    4.500    3.500    3.000 
#    0.000    0.000    0.000    0.000    0.000   17.500 
#    0.000    0.000    0.000    0.000    0.000    0.000 
#
# Total GULP energy -198283.132884 kJ/mol
# GULP energy per Si atom -12392.695805 kJ/mol
# Density = 1.918119 g / cm^3
# Si number density = 19.224948 Si / 1000 Ang^3
#
#
#
# Elastic Constant Matrix: (Units=GPa)
#
#
# Indices 1 2 3 4 5 6 
#
# 1 76.3548 35.1305 25.8229 -3.5173 21.1093 -1.1570
# 2 35.1305 74.7112 23.8070 -3.6245 5.7505 -2.7402
# 3 25.8229 23.8070 119.0837 3.2699 10.5077 -4.5468
# 4 -3.5173 -3.6245 3.2699 34.9407 -5.5159 0.1202
# 5 21.1093 5.7505 10.5077 -5.5159 37.8896 1.1670
# 6 -1.1570 -2.7402 -4.5468 0.1202 1.1670 19.7317
#
#
#
# Elastic Compliance Matrix: (Units=1/GPa)
#
#
# Indices 1 2 3 4 5 6 
#
# 1 0.020078 -0.008112 -0.001887 -0.000137 -0.009457 0.000176
# 2 -0.008112 0.017771 -0.002013 0.001617 0.002574 0.001366
# 3 -0.001887 -0.002013 0.009460 -0.001535 -0.001548 0.001891
# 4 -0.000137 0.001617 -0.001535 0.029644 0.004590 -0.000589
# 5 -0.009457 0.002574 -0.001548 0.004590 0.032445 -0.002501
# 6 0.000176 0.001366 0.001891 -0.000589 -0.002501 0.051467
#
#
# Mechanical properties :
#
#
# Convention : Reuss Voigt Hill
#
# Bulk Modulus (GPa) = 42.94630 48.85225 45.89927
# Shear Modulus (GPa) = 25.95354 30.87170 28.41262
#
# Velocity S-wave (km/s) = 3.67821 4.01161 3.84852
# Velocity P-wave (km/s) = 6.35817 6.85006 6.60869
#
# Compressibility (1/GPa) = 0.02328489
#
# Stress axis : x y z
#
# Youngs Moduli (GPa) = 49.80544 56.27083 105.70727
#
# Poissons Ratio (x) = 0.45647 0.19949
# Poissons Ratio (y) = 0.40402 0.21279
# Poissons Ratio (z) = 0.09399 0.11328
#
# Static dielectric constant tensor:
#      x y z
#    x 3.402200 -0.143050 0.236380 
#    y -0.143050 3.389770 -0.019170 
#    z 0.236380 -0.019170 3.968390 
# 
# 
# High freq. dielectric constant tensor:
#      x y z
#    x 1.728970 -0.015640 0.009440 
#    y -0.015640 1.727910 0.006480 
#    z 0.009440 0.006480 1.781490 
# 
# From -- ./inp_files/343149.got.cif
#   From: 2010.06.25/outbox.cif.g09.slc.cpg/sg2_172_cif.got.tgz:343149.got - 2010.06.27 13:26:56.
