data_PCOD8039830
_publ_section_title
;
Structure prediction by ZEFSAII (Michael W. Deem and Ramdas Pophale) SiO2 
 PCOD8039830
Probable space group: P -1
;
_chemical_formula_sum "Si O2"
_cell_formula_units_Z 14
_cell_length_a 16.182426
_cell_length_b 8.875449
_cell_length_c 20.275538
_cell_angle_alpha 141.210634
_cell_angle_beta 149.859201
_cell_angle_gamma 32.311516
_cell_volume 768.697423
_symmetry_space_group_name_H-M "P -1"
_symmetry_group_IT_number 2
_symmetry_cell_setting 'triclinic'
loop_
_space_group_symop_operation_xyz
x,y,z
-x,-y,-z
loop_
_atom_site_type_symbol
_atom_site_label
_atom_site_fract_x
_atom_site_fract_y
_atom_site_fract_z
Si Si1 0.990372 0.505914 0.629023
Si Si2 0.691830 0.077283 0.413953
Si Si3 0.019322 0.282573 0.174532
Si Si4 0.729254 0.624055 0.820938
Si Si5 0.263665 0.903354 0.399456
Si Si6 0.322445 0.385393 0.460291
Si Si7 0.944725 0.307750 0.985970
O O1 0.781751 0.540405 0.513999
O O2 0.095699 0.496627 0.768322
O O3 0.933593 0.792790 0.648137
O O4 0.125714 0.233263 0.585250
O O5 0.500124 0.135783 0.263251
O O6 0.654750 0.091533 0.470994
O O7 0.740873 0.311464 0.511272
O O8 0.233781 0.240620 0.304083
O O9 0.906178 0.409186 0.070530
O O10 0.048710 0.983732 0.113098
O O11 0.788604 0.336685 0.723475
O O12 0.849054 0.752513 0.918380
O O13 0.772760 0.550051 0.903745
O O14 0.441077 0.823773 0.443223
#
# Coordination Sequence:
#
# PCOD8039830 Si02
#       7
#     2   2   2   2   2   2   2
#     4  10  21  34  51  83 111 135 167 213 275 308
#     4  11  21  34  53  82 112 134 165 220 273 307
#     4   9  19  33  55  77 103 134 176 216 256 298
#     4  10  20  34  56  79 101 136 183 213 253 305
#     4  11  19  35  56  81 104 139 175 213 256 318
#     4   9  19  35  56  78 105 134 176 217 252 314
#     4  10  18  35  56  77  98 140 182 220 241 303
#
# _framework density 18.212627999999999
#
# number of rings (size 3 to 8) (size 9 to 14) (size 15 to 20)
#    0.857    1.143    1.429    4.714    0.000    0.000 
#    0.000    1.429    0.000    0.000    0.000    0.000 
#    0.000    0.000    0.000    0.000    0.000    0.000 
#
# Total GULP energy -173473.945107 kJ/mol
# GULP energy per Si atom -12390.996079 kJ/mol
# Density = 1.817117 g / cm^3
# Si number density = 18.212628 Si / 1000 Ang^3
#
#
#
# Elastic Constant Matrix: (Units=GPa)
#
#
# Indices 1 2 3 4 5 6 
#
# 1 -128.2422 29.1520 -69.2364 8.7197 9.5355 -42.6302
# 2 29.1520 101.0357 30.5472 -0.5471 8.1533 -7.2303
# 3 -69.2364 30.5472 42.6637 7.7666 10.1627 -20.1367
# 4 8.7197 -0.5471 7.7666 25.0781 8.8620 1.1290
# 5 9.5355 8.1533 10.1627 8.8620 29.7345 0.5523
# 6 -42.6302 -7.2303 -20.1367 1.1290 0.5523 11.5804
#
#
#
# Elastic Compliance Matrix: (Units=1/GPa)
#
#
# Indices 1 2 3 4 5 6 
#
# 1 0.000041 0.001109 -0.006727 0.002035 0.001582 -0.011127
# 2 0.001109 0.011008 -0.002149 0.001313 -0.003165 0.007242
# 3 -0.006727 -0.002149 0.013130 -0.001162 -0.001337 -0.003096
# 4 0.002035 0.001313 -0.001162 0.044343 -0.013880 0.002629
# 5 0.001582 -0.003165 -0.001337 -0.013880 0.038566 0.001036
# 6 -0.011127 0.007242 -0.003096 0.002629 0.001036 0.044223
#
#
# Mechanical properties :
#
#
# Convention : Reuss Voigt Hill
#
# Bulk Modulus (GPa) = 115.65964 -0.40191 57.62886
# Shear Modulus (GPa) = 29.45909 14.94490 22.20199
#
# Velocity S-wave (km/s) = 4.02619 2.86768 3.49527
# Velocity P-wave (km/s) = 9.23345 3.27775 6.92821
#
# Compressibility (1/GPa) = 0.00864606
#
# Stress axis : x y z
#
# Youngs Moduli (GPa) = 24384.91519 90.84319 76.15985
#
# Poissons Ratio (x) = -0.10074 0.51231
# Poissons Ratio (y) = -27.04281 0.16365
# Poissons Ratio (z) = 164.03174 0.19521
#
# Static dielectric constant tensor:
#      x y z
#    x 3.316780 0.260320 -0.061340 
#    y 0.260320 3.124430 0.073530 
#    z -0.061340 0.073530 3.407880 
# 
# 
# High freq. dielectric constant tensor:
#      x y z
#    x 1.700690 0.029680 -0.004190 
#    y 0.029680 1.686860 0.007140 
#    z -0.004190 0.007140 1.704700 
# 
# From -- ./inp_files/347672.got.cif
#   From: 2010.06.25/outbox.cif.g09.slc.cpg/sg2_174_cif.got.tgz:347672.got - 2010.06.27 13:26:56.
