data_PCOD8039314
_publ_section_title
;
Structure prediction by ZEFSAII (Michael W. Deem and Ramdas Pophale) SiO2 
 PCOD8039314
Probable space group: P -1
;
_chemical_formula_sum "Si O2"
_cell_formula_units_Z 16
_cell_length_a 8.184431
_cell_length_b 17.091305
_cell_length_c 12.047705
_cell_angle_alpha 46.897233
_cell_angle_beta 99.093595
_cell_angle_gamma 133.769928
_cell_volume 712.981630
_symmetry_space_group_name_H-M "P -1"
_symmetry_group_IT_number 2
_symmetry_cell_setting 'triclinic'
loop_
_space_group_symop_operation_xyz
x,y,z
-x,-y,-z
loop_
_atom_site_type_symbol
_atom_site_label
_atom_site_fract_x
_atom_site_fract_y
_atom_site_fract_z
Si Si1 0.443879 0.303798 0.671314
Si Si2 0.471330 0.873616 0.056965
Si Si3 0.904331 0.099221 0.444368
Si Si4 0.524868 0.735142 0.666637
Si Si5 0.647196 0.682154 0.106327
Si Si6 0.288735 0.469610 0.067747
Si Si7 0.875114 0.030593 0.758873
Si Si8 0.830411 0.545497 0.286985
O O1 0.402501 0.154146 0.825221
O O2 0.463648 0.368467 0.731055
O O3 0.730410 0.483973 0.463219
O O4 0.184442 0.217470 0.658573
O O5 0.150330 0.674887 0.186600
O O6 0.644210 0.968457 0.869757
O O7 0.500000 0.000000 0.000000
O O8 0.192385 0.186044 0.370114
O O9 0.972502 0.254312 0.254258
O O10 0.633691 0.913446 0.526699
O O11 0.836909 0.060770 0.604621
O O12 0.372534 0.640955 0.623607
O O13 0.297746 0.582504 0.885593
O O14 0.379556 0.541174 0.133915
O O15 0.817579 0.660693 0.129343
O O16 0.841851 0.884182 0.896682
O O17 0.500000 0.500000 0.000000
#
# Coordination Sequence:
#
# PCOD8039314 Si02
#       8
#     2   2   2   2   2   2   2   2
#     4  11  23  40  63  92 119 164 216 258 308 377
#     4  11  25  43  59  88 131 167 202 258 324 375
#     4  10  19  35  60  94 124 162 208 264 309 361
#     4  10  20  35  60  96 126 157 211 264 309 367
#     4  11  20  34  62  92 124 157 209 265 305 367
#     4  10  18  33  56  94 122 157 203 263 307 357
#     4  11  21  40  63  92 124 164 213 259 311 374
#     4  12  22  39  62  94 124 166 203 258 323 373
#
# _framework density 22.440971999999999
#
# number of rings (size 3 to 8) (size 9 to 14) (size 15 to 20)
#    0.000    1.250    5.000    3.750    0.000    1.000 
#    2.250    0.625    0.000    0.750    0.000    0.000 
#    0.000    0.000    0.000    0.000    0.000    0.000 
#
# Total GULP energy -198374.306345 kJ/mol
# GULP energy per Si atom -12398.394147 kJ/mol
# Density = 2.238990 g / cm^3
# Si number density = 22.440972 Si / 1000 Ang^3
#
#
#
# Elastic Constant Matrix: (Units=GPa)
#
#
# Indices 1 2 3 4 5 6 
#
# 1 50.6462 26.9489 25.6739 -7.3010 -11.3320 -10.0252
# 2 26.9489 126.1577 43.2711 -10.2056 -5.6662 -21.0618
# 3 25.6739 43.2711 144.8980 -2.4673 -10.4661 -12.7885
# 4 -7.3010 -10.2056 -2.4673 36.0563 -4.6063 -0.2267
# 5 -11.3320 -5.6662 -10.4661 -4.6063 27.1024 -5.1214
# 6 -10.0252 -21.0618 -12.7885 -0.2267 -5.1214 23.8074
#
#
#
# Elastic Compliance Matrix: (Units=1/GPa)
#
#
# Indices 1 2 3 4 5 6 
#
# 1 0.028528 -0.002135 -0.002223 0.006893 0.014067 0.012022
# 2 -0.002135 0.010745 -0.001864 0.002875 0.002673 0.008208
# 3 -0.002223 -0.001864 0.008219 -0.000110 0.002274 0.002318
# 4 0.006893 0.002875 -0.000110 0.031295 0.010250 0.007889
# 5 0.014067 0.002673 0.002274 0.010250 0.049798 0.020320
# 6 0.012022 0.008208 0.002318 0.007889 0.020320 0.060019
#
#
# Mechanical properties :
#
#
# Convention : Reuss Voigt Hill
#
# Bulk Modulus (GPa) = 28.53205 57.05440 42.79323
# Shear Modulus (GPa) = 23.50391 32.44710 27.97550
#
# Velocity S-wave (km/s) = 3.23981 3.80661 3.53459
# Velocity P-wave (km/s) = 5.17079 6.69326 5.98067
#
# Compressibility (1/GPa) = 0.03504830
#
# Stress axis : x y z
#
# Youngs Moduli (GPa) = 35.05274 93.06722 121.67135
#
# Poissons Ratio (x) = 0.19872 0.27044
# Poissons Ratio (y) = 0.07485 0.22679
# Poissons Ratio (z) = 0.07791 0.17348
#
# Static dielectric constant tensor:
#      x y z
#    x 3.703020 -0.235520 0.207810 
#    y -0.235520 4.086340 -0.106740 
#    z 0.207810 -0.106740 4.655630 
# 
# 
# High freq. dielectric constant tensor:
#      x y z
#    x 1.840000 -0.021850 0.003070 
#    y -0.021850 1.885780 -0.001340 
#    z 0.003070 -0.001340 1.903510 
# 
# From -- ./inp_files/403017.got.cif
#   From: 2010.06.25/outbox.cif.g09.slc.cpg/sg2_202_cif.got.tgz:403017.got - 2010.06.27 13:26:56.
