data_PCOD8039596
_publ_section_title
;
Structure prediction by ZEFSAII (Michael W. Deem and Ramdas Pophale) SiO2 
 PCOD8039596
Probable space group: P -1
;
_chemical_formula_sum "Si O2"
_cell_formula_units_Z 16
_cell_length_a 14.734351
_cell_length_b 9.090248
_cell_length_c 20.542068
_cell_angle_alpha 138.468226
_cell_angle_beta 25.945455
_cell_angle_gamma 139.261350
_cell_volume 763.484715
_symmetry_space_group_name_H-M "P -1"
_symmetry_group_IT_number 2
_symmetry_cell_setting 'triclinic'
loop_
_space_group_symop_operation_xyz
x,y,z
-x,-y,-z
loop_
_atom_site_type_symbol
_atom_site_label
_atom_site_fract_x
_atom_site_fract_y
_atom_site_fract_z
Si Si1 0.606868 0.460528 0.771599
Si Si2 0.927605 0.536340 0.987366
Si Si3 0.856130 0.254271 0.631558
Si Si4 0.530198 0.762180 0.815078
Si Si5 0.332432 0.708741 0.106071
Si Si6 0.785274 0.925191 0.155475
Si Si7 0.257004 0.269958 0.458738
Si Si8 0.138114 0.570454 0.730631
O O1 0.822270 0.400331 0.638585
O O2 0.662210 0.612862 0.720345
O O3 0.423518 0.215938 0.797694
O O4 0.529078 0.615585 0.926452
O O5 0.721925 0.318719 0.027286
O O6 0.836371 0.761017 0.124315
O O7 0.000000 0.500000 0.000000
O O8 0.123072 0.563415 0.817505
O O9 0.667989 0.273223 0.809436
O O10 0.086328 0.352076 0.550883
O O11 0.835361 0.988534 0.538954
O O12 0.540064 0.710545 0.713691
O O13 0.634799 0.030020 0.855018
O O14 0.109042 0.535792 0.167359
O O15 0.754922 0.168506 0.279662
O O16 0.000000 0.000000 0.000000
O O17 0.296147 0.430972 0.551547
#
# Coordination Sequence:
#
# PCOD8039596 Si02
#       8
#     2   2   2   2   2   2   2   2
#     4  11  19  33  56  85 112 141 191 229 280 316
#     4  10  21  38  57  84 112 142 184 232 277 319
#     4   9  20  35  54  81 112 150 184 228 266 337
#     4  10  21  37  58  83 117 146 174 235 281 325
#     4  10  18  34  57  85 114 141 184 229 281 324
#     4   9  18  35  55  78 110 145 182 228 267 323
#     4   9  20  39  54  77 116 150 183 219 280 331
#     4  10  19  38  60  78 109 153 184 224 272 331
#
# _framework density 20.956541000000001
#
# number of rings (size 3 to 8) (size 9 to 14) (size 15 to 20)
#    0.000    2.250    3.750    1.500    0.000    4.500 
#    4.500    6.250    0.000    0.000    0.000    0.000 
#    0.000    0.000    0.000    0.000    0.000    0.000 
#
# Total GULP energy -198215.843925 kJ/mol
# GULP energy per Si atom -12388.490245 kJ/mol
# Density = 2.090884 g / cm^3
# Si number density = 20.956541 Si / 1000 Ang^3
#
#
#
# Elastic Constant Matrix: (Units=GPa)
#
#
# Indices 1 2 3 4 5 6 
#
# 1 96.3675 33.7425 9.9618 17.7017 -5.2312 -17.6500
# 2 33.7425 112.3962 19.4286 21.5277 5.1213 -1.9396
# 3 9.9618 19.4286 67.6113 21.6512 19.8470 -0.2895
# 4 17.7017 21.5277 21.6512 27.7571 4.8061 4.6122
# 5 -5.2312 5.1213 19.8470 4.8061 31.8234 5.3343
# 6 -17.6500 -1.9396 -0.2895 4.6122 5.3343 20.5807
#
#
#
# Elastic Compliance Matrix: (Units=1/GPa)
#
#
# Indices 1 2 3 4 5 6 
#
# 1 0.016631 -0.002586 0.002417 -0.013431 0.000848 0.016843
# 2 -0.002586 0.011049 -0.000388 -0.006524 -0.001069 0.000557
# 3 0.002417 -0.000388 0.025149 -0.020193 -0.013940 0.010529
# 4 -0.013431 -0.006524 -0.020193 0.069278 0.005914 -0.029476
# 5 0.000848 -0.001069 -0.013940 0.005914 0.041488 -0.011649
# 6 0.016843 0.000557 0.010529 -0.029476 -0.011649 0.072859
#
#
# Mechanical properties :
#
#
# Convention : Reuss Voigt Hill
#
# Bulk Modulus (GPa) = 19.33703 44.73785 32.03744
# Shear Modulus (GPa) = 19.62279 30.24839 24.93559
#
# Velocity S-wave (km/s) = 3.06331 3.80331 3.45319
# Velocity P-wave (km/s) = 4.66466 6.37818 5.58750
#
# Compressibility (1/GPa) = 0.05171425
#
# Stress axis : x y z
#
# Youngs Moduli (GPa) = 60.13033 90.50982 39.76225
#
# Poissons Ratio (x) = 0.23405 -0.09611
# Poissons Ratio (y) = 0.15549 0.01544
# Poissons Ratio (z) = -0.14534 0.03515
#
# Static dielectric constant tensor:
#      x y z
#    x 3.678830 -0.121530 0.308140 
#    y -0.121530 4.410970 0.410560 
#    z 0.308140 0.410560 4.028640 
# 
# 
# High freq. dielectric constant tensor:
#      x y z
#    x 1.797430 -0.011250 0.010620 
#    y -0.011250 1.821760 0.011580 
#    z 0.010620 0.011580 1.807350 
# 
# From -- ./inp_files/305721.got.cif
#   From: 2010.06.25/outbox.cif.g09.slc.cpg/sg2_153_cif.got.tgz:305721.got - 2010.06.27 13:26:56.
