data_PCOD8039231
_publ_section_title
;
Structure prediction by ZEFSAII (Michael W. Deem and Ramdas Pophale) SiO2 
 PCOD8039231
Probable space group: P -1
;
_chemical_formula_sum "Si O2"
_cell_formula_units_Z 16
_cell_length_a 22.973950
_cell_length_b 8.561558
_cell_length_c 28.878761
_cell_angle_alpha 46.180066
_cell_angle_beta 169.765522
_cell_angle_gamma 132.837150
_cell_volume 728.145114
_symmetry_space_group_name_H-M "P -1"
_symmetry_group_IT_number 2
_symmetry_cell_setting 'triclinic'
loop_
_space_group_symop_operation_xyz
x,y,z
-x,-y,-z
loop_
_atom_site_type_symbol
_atom_site_label
_atom_site_fract_x
_atom_site_fract_y
_atom_site_fract_z
Si Si1 0.516372 0.772675 0.407171
Si Si2 0.269901 0.553380 0.663431
Si Si3 0.241049 0.256766 0.199534
Si Si4 0.701913 0.136772 0.093190
Si Si5 0.252427 0.433102 0.460659
Si Si6 0.035665 0.844086 0.342291
Si Si7 0.282880 0.146425 0.357165
Si Si8 0.183545 0.199457 0.920597
O O1 0.686580 0.617063 0.535247
O O2 0.637267 0.699128 0.568327
O O3 0.640325 0.019265 0.444892
O O4 0.124637 0.766012 0.099701
O O5 0.126391 0.631474 0.486315
O O6 0.000000 0.500000 0.500000
O O7 0.494008 0.344590 0.871608
O O8 0.445836 0.759430 0.782665
O O9 0.407675 0.484396 0.265419
O O10 0.270648 0.284680 0.272721
O O11 0.441117 0.043180 0.385443
O O12 0.053132 0.230152 0.368993
O O13 0.769336 0.988693 0.131838
O O14 0.500000 0.000000 0.000000
O O15 0.027438 0.646331 0.242532
O O16 0.866946 0.749997 0.183551
O O17 0.918928 0.045956 0.098251
#
# Coordination Sequence:
#
# PCOD8039231 Si02
#       8
#     2   2   2   2   2   2   2   2
#     4  10  19  34  56  82 114 150 191 229 284 341
#     4  11  21  37  62  86 112 153 193 236 295 341
#     4  10  18  33  53  81 112 146 190 233 279 341
#     4  10  20  40  60  85 117 150 192 245 287 342
#     4   9  20  35  54  80 116 149 187 241 288 331
#     4  10  21  39  62  86 117 157 188 237 292 343
#     4   9  19  33  54  80 111 152 186 231 285 339
#     4   9  20  39  56  83 119 149 193 237 285 348
#
# _framework density 21.973642000000002
#
# number of rings (size 3 to 8) (size 9 to 14) (size 15 to 20)
#    0.000    2.250    1.250    1.500    0.000    2.000 
#    0.000    9.375    0.000    0.000    0.000    0.000 
#    0.000    0.000    0.000    0.000    0.000    0.000 
#
# Total GULP energy -198243.928562 kJ/mol
# GULP energy per Si atom -12390.245535 kJ/mol
# Density = 2.192363 g / cm^3
# Si number density = 21.973642 Si / 1000 Ang^3
#
#
#
# Elastic Constant Matrix: (Units=GPa)
#
#
# Indices 1 2 3 4 5 6 
#
# 1 78.3018 22.2597 26.6371 8.9976 1.0419 -0.6505
# 2 22.2597 76.4954 25.3528 7.1434 2.2529 -1.6822
# 3 26.6371 25.3528 69.8984 19.9845 15.7886 2.2036
# 4 8.9976 7.1434 19.9845 35.6783 8.2792 2.9696
# 5 1.0419 2.2529 15.7886 8.2792 27.5373 1.7246
# 6 -0.6505 -1.6822 2.2036 2.9696 1.7246 27.7610
#
#
#
# Elastic Compliance Matrix: (Units=1/GPa)
#
#
# Indices 1 2 3 4 5 6 
#
# 1 0.015427 -0.002717 -0.005254 -0.001136 0.002958 0.000552
# 2 -0.002717 0.015495 -0.004959 -0.000119 0.001640 0.001180
# 3 -0.005254 -0.004959 0.022665 -0.008010 -0.009936 -0.000749
# 4 -0.001136 -0.000119 -0.008010 0.034330 -0.005505 -0.002728
# 5 0.002958 0.001640 -0.009936 -0.005505 0.043493 -0.001156
# 6 0.000552 0.001180 -0.000749 -0.002728 -0.001156 0.036529
#
#
# Mechanical properties :
#
#
# Convention : Reuss Voigt Hill
#
# Bulk Modulus (GPa) = 36.06478 41.46609 38.76543
# Shear Modulus (GPa) = 24.62561 28.22503 26.42532
#
# Velocity S-wave (km/s) = 3.35130 3.58787 3.47160
# Velocity P-wave (km/s) = 5.60565 6.00629 5.80943
#
# Compressibility (1/GPa) = 0.02772789
#
# Stress axis : x y z
#
# Youngs Moduli (GPa) = 64.82338 64.53533 44.12013
#
# Poissons Ratio (x) = 0.17531 0.23182
# Poissons Ratio (y) = 0.17609 0.21879
# Poissons Ratio (z) = 0.34060 0.32002
#
# Static dielectric constant tensor:
#      x y z
#    x 4.015370 -0.064990 0.324630 
#    y -0.064990 4.064890 0.229290 
#    z 0.324630 0.229290 3.791900 
# 
# 
# High freq. dielectric constant tensor:
#      x y z
#    x 1.856270 -0.009860 0.023050 
#    y -0.009860 1.873320 0.021850 
#    z 0.023050 0.021850 1.854160 
# 
# From -- ./inp_files/106542.got.cif
#   From: 2010.06.25/outbox.cif.g09.slc.cpg/sg2_54_cif.got.tgz:106542.got - 2010.06.27 13:26:56.
