data_PCOD8039829
_publ_section_title
;
Structure prediction by ZEFSAII (Michael W. Deem and Ramdas Pophale) SiO2 
 PCOD8039829
Probable space group: P -1
;
_chemical_formula_sum "Si O2"
_cell_formula_units_Z 16
_cell_length_a 7.157047
_cell_length_b 10.410872
_cell_length_c 17.856922
_cell_angle_alpha 96.454668
_cell_angle_beta 53.859274
_cell_angle_gamma 65.132603
_cell_volume 848.770414
_symmetry_space_group_name_H-M "P -1"
_symmetry_group_IT_number 2
_symmetry_cell_setting 'triclinic'
loop_
_space_group_symop_operation_xyz
x,y,z
-x,-y,-z
loop_
_atom_site_type_symbol
_atom_site_label
_atom_site_fract_x
_atom_site_fract_y
_atom_site_fract_z
Si Si1 0.283820 0.115023 0.832227
Si Si2 0.822009 0.543469 0.620100
Si Si3 0.164026 0.810557 0.948948
Si Si4 0.372813 0.064941 0.645432
Si Si5 0.548498 0.711734 0.285334
Si Si6 0.802679 0.349887 0.219294
Si Si7 0.944225 0.799651 0.416101
Si Si8 0.705848 0.775326 0.786014
O O1 0.267010 0.047642 0.750505
O O2 0.388553 0.227627 0.801988
O O3 0.510516 0.964753 0.822437
O O4 0.960312 0.226481 0.952731
O O5 0.489108 0.622542 0.681581
O O6 0.848659 0.665083 0.670580
O O7 0.000000 0.500000 0.500000
O O8 0.958380 0.381821 0.626572
O O9 0.087606 0.755983 0.888985
O O10 0.508366 0.727536 0.867312
O O11 0.000000 0.000000 0.000000
O O12 0.387100 0.217188 0.654459
O O13 0.149708 0.107261 0.635116
O O14 0.687036 0.896734 0.543749
O O15 0.750452 0.518099 0.225428
O O16 0.211577 0.793914 0.379553
O O17 0.049471 0.255231 0.217879
#
# Coordination Sequence:
#
# PCOD8039829 Si02
#       8
#     2   2   2   2   2   2   2   2
#     4   9  20  37  54  82 111 138 187 231 265 321
#     4  10  21  36  57  83 114 145 183 228 266 327
#     4   9  20  39  57  79 114 143 180 234 278 321
#     4   9  19  34  53  80 108 144 182 220 271 326
#     4   9  20  36  53  80 112 138 178 230 263 331
#     4  10  21  38  60  79 111 148 180 221 290 318
#     4  10  18  35  56  77 110 151 175 219 284 317
#     4  10  20  39  57  82 112 147 182 228 273 328
#
# _framework density 18.850798999999999
#
# number of rings (size 3 to 8) (size 9 to 14) (size 15 to 20)
#    0.750    1.750    0.000    1.875    0.000    3.000 
#   13.500    0.625    0.000    0.000    0.000    0.000 
#    0.000    0.000    0.000    0.000    0.000    0.000 
#
# Total GULP energy -198281.775162 kJ/mol
# GULP energy per Si atom -12392.610948 kJ/mol
# Density = 1.880789 g / cm^3
# Si number density = 18.850799 Si / 1000 Ang^3
#
#
#
# Elastic Constant Matrix: (Units=GPa)
#
#
# Indices 1 2 3 4 5 6 
#
# 1 83.8972 13.2524 36.2874 2.2620 9.1518 -14.6552
# 2 13.2524 53.5010 10.9371 1.6961 -2.6426 -9.3032
# 3 36.2874 10.9371 112.6514 -8.9948 5.8547 -18.8299
# 4 2.2620 1.6961 -8.9948 32.5540 5.8294 7.8933
# 5 9.1518 -2.6426 5.8547 5.8294 22.0279 3.4557
# 6 -14.6552 -9.3032 -18.8299 7.8933 3.4557 25.5250
#
#
#
# Elastic Compliance Matrix: (Units=1/GPa)
#
#
# Indices 1 2 3 4 5 6 
#
# 1 0.015842 -0.002150 -0.003541 -0.002615 -0.006363 0.007370
# 2 -0.002150 0.020747 -0.000699 -0.003283 0.003439 0.006361
# 3 -0.003541 -0.000699 0.011428 0.002623 -0.003250 0.005772
# 4 -0.002615 -0.003283 0.002623 0.035804 -0.007789 -0.010781
# 5 -0.006363 0.003439 -0.003250 -0.007789 0.052876 -0.009548
# 6 0.007370 0.006361 0.005772 -0.010781 -0.009548 0.054612
#
#
# Mechanical properties :
#
#
# Convention : Reuss Voigt Hill
#
# Bulk Modulus (GPa) = 28.37869 41.22261 34.80065
# Shear Modulus (GPa) = 23.16574 28.65954 25.91264
#
# Velocity S-wave (km/s) = 3.50937 3.90338 3.71161
# Velocity P-wave (km/s) = 5.61319 6.49850 6.07200
#
# Compressibility (1/GPa) = 0.03523770
#
# Stress axis : x y z
#
# Youngs Moduli (GPa) = 63.12159 48.20013 87.50084
#
# Poissons Ratio (x) = 0.10364 0.30980
# Poissons Ratio (y) = 0.13573 0.06119
# Poissons Ratio (z) = 0.22348 0.03370
#
# Static dielectric constant tensor:
#      x y z
#    x 3.291890 0.121380 -0.069280 
#    y 0.121380 3.383940 -0.048860 
#    z -0.069280 -0.048860 3.810310 
# 
# 
# High freq. dielectric constant tensor:
#      x y z
#    x 1.719240 0.007340 0.000860 
#    y 0.007340 1.722850 0.008180 
#    z 0.000860 0.008180 1.739290 
# 
# From -- ./inp_files/549183.got.cif
#   From: 2010.06.25/outbox.cif.g09.slc.cpg/sg2_275_cif.got.tgz:549183.got - 2010.06.27 13:26:56.
