data_PCOD8039499
_publ_section_title
;
Structure prediction by ZEFSAII (Michael W. Deem and Ramdas Pophale) SiO2 
 PCOD8039499
Probable space group: P -1
;
_chemical_formula_sum "Si O2"
_cell_formula_units_Z 16
_cell_length_a 12.434842
_cell_length_b 11.488174
_cell_length_c 19.193096
_cell_angle_alpha 144.294125
_cell_angle_beta 44.321212
_cell_angle_gamma 110.110684
_cell_volume 909.561871
_symmetry_space_group_name_H-M "P -1"
_symmetry_group_IT_number 2
_symmetry_cell_setting 'triclinic'
loop_
_space_group_symop_operation_xyz
x,y,z
-x,-y,-z
loop_
_atom_site_type_symbol
_atom_site_label
_atom_site_fract_x
_atom_site_fract_y
_atom_site_fract_z
Si Si1 0.471511 0.727112 0.084912
Si Si2 0.281550 0.610793 0.664226
Si Si3 0.175903 0.407852 0.080869
Si Si4 0.967096 0.896221 0.051689
Si Si5 0.378102 0.968143 0.485057
Si Si6 0.342486 0.543887 0.947683
Si Si7 0.991277 0.744650 0.123136
Si Si8 0.759999 0.804425 0.487852
O O1 0.315183 0.969776 0.316441
O O2 0.500000 0.500000 0.000000
O O3 0.674930 0.686477 0.969749
O O4 0.396183 0.720869 0.040434
O O5 0.500000 0.500000 0.500000
O O6 0.273344 0.379804 0.548237
O O7 0.154808 0.811124 0.760441
O O8 0.182807 0.752891 0.852503
O O9 0.983855 0.674756 0.313092
O O10 0.136449 0.204507 0.990434
O O11 0.274504 0.427181 0.976943
O O12 0.967215 0.847881 0.108332
O O13 0.476140 0.684395 0.285651
O O14 0.500000 0.000000 0.500000
O O15 0.180068 0.056286 0.652899
O O16 0.342572 0.118469 0.502908
O O17 0.179880 0.703318 0.044593
O O18 0.000000 0.500000 0.000000
#
# Coordination Sequence:
#
# PCOD8039499 Si02
#       8
#     2   2   2   2   2   2   2   2
#     4  10  21  34  52  78 116 148 191 224 263 333
#     4  10  22  34  57  81 110 146 188 230 275 323
#     4  10  18  34  54  75 116 146 179 228 271 320
#     4  10  21  37  53  85 114 143 184 228 280 330
#     4  12  22  31  54  82 115 147 177 215 283 343
#     4  11  22  34  50  84 113 154 179 217 279 330
#     4  12  21  35  55  79 119 147 171 226 282 340
#     4  11  21  36  56  83 111 154 184 226 281 326
#
# _framework density 17.590886000000001
#
# number of rings (size 3 to 8) (size 9 to 14) (size 15 to 20)
#    0.000    1.250    6.250    1.500    1.750    3.000 
#    0.000    0.000    0.000    0.750    0.000   13.125 
#    0.000    0.000    0.000    0.000    0.000    0.000 
#
# Total GULP energy -198335.280287 kJ/mol
# GULP energy per Si atom -12395.955018 kJ/mol
# Density = 1.755085 g / cm^3
# Si number density = 17.590886 Si / 1000 Ang^3
#
#
#
# Elastic Constant Matrix: (Units=GPa)
#
#
# Indices 1 2 3 4 5 6 
#
# 1 132.2989 40.2627 61.2261 5.4155 1.3210 4.1210
# 2 40.2627 81.0832 47.2603 3.5231 1.8411 -10.3188
# 3 61.2261 47.2603 163.4469 -4.8037 -0.2590 1.7736
# 4 5.4155 3.5231 -4.8037 24.9409 4.4523 -7.3225
# 5 1.3210 1.8411 -0.2590 4.4523 28.0435 -3.3079
# 6 4.1210 -10.3188 1.7736 -7.3225 -3.3079 21.6897
#
#
#
# Elastic Compliance Matrix: (Units=1/GPa)
#
#
# Indices 1 2 3 4 5 6 
#
# 1 0.010362 -0.003983 -0.002783 -0.003615 -0.000256 -0.004896
# 2 -0.003983 0.017678 -0.003710 0.000473 0.000055 0.009639
# 3 -0.002783 -0.003710 0.008317 0.002415 -0.000063 -0.001110
# 4 -0.003615 0.000473 0.002415 0.046858 -0.005425 0.015707
# 5 -0.000256 0.000055 -0.000063 -0.005425 0.036987 0.003889
# 6 -0.004896 0.009639 -0.001110 0.015707 0.003889 0.057607
#
#
# Mechanical properties :
#
#
# Convention : Reuss Voigt Hill
#
# Bulk Modulus (GPa) = 64.92064 74.92525 69.92294
# Shear Modulus (GPa) = 24.52225 30.14015 27.33120
#
# Velocity S-wave (km/s) = 3.73772 4.14381 3.94599
# Velocity P-wave (km/s) = 7.45744 8.09818 7.78441
#
# Compressibility (1/GPa) = 0.01540342
#
# Stress axis : x y z
#
# Youngs Moduli (GPa) = 96.50687 56.56667 120.24259
#
# Poissons Ratio (x) = 0.22532 0.33467
# Poissons Ratio (y) = 0.38441 0.44612
# Poissons Ratio (z) = 0.26861 0.20987
#
# Static dielectric constant tensor:
#      x y z
#    x 3.251330 -0.262120 -0.371270 
#    y -0.262120 2.883750 -0.203170 
#    z -0.371270 -0.203170 3.616170 
# 
# 
# High freq. dielectric constant tensor:
#      x y z
#    x 1.670480 0.003400 -0.013100 
#    y 0.003400 1.649950 -0.006380 
#    z -0.013100 -0.006380 1.703190 
# 
# From -- ./inp_files/451364.got.cif
#   From: 2010.06.25/outbox.cif.g09.slc.cpg/sg2_226_cif.got.tgz:451364.got - 2010.06.27 13:26:56.
