data_PCOD8039545
_publ_section_title
;
Structure prediction by ZEFSAII (Michael W. Deem and Ramdas Pophale) SiO2 
 PCOD8039545
Probable space group: P -1
;
_chemical_formula_sum "Si O2"
_cell_formula_units_Z 16
_cell_length_a 8.935389
_cell_length_b 14.958804
_cell_length_c 11.217829
_cell_angle_alpha 76.489682
_cell_angle_beta 106.425773
_cell_angle_gamma 50.077616
_cell_volume 910.608307
_symmetry_space_group_name_H-M "P -1"
_symmetry_group_IT_number 2
_symmetry_cell_setting 'triclinic'
loop_
_space_group_symop_operation_xyz
x,y,z
-x,-y,-z
loop_
_atom_site_type_symbol
_atom_site_label
_atom_site_fract_x
_atom_site_fract_y
_atom_site_fract_z
Si Si1 0.382815 0.313475 0.876961
Si Si2 0.701962 0.297862 0.810495
Si Si3 0.466984 0.944200 0.901655
Si Si4 0.647371 0.520601 0.981517
Si Si5 0.947087 0.746542 0.976546
Si Si6 0.479042 0.596677 0.666256
Si Si7 0.935043 0.410981 0.706307
Si Si8 0.058542 0.776397 0.353512
O O1 0.549826 0.277592 0.820764
O O2 0.124405 0.408152 0.727313
O O3 0.509747 0.168425 0.006780
O O4 0.343423 0.404842 0.942833
O O5 0.533683 0.463196 0.718919
O O6 0.815708 0.229625 0.728196
O O7 0.914823 0.218267 0.981773
O O8 0.659117 0.882572 0.857725
O O9 0.210869 0.067403 0.742083
O O10 0.500000 0.000000 0.000000
O O11 0.519004 0.616622 0.802788
O O12 0.500000 0.500000 0.000000
O O13 0.923887 0.366909 0.065504
O O14 0.972810 0.681129 0.126581
O O15 0.662646 0.565647 0.624420
O O16 0.207964 0.735777 0.518671
O O17 0.938656 0.335880 0.623136
#
# Coordination Sequence:
#
# PCOD8039545 Si02
#       8
#     2   2   2   2   2   2   2   2
#     4  11  19  30  56  86 100 132 178 223 260 289
#     4   9  16  30  52  81 100 131 171 223 265 292
#     4  11  19  34  51  77 109 140 176 209 254 317
#     4  10  18  34  56  80 104 127 179 226 259 299
#     4   8  16  30  50  74 101 134 168 210 258 296
#     4   9  18  33  54  73 104 145 168 210 267 310
#     4   8  16  29  50  76 101 130 172 215 250 299
#     4  10  18  35  51  71 112 145 168 203 263 326
#
# _framework density 17.570672999999999
#
# number of rings (size 3 to 8) (size 9 to 14) (size 15 to 20)
#    0.000    3.000    6.250    1.500    0.000    5.000 
#    0.000    3.125    0.000    0.750    0.000    0.000 
#    0.000    0.000    0.000    0.000    0.000    0.000 
#
# Total GULP energy -198225.213767 kJ/mol
# GULP energy per Si atom -12389.075860 kJ/mol
# Density = 1.753068 g / cm^3
# Si number density = 17.570673 Si / 1000 Ang^3
#
#
#
# Elastic Constant Matrix: (Units=GPa)
#
#
# Indices 1 2 3 4 5 6 
#
# 1 127.9572 38.7502 35.6567 -5.6275 23.1478 -10.1700
# 2 38.7502 76.3726 30.9021 1.8175 10.4923 -12.6030
# 3 35.6567 30.9021 75.4137 -11.3482 27.7011 -14.6684
# 4 -5.6275 1.8175 -11.3482 22.2516 -6.5831 7.3778
# 5 23.1478 10.4923 27.7011 -6.5831 22.5197 -4.7587
# 6 -10.1700 -12.6030 -14.6684 7.3778 -4.7587 26.8200
#
#
#
# Elastic Compliance Matrix: (Units=1/GPa)
#
#
# Indices 1 2 3 4 5 6 
#
# 1 0.010735 -0.004166 0.000072 0.000269 -0.009002 0.000481
# 2 -0.004166 0.018658 -0.006672 -0.007090 0.002996 0.006021
# 3 0.000072 -0.006672 0.028733 0.004390 -0.029732 0.006124
# 4 0.000269 -0.007090 0.004390 0.055778 0.010924 -0.014234
# 5 -0.009002 0.002996 -0.029732 0.010924 0.090944 -0.005135
# 6 0.000481 0.006021 0.006124 -0.014234 -0.005135 0.046651
#
#
# Mechanical properties :
#
#
# Convention : Reuss Voigt Hill
#
# Bulk Modulus (GPa) = 27.32700 54.48463 40.90581
# Shear Modulus (GPa) = 17.52975 25.94722 21.73848
#
# Velocity S-wave (km/s) = 3.16202 3.84700 3.52121
# Velocity P-wave (km/s) = 5.37750 7.12802 6.31372
#
# Compressibility (1/GPa) = 0.03659385
#
# Stress axis : x y z
#
# Youngs Moduli (GPa) = 93.15058 53.59658 34.80317
#
# Poissons Ratio (x) = 0.22331 -0.00251
# Poissons Ratio (y) = 0.38811 0.23220
# Poissons Ratio (z) = -0.00672 0.35759
#
# Static dielectric constant tensor:
#      x y z
#    x 3.820740 -0.193100 0.468830 
#    y -0.193100 3.522130 -0.053600 
#    z 0.468830 -0.053600 3.128110 
# 
# 
# High freq. dielectric constant tensor:
#      x y z
#    x 1.682840 -0.019520 0.026940 
#    y -0.019520 1.655550 0.002490 
#    z 0.026940 0.002490 1.642280 
# 
# From -- ./inp_files/336145.got.cif
#   From: 2010.06.25/outbox.cif.g09.slc.cpg/sg2_169_cif.got.tgz:336145.got - 2010.06.27 13:26:56.
