data_PCOD8039633
_publ_section_title
;
Structure prediction by ZEFSAII (Michael W. Deem and Ramdas Pophale) SiO2 
 PCOD8039633
Probable space group: P -1
;
_chemical_formula_sum "Si O2"
_cell_formula_units_Z 16
_cell_length_a 12.103261
_cell_length_b 8.950751
_cell_length_c 12.628029
_cell_angle_alpha 63.083261
_cell_angle_beta 59.903367
_cell_angle_gamma 100.747741
_cell_volume 890.969173
_symmetry_space_group_name_H-M "P -1"
_symmetry_group_IT_number 2
_symmetry_cell_setting 'triclinic'
loop_
_space_group_symop_operation_xyz
x,y,z
-x,-y,-z
loop_
_atom_site_type_symbol
_atom_site_label
_atom_site_fract_x
_atom_site_fract_y
_atom_site_fract_z
Si Si1 0.112701 0.413177 0.627798
Si Si2 0.193726 0.929192 0.180621
Si Si3 0.323884 0.838784 0.340713
Si Si4 0.179781 0.619289 0.886896
Si Si5 0.323159 0.959785 0.877910
Si Si6 0.133707 0.718956 0.662519
Si Si7 0.086226 0.224304 0.129250
Si Si8 0.131765 0.080360 0.825807
O O1 0.243410 0.600246 0.437342
O O2 0.059060 0.495553 0.723343
O O3 0.178978 0.290676 0.686320
O O4 0.971881 0.270804 0.664973
O O5 0.301200 0.941579 0.217999
O O6 0.177356 0.118040 0.140778
O O7 0.264813 0.923161 0.037594
O O8 0.250359 0.875514 0.468574
O O9 0.499063 0.936660 0.244047
O O10 0.245956 0.757126 0.913669
O O11 0.236089 0.738934 0.710335
O O12 0.207650 0.438502 0.948677
O O13 0.000000 0.500000 0.000000
O O14 0.281729 0.107489 0.796049
O O15 0.992837 0.747145 0.738439
O O16 0.935708 0.090537 0.174761
O O17 0.000000 0.000000 0.000000
#
# Coordination Sequence:
#
# PCOD8039633 Si02
#       8
#     2   2   2   2   2   2   2   2
#     4   9  20  37  59  85 110 148 189 234 274 335
#     4  11  21  38  62  81 110 155 202 226 258 340
#     4  10  25  38  53  85 121 156 182 220 296 335
#     4  10  18  34  58  87 106 142 189 233 284 329
#     4  12  22  36  63  82 119 146 184 243 282 335
#     4   9  19  35  56  82 117 139 182 227 293 327
#     4  10  19  32  61  89 104 140 198 242 264 322
#     4  11  18  33  60  92 106 135 197 238 279 321
#
# _framework density 17.957972999999999
#
# number of rings (size 3 to 8) (size 9 to 14) (size 15 to 20)
#    0.750    1.000    5.000    3.000    0.000    1.500 
#    0.000    0.625    2.750    0.000    0.000    0.000 
#    0.000    0.000    0.000    0.000    0.000    0.000 
#
# Total GULP energy -198213.434071 kJ/mol
# GULP energy per Si atom -12388.339629 kJ/mol
# Density = 1.791710 g / cm^3
# Si number density = 17.957973 Si / 1000 Ang^3
#
#
#
# Elastic Constant Matrix: (Units=GPa)
#
#
# Indices 1 2 3 4 5 6 
#
# 1 102.9408 31.1698 35.2203 1.4352 11.0765 -1.0860
# 2 31.1698 99.4091 28.8093 -0.5278 7.8831 -8.8821
# 3 35.2203 28.8093 62.5544 0.9775 13.8024 -2.1066
# 4 1.4352 -0.5278 0.9775 22.4462 4.2113 3.3109
# 5 11.0765 7.8831 13.8024 4.2113 26.5473 -3.7349
# 6 -1.0860 -8.8821 -2.1066 3.3109 -3.7349 16.4820
#
#
#
# Elastic Compliance Matrix: (Units=1/GPa)
#
#
# Indices 1 2 3 4 5 6 
#
# 1 0.012517 -0.002281 -0.005647 -0.000041 -0.001818 -0.001530
# 2 -0.002281 0.012565 -0.004383 -0.000369 0.000435 0.006234
# 3 -0.005647 -0.004383 0.023038 0.001204 -0.008796 -0.002025
# 4 -0.000041 -0.000369 0.001204 0.048092 -0.009807 -0.011930
# 5 -0.001818 0.000435 -0.008796 -0.009807 0.046029 0.011391
# 6 -0.001530 0.006234 -0.002025 -0.011930 0.011391 0.068649
#
#
# Mechanical properties :
#
#
# Convention : Reuss Voigt Hill
#
# Bulk Modulus (GPa) = 42.55525 50.58922 46.57223
# Shear Modulus (GPa) = 20.54692 24.40877 22.47784
#
# Velocity S-wave (km/s) = 3.38622 3.69076 3.54176
# Velocity P-wave (km/s) = 6.24798 6.81133 6.53573
#
# Compressibility (1/GPa) = 0.02349886
#
# Stress axis : x y z
#
# Youngs Moduli (GPa) = 79.89106 79.58382 43.40698
#
# Poissons Ratio (x) = 0.18153 0.24511
# Poissons Ratio (y) = 0.18223 0.19025
# Poissons Ratio (z) = 0.45112 0.34881
#
# Static dielectric constant tensor:
#      x y z
#    x 3.304520 0.059080 0.309840 
#    y 0.059080 3.653490 -0.063120 
#    z 0.309840 -0.063120 3.428750 
# 
# 
# High freq. dielectric constant tensor:
#      x y z
#    x 1.673880 -0.005540 0.018140 
#    y -0.005540 1.700670 0.000620 
#    z 0.018140 0.000620 1.681360 
# 
# From -- ./inp_files/414247.got.cif
#   From: 2010.06.25/outbox.cif.g09.slc.cpg/sg2_208_cif.got.tgz:414247.got - 2010.06.27 13:26:56.
