data_PCOD8039198
_publ_section_title
;
Structure prediction by ZEFSAII (Michael W. Deem and Ramdas Pophale) SiO2 
 PCOD8039198
Probable space group: P -1
;
_chemical_formula_sum "Si O2"
_cell_formula_units_Z 16
_cell_length_a 16.653583
_cell_length_b 7.047034
_cell_length_c 10.291646
_cell_angle_alpha 89.452683
_cell_angle_beta 48.691060
_cell_angle_gamma 88.489009
_cell_volume 906.895425
_symmetry_space_group_name_H-M "P -1"
_symmetry_group_IT_number 2
_symmetry_cell_setting 'triclinic'
loop_
_space_group_symop_operation_xyz
x,y,z
-x,-y,-z
loop_
_atom_site_type_symbol
_atom_site_label
_atom_site_fract_x
_atom_site_fract_y
_atom_site_fract_z
Si Si1 0.360379 0.510693 0.261787
Si Si2 0.027058 0.787164 0.757824
Si Si3 0.259279 0.350144 0.136156
Si Si4 0.983136 0.759258 0.245856
Si Si5 0.526595 0.788125 0.010613
Si Si6 0.803153 0.501955 0.341490
Si Si7 0.961323 0.791145 0.555324
Si Si8 0.843867 0.527957 0.014310
O O1 0.274814 0.507625 0.233131
O O2 0.446509 0.335979 0.147881
O O3 0.305096 0.488346 0.460166
O O4 0.423016 0.706969 0.193757
O O5 0.023319 0.704213 0.614371
O O6 0.136255 0.701961 0.701604
O O7 0.924320 0.703712 0.941180
O O8 0.978312 0.985568 0.230050
O O9 0.369157 0.223573 0.006082
O O10 0.165424 0.212086 0.281095
O O11 0.234798 0.451573 0.024658
O O12 0.876222 0.676658 0.301055
O O13 0.990513 0.689633 0.389252
O O14 0.087528 0.669641 0.065855
O O15 0.500000 0.000000 0.000000
O O16 0.773596 0.521517 0.220582
O O17 0.000000 0.000000 0.500000
#
# Coordination Sequence:
#
# PCOD8039198 Si02
#       8
#     2   2   2   2   2   2   2   2
#     4   9  20  36  58  81  99 132 177 222 268 314
#     4   9  20  32  49  76 108 146 187 209 250 309
#     4   9  18  37  53  76 108 136 170 225 259 310
#     4  10  18  33  50  72 112 148 178 217 251 297
#     4   9  19  38  62  82  97 126 175 227 276 315
#     4  11  21  33  52  76 108 145 177 212 256 311
#     4   9  17  28  50  83 106 136 175 214 258 299
#     4  10  22  33  48  77 110 146 177 207 258 311
#
# _framework density 17.642607000000002
#
# number of rings (size 3 to 8) (size 9 to 14) (size 15 to 20)
#    0.750    1.750    1.250    1.500    1.750    6.500 
#    4.500    0.625    0.000    0.750    0.000    0.000 
#    0.000    0.000    0.000    0.000    0.000    0.000 
#
# Total GULP energy -198249.064645 kJ/mol
# GULP energy per Si atom -12390.566540 kJ/mol
# Density = 1.760245 g / cm^3
# Si number density = 17.642607 Si / 1000 Ang^3
#
#
#
# Elastic Constant Matrix: (Units=GPa)
#
#
# Indices 1 2 3 4 5 6 
#
# 1 60.1376 26.2302 44.6945 -9.2532 -3.4896 4.2875
# 2 26.2302 114.0073 34.3611 -9.6930 -3.7173 -2.5038
# 3 44.6945 34.3611 140.0156 -2.5252 12.7876 1.8527
# 4 -9.2532 -9.6930 -2.5252 17.8906 3.2289 -0.2373
# 5 -3.4896 -3.7173 12.7876 3.2289 25.4367 -0.2364
# 6 4.2875 -2.5038 1.8527 -0.2373 -0.2364 19.4253
#
#
#
# Elastic Compliance Matrix: (Units=1/GPa)
#
#
# Indices 1 2 3 4 5 6 
#
# 1 0.025848 -0.002668 -0.007888 0.009688 0.005844 -0.005107
# 2 -0.002668 0.010341 -0.001794 0.003710 0.001596 0.002157
# 3 -0.007888 -0.001794 0.010635 -0.002393 -0.006383 0.000389
# 4 0.009688 0.003710 -0.002393 0.063469 -0.004989 -0.000717
# 5 0.005844 0.001596 -0.006383 -0.004989 0.044191 0.000001
# 6 -0.005107 0.002157 0.000389 -0.000717 0.000001 0.052839
#
#
# Mechanical properties :
#
#
# Convention : Reuss Voigt Hill
#
# Bulk Modulus (GPa) = 45.19659 58.30357 51.75008
# Shear Modulus (GPa) = 20.88598 26.47551 23.68075
#
# Velocity S-wave (km/s) = 3.44443 3.87803 3.66764
# Velocity P-wave (km/s) = 6.44145 7.29184 6.87980
#
# Compressibility (1/GPa) = 0.02212556
#
# Stress axis : x y z
#
# Youngs Moduli (GPa) = 38.68739 96.70690 94.03125
#
# Poissons Ratio (x) = 0.25798 0.74170
# Poissons Ratio (y) = 0.10320 0.16865
# Poissons Ratio (z) = 0.30516 0.17345
#
# Static dielectric constant tensor:
#      x y z
#    x 3.306130 0.054430 0.234660 
#    y 0.054430 3.433440 -0.387440 
#    z 0.234660 -0.387440 3.817590 
# 
# 
# High freq. dielectric constant tensor:
#      x y z
#    x 1.661850 0.006510 0.007410 
#    y 0.006510 1.673510 -0.009470 
#    z 0.007410 -0.009470 1.678720 
# 
# From -- ./inp_files/324741.got.cif
#   From: 2010.06.25/outbox.cif.g09.slc.cpg/sg2_163_cif.got.tgz:324741.got - 2010.06.27 13:26:56.
