data_PCOD8039020
_publ_section_title
;
Structure prediction by ZEFSAII (Michael W. Deem and Ramdas Pophale) SiO2 
 PCOD8039020
Probable space group: P -1
;
_chemical_formula_sum "Si O2"
_cell_formula_units_Z 16
_cell_length_a 14.771067
_cell_length_b 11.999996
_cell_length_c 8.505977
_cell_angle_alpha 49.852971
_cell_angle_beta 127.808731
_cell_angle_gamma 105.911544
_cell_volume 892.037368
_symmetry_space_group_name_H-M "P -1"
_symmetry_group_IT_number 2
_symmetry_cell_setting 'triclinic'
loop_
_space_group_symop_operation_xyz
x,y,z
-x,-y,-z
loop_
_atom_site_type_symbol
_atom_site_label
_atom_site_fract_x
_atom_site_fract_y
_atom_site_fract_z
Si Si1 0.789322 0.128453 0.488841
Si Si2 0.477056 0.944348 0.279351
Si Si3 0.673975 0.892968 0.761929
Si Si4 0.900912 0.331727 0.615546
Si Si5 0.132228 0.336698 0.673225
Si Si6 0.012364 0.907854 0.811988
Si Si7 0.146812 0.118957 0.610364
Si Si8 0.639564 0.082937 0.110500
O O1 0.797678 0.273447 0.466696
O O2 0.717568 0.180430 0.202706
O O3 0.720808 0.023950 0.607348
O O4 0.919710 0.038980 0.675786
O O5 0.571521 0.846935 0.586138
O O6 0.375107 0.048327 0.174632
O O7 0.536041 0.054619 0.137125
O O8 0.417452 0.845312 0.181048
O O9 0.775097 0.749175 0.023847
O O10 0.847490 0.495760 0.474069
O O11 0.003208 0.336118 0.597045
O O12 0.945344 0.226274 0.903797
O O13 0.148596 0.263089 0.586149
O O14 0.957262 0.840189 0.664706
O O15 0.122850 0.980166 0.816269
O O16 0.271168 0.072212 0.697226
#
# Coordination Sequence:
#
# PCOD8039020 Si02
#       8
#     2   2   2   2   2   2   2   2
#     4  10  18  32  53  78 104 134 169 215 255 300
#     4   9  18  31  53  84  97 124 173 233 260 287
#     4  10  18  32  56  79 101 130 176 218 257 300
#     4  11  22  33  50  76 113 143 169 201 253 318
#     4  11  21  34  50  76 111 144 168 203 255 317
#     4  10  19  32  52  79 105 134 173 215 248 309
#     4  10  19  32  54  77 104 136 170 213 259 302
#     4   9  18  31  52  81 101 124 168 227 264 290
#
# _framework density 17.936468000000001
#
# number of rings (size 3 to 8) (size 9 to 14) (size 15 to 20)
#    0.000    2.000    3.750    1.125    0.000    0.500 
#    0.000    0.000    0.000    7.500    0.000    0.000 
#    0.000    0.000    0.000    0.000    0.000    0.000 
#
# Total GULP energy -198314.244568 kJ/mol
# GULP energy per Si atom -12394.640285 kJ/mol
# Density = 1.789564 g / cm^3
# Si number density = 17.936468 Si / 1000 Ang^3
#
#
#
# Elastic Constant Matrix: (Units=GPa)
#
#
# Indices 1 2 3 4 5 6 
#
# 1 68.7257 14.3664 2.9978 0.5872 -0.8624 -4.1063
# 2 14.3664 124.2089 58.4651 12.9622 -6.6026 -5.5242
# 3 2.9978 58.4651 58.3500 22.2296 -6.1878 4.2415
# 4 0.5872 12.9622 22.2296 26.0402 -2.4063 -3.0531
# 5 -0.8624 -6.6026 -6.1878 -2.4063 24.1277 5.5195
# 6 -4.1063 -5.5242 4.2415 -3.0531 5.5195 19.3562
#
#
#
# Elastic Compliance Matrix: (Units=1/GPa)
#
#
# Indices 1 2 3 4 5 6 
#
# 1 0.015105 -0.002290 0.001369 -0.000124 -0.000277 0.002310
# 2 -0.002290 0.019711 -0.026374 0.014103 -0.003265 0.014075
# 3 0.001369 -0.026374 0.063820 -0.043975 0.012040 -0.031591
# 4 -0.000124 0.014103 -0.043975 0.071466 -0.006411 0.026736
# 5 -0.000277 -0.003265 0.012040 -0.006411 0.047127 -0.018079
# 6 0.002310 0.014075 -0.031591 0.026736 -0.018079 0.072465
#
#
# Mechanical properties :
#
#
# Convention : Reuss Voigt Hill
#
# Bulk Modulus (GPa) = 22.70442 44.77148 33.73795
# Shear Modulus (GPa) = 13.92881 25.60185 19.76533
#
# Velocity S-wave (km/s) = 2.78971 3.78214 3.32318
# Velocity P-wave (km/s) = 4.80233 6.63989 5.79442
#
# Compressibility (1/GPa) = 0.04404428
#
# Stress axis : x y z
#
# Youngs Moduli (GPa) = 66.20185 50.73331 15.66898
#
# Poissons Ratio (x) = 0.11620 -0.02145
# Poissons Ratio (y) = 0.15163 0.41326
# Poissons Ratio (z) = -0.09061 1.33806
#
# Static dielectric constant tensor:
#      x y z
#    x 3.446010 -0.050890 0.025690 
#    y -0.050890 3.373070 0.510120 
#    z 0.025690 0.510120 3.400060 
# 
# 
# High freq. dielectric constant tensor:
#      x y z
#    x 1.705310 -0.007550 0.000790 
#    y -0.007550 1.672390 0.049780 
#    z 0.000790 0.049780 1.678050 
# 
# From -- ./inp_files/170426.got.cif
#   From: 2010.06.25/outbox.cif.g09.slc.cpg/sg2_86_cif.got.tgz:170426.got - 2010.06.27 13:26:56.
