data_PCOD8039026
_publ_section_title
;
Structure prediction by ZEFSAII (Michael W. Deem and Ramdas Pophale) SiO2 
 PCOD8039026
Probable space group: P -1
;
_chemical_formula_sum "Si O2"
_cell_formula_units_Z 16
_cell_length_a 12.184978
_cell_length_b 26.136839
_cell_length_c 25.622615
_cell_angle_alpha 168.569591
_cell_angle_beta 142.473104
_cell_angle_gamma 38.991370
_cell_volume 985.072796
_symmetry_space_group_name_H-M "P -1"
_symmetry_group_IT_number 2
_symmetry_cell_setting 'triclinic'
loop_
_space_group_symop_operation_xyz
x,y,z
-x,-y,-z
loop_
_atom_site_type_symbol
_atom_site_label
_atom_site_fract_x
_atom_site_fract_y
_atom_site_fract_z
Si Si1 0.377123 0.749877 0.198714
Si Si2 0.318425 0.747682 0.058402
Si Si3 0.733781 0.749549 0.190387
Si Si4 0.493825 0.250069 0.472743
Si Si5 0.096856 0.250023 0.308053
Si Si6 0.751128 0.752016 0.529576
Si Si7 0.879807 0.249827 0.799967
Si Si8 0.283576 0.249566 0.938662
O O1 0.271534 0.749992 0.104116
O O2 0.227663 0.749379 0.186118
O O3 0.500000 0.000000 0.500000
O O4 0.500000 0.500000 0.000000
O O5 0.532389 0.748121 0.134401
O O6 0.229889 0.995423 0.245874
O O7 0.230533 0.496709 0.748444
O O8 0.741774 0.750650 0.132725
O O9 0.836112 0.000077 0.499814
O O10 0.837211 0.499439 0.999345
O O11 0.306798 0.250182 0.369432
O O12 0.443360 0.249429 0.515315
O O13 0.606698 0.999074 0.249540
O O14 0.606659 0.501580 0.752140
O O15 0.090396 0.249871 0.368966
O O16 0.000000 0.500000 0.500000
O O17 0.000000 0.000000 0.000000
O O18 0.090472 0.249340 0.893479
#
# Coordination Sequence:
#
# PCOD8039026 Si02
#       8
#     2   2   2   2   2   2   2   2
#     4  12  23  36  51  68  95 136 183 235 262 280
#     4  12  19  34  54  67 103 134 182 211 256 303
#     4  12  19  34  50  68  93 132 172 222 258 287
#     4  10  20  32  51  73 103 136 152 188 254 299
#     4  10  18  32  53  80 113 131 153 191 245 325
#     4  10  20  32  51  79 100 137 159 197 258 302
#     4  12  24  34  46  71  94 132 182 222 251 289
#     4  12  21  34  48  70 103 132 171 206 250 311
#
# _framework density 16.242453999999999
#
# number of rings (size 3 to 8) (size 9 to 14) (size 15 to 20)
#    0.750    0.000    5.000    5.250    0.000    0.000 
#    0.000    0.000    0.000    0.000    0.000    0.000 
#    0.000   20.000    0.000    0.000    0.000    0.000 
#
# Total GULP energy -198417.616006 kJ/mol
# GULP energy per Si atom -12401.101000 kJ/mol
# Density = 1.620549 g / cm^3
# Si number density = 16.242454 Si / 1000 Ang^3
#
#
#
# Elastic Constant Matrix: (Units=GPa)
#
#
# Indices 1 2 3 4 5 6 
#
# 1 61.3532 36.9713 28.9355 -1.5422 3.2223 -16.9852
# 2 36.9713 125.0194 76.2887 7.2939 0.8112 -5.0203
# 3 28.9355 76.2887 173.0211 7.9389 -3.2180 -5.6159
# 4 -1.5422 7.2939 7.9389 36.9036 2.8569 1.4226
# 5 3.2223 0.8112 -3.2180 2.8569 4.3958 -4.5291
# 6 -16.9852 -5.0203 -5.6159 1.4226 -4.5291 21.3992
#
#
#
# Elastic Compliance Matrix: (Units=1/GPa)
#
#
# Indices 1 2 3 4 5 6 
#
# 1 0.025814 -0.006388 -0.001002 0.001900 -0.000699 0.018454
# 2 -0.006388 0.012683 -0.004690 -0.001243 -0.004636 -0.004224
# 3 -0.001002 -0.004690 0.008431 -0.001989 0.012185 0.003028
# 4 0.001900 -0.001243 -0.001989 0.030509 -0.030464 -0.007782
# 5 -0.000699 -0.004636 0.012185 -0.030464 0.334123 0.074297
# 6 0.018454 -0.004224 0.003028 -0.007782 0.074297 0.077424
#
#
# Mechanical properties :
#
#
# Convention : Reuss Voigt Hill
#
# Bulk Modulus (GPa) = 43.91977 71.53163 57.72570
# Shear Modulus (GPa) = 9.60185 27.01961 18.31073
#
# Velocity S-wave (km/s) = 2.43401 4.08305 3.36123
# Velocity P-wave (km/s) = 5.91591 8.14640 7.11906
#
# Compressibility (1/GPa) = 0.02276879
#
# Stress axis : x y z
#
# Youngs Moduli (GPa) = 38.73861 78.84732 118.60576
#
# Poissons Ratio (x) = 0.50366 0.11881
# Poissons Ratio (y) = 0.24746 0.55627
# Poissons Ratio (z) = 0.03880 0.36980
#
# Static dielectric constant tensor:
#      x y z
#    x 2.994420 0.018140 -0.012360 
#    y 0.018140 3.014950 0.082460 
#    z -0.012360 0.082460 3.337850 
# 
# 
# High freq. dielectric constant tensor:
#      x y z
#    x 1.594540 0.001530 -0.000400 
#    y 0.001530 1.612250 0.008910 
#    z -0.000400 0.008910 1.651780 
# 
# From -- ./inp_files/618836.got.cif
#   From: 2010.06.25/outbox.cif.g09.slc.cpg/sg2_310_cif.got.tgz:618836.got - 2010.06.27 13:26:56.
