data_PCOD8039574
_publ_section_title
;
Structure prediction by ZEFSAII (Michael W. Deem and Ramdas Pophale) SiO2 
 PCOD8039574
Probable space group: P -1
;
_chemical_formula_sum "Si O2"
_cell_formula_units_Z 14
_cell_length_a 7.865867
_cell_length_b 9.628468
_cell_length_c 12.882151
_cell_angle_alpha 121.888094
_cell_angle_beta 102.973813
_cell_angle_gamma 58.867414
_cell_volume 707.502353
_symmetry_space_group_name_H-M "P -1"
_symmetry_group_IT_number 2
_symmetry_cell_setting 'triclinic'
loop_
_space_group_symop_operation_xyz
x,y,z
-x,-y,-z
loop_
_atom_site_type_symbol
_atom_site_label
_atom_site_fract_x
_atom_site_fract_y
_atom_site_fract_z
Si Si1 0.485591 0.355668 0.864846
Si Si2 0.035757 0.351629 0.631858
Si Si3 0.639633 0.576085 0.347806
Si Si4 0.090489 0.906731 0.262030
Si Si5 0.904676 0.652364 0.135598
Si Si6 0.209477 0.717918 0.587190
Si Si7 0.725216 0.080359 0.501379
O O1 0.410670 0.468178 0.790871
O O2 0.705084 0.179710 0.809417
O O3 0.329995 0.287701 0.858237
O O4 0.500000 0.500000 0.000000
O O5 0.134304 0.462263 0.631696
O O6 0.976521 0.430180 0.772099
O O7 0.847954 0.387021 0.551184
O O8 0.210449 0.136037 0.579184
O O9 0.624201 0.436825 0.375850
O O10 0.496909 0.794934 0.437119
O O11 0.127367 0.884576 0.385272
O O12 0.946736 0.821550 0.175968
O O13 0.978797 0.129750 0.311034
O O14 0.000000 0.500000 0.000000
O O15 0.284870 0.843937 0.586696
#
# Coordination Sequence:
#
# PCOD8039574 Si02
#       7
#     2   2   2   2   2   2   2
#     4  10  21  36  57  81 107 148 192 225 268 328
#     4  10  19  35  54  81 109 147 184 220 278 332
#     4  10  22  32  54  88 110 141 182 231 280 327
#     4  10  19  36  57  82 110 147 187 228 270 333
#     4  11  19  33  60  83 103 143 198 227 260 324
#     4  11  19  35  55  82 118 141 172 233 291 321
#     4  10  18  34  57  79 111 146 182 223 272 334
#
# _framework density 19.787918999999999
#
# number of rings (size 3 to 8) (size 9 to 14) (size 15 to 20)
#    0.000    1.714    4.286    2.143    0.000    1.143 
#    0.000    0.714    0.000    0.857    0.000    0.000 
#    0.000    0.000    0.000    0.000    0.000    0.000 
#
# Total GULP energy -173469.838704 kJ/mol
# GULP energy per Si atom -12390.702765 kJ/mol
# Density = 1.974288 g / cm^3
# Si number density = 19.787919 Si / 1000 Ang^3
#
#
#
# Elastic Constant Matrix: (Units=GPa)
#
#
# Indices 1 2 3 4 5 6 
#
# 1 87.4641 6.8074 29.2226 -1.5358 2.8112 3.0035
# 2 6.8074 65.2810 23.7160 -9.0559 -5.4660 -2.6706
# 3 29.2226 23.7160 124.3253 2.4661 -5.9866 -5.2135
# 4 -1.5358 -9.0559 2.4661 19.1095 0.1151 -1.9433
# 5 2.8112 -5.4660 -5.9866 0.1151 26.1061 2.1592
# 6 3.0035 -2.6706 -5.2135 -1.9433 2.1592 20.6690
#
#
#
# Elastic Compliance Matrix: (Units=1/GPa)
#
#
# Indices 1 2 3 4 5 6 
#
# 1 0.012666 -0.000296 -0.003135 0.001053 -0.001954 -0.002366
# 2 -0.000296 0.018172 -0.003354 0.009218 0.002852 0.002114
# 3 -0.003135 -0.003354 0.009643 -0.002892 0.001694 0.002006
# 4 0.001053 0.009218 -0.002892 0.057733 0.000428 0.005692
# 5 -0.001954 0.002852 0.001694 0.000428 0.039750 -0.003033
# 6 -0.002366 0.002114 0.002006 0.005692 -0.003033 0.050357
#
#
# Mechanical properties :
#
#
# Convention : Reuss Voigt Hill
#
# Bulk Modulus (GPa) = 37.15892 44.06251 40.61071
# Shear Modulus (GPa) = 23.71239 27.66521 25.68880
#
# Velocity S-wave (km/s) = 3.46544 3.74316 3.60697
# Velocity P-wave (km/s) = 5.90184 6.40292 6.15748
#
# Compressibility (1/GPa) = 0.02691144
#
# Stress axis : x y z
#
# Youngs Moduli (GPa) = 78.94988 55.03067 103.70193
#
# Poissons Ratio (x) = 0.01630 0.32509
# Poissons Ratio (y) = 0.02339 0.34778
# Poissons Ratio (z) = 0.24750 0.18455
#
# Static dielectric constant tensor:
#      x y z
#    x 3.691440 -0.047480 -0.145300 
#    y -0.047480 3.262080 0.063160 
#    z -0.145300 0.063160 3.788720 
# 
# 
# High freq. dielectric constant tensor:
#      x y z
#    x 1.778500 0.005070 -0.008970 
#    y 0.005070 1.729360 0.005620 
#    z -0.008970 0.005620 1.773170 
# 
# From -- ./inp_files/165998.got.cif
#   From: 2010.06.25/outbox.cif.g09.slc.cpg/sg2_83_cif.got.tgz:165998.got - 2010.06.27 13:26:56.
