data_PCOD8039135
_publ_section_title
;
Structure prediction by ZEFSAII (Michael W. Deem and Ramdas Pophale) SiO2 
 PCOD8039135
Probable space group: P -1
;
_chemical_formula_sum "Si O2"
_cell_formula_units_Z 16
_cell_length_a 9.385435
_cell_length_b 9.427775
_cell_length_c 18.632076
_cell_angle_alpha 98.015095
_cell_angle_beta 40.034415
_cell_angle_gamma 120.860446
_cell_volume 808.895638
_symmetry_space_group_name_H-M "P -1"
_symmetry_group_IT_number 2
_symmetry_cell_setting 'triclinic'
loop_
_space_group_symop_operation_xyz
x,y,z
-x,-y,-z
loop_
_atom_site_type_symbol
_atom_site_label
_atom_site_fract_x
_atom_site_fract_y
_atom_site_fract_z
Si Si1 0.283632 0.067668 0.267750
Si Si2 0.496067 0.888306 0.391828
Si Si3 0.640402 0.653143 0.356073
Si Si4 0.283064 0.844116 0.128907
Si Si5 0.665622 0.196866 0.258348
Si Si6 0.684621 0.744503 0.511006
Si Si7 0.979066 0.206891 0.330923
Si Si8 0.242434 0.491830 0.125107
O O1 0.558517 0.205605 0.222696
O O2 0.220520 0.188828 0.258202
O O3 0.340780 0.955284 0.187154
O O4 0.015437 0.916782 0.411959
O O5 0.526547 0.731473 0.354058
O O6 0.176565 0.791563 0.538522
O O7 0.576568 0.994501 0.291959
O O8 0.742501 0.027300 0.363694
O O9 0.633463 0.703456 0.443931
O O10 0.413015 0.432085 0.417530
O O11 0.958309 0.731537 0.217847
O O12 0.337685 0.697169 0.109056
O O13 0.500000 0.000000 0.000000
O O14 0.512015 0.205058 0.386816
O O15 0.001665 0.370720 0.147710
O O16 0.130926 0.394388 0.239300
O O17 0.500000 0.500000 0.000000
#
# Coordination Sequence:
#
# PCOD8039135 Si02
#       8
#     2   2   2   2   2   2   2   2
#     4  11  22  39  62  92 124 160 190 246 310 361
#     4  10  18  32  57  90 120 156 192 241 291 353
#     4  10  19  33  59  90 118 159 206 245 281 357
#     4  11  23  41  63  85 115 162 210 248 290 354
#     4  11  22  38  62  91 127 154 194 247 310 356
#     4  10  18  33  59  90 122 154 194 238 298 362
#     4  10  19  34  58  87 121 154 199 239 289 354
#     4  11  24  41  65  87 113 157 213 255 285 349
#
# _framework density 19.780054
#
# number of rings (size 3 to 8) (size 9 to 14) (size 15 to 20)
#    0.000    1.500    5.000    2.625    5.250    0.000 
#    0.000    5.000    0.000    0.000    0.000    0.000 
#    0.000    0.000    0.000    0.000    0.000    0.000 
#
# Total GULP energy -198359.046740 kJ/mol
# GULP energy per Si atom -12397.440421 kJ/mol
# Density = 1.973503 g / cm^3
# Si number density = 19.780054 Si / 1000 Ang^3
#
#
#
# Elastic Constant Matrix: (Units=GPa)
#
#
# Indices 1 2 3 4 5 6 
#
# 1 105.3150 46.7860 30.7426 -2.9526 -11.1639 -14.4147
# 2 46.7860 99.5096 42.6622 -10.0367 -3.7910 -36.0275
# 3 30.7426 42.6622 99.2698 -3.0218 -10.8975 -8.2643
# 4 -2.9526 -10.0367 -3.0218 31.5657 -11.7285 -1.0123
# 5 -11.1639 -3.7910 -10.8975 -11.7285 23.3437 -5.4647
# 6 -14.4147 -36.0275 -8.2643 -1.0123 -5.4647 37.9933
#
#
#
# Elastic Compliance Matrix: (Units=1/GPa)
#
#
# Indices 1 2 3 4 5 6 
#
# 1 0.012747 -0.004740 -0.001118 0.001823 0.005956 0.001004
# 2 -0.004740 0.023796 -0.005650 0.010715 0.009297 0.021160
# 3 -0.001118 -0.005650 0.013216 0.001051 0.004731 -0.002199
# 4 0.001823 0.010715 0.001051 0.047347 0.030819 0.016775
# 5 0.005956 0.009297 0.004731 0.030819 0.070281 0.023035
# 6 0.001004 0.021160 -0.002199 0.016775 0.023035 0.050049
#
#
# Mechanical properties :
#
#
# Convention : Reuss Voigt Hill
#
# Bulk Modulus (GPa) = 37.39191 60.49735 48.94463
# Shear Modulus (GPa) = 20.05070 30.84076 25.44573
#
# Velocity S-wave (km/s) = 3.18729 3.95294 3.59058
# Velocity P-wave (km/s) = 5.70000 7.17535 6.47980
#
# Compressibility (1/GPa) = 0.02674375
#
# Stress axis : x y z
#
# Youngs Moduli (GPa) = 78.44909 42.02317 75.66373
#
# Poissons Ratio (x) = 0.19918 0.08457
# Poissons Ratio (y) = 0.37184 0.42754
# Poissons Ratio (z) = 0.08769 0.23745
#
# Static dielectric constant tensor:
#      x y z
#    x 3.468410 -0.400270 -0.150020 
#    y -0.400270 3.772950 -0.137070 
#    z -0.150020 -0.137070 3.708920 
# 
# 
# High freq. dielectric constant tensor:
#      x y z
#    x 1.750500 -0.031300 -0.011320 
#    y -0.031300 1.770060 -0.007230 
#    z -0.011320 -0.007230 1.761940 
# 
# From -- ./inp_files/178811.got.cif
#   From: 2010.06.25/outbox.cif.g09.slc.cpg/sg2_90_cif.got.tgz:178811.got - 2010.06.27 13:26:56.
