data_PCOD8039138
_publ_section_title
;
Structure prediction by ZEFSAII (Michael W. Deem and Ramdas Pophale) SiO2 
 PCOD8039138
Probable space group: P -1
;
_chemical_formula_sum "Si O2"
_cell_formula_units_Z 16
_cell_length_a 9.063182
_cell_length_b 21.999100
_cell_length_c 16.426326
_cell_angle_alpha 148.171709
_cell_angle_beta 146.935667
_cell_angle_gamma 36.871666
_cell_volume 897.240856
_symmetry_space_group_name_H-M "P -1"
_symmetry_group_IT_number 2
_symmetry_cell_setting 'triclinic'
loop_
_space_group_symop_operation_xyz
x,y,z
-x,-y,-z
loop_
_atom_site_type_symbol
_atom_site_label
_atom_site_fract_x
_atom_site_fract_y
_atom_site_fract_z
Si Si1 0.453070 0.455541 0.642447
Si Si2 0.250373 0.224389 0.818723
Si Si3 0.140047 0.898714 0.014789
Si Si4 0.243270 0.611959 0.128955
Si Si5 0.519049 0.997885 0.601686
Si Si6 0.945096 0.684153 0.650410
Si Si7 0.956000 0.609088 0.236304
Si Si8 0.327445 0.272884 0.601793
O O1 0.569989 0.456433 0.787846
O O2 0.259621 0.590776 0.689489
O O3 0.708265 0.415995 0.650644
O O4 0.269598 0.361962 0.445718
O O5 0.548490 0.193347 0.971058
O O6 0.220039 0.327450 0.852563
O O7 0.996890 0.267441 0.814537
O O8 0.244858 0.100315 0.629329
O O9 0.193739 0.967714 0.200086
O O10 0.939971 0.812726 0.834101
O O11 0.000000 0.000000 0.000000
O O12 0.437089 0.656131 0.204686
O O13 0.103042 0.517837 0.916599
O O14 0.516271 0.870004 0.489590
O O15 0.500000 0.000000 0.500000
O O16 0.856062 0.695692 0.528457
O O17 0.870477 0.692903 0.371452
#
# Coordination Sequence:
#
# PCOD8039138 Si02
#       8
#     2   2   2   2   2   2   2   2
#     4   9  20  32  56  76 110 143 180 223 264 333
#     4   9  19  33  58  76 105 144 179 225 262 328
#     4  10  18  32  58  78 107 143 180 224 268 326
#     4  10  20  34  53  84 105 141 189 224 268 319
#     4  10  20  36  55  83 104 145 180 225 279 312
#     4  10  18  35  52  83 106 143 185 218 270 324
#     4  11  19  35  53  80 112 145 177 225 280 317
#     4  11  21  33  54  79 112 141 183 231 267 325
#
# _framework density 17.832446000000001
#
# number of rings (size 3 to 8) (size 9 to 14) (size 15 to 20)
#    0.750    1.250    2.500    3.375    0.000    1.000 
#    0.000    0.000    0.000    0.750    0.000    0.000 
#    0.000    0.000    0.000    0.000    0.000    0.000 
#
# Total GULP energy -198269.118183 kJ/mol
# GULP energy per Si atom -12391.819886 kJ/mol
# Density = 1.779186 g / cm^3
# Si number density = 17.832446 Si / 1000 Ang^3
#
#
#
# Elastic Constant Matrix: (Units=GPa)
#
#
# Indices 1 2 3 4 5 6 
#
# 1 69.5701 27.7829 35.5209 3.0238 7.4473 -9.0095
# 2 27.7829 114.4614 45.1228 6.2077 8.0878 -5.6077
# 3 35.5209 45.1228 109.4005 14.7729 6.5612 -0.3784
# 4 3.0238 6.2077 14.7729 33.6138 1.7892 -3.1388
# 5 7.4473 8.0878 6.5612 1.7892 25.7387 -0.8444
# 6 -9.0095 -5.6077 -0.3784 -3.1388 -0.8444 22.2277
#
#
#
# Elastic Compliance Matrix: (Units=1/GPa)
#
#
# Indices 1 2 3 4 5 6 
#
# 1 0.019179 -0.002022 -0.005418 0.001894 -0.003425 0.007309
# 2 -0.002022 0.010916 -0.003740 0.000077 -0.001838 0.001812
# 3 -0.005418 -0.003740 0.013115 -0.004904 -0.000378 -0.003623
# 4 0.001894 0.000077 -0.004904 0.032281 -0.001395 0.005209
# 5 -0.003425 -0.001838 -0.000378 -0.001395 0.040597 -0.000513
# 6 0.007309 0.001812 -0.003623 0.005209 -0.000513 0.049063
#
#
# Mechanical properties :
#
#
# Convention : Reuss Voigt Hill
#
# Bulk Modulus (GPa) = 47.96220 56.69836 52.33028
# Shear Modulus (GPa) = 25.71225 28.64973 27.18099
#
# Velocity S-wave (km/s) = 3.80133 4.01260 3.90839
# Velocity P-wave (km/s) = 6.79862 7.30288 7.05525
#
# Compressibility (1/GPa) = 0.02084975
#
# Stress axis : x y z
#
# Youngs Moduli (GPa) = 52.14143 91.60793 76.24975
#
# Poissons Ratio (x) = 0.18522 0.41314
# Poissons Ratio (y) = 0.10542 0.28516
# Poissons Ratio (z) = 0.28251 0.34259
#
# Static dielectric constant tensor:
#      x y z
#    x 3.134120 0.175650 0.257320 
#    y 0.175650 3.735820 0.390600 
#    z 0.257320 0.390600 3.719920 
# 
# 
# High freq. dielectric constant tensor:
#      x y z
#    x 1.656100 -0.000240 -0.000420 
#    y -0.000240 1.702560 0.011040 
#    z -0.000420 0.011040 1.692630 
# 
# From -- ./inp_files/309892.got.cif
#   From: 2010.06.25/outbox.cif.g09.slc.cpg/sg2_155_cif.got.tgz:309892.got - 2010.06.27 13:26:56.
