data_PCOD8039778
_publ_section_title
;
Structure prediction by ZEFSAII (Michael W. Deem and Ramdas Pophale) SiO2 
 PCOD8039778
Probable space group: P -1
;
_chemical_formula_sum "Si O2"
_cell_formula_units_Z 16
_cell_length_a 8.445753
_cell_length_b 9.309396
_cell_length_c 11.655097
_cell_angle_alpha 85.713005
_cell_angle_beta 89.077348
_cell_angle_gamma 45.205163
_cell_volume 647.609133
_symmetry_space_group_name_H-M "P -1"
_symmetry_group_IT_number 2
_symmetry_cell_setting 'triclinic'
loop_
_space_group_symop_operation_xyz
x,y,z
-x,-y,-z
loop_
_atom_site_type_symbol
_atom_site_label
_atom_site_fract_x
_atom_site_fract_y
_atom_site_fract_z
Si Si1 0.604034 0.781387 0.537028
Si Si2 0.722620 0.808382 0.763345
Si Si3 0.814387 0.354231 0.199993
Si Si4 0.456698 0.876001 0.947917
Si Si5 0.839810 0.078770 0.390447
Si Si6 0.297467 0.290321 0.708438
Si Si7 0.226041 0.768329 0.027354
Si Si8 0.030560 0.209300 0.787808
O O1 0.770968 0.695566 0.648901
O O2 0.407067 0.798661 0.569876
O O3 0.734624 0.646848 0.429435
O O4 0.500000 0.000000 0.500000
O O5 0.659752 0.727220 0.863765
O O6 0.927402 0.768354 0.810240
O O7 0.511849 0.051883 0.738921
O O8 0.807343 0.238922 0.304072
O O9 0.671965 0.583210 0.228397
O O10 0.719117 0.361895 0.078660
O O11 0.227339 0.020418 0.873413
O O12 0.431301 0.753284 0.039871
O O13 0.500000 0.000000 0.000000
O O14 0.958887 0.874689 0.330524
O O15 0.000000 0.000000 0.500000
O O16 0.074197 0.351761 0.756067
O O17 0.199588 0.682550 0.146480
O O18 0.000000 0.000000 0.000000
#
# Coordination Sequence:
#
# PCOD8039778 Si02
#       8
#     2   2   2   2   2   2   2   2
#     4  10  18  40  60  84 128 171 208 266 311 383
#     4  10  20  39  65  90 130 175 216 260 331 389
#     4  12  24  39  70 101 127 170 221 271 329 391
#     4  10  18  34  64  94 122 170 220 262 324 388
#     4  12  22  38  66  98 127 178 219 263 335 387
#     4  10  23  40  64  97 132 172 217 272 322 387
#     4  10  19  38  64  95 130 169 215 272 326 386
#     4  10  20  40  62  93 133 172 219 268 323 395
#
# _framework density 24.706263
#
# number of rings (size 3 to 8) (size 9 to 14) (size 15 to 20)
#    0.000    1.500    6.250    3.000    0.000    1.500 
#    0.000    0.000    2.750    7.500    0.000    0.000 
#    0.000    0.000    0.000    0.000    0.000    0.000 
#
# Total GULP energy -198271.011524 kJ/mol
# GULP energy per Si atom -12391.938220 kJ/mol
# Density = 2.465003 g / cm^3
# Si number density = 24.706263 Si / 1000 Ang^3
#
#
#
# Elastic Constant Matrix: (Units=GPa)
#
#
# Indices 1 2 3 4 5 6 
#
# 1 149.3164 9.0418 57.3851 -1.7423 -32.7313 34.9599
# 2 9.0418 49.5154 14.3368 15.7552 -4.3522 16.0486
# 3 57.3851 14.3368 148.1752 25.5411 -18.1730 16.5832
# 4 -1.7423 15.7552 25.5411 34.2320 6.7186 6.8277
# 5 -32.7313 -4.3522 -18.1730 6.7186 63.1140 2.4311
# 6 34.9599 16.0486 16.5832 6.8277 2.4311 27.6827
#
#
#
# Elastic Compliance Matrix: (Units=1/GPa)
#
#
# Indices 1 2 3 4 5 6 
#
# 1 0.013832 0.004094 -0.003426 0.003901 0.006799 -0.019348
# 2 0.004094 0.030130 0.000522 -0.011152 0.006338 -0.020756
# 3 -0.003426 0.000522 0.009623 -0.007975 0.001877 0.000062
# 4 0.003901 -0.011152 -0.007975 0.042280 -0.005403 -0.003637
# 5 0.006799 0.006338 0.001877 -0.005403 0.021460 -0.013937
# 6 -0.019348 -0.020756 0.000062 -0.003637 -0.013937 0.074675
#
#
# Mechanical properties :
#
#
# Convention : Reuss Voigt Hill
#
# Bulk Modulus (GPa) = 17.86865 56.50383 37.18624
# Shear Modulus (GPa) = 24.00669 42.75529 33.38099
#
# Velocity S-wave (km/s) = 3.12057 4.16449 3.67974
# Velocity P-wave (km/s) = 4.49801 6.78557 5.75656
#
# Compressibility (1/GPa) = 0.05596393
#
# Stress axis : x y z
#
# Youngs Moduli (GPa) = 72.29633 33.18960 103.91712
#
# Poissons Ratio (x) = -0.13587 0.35602
# Poissons Ratio (y) = -0.29595 -0.05423
# Poissons Ratio (z) = 0.24769 -0.01732
#
# Static dielectric constant tensor:
#      x y z
#    x 4.973720 0.281270 -0.692390 
#    y 0.281270 4.006900 0.130700 
#    z -0.692390 0.130700 5.892360 
# 
# 
# High freq. dielectric constant tensor:
#      x y z
#    x 1.996420 0.016610 -0.015500 
#    y 0.016610 1.958610 0.005990 
#    z -0.015500 0.005990 2.000880 
# 
# From -- ./inp_files/379170.got.cif
#   From: 2010.06.25/outbox.cif.g09.slc.cpg/sg2_190_cif.got.tgz:379170.got - 2010.06.27 13:26:56.
