data_PCOD8039464
_publ_section_title
;
Structure prediction by ZEFSAII (Michael W. Deem and Ramdas Pophale) SiO2 
 PCOD8039464
Probable space group: P -1
;
_chemical_formula_sum "Si O2"
_cell_formula_units_Z 16
_cell_length_a 11.605873
_cell_length_b 23.626494
_cell_length_c 9.157927
_cell_angle_alpha 48.973207
_cell_angle_beta 70.815033
_cell_angle_gamma 30.734454
_cell_volume 766.373089
_symmetry_space_group_name_H-M "P -1"
_symmetry_group_IT_number 2
_symmetry_cell_setting 'triclinic'
loop_
_space_group_symop_operation_xyz
x,y,z
-x,-y,-z
loop_
_atom_site_type_symbol
_atom_site_label
_atom_site_fract_x
_atom_site_fract_y
_atom_site_fract_z
Si Si1 0.313155 0.325475 0.727992
Si Si2 0.437906 0.955668 0.827000
Si Si3 0.999377 0.158496 0.420412
Si Si4 0.545877 0.294539 0.450805
Si Si5 0.768976 0.592794 0.050056
Si Si6 0.995449 0.679660 0.911856
Si Si7 0.358404 0.879402 0.521960
Si Si8 0.808965 0.755621 0.543933
O O1 0.481027 0.303160 0.628867
O O2 0.281399 0.336561 0.896977
O O3 0.000000 0.500000 0.500000
O O4 0.499556 0.147339 0.912148
O O5 0.747934 0.819359 0.898439
O O6 0.275515 0.014944 0.650756
O O7 0.255137 0.124782 0.691934
O O8 0.756747 0.247386 0.456253
O O9 0.872752 0.310478 0.176915
O O10 0.075485 0.073305 0.381355
O O11 0.696649 0.141960 0.559746
O O12 0.250012 0.481120 0.179343
O O13 0.880958 0.446964 0.295863
O O14 0.475898 0.757327 0.805208
O O15 0.000000 0.500000 0.000000
O O16 0.824509 0.747759 0.725635
O O17 0.569859 0.828865 0.471729
#
# Coordination Sequence:
#
# PCOD8039464 Si02
#       8
#     2   2   2   2   2   2   2   2
#     4  12  23  39  60  90 126 159 200 253 303 361
#     4  11  20  38  63  87 121 159 206 248 299 355
#     4  11  22  39  63  92 122 161 205 252 294 361
#     4  12  26  37  60  94 131 158 194 252 316 352
#     4  10  19  35  61  88 115 153 206 248 290 354
#     4  11  19  39  63  91 120 155 210 252 297 352
#     4  11  19  38  60  92 119 156 208 246 292 358
#     4  10  18  33  64  91 110 151 210 256 285 346
#
# _framework density 20.877559999999999
#
# number of rings (size 3 to 8) (size 9 to 14) (size 15 to 20)
#    0.000    1.000    6.250    3.750    0.000    0.500 
#    0.000    3.750    0.000    3.000    0.000    0.000 
#    0.000    0.000    0.000    0.000    0.000    0.000 
#
# Total GULP energy -198254.462344 kJ/mol
# GULP energy per Si atom -12390.903896 kJ/mol
# Density = 2.083004 g / cm^3
# Si number density = 20.877560 Si / 1000 Ang^3
#
#
#
# Elastic Constant Matrix: (Units=GPa)
#
#
# Indices 1 2 3 4 5 6 
#
# 1 92.7569 31.7230 24.3447 3.0508 -20.0497 -10.7051
# 2 31.7230 53.9279 15.6385 9.1836 -7.9262 -8.1598
# 3 24.3447 15.6385 85.0020 -4.1797 -27.5404 1.9006
# 4 3.0508 9.1836 -4.1797 30.1293 5.2017 -9.8054
# 5 -20.0497 -7.9262 -27.5404 5.2017 32.9159 -1.9822
# 6 -10.7051 -8.1598 1.9006 -9.8054 -1.9822 31.8565
#
#
#
# Elastic Compliance Matrix: (Units=1/GPa)
#
#
# Indices 1 2 3 4 5 6 
#
# 1 0.015484 -0.007318 -0.000845 0.000625 0.007105 0.004014
# 2 -0.007318 0.025183 -0.002756 -0.006712 0.000489 0.002120
# 3 -0.000845 -0.002756 0.016645 0.000749 0.012572 -0.000970
# 4 0.000625 -0.006712 0.000749 0.039703 -0.006264 0.010277
# 5 0.007105 0.000489 0.012572 -0.006264 0.046499 0.002728
# 6 0.004014 0.002120 -0.000970 0.010277 0.002728 0.036674
#
#
# Mechanical properties :
#
#
# Convention : Reuss Voigt Hill
#
# Bulk Modulus (GPa) = 28.19052 41.67769 34.93410
# Shear Modulus (GPa) = 23.38077 29.64571 26.51324
#
# Velocity S-wave (km/s) = 3.35012 3.77235 3.56749
# Velocity P-wave (km/s) = 5.33821 6.24343 5.80848
#
# Compressibility (1/GPa) = 0.03547292
#
# Stress axis : x y z
#
# Youngs Moduli (GPa) = 64.58292 39.70921 60.07712
#
# Poissons Ratio (x) = 0.29060 0.05078
# Poissons Ratio (y) = 0.47263 0.16559
# Poissons Ratio (z) = 0.05459 0.10945
#
# Static dielectric constant tensor:
#      x y z
#    x 3.695230 0.215150 -0.446560 
#    y 0.215150 3.765270 -0.264040 
#    z -0.446560 -0.264040 4.119540 
# 
# 
# High freq. dielectric constant tensor:
#      x y z
#    x 1.802350 0.013730 -0.025320 
#    y 0.013730 1.791200 -0.022900 
#    z -0.025320 -0.022900 1.815330 
# 
# From -- ./inp_files/284729.got.cif
#   From: 2010.06.25/outbox.cif.g09.slc.cpg/sg2_143_cif.got.tgz:284729.got - 2010.06.27 13:26:56.
