data_PCOD8039379
_publ_section_title
;
Structure prediction by ZEFSAII (Michael W. Deem and Ramdas Pophale) SiO2 
 PCOD8039379
Probable space group: P -1
;
_chemical_formula_sum "Si O2"
_cell_formula_units_Z 16
_cell_length_a 8.306525
_cell_length_b 14.493046
_cell_length_c 11.846027
_cell_angle_alpha 42.800460
_cell_angle_beta 125.800806
_cell_angle_gamma 103.665526
_cell_volume 736.134302
_symmetry_space_group_name_H-M "P -1"
_symmetry_group_IT_number 2
_symmetry_cell_setting 'triclinic'
loop_
_space_group_symop_operation_xyz
x,y,z
-x,-y,-z
loop_
_atom_site_type_symbol
_atom_site_label
_atom_site_fract_x
_atom_site_fract_y
_atom_site_fract_z
Si Si1 0.618763 0.094144 0.522862
Si Si2 0.670188 0.145469 0.942123
Si Si3 0.771922 0.652232 0.889346
Si Si4 0.967586 0.951275 0.405930
Si Si5 0.993152 0.294119 0.851869
Si Si6 0.217319 0.027207 0.066015
Si Si7 0.933270 0.653967 0.712461
Si Si8 0.330435 0.422468 0.510590
O O1 0.482288 0.265453 0.295214
O O2 0.848122 0.051412 0.601057
O O3 0.500000 0.000000 0.500000
O O4 0.636161 0.061825 0.692291
O O5 0.821642 0.222601 0.881005
O O6 0.438004 0.268750 0.756689
O O7 0.656350 0.024772 0.953168
O O8 0.751125 0.068799 0.163536
O O9 0.875539 0.691741 0.784465
O O10 0.859210 0.718128 0.969218
O O11 0.838844 0.478119 0.083221
O O12 0.954407 0.792895 0.536904
O O13 0.000000 0.000000 0.500000
O O14 0.872796 0.461652 0.612421
O O15 0.148691 0.201692 0.899822
O O16 0.000000 0.000000 0.000000
O O17 0.751864 0.606722 0.620008
O O18 0.500000 0.500000 0.500000
#
# Coordination Sequence:
#
# PCOD8039379 Si02
#       8
#     2   2   2   2   2   2   2   2
#     4  12  21  37  65  94 120 170 217 255 307 383
#     4  10  19  35  59  89 121 162 207 261 312 374
#     4  10  20  38  64  89 120 162 218 257 308 385
#     4  12  25  40  60  89 136 165 206 268 329 369
#     4   9  16  33  57  89 117 150 206 266 301 358
#     4  10  18  33  58  92 116 155 209 258 307 357
#     4  10  22  39  61  93 126 165 204 268 324 375
#     4   9  19  35  61  86 116 158 212 255 307 381
#
# _framework density 21.735164000000001
#
# number of rings (size 3 to 8) (size 9 to 14) (size 15 to 20)
#    0.000    1.750    3.750    2.250    0.000    2.000 
#    0.000    0.000    2.750    1.500    0.000    0.000 
#    0.000    0.000    0.000    0.000    0.000    0.000 
#
# Total GULP energy -198293.786705 kJ/mol
# GULP energy per Si atom -12393.361669 kJ/mol
# Density = 2.168569 g / cm^3
# Si number density = 21.735164 Si / 1000 Ang^3
#
#
#
# Elastic Constant Matrix: (Units=GPa)
#
#
# Indices 1 2 3 4 5 6 
#
# 1 30.5140 25.3154 36.0636 -6.0300 5.5605 -15.8705
# 2 25.3154 119.2713 65.8198 0.6883 7.3363 -24.2286
# 3 36.0636 65.8198 205.0198 -12.5312 31.0398 -28.1838
# 4 -6.0300 0.6883 -12.5312 42.3507 -8.1142 4.1316
# 5 5.5605 7.3363 31.0398 -8.1142 33.8284 -5.1486
# 6 -15.8705 -24.2286 -28.1838 4.1316 -5.1486 33.7454
#
#
#
# Elastic Compliance Matrix: (Units=1/GPa)
#
#
# Indices 1 2 3 4 5 6 
#
# 1 0.052251 -0.005004 -0.005204 0.004560 0.000832 0.016203
# 2 -0.005004 0.011665 -0.002513 -0.001911 0.000791 0.004277
# 3 -0.005204 -0.002513 0.007594 0.000415 -0.005281 0.001234
# 4 0.004560 -0.001911 0.000415 0.025535 0.005225 -0.001211
# 5 0.000832 0.000791 -0.005281 0.005225 0.035554 0.001334
# 6 0.016203 0.004277 0.001234 -0.001211 0.001334 0.041707
#
#
# Mechanical properties :
#
#
# Convention : Reuss Voigt Hill
#
# Bulk Modulus (GPa) = 21.70786 67.68917 44.69851
# Shear Modulus (GPa) = 23.24441 37.15865 30.20153
#
# Velocity S-wave (km/s) = 3.27377 4.13923 3.73168
# Velocity P-wave (km/s) = 4.92943 7.35218 6.25915
#
# Compressibility (1/GPa) = 0.04606627
#
# Stress axis : x y z
#
# Youngs Moduli (GPa) = 19.13830 85.73004 131.67655
#
# Poissons Ratio (x) = 0.42902 0.68529
# Poissons Ratio (y) = 0.09578 0.33093
# Poissons Ratio (z) = 0.09960 0.21546
#
# Static dielectric constant tensor:
#      x y z
#    x 3.597700 -0.398290 0.615780 
#    y -0.398290 4.460440 -0.171510 
#    z 0.615780 -0.171510 4.682660 
# 
# 
# High freq. dielectric constant tensor:
#      x y z
#    x 1.804540 -0.016960 0.031110 
#    y -0.016960 1.869280 -0.002660 
#    z 0.031110 -0.002660 1.874790 
# 
# From -- ./inp_files/319214.got.cif
#   From: 2010.06.25/outbox.cif.g09.slc.cpg/sg2_160_cif.got.tgz:319214.got - 2010.06.27 13:26:56.
