data_PCOD8039125
_publ_section_title
;
Structure prediction by ZEFSAII (Michael W. Deem and Ramdas Pophale) SiO2 
 PCOD8039125
Probable space group: P -1
;
_chemical_formula_sum "Si O2"
_cell_formula_units_Z 12
_cell_length_a 13.428427
_cell_length_b 9.322715
_cell_length_c 11.596921
_cell_angle_alpha 55.104093
_cell_angle_beta 133.794924
_cell_angle_gamma 89.966253
_cell_volume 638.261889
_symmetry_space_group_name_H-M "P -1"
_symmetry_group_IT_number 2
_symmetry_cell_setting 'triclinic'
loop_
_space_group_symop_operation_xyz
x,y,z
-x,-y,-z
loop_
_atom_site_type_symbol
_atom_site_label
_atom_site_fract_x
_atom_site_fract_y
_atom_site_fract_z
Si Si1 0.016758 0.388002 0.251241
Si Si2 0.583029 0.902786 0.235741
Si Si3 0.366995 0.861644 0.461837
Si Si4 0.349454 0.555164 0.438329
Si Si5 0.973988 0.279138 0.039116
Si Si6 0.352466 0.193432 0.133767
O O1 0.215596 0.169455 0.567475
O O2 0.932370 0.314306 0.128369
O O3 0.069087 0.499213 0.155327
O O4 0.866569 0.567112 0.147328
O O5 0.607942 0.676866 0.382583
O O6 0.436496 0.115658 0.108932
O O7 0.500000 0.000000 0.000000
O O8 0.351893 0.673186 0.499416
O O9 0.544670 0.745208 0.737568
O O10 0.379621 0.977703 0.307928
O O11 0.188644 0.051842 0.307423
O O12 0.500000 0.500000 0.500000
O O13 0.156711 0.743279 0.125862
#
# Coordination Sequence:
#
# PCOD8039125 Si02
#       6
#     2   2   2   2   2   2
#     4   9  18  33  55  82 108 146 186 224 270 330
#     4  11  23  39  56  80 116 151 182 223 276 334
#     4  10  18  32  57  87 112 138 183 235 279 318
#     4  11  20  33  55  87 112 140 186 234 272 316
#     4   9  17  30  54  85 114 135 181 236 277 315
#     4  10  19  34  59  83 109 148 184 223 278 329
#
# _framework density 18.801058999999999
#
# number of rings (size 3 to 8) (size 9 to 14) (size 15 to 20)
#    0.000    2.000    3.333    1.500    4.667    0.667 
#    0.000    0.833    0.000    2.000    0.000    0.000 
#    0.000    0.000    0.000    0.000    0.000    0.000 
#
# Total GULP energy -148704.068669 kJ/mol
# GULP energy per Si atom -12392.005722 kJ/mol
# Density = 1.875827 g / cm^3
# Si number density = 18.801059 Si / 1000 Ang^3
#
#
#
# Elastic Constant Matrix: (Units=GPa)
#
#
# Indices 1 2 3 4 5 6 
#
# 1 67.8896 29.7652 50.7825 6.8917 12.4813 -23.1858
# 2 29.7652 108.7658 38.4453 18.7215 0.9435 -14.9272
# 3 50.7825 38.4453 108.2355 18.2080 15.3530 -18.5007
# 4 6.8917 18.7215 18.2080 23.7768 1.0629 4.2334
# 5 12.4813 0.9435 15.3530 1.0629 21.1893 0.7787
# 6 -23.1858 -14.9272 -18.5007 4.2334 0.7787 36.6470
#
#
#
# Elastic Compliance Matrix: (Units=1/GPa)
#
#
# Indices 1 2 3 4 5 6 
#
# 1 0.029139 -0.002732 -0.008523 -0.001658 -0.011278 0.013451
# 2 -0.002732 0.012389 -0.001393 -0.008636 0.002369 0.003562
# 3 -0.008523 -0.001393 0.017049 -0.009880 -0.006920 0.003936
# 4 -0.001658 -0.008636 -0.009880 0.059580 0.006140 -0.016568
# 5 -0.011278 0.002369 -0.006920 0.006140 0.058864 -0.011624
# 6 0.013451 0.003562 0.003936 -0.016568 -0.011624 0.041396
#
#
# Mechanical properties :
#
#
# Convention : Reuss Voigt Hill
#
# Bulk Modulus (GPa) = 30.04800 58.09746 44.07273
# Shear Modulus (GPa) = 19.62267 27.38248 23.50258
#
# Velocity S-wave (km/s) = 3.23414 3.82046 3.53946
# Velocity P-wave (km/s) = 5.47385 7.10137 6.34005
#
# Compressibility (1/GPa) = 0.03328009
#
# Stress axis : x y z
#
# Youngs Moduli (GPa) = 34.31870 80.71689 58.65384
#
# Poissons Ratio (x) = 0.22054 0.49991
# Poissons Ratio (y) = 0.09377 0.08171
# Poissons Ratio (z) = 0.29250 0.11245
#
# Static dielectric constant tensor:
#      x y z
#    x 3.087870 -0.167580 0.539750 
#    y -0.167580 2.959750 0.200010 
#    z 0.539750 0.200010 3.046690 
# 
# 
# High freq. dielectric constant tensor:
#      x y z
#    x 1.698480 -0.020060 0.040910 
#    y -0.020060 1.736040 0.016760 
#    z 0.040910 0.016760 1.719160 
# 
# From -- ./inp_files/145625.got.cif
#   From: 2010.06.25/outbox.cif.g09.slc.cpg/sg2_73_cif.got.tgz:145625.got - 2010.06.27 13:26:56.
