data_PCOD8039723
_publ_section_title
;
Structure prediction by ZEFSAII (Michael W. Deem and Ramdas Pophale) SiO2 
 PCOD8039723
Probable space group: P -1
;
_chemical_formula_sum "Si O2"
_cell_formula_units_Z 16
_cell_length_a 9.952364
_cell_length_b 11.462497
_cell_length_c 10.230373
_cell_angle_alpha 60.242475
_cell_angle_beta 67.048007
_cell_angle_gamma 49.081412
_cell_volume 761.842454
_symmetry_space_group_name_H-M "P -1"
_symmetry_group_IT_number 2
_symmetry_cell_setting 'triclinic'
loop_
_space_group_symop_operation_xyz
x,y,z
-x,-y,-z
loop_
_atom_site_type_symbol
_atom_site_label
_atom_site_fract_x
_atom_site_fract_y
_atom_site_fract_z
Si Si1 0.372896 0.384917 0.061433
Si Si2 0.162544 0.997199 0.219373
Si Si3 0.427770 0.067421 0.134019
Si Si4 0.114009 0.752449 0.992085
Si Si5 0.800683 0.077262 0.323107
Si Si6 0.423596 0.336293 0.375429
Si Si7 0.683975 0.324034 0.802335
Si Si8 0.348933 0.101722 0.608259
O O1 0.412924 0.329691 0.226968
O O2 0.345695 0.260193 0.063465
O O3 0.190798 0.567982 0.017441
O O4 0.529483 0.388296 0.932980
O O5 0.270717 0.043631 0.242986
O O6 0.300585 0.808032 0.228223
O O7 0.090642 0.119362 0.050979
O O8 0.992326 0.019698 0.346666
O O9 0.587495 0.968051 0.231604
O O10 0.500000 0.000000 0.000000
O O11 0.230603 0.812614 0.853651
O O12 0.130499 0.756296 0.141478
O O13 0.631557 0.197434 0.415876
O O14 0.810087 0.915904 0.362734
O O15 0.358173 0.516656 0.350441
O O16 0.297640 0.287662 0.516003
O O17 0.500000 0.000000 0.500000
#
# Coordination Sequence:
#
# PCOD8039723 Si02
#       8
#     2   2   2   2   2   2   2   2
#     4  11  17  33  56  84 112 143 194 232 268 332
#     4  10  22  32  51  86 119 146 172 237 299 328
#     4  12  23  35  57  89 119 144 182 239 290 331
#     4   9  18  30  53  80 113 140 190 229 273 320
#     4   9  17  35  54  80 108 144 190 229 272 325
#     4  10  18  34  61  83 101 149 204 233 254 331
#     4  11  16  31  57  86 110 147 189 233 273 339
#     4  10  20  38  60  81 109 153 198 228 266 343
#
# _framework density 21.001716999999999
#
# number of rings (size 3 to 8) (size 9 to 14) (size 15 to 20)
#    0.750    1.000    6.250    1.125    0.000    0.500 
#    0.000    3.750    0.000    0.000    0.000    0.000 
#    0.000    0.000    0.000    0.000    0.000    0.000 
#
# Total GULP energy -198213.365151 kJ/mol
# GULP energy per Si atom -12388.335322 kJ/mol
# Density = 2.095392 g / cm^3
# Si number density = 21.001717 Si / 1000 Ang^3
#
#
#
# Elastic Constant Matrix: (Units=GPa)
#
#
# Indices 1 2 3 4 5 6 
#
# 1 80.7969 15.4797 5.9129 -10.0037 -19.9178 12.0461
# 2 15.4797 97.0124 24.3979 -24.3946 -10.2495 19.3565
# 3 5.9129 24.3979 57.2160 -16.4805 -13.2714 11.2766
# 4 -10.0037 -24.3946 -16.4805 30.7824 13.4292 -7.5168
# 5 -19.9178 -10.2495 -13.2714 13.4292 23.5688 -5.7301
# 6 12.0461 19.3565 11.2766 -7.5168 -5.7301 27.0744
#
#
#
# Elastic Compliance Matrix: (Units=1/GPa)
#
#
# Indices 1 2 3 4 5 6 
#
# 1 0.016590 -0.001220 0.002709 -0.001819 0.014835 -0.005002
# 2 -0.001220 0.014590 -0.002800 0.009445 -0.003298 -0.006797
# 3 0.002709 -0.002800 0.023303 0.005608 0.009710 -0.005297
# 4 -0.001819 0.009445 0.005608 0.053331 -0.024324 0.001379
# 5 0.014835 -0.003298 0.009710 -0.024324 0.072956 0.000400
# 6 -0.005002 -0.006797 -0.005297 0.001379 0.000400 0.046695
#
#
# Mechanical properties :
#
#
# Convention : Reuss Voigt Hill
#
# Bulk Modulus (GPa) = 19.28252 36.28958 27.78605
# Shear Modulus (GPa) = 20.21227 28.90075 24.55651
#
# Velocity S-wave (km/s) = 3.10564 3.71363 3.42316
# Velocity P-wave (km/s) = 4.69695 5.97536 5.37430
#
# Compressibility (1/GPa) = 0.05186045
#
# Stress axis : x y z
#
# Youngs Moduli (GPa) = 60.27754 68.54113 42.91243
#
# Poissons Ratio (x) = 0.08365 -0.11625
# Poissons Ratio (y) = 0.07356 0.12015
# Poissons Ratio (z) = -0.16329 0.19190
#
# Static dielectric constant tensor:
#      x y z
#    x 3.746290 0.215540 -0.371150 
#    y 0.215540 3.723840 -0.481240 
#    z -0.371150 -0.481240 3.794460 
# 
# 
# High freq. dielectric constant tensor:
#      x y z
#    x 1.804650 0.014020 -0.019650 
#    y 0.014020 1.809610 -0.026260 
#    z -0.019650 -0.026260 1.800320 
# 
# From -- ./inp_files/423242.got.cif
#   From: 2010.06.25/outbox.cif.g09.slc.cpg/sg2_212_cif.got.tgz:423242.got - 2010.06.27 13:26:56.
