data_PCOD8039082
_publ_section_title
;
Structure prediction by ZEFSAII (Michael W. Deem and Ramdas Pophale) SiO2 
 PCOD8039082
Probable space group: P -1
;
_chemical_formula_sum "Si O2"
_cell_formula_units_Z 14
_cell_length_a 11.520037
_cell_length_b 14.806089
_cell_length_c 8.480628
_cell_angle_alpha 35.970489
_cell_angle_beta 57.049879
_cell_angle_gamma 51.099524
_cell_volume 659.201496
_symmetry_space_group_name_H-M "P -1"
_symmetry_group_IT_number 2
_symmetry_cell_setting 'triclinic'
loop_
_space_group_symop_operation_xyz
x,y,z
-x,-y,-z
loop_
_atom_site_type_symbol
_atom_site_label
_atom_site_fract_x
_atom_site_fract_y
_atom_site_fract_z
Si Si1 0.045908 0.250803 0.887920
Si Si2 0.433004 0.312975 0.405553
Si Si3 0.526732 0.664349 0.293247
Si Si4 0.214599 0.494527 0.871434
Si Si5 0.268824 0.657211 0.881796
Si Si6 0.000431 0.421755 0.362019
Si Si7 0.633830 0.976644 0.057038
O O1 0.036494 0.275214 0.670635
O O2 0.196890 0.091053 0.042769
O O3 0.068040 0.403341 0.743123
O O4 0.895626 0.226672 0.095071
O O5 0.415382 0.350934 0.550186
O O6 0.605044 0.267137 0.284924
O O7 0.381034 0.161002 0.615615
O O8 0.316336 0.476047 0.180853
O O9 0.500000 0.500000 0.500000
O O10 0.654189 0.662773 0.078559
O O11 0.392110 0.842316 0.107417
O O12 0.266780 0.628793 0.733982
O O13 0.112729 0.597094 0.657681
O O14 0.143087 0.414278 0.167651
O O15 0.500000 0.000000 0.000000
#
# Coordination Sequence:
#
# PCOD8039082 Si02
#       7
#     2   2   2   2   2   2   2
#     4  10  18  36  57  85 117 158 193 240 288 349
#     4  10  20  38  59  92 117 156 200 232 289 354
#     4  11  21  37  59  82 116 153 192 244 295 345
#     4  10  18  32  55  89 110 151 192 239 291 345
#     4  10  20  34  64  89 118 155 195 238 290 350
#     4   9  18  31  59  85 117 147 195 239 290 350
#     4  10  21  36  60  86 115 155 200 240 288 348
#
# _framework density 21.237814
#
# number of rings (size 3 to 8) (size 9 to 14) (size 15 to 20)
#    0.000    2.000    1.429    5.143    0.000    0.000 
#    0.000    5.714    6.286    1.714    0.000    0.000 
#    0.000    0.000    0.000    0.000    0.000    0.000 
#
# Total GULP energy -173441.085051 kJ/mol
# GULP energy per Si atom -12388.648932 kJ/mol
# Density = 2.118948 g / cm^3
# Si number density = 21.237814 Si / 1000 Ang^3
#
#
#
# Elastic Constant Matrix: (Units=GPa)
#
#
# Indices 1 2 3 4 5 6 
#
# 1 84.2180 57.8276 25.6792 0.6325 2.7642 -18.7431
# 2 57.8276 136.2053 58.2679 -2.4542 2.6415 -30.1740
# 3 25.6792 58.2679 72.4224 -1.7518 -4.6483 2.5998
# 4 0.6325 -2.4542 -1.7518 34.7264 10.0922 1.2307
# 5 2.7642 2.6415 -4.6483 10.0922 31.6716 5.3052
# 6 -18.7431 -30.1740 2.5998 1.2307 5.3052 44.4992
#
#
#
# Elastic Compliance Matrix: (Units=1/GPa)
#
#
# Indices 1 2 3 4 5 6 
#
# 1 0.017218 -0.005701 -0.001776 -0.000422 -0.001776 0.003714
# 2 -0.005701 0.018012 -0.013174 0.001889 -0.005412 0.011175
# 3 -0.001776 -0.013174 0.025918 -0.001345 0.007505 -0.012053
# 4 -0.000422 0.001889 -0.001345 0.031941 -0.010761 0.001582
# 5 -0.001776 -0.005412 0.007505 -0.010761 0.038238 -0.009117
# 6 0.003714 0.011175 -0.012053 0.001582 -0.009117 0.033362
#
#
# Mechanical properties :
#
#
# Convention : Reuss Voigt Hill
#
# Bulk Modulus (GPa) = 50.38266 64.04392 57.21329
# Shear Modulus (GPa) = 23.51768 32.25085 27.88427
#
# Velocity S-wave (km/s) = 3.33130 3.90110 3.62740
# Velocity P-wave (km/s) = 6.21058 7.10721 6.67397
#
# Compressibility (1/GPa) = 0.01984810
#
# Stress axis : x y z
#
# Youngs Moduli (GPa) = 58.07957 55.51710 38.58285
#
# Poissons Ratio (x) = 0.31649 0.06852
# Poissons Ratio (y) = 0.33110 0.50827
# Poissons Ratio (z) = 0.10314 0.73136
#
# Static dielectric constant tensor:
#      x y z
#    x 4.095430 -0.120510 0.026970 
#    y -0.120510 4.299320 0.035200 
#    z 0.026970 0.035200 4.012980 
# 
# 
# High freq. dielectric constant tensor:
#      x y z
#    x 1.837220 -0.022020 0.002680 
#    y -0.022020 1.818720 0.025320 
#    z 0.002680 0.025320 1.812400 
# 
# From -- ./inp_files/266394.got.cif
#   From: 2010.06.25/outbox.cif.g09.slc.cpg/sg2_134_cif.got.tgz:266394.got - 2010.06.27 13:26:56.
