data_PCOD8039909
_publ_section_title
;
Structure prediction by ZEFSAII (Michael W. Deem and Ramdas Pophale) SiO2 
 PCOD8039909
Probable space group: P -1
;
_chemical_formula_sum "Si O2"
_cell_formula_units_Z 12
_cell_length_a 11.349956
_cell_length_b 8.286516
_cell_length_c 8.998601
_cell_angle_alpha 101.736094
_cell_angle_beta 105.570972
_cell_angle_gamma 32.876344
_cell_volume 442.158676
_symmetry_space_group_name_H-M "P -1"
_symmetry_group_IT_number 2
_symmetry_cell_setting 'triclinic'
loop_
_space_group_symop_operation_xyz
x,y,z
-x,-y,-z
loop_
_atom_site_type_symbol
_atom_site_label
_atom_site_fract_x
_atom_site_fract_y
_atom_site_fract_z
Si Si1 0.304694 0.267731 0.096123
Si Si2 0.279738 0.591522 0.968557
Si Si3 0.291833 0.584426 0.622103
Si Si4 0.450821 0.904668 0.568656
Si Si5 0.925447 0.828550 0.366263
Si Si6 0.788603 0.979483 0.027680
O O1 0.380225 0.275731 0.270285
O O2 0.157591 0.572888 0.009278
O O3 0.500000 0.000000 0.000000
O O4 0.191015 0.218070 0.090163
O O5 0.282501 0.553930 0.786828
O O6 0.165142 0.899402 0.025010
O O7 0.534563 0.300639 0.059950
O O8 0.525775 0.283831 0.566254
O O9 0.227873 0.839222 0.609450
O O10 0.147687 0.608369 0.489652
O O11 0.203739 0.178268 0.602332
O O12 0.500000 0.000000 0.500000
O O13 0.952888 0.766038 0.186602
#
# Coordination Sequence:
#
# PCOD8039909 Si02
#       6
#     2   2   2   2   2   2
#     4  10  18  35  58  84 119 159 198 246 300 361
#     4   9  17  34  61  85 111 162 200 244 306 357
#     4  10  23  39  65  92 118 158 210 251 305 363
#     4  12  23  38  61  94 124 159 204 249 306 367
#     4  10  21  42  63  87 126 160 198 258 308 357
#     4   9  17  33  61  83 112 162 201 236 304 365
#
# _framework density 27.139576000000002
#
# number of rings (size 3 to 8) (size 9 to 14) (size 15 to 20)
#    0.000    2.000    3.333    2.500    0.000    0.667 
#    3.000    0.833    3.667    3.000    0.000    0.000 
#    0.000    0.000    0.000    0.000    0.000    0.000 
#
# Total GULP energy -148690.367251 kJ/mol
# GULP energy per Si atom -12390.863938 kJ/mol
# Density = 2.707781 g / cm^3
# Si number density = 27.139576 Si / 1000 Ang^3
#
#
#
# Elastic Constant Matrix: (Units=GPa)
#
#
# Indices 1 2 3 4 5 6 
#
# 1 171.4222 15.0292 34.1192 0.0926 -20.2252 28.5150
# 2 15.0292 85.9781 16.2443 -1.5186 -9.9276 37.7589
# 3 34.1192 16.2443 142.0472 3.7327 -11.9990 5.1689
# 4 0.0926 -1.5186 3.7327 48.5300 -0.0744 8.7356
# 5 -20.2252 -9.9276 -11.9990 -0.0744 47.8547 -2.2202
# 6 28.5150 37.7589 5.1689 8.7356 -2.2202 39.7076
#
#
#
# Elastic Compliance Matrix: (Units=1/GPa)
#
#
# Indices 1 2 3 4 5 6 
#
# 1 0.007653 0.003040 -0.001668 0.001721 0.003061 -0.008377
# 2 0.003040 0.022933 -0.002229 0.005323 0.004349 -0.024628
# 3 -0.001668 -0.002229 0.007705 -0.001128 0.000884 0.002612
# 4 0.001721 0.005323 -0.001128 0.022859 0.001069 -0.011120
# 5 0.003061 0.004349 0.000884 0.001069 0.023066 -0.005394
# 6 -0.008377 -0.024628 0.002612 -0.011120 -0.005394 0.056424
#
#
# Mechanical properties :
#
#
# Convention : Reuss Voigt Hill
#
# Bulk Modulus (GPa) = 27.33985 58.91476 43.12731
# Shear Modulus (GPa) = 32.35317 49.48877 40.92097
#
# Velocity S-wave (km/s) = 3.45643 4.27487 3.88725
# Velocity P-wave (km/s) = 5.10146 6.79126 6.00608
#
# Compressibility (1/GPa) = 0.03657665
#
# Stress axis : x y z
#
# Youngs Moduli (GPa) = 130.67513 43.60575 129.79153
#
# Poissons Ratio (x) = -0.13256 0.21644
# Poissons Ratio (y) = -0.39726 0.28932
# Poissons Ratio (z) = 0.21792 0.09720
#
# Static dielectric constant tensor:
#      x y z
#    x 5.560600 0.295650 0.193010 
#    y 0.295650 5.742160 0.443690 
#    z 0.193010 0.443690 5.512600 
# 
# 
# High freq. dielectric constant tensor:
#      x y z
#    x 2.109540 0.001260 -0.001900 
#    y 0.001260 2.121130 0.005470 
#    z -0.001900 0.005470 2.080660 
# 
# From -- ./inp_files/150472.got.cif
#   From: 2010.06.25/outbox.cif.g09.slc.cpg/sg2_76_cif.got.tgz:150472.got - 2010.06.27 13:26:56.
