data_PCOD8039367
_publ_section_title
;
Structure prediction by ZEFSAII (Michael W. Deem and Ramdas Pophale) SiO2 
 PCOD8039367
Probable space group: P -1
;
_chemical_formula_sum "Si O2"
_cell_formula_units_Z 14
_cell_length_a 10.198798
_cell_length_b 6.478046
_cell_length_c 15.312850
_cell_angle_alpha 53.109565
_cell_angle_beta 82.982443
_cell_angle_gamma 66.830841
_cell_volume 734.881799
_symmetry_space_group_name_H-M "P -1"
_symmetry_group_IT_number 2
_symmetry_cell_setting 'triclinic'
loop_
_space_group_symop_operation_xyz
x,y,z
-x,-y,-z
loop_
_atom_site_type_symbol
_atom_site_label
_atom_site_fract_x
_atom_site_fract_y
_atom_site_fract_z
Si Si1 0.452254 0.805207 0.110768
Si Si2 0.700814 0.222534 0.208958
Si Si3 0.440303 0.171679 0.717003
Si Si4 0.355352 0.783548 0.597022
Si Si5 0.077778 0.710555 0.955009
Si Si6 0.822395 0.275688 0.868156
Si Si7 0.634654 0.808401 0.642491
O O1 0.544722 0.481316 0.160917
O O2 0.466026 0.877950 0.191032
O O3 0.287611 0.875992 0.083133
O O4 0.500000 0.000000 0.000000
O O5 0.746682 0.137507 0.328103
O O6 0.812856 0.318071 0.126013
O O7 0.676279 0.968377 0.227382
O O8 0.351322 0.505325 0.622827
O O9 0.548582 0.039438 0.662582
O O10 0.523273 0.708561 0.627051
O O11 0.295322 0.045038 0.468833
O O12 0.162792 0.621401 0.061955
O O13 0.972124 0.040479 0.881409
O O14 0.000000 0.500000 0.000000
O O15 0.766515 0.543416 0.740047
#
# Coordination Sequence:
#
# PCOD8039367 Si02
#       7
#     2   2   2   2   2   2   2
#     4  11  21  33  58  87 115 144 193 240 286 338
#     4  10  21  38  57  86 116 148 191 241 285 340
#     4  10  18  33  58  88 117 148 182 234 299 331
#     4   9  19  35  58  90 118 145 183 242 287 341
#     4  11  26  41  58  78 119 161 192 232 288 337
#     4  11  23  39  55  89 113 152 195 234 277 350
#     4  10  19  35  58  88 120 145 191 234 285 343
#
# _framework density 19.050682999999999
#
# number of rings (size 3 to 8) (size 9 to 14) (size 15 to 20)
#    0.000    1.714    4.286    2.143    4.000    4.571 
#    0.000    0.714    0.000    1.714    0.000    0.000 
#    0.000    0.000    0.000    0.000    0.000    0.000 
#
# Total GULP energy -173590.037537 kJ/mol
# GULP energy per Si atom -12399.288395 kJ/mol
# Density = 1.900732 g / cm^3
# Si number density = 19.050683 Si / 1000 Ang^3
#
#
#
# Elastic Constant Matrix: (Units=GPa)
#
#
# Indices 1 2 3 4 5 6 
#
# 1 74.1590 29.0581 38.0964 5.6158 -5.6814 14.8293
# 2 29.0581 88.7058 36.1126 2.6257 -3.1554 20.7365
# 3 38.0964 36.1126 140.8414 -3.8467 -3.4989 8.7281
# 4 5.6158 2.6257 -3.8467 26.7716 -2.5566 -5.0688
# 5 -5.6814 -3.1554 -3.4989 -2.5566 25.4795 -4.7460
# 6 14.8293 20.7365 8.7281 -5.0688 -4.7460 34.4015
#
#
#
# Elastic Compliance Matrix: (Units=1/GPa)
#
#
# Indices 1 2 3 4 5 6 
#
# 1 0.018273 -0.002839 -0.003961 -0.005045 0.001615 -0.005682
# 2 -0.002839 0.015191 -0.002745 -0.002843 -0.000862 -0.007775
# 3 -0.003961 -0.002745 0.008865 0.002729 0.000565 0.001593
# 4 -0.005045 -0.002843 0.002729 0.041441 0.004915 0.009980
# 5 0.001615 -0.000862 0.000565 0.004915 0.041205 0.006089
# 6 -0.005682 -0.007775 0.001593 0.009980 0.006089 0.038111
#
#
# Mechanical properties :
#
#
# Convention : Reuss Voigt Hill
#
# Bulk Modulus (GPa) = 43.02487 56.69338 49.85912
# Shear Modulus (GPa) = 26.32653 30.69312 28.50982
#
# Velocity S-wave (km/s) = 3.72145 4.01824 3.87269
# Velocity P-wave (km/s) = 6.41085 7.16605 6.79894
#
# Compressibility (1/GPa) = 0.02324237
#
# Stress axis : x y z
#
# Youngs Moduli (GPa) = 54.72465 65.82645 112.80202
#
# Poissons Ratio (x) = 0.18686 0.44676
# Poissons Ratio (y) = 0.15534 0.30960
# Poissons Ratio (z) = 0.21674 0.18067
#
# Static dielectric constant tensor:
#      x y z
#    x 3.259430 0.181100 0.051500 
#    y 0.181100 3.539290 -0.050080 
#    z 0.051500 -0.050080 4.250380 
# 
# 
# High freq. dielectric constant tensor:
#      x y z
#    x 1.711650 0.020960 -0.015980 
#    y 0.020960 1.747070 0.001030 
#    z -0.015980 0.001030 1.751460 
# 
# From -- ./inp_files/35462.got.cif
#   From: 2010.06.25/outbox.cif.g09.slc.cpg/sg2_18_cif.got.tgz:35462.got - 2010.06.27 13:26:56.
