data_PCOD8039667
_publ_section_title
;
Structure prediction by ZEFSAII (Michael W. Deem and Ramdas Pophale) SiO2 
 PCOD8039667
Probable space group: P -1
;
_chemical_formula_sum "Si O2"
_cell_formula_units_Z 16
_cell_length_a 11.353433
_cell_length_b 16.600473
_cell_length_c 9.070073
_cell_angle_alpha 121.230893
_cell_angle_beta 71.262260
_cell_angle_gamma 146.926920
_cell_volume 773.832582
_symmetry_space_group_name_H-M "P -1"
_symmetry_group_IT_number 2
_symmetry_cell_setting 'triclinic'
loop_
_space_group_symop_operation_xyz
x,y,z
-x,-y,-z
loop_
_atom_site_type_symbol
_atom_site_label
_atom_site_fract_x
_atom_site_fract_y
_atom_site_fract_z
Si Si1 0.816957 0.633161 0.449754
Si Si2 0.714731 0.953010 0.962008
Si Si3 0.439422 0.862881 0.737869
Si Si4 0.531901 0.866913 0.269777
Si Si5 0.403064 0.660145 0.382241
Si Si6 0.994808 0.288842 0.237413
Si Si7 0.233209 0.845084 0.344972
Si Si8 0.643308 0.723620 0.611145
O O1 0.816312 0.746412 0.555240
O O2 0.566834 0.436711 0.353846
O O3 0.924731 0.660422 0.579976
O O4 0.963798 0.686552 0.303206
O O5 0.622837 0.882158 0.096242
O O6 0.952244 0.157289 0.064884
O O7 0.521409 0.887339 0.890191
O O8 0.765933 0.886680 0.797859
O O9 0.331985 0.705451 0.551018
O O10 0.248816 0.819793 0.783742
O O11 0.655072 0.037511 0.730666
O O12 0.518129 0.768440 0.289496
O O13 0.294772 0.772708 0.260913
O O14 0.694920 0.051548 0.438938
O O15 0.573436 0.704611 0.453158
O O16 0.183819 0.463311 0.236077
#
# Coordination Sequence:
#
# PCOD8039667 Si02
#       8
#     2   2   2   2   2   2   2   2
#     4  10  19  39  63  80 106 154 199 223 268 343
#     4  11  21  37  57  86 120 145 176 241 287 321
#     4  10  20  35  56  86 118 143 184 231 282 333
#     4  10  19  35  57  87 119 140 183 230 285 335
#     4   9  20  36  57  81 111 154 190 223 271 341
#     4  11  19  34  60  82 114 149 183 224 284 338
#     4  10  18  34  59  84 108 154 185 225 276 342
#     4   9  22  39  59  81 112 147 194 237 271 322
#
# _framework density 20.676307000000001
#
# number of rings (size 3 to 8) (size 9 to 14) (size 15 to 20)
#    0.000    2.000    2.500    2.250    0.000    2.500 
#    2.250    6.875    0.000    2.250    0.000    0.000 
#    0.000    0.000    0.000    0.000    0.000    0.000 
#
# Total GULP energy -198359.726693 kJ/mol
# GULP energy per Si atom -12397.482918 kJ/mol
# Density = 2.062925 g / cm^3
# Si number density = 20.676307 Si / 1000 Ang^3
#
#
#
# Elastic Constant Matrix: (Units=GPa)
#
#
# Indices 1 2 3 4 5 6 
#
# 1 61.6550 15.8587 -1.2753 -13.5633 -4.7079 -19.1569
# 2 15.8587 80.9959 23.3487 2.3834 1.8234 -19.3841
# 3 -1.2753 23.3487 68.1502 2.6548 4.8309 -17.4877
# 4 -13.5633 2.3834 2.6548 28.7574 -10.8014 -1.4489
# 5 -4.7079 1.8234 4.8309 -10.8014 18.4087 -3.2521
# 6 -19.1569 -19.3841 -17.4877 -1.4489 -3.2521 25.3878
#
#
#
# Elastic Compliance Matrix: (Units=1/GPa)
#
#
# Indices 1 2 3 4 5 6 
#
# 1 0.039049 -0.002212 0.007914 0.032752 0.034323 0.039493
# 2 -0.002212 0.015668 -0.003251 -0.002060 -0.001096 0.007797
# 3 0.007914 -0.003251 0.020207 0.004006 0.002567 0.017967
# 4 0.032752 -0.002060 0.004006 0.073392 0.057202 0.037416
# 5 0.034323 -0.001096 0.002567 0.057202 0.103763 0.043387
# 6 0.039493 0.007797 0.017967 0.037416 0.043387 0.095211
#
#
# Mechanical properties :
#
#
# Convention : Reuss Voigt Hill
#
# Bulk Modulus (GPa) = 12.52713 31.85171 22.18942
# Shear Modulus (GPa) = 13.55028 26.03537 19.79283
#
# Velocity S-wave (km/s) = 2.56276 3.55235 3.09734
# Velocity P-wave (km/s) = 3.85082 5.68014 4.85247
#
# Compressibility (1/GPa) = 0.07982677
#
# Stress axis : x y z
#
# Youngs Moduli (GPa) = 25.60903 63.82603 49.48667
#
# Poissons Ratio (x) = 0.14116 -0.39163
# Poissons Ratio (y) = 0.05664 0.16086
# Poissons Ratio (z) = -0.20266 0.20747
#
# Static dielectric constant tensor:
#      x y z
#    x 3.792020 -0.181670 0.025510 
#    y -0.181670 3.806450 0.145270 
#    z 0.025510 0.145270 3.533240 
# 
# 
# High freq. dielectric constant tensor:
#      x y z
#    x 1.807750 -0.018670 0.003370 
#    y -0.018670 1.799340 0.005070 
#    z 0.003370 0.005070 1.785760 
# 
# From -- ./inp_files/187869.got.cif
#   From: 2010.06.25/outbox.cif.g09.slc.cpg/sg2_94_cif.got.tgz:187869.got - 2010.06.27 13:26:56.
