data_PCOD8039513
_publ_section_title
;
Structure prediction by ZEFSAII (Michael W. Deem and Ramdas Pophale) SiO2 
 PCOD8039513
Probable space group: P -1
;
_chemical_formula_sum "Si O2"
_cell_formula_units_Z 16
_cell_length_a 8.747087
_cell_length_b 11.597120
_cell_length_c 11.447667
_cell_angle_alpha 122.834672
_cell_angle_beta 70.508801
_cell_angle_gamma 128.026947
_cell_volume 768.609336
_symmetry_space_group_name_H-M "P -1"
_symmetry_group_IT_number 2
_symmetry_cell_setting 'triclinic'
loop_
_space_group_symop_operation_xyz
x,y,z
-x,-y,-z
loop_
_atom_site_type_symbol
_atom_site_label
_atom_site_fract_x
_atom_site_fract_y
_atom_site_fract_z
Si Si1 0.578746 0.210809 0.532622
Si Si2 0.752832 0.575227 0.719761
Si Si3 0.689714 0.843446 0.941489
Si Si4 0.272580 0.881598 0.357272
Si Si5 0.898588 0.601975 0.951501
Si Si6 0.926821 0.194490 0.414378
Si Si7 0.062918 0.076344 0.853005
Si Si8 0.724991 0.283436 0.955049
O O1 0.604105 0.386557 0.619414
O O2 0.578730 0.158402 0.639714
O O3 0.751116 0.209078 0.419491
O O4 0.376080 0.079183 0.448232
O O5 0.638341 0.660672 0.827272
O O6 0.883609 0.663730 0.621305
O O7 0.879951 0.592823 0.810748
O O8 0.829042 0.972285 0.877376
O O9 0.486653 0.829461 0.994986
O O10 0.815592 0.922639 0.068373
O O11 0.233407 0.824087 0.202417
O O12 0.071659 0.787750 0.433762
O O13 0.738137 0.430041 0.957294
O O14 0.868047 0.737787 0.092064
O O15 0.113920 0.644264 0.945356
O O16 0.892480 0.015145 0.307369
#
# Coordination Sequence:
#
# PCOD8039513 Si02
#       8
#     2   2   2   2   2   2   2   2
#     4   9  17  30  51  80 103 132 171 220 260 301
#     4  10  18  34  54  86  99 132 178 218 269 303
#     4   9  20  32  55  76 111 134 174 227 258 308
#     4   9  19  31  50  77 103 138 170 218 257 306
#     4  10  22  34  54  76 113 142 174 211 263 327
#     4   9  17  30  54  75 106 127 169 225 255 301
#     4   9  18  35  51  82 101 139 179 217 266 303
#     4  11  21  38  50  79 112 145 172 210 266 324
#
# _framework density 20.816818000000001
#
# number of rings (size 3 to 8) (size 9 to 14) (size 15 to 20)
#    0.750    1.750    1.250    1.875    0.000    3.500 
#    0.000    0.625    0.000    1.500    0.000   18.375 
#    0.000    0.000    0.000    0.000    0.000    0.000 
#
# Total GULP energy -198212.645484 kJ/mol
# GULP energy per Si atom -12388.290343 kJ/mol
# Density = 2.076944 g / cm^3
# Si number density = 20.816818 Si / 1000 Ang^3
#
#
#
# Elastic Constant Matrix: (Units=GPa)
#
#
# Indices 1 2 3 4 5 6 
#
# 1 27.8836 3.9903 19.1541 -8.1839 -2.3324 8.1250
# 2 3.9903 68.8157 45.9641 18.8444 -2.2839 -0.0719
# 3 19.1541 45.9641 97.9622 7.9912 -17.3015 0.5871
# 4 -8.1839 18.8444 7.9912 34.4361 1.6586 -12.2435
# 5 -2.3324 -2.2839 -17.3015 1.6586 21.8645 3.0134
# 6 8.1250 -0.0719 0.5871 -12.2435 3.0134 25.4274
#
#
#
# Elastic Compliance Matrix: (Units=1/GPa)
#
#
# Indices 1 2 3 4 5 6 
#
# 1 0.049462 0.002485 -0.012158 0.009657 -0.003375 -0.010467
# 2 0.002485 0.026046 -0.012561 -0.012587 -0.005189 -0.005876
# 3 -0.012158 -0.012561 0.021033 -0.001160 0.013964 0.001150
# 4 0.009657 -0.012587 -0.001160 0.045924 -0.007429 0.019899
# 5 -0.003375 -0.005189 0.013964 -0.007429 0.057782 -0.009683
# 6 -0.010467 -0.005876 0.001150 0.019899 -0.009683 0.053358
#
#
# Mechanical properties :
#
#
# Convention : Reuss Voigt Hill
#
# Bulk Modulus (GPa) = 19.20409 36.98648 28.09528
# Shear Modulus (GPa) = 15.85136 24.71580 20.28358
#
# Velocity S-wave (km/s) = 2.76247 3.44946 3.12490
# Velocity P-wave (km/s) = 4.40684 5.80269 5.15225
#
# Compressibility (1/GPa) = 0.05207224
#
# Stress axis : x y z
#
# Youngs Moduli (GPa) = 20.21764 38.39378 47.54426
#
# Poissons Ratio (x) = -0.09542 0.57806
# Poissons Ratio (y) = -0.05025 0.59722
# Poissons Ratio (z) = 0.24581 0.48228
#
# Static dielectric constant tensor:
#      x y z
#    x 3.256870 -0.019980 -0.211660 
#    y -0.019980 3.768580 0.162410 
#    z -0.211660 0.162410 3.664460 
# 
# 
# High freq. dielectric constant tensor:
#      x y z
#    x 1.768760 0.002110 -0.022410 
#    y 0.002110 1.814470 0.014980 
#    z -0.022410 0.014980 1.806550 
# 
# From -- ./inp_files/391049.got.cif
#   From: 2010.06.25/outbox.cif.g09.slc.cpg/sg2_196_cif.got.tgz:391049.got - 2010.06.27 13:26:56.
