data_PCOD8039584
_publ_section_title
;
Structure prediction by ZEFSAII (Michael W. Deem and Ramdas Pophale) SiO2 
 PCOD8039584
Probable space group: P -1
;
_chemical_formula_sum "Si O2"
_cell_formula_units_Z 14
_cell_length_a 8.350132
_cell_length_b 11.386049
_cell_length_c 7.601726
_cell_angle_alpha 109.213686
_cell_angle_beta 80.923984
_cell_angle_gamma 67.212104
_cell_volume 594.482969
_symmetry_space_group_name_H-M "P -1"
_symmetry_group_IT_number 2
_symmetry_cell_setting 'triclinic'
loop_
_space_group_symop_operation_xyz
x,y,z
-x,-y,-z
loop_
_atom_site_type_symbol
_atom_site_label
_atom_site_fract_x
_atom_site_fract_y
_atom_site_fract_z
Si Si1 0.083654 0.644811 0.207216
Si Si2 0.447983 0.876913 0.485445
Si Si3 0.938644 0.955874 0.257256
Si Si4 0.782150 0.970399 0.906188
Si Si5 0.415387 0.198670 0.187131
Si Si6 0.258898 0.416861 0.779497
Si Si7 0.808530 0.501697 0.550647
O O1 0.165254 0.624972 0.384172
O O2 0.044672 0.797470 0.228812
O O3 0.900666 0.628000 0.228471
O O4 0.230096 0.527409 0.992292
O O5 0.500346 0.829065 0.650046
O O6 0.557084 0.731823 0.283273
O O7 0.500000 0.000000 0.500000
O O8 0.226781 0.944489 0.533838
O O9 0.858405 0.956305 0.080657
O O10 0.080702 0.019261 0.254261
O O11 0.757302 0.833728 0.806758
O O12 0.579760 0.105513 0.978326
O O13 0.331182 0.363000 0.243464
O O14 0.269522 0.493145 0.630804
O O15 0.000000 0.500000 0.500000
#
# Coordination Sequence:
#
# PCOD8039584 Si02
#       7
#     2   2   2   2   2   2   2
#     4  10  19  32  58  86 112 155 190 236 288 346
#     4  10  18  34  57  82 115 150 192 240 283 345
#     4  10  20  35  58  85 119 148 191 244 294 336
#     4   9  20  36  57  84 111 150 196 240 287 346
#     4   9  19  35  59  78 109 155 196 232 287 348
#     4   9  19  32  54  87 113 150 198 230 283 346
#     4   9  19  33  55  84 115 145 195 239 276 343
#
# _framework density 23.549876000000001
#
# number of rings (size 3 to 8) (size 9 to 14) (size 15 to 20)
#    0.000    2.571    1.429    0.000    6.000    1.143 
#    0.000    1.429    3.143    3.429    0.000    0.000 
#    0.000    0.000    0.000    0.000    0.000    0.000 
#
# Total GULP energy -173467.955060 kJ/mol
# GULP energy per Si atom -12390.568219 kJ/mol
# Density = 2.349628 g / cm^3
# Si number density = 23.549876 Si / 1000 Ang^3
#
#
#
# Elastic Constant Matrix: (Units=GPa)
#
#
# Indices 1 2 3 4 5 6 
#
# 1 61.6477 33.9792 26.9823 0.4589 -25.7850 9.1669
# 2 33.9792 138.4676 53.1713 2.2155 -20.3964 -11.4009
# 3 26.9823 53.1713 101.8490 17.8936 -24.0312 -6.4738
# 4 0.4589 2.2155 17.8936 33.8996 -9.4294 -5.9945
# 5 -25.7850 -20.3964 -24.0312 -9.4294 34.3106 -3.5231
# 6 9.1669 -11.4009 -6.4738 -5.9945 -3.5231 14.5791
#
#
#
# Elastic Compliance Matrix: (Units=1/GPa)
#
#
# Indices 1 2 3 4 5 6 
#
# 1 0.030208 -0.005579 -0.003034 0.002471 0.015902 -0.019845
# 2 -0.005579 0.011443 -0.003846 0.004367 0.002465 0.013140
# 3 -0.003034 -0.003846 0.015042 -0.005478 0.004928 0.004518
# 4 0.002471 0.004367 -0.005478 0.039071 0.013274 0.018702
# 5 0.015902 0.002465 0.004928 0.013274 0.050880 0.011871
# 6 -0.019845 0.013140 0.004518 0.018702 0.011871 0.103909
#
#
# Mechanical properties :
#
#
# Convention : Reuss Voigt Hill
#
# Bulk Modulus (GPa) = 31.47120 58.91444 45.19282
# Shear Modulus (GPa) = 17.47866 29.07996 23.27931
#
# Velocity S-wave (km/s) = 2.72729 3.51782 3.14747
# Velocity P-wave (km/s) = 4.82805 6.44758 5.69567
#
# Compressibility (1/GPa) = 0.03177508
#
# Stress axis : x y z
#
# Youngs Moduli (GPa) = 33.10411 87.38868 66.47852
#
# Poissons Ratio (x) = 0.48755 0.20167
# Poissons Ratio (y) = 0.18469 0.25570
# Poissons Ratio (z) = 0.10043 0.33613
#
# Static dielectric constant tensor:
#      x y z
#    x 4.003250 -0.391310 -0.464020 
#    y -0.391310 4.568250 0.242730 
#    z -0.464020 0.242730 4.879370 
# 
# 
# High freq. dielectric constant tensor:
#      x y z
#    x 1.892690 -0.021680 -0.011570 
#    y -0.021680 1.943270 0.001760 
#    z -0.011570 0.001760 1.937950 
# 
# From -- ./inp_files/180026.got.cif
#   From: 2010.06.25/outbox.cif.g09.slc.cpg/sg2_91_cif.got.tgz:180026.got - 2010.06.27 13:26:56.
