data_PCOD8039852
_publ_section_title
;
Structure prediction by ZEFSAII (Michael W. Deem and Ramdas Pophale) SiO2 
 PCOD8039852
Probable space group: P -1
;
_chemical_formula_sum "Si O2"
_cell_formula_units_Z 16
_cell_length_a 11.277520
_cell_length_b 15.890395
_cell_length_c 15.205322
_cell_angle_alpha 151.688009
_cell_angle_beta 28.339502
_cell_angle_gamma 140.880122
_cell_volume 613.454905
_symmetry_space_group_name_H-M "P -1"
_symmetry_group_IT_number 2
_symmetry_cell_setting 'triclinic'
loop_
_space_group_symop_operation_xyz
x,y,z
-x,-y,-z
loop_
_atom_site_type_symbol
_atom_site_label
_atom_site_fract_x
_atom_site_fract_y
_atom_site_fract_z
Si Si1 0.497140 0.798479 0.564422
Si Si2 0.162760 0.956102 0.269332
Si Si3 0.981368 0.834274 0.603157
Si Si4 0.537421 0.695347 0.850590
Si Si5 0.042428 0.177426 0.996851
Si Si6 0.881587 0.642036 0.060586
Si Si7 0.687027 0.575764 0.374851
Si Si8 0.495793 0.827927 0.182347
O O1 0.601013 0.652400 0.292161
O O2 0.627557 0.773777 0.555840
O O3 0.574188 0.987076 0.648022
O O4 0.202529 0.766756 0.737130
O O5 0.037994 0.794921 0.147985
O O6 0.434932 0.887190 0.059313
O O7 0.000000 0.000000 0.500000
O O8 0.166935 0.123265 0.352479
O O9 0.261725 0.767284 0.339064
O O10 0.819781 0.679517 0.613184
O O11 0.989745 0.995345 0.814043
O O12 0.366394 0.535551 0.781657
O O13 0.540475 0.684694 0.944888
O O14 0.119924 0.329404 0.017040
O O15 0.261234 0.148137 0.895964
O O16 0.024041 0.452804 0.811200
O O17 0.500000 0.500000 0.500000
#
# Coordination Sequence:
#
# PCOD8039852 Si02
#       8
#     2   2   2   2   2   2   2   2
#     4  12  22  41  69  94 130 172 213 265 322 384
#     4  10  18  35  56  91 126 156 202 264 323 365
#     4  11  22  38  64  96 131 164 212 275 318 373
#     4  11  24  40  62  95 131 167 214 266 324 379
#     4  11  23  39  68 100 128 166 220 271 315 379
#     4  10  22  40  64  95 124 168 217 260 319 383
#     4  11  25  46  66  94 133 174 214 261 327 395
#     4  12  24  41  67 102 127 167 220 268 324 375
#
# _framework density 26.081788
#
# number of rings (size 3 to 8) (size 9 to 14) (size 15 to 20)
#    0.000    1.000    6.250    1.500    0.000    2.000 
#    2.250    0.625    0.000    1.500    0.000    0.000 
#    0.000    0.000    0.000    0.000    0.000    0.000 
#
# Total GULP energy -198380.694281 kJ/mol
# GULP energy per Si atom -12398.793393 kJ/mol
# Density = 2.602242 g / cm^3
# Si number density = 26.081788 Si / 1000 Ang^3
#
#
#
# Elastic Constant Matrix: (Units=GPa)
#
#
# Indices 1 2 3 4 5 6 
#
# 1 120.0831 0.0434 32.7035 -4.3078 -8.3317 -9.3922
# 2 0.0434 50.4929 35.7693 -15.3416 -3.3520 -18.7177
# 3 32.7035 35.7693 129.7200 -51.5816 -10.3342 -11.2134
# 4 -4.3078 -15.3416 -51.5816 45.4545 -1.5427 -5.3096
# 5 -8.3317 -3.3520 -10.3342 -1.5427 35.9010 -6.3777
# 6 -9.3922 -18.7177 -11.2134 -5.3096 -6.3777 22.1808
#
#
#
# Elastic Compliance Matrix: (Units=1/GPa)
#
#
# Indices 1 2 3 4 5 6 
#
# 1 0.010069 0.005944 -0.002516 0.001342 0.003904 0.009452
# 2 0.005944 0.047812 0.001449 0.025295 0.017038 0.054551
# 3 -0.002516 0.001449 0.021427 0.027326 0.010547 0.020564
# 4 0.001342 0.025295 0.027326 0.069413 0.024049 0.059259
# 5 0.003904 0.017038 0.010547 0.024049 0.041351 0.039010
# 6 0.009452 0.054551 0.020564 0.059259 0.039010 0.130918
#
#
# Mechanical properties :
#
#
# Convention : Reuss Voigt Hill
#
# Bulk Modulus (GPa) = 11.22801 48.59206 29.91003
# Shear Modulus (GPa) = 14.66612 36.15926 25.41269
#
# Velocity S-wave (km/s) = 2.37389 3.72745 3.12484
# Velocity P-wave (km/s) = 3.43919 6.09888 4.95098
#
# Compressibility (1/GPa) = 0.08906297
#
# Stress axis : x y z
#
# Youngs Moduli (GPa) = 99.31603 20.91531 46.66928
#
# Poissons Ratio (x) = -0.12433 0.11740
# Poissons Ratio (y) = -0.59037 -0.06761
# Poissons Ratio (z) = 0.24984 -0.03030
#
# Static dielectric constant tensor:
#      x y z
#    x 4.842050 -0.163590 0.252580 
#    y -0.163590 4.710970 0.062180 
#    z 0.252580 0.062180 5.220080 
# 
# 
# High freq. dielectric constant tensor:
#      x y z
#    x 2.034530 -0.004830 0.016640 
#    y -0.004830 2.044000 -0.011570 
#    z 0.016640 -0.011570 2.056840 
# 
# From -- ./inp_files/522482.got.cif
#   From: 2010.06.25/outbox.cif.g09.slc.cpg/sg2_262_cif.got.tgz:522482.got - 2010.06.27 13:26:56.
