data_PCOD8039184
_publ_section_title
;
Structure prediction by ZEFSAII (Michael W. Deem and Ramdas Pophale) SiO2 
 PCOD8039184
Probable space group: P -1
;
_chemical_formula_sum "Si O2"
_cell_formula_units_Z 16
_cell_length_a 16.247126
_cell_length_b 11.465553
_cell_length_c 9.385261
_cell_angle_alpha 121.910637
_cell_angle_beta 44.278794
_cell_angle_gamma 145.766848
_cell_volume 677.670024
_symmetry_space_group_name_H-M "P -1"
_symmetry_group_IT_number 2
_symmetry_cell_setting 'triclinic'
loop_
_space_group_symop_operation_xyz
x,y,z
-x,-y,-z
loop_
_atom_site_type_symbol
_atom_site_label
_atom_site_fract_x
_atom_site_fract_y
_atom_site_fract_z
Si Si1 0.360225 0.602490 0.937853
Si Si2 0.667558 0.045984 0.830444
Si Si3 0.637924 0.683783 0.336223
Si Si4 0.849782 0.258131 0.266513
Si Si5 0.530256 0.208417 0.546127
Si Si6 0.187130 0.625837 0.927372
Si Si7 0.903083 0.127067 0.368818
Si Si8 0.217639 0.538512 0.360108
O O1 0.315124 0.400231 0.882866
O O2 0.280798 0.588623 0.879384
O O3 0.577942 0.815670 0.815364
O O4 0.279351 0.623780 0.178097
O O5 0.768474 0.120925 0.602678
O O6 0.789668 0.205510 0.914432
O O7 0.500000 0.000000 0.000000
O O8 0.500000 0.500000 0.500000
O O9 0.548212 0.735439 0.407937
O O10 0.822779 0.901916 0.320315
O O11 0.938114 0.209233 0.214409
O O12 0.887116 0.422296 0.425224
O O13 0.633164 0.042163 0.377525
O O14 0.966433 0.387867 0.054694
O O15 0.704712 0.287946 0.303141
O O16 0.609398 0.343190 0.680095
O O17 0.081456 0.287700 0.351129
#
# Coordination Sequence:
#
# PCOD8039184 Si02
#       8
#     2   2   2   2   2   2   2   2
#     4  11  21  38  69  89 119 174 215 258 316 367
#     4  10  18  32  61  98 120 153 213 261 304 367
#     4  11  21  43  68  87 123 171 223 260 305 378
#     4  11  21  41  67  94 130 169 208 253 319 394
#     4  11  26  43  62  97 133 166 208 265 320 375
#     4  11  20  39  68  95 125 167 212 255 317 385
#     4  11  21  38  64  96 122 163 214 265 301 378
#     4  12  24  41  61  97 136 157 205 274 321 366
#
# _framework density 23.610312
#
# number of rings (size 3 to 8) (size 9 to 14) (size 15 to 20)
#    0.000    1.000    5.000    5.250    0.000    1.500 
#    2.250    0.625    0.000    0.000    0.000    0.000 
#    0.000    0.000    0.000    0.000    0.000    0.000 
#
# Total GULP energy -198233.284870 kJ/mol
# GULP energy per Si atom -12389.580304 kJ/mol
# Density = 2.355657 g / cm^3
# Si number density = 23.610312 Si / 1000 Ang^3
#
#
#
# Elastic Constant Matrix: (Units=GPa)
#
#
# Indices 1 2 3 4 5 6 
#
# 1 51.3233 60.8852 34.9678 -9.2486 5.7454 13.7017
# 2 60.8852 226.9169 56.1430 -8.1111 9.9432 21.3419
# 3 34.9678 56.1430 117.3071 -12.3928 18.3249 -7.2992
# 4 -9.2486 -8.1111 -12.3928 37.9217 -2.6386 0.2604
# 5 5.7454 9.9432 18.3249 -2.6386 31.3143 -2.2962
# 6 13.7017 21.3419 -7.2992 0.2604 -2.2962 42.8851
#
#
#
# Elastic Compliance Matrix: (Units=1/GPa)
#
#
# Indices 1 2 3 4 5 6 
#
# 1 0.036074 -0.006725 -0.007552 0.004933 -0.000346 -0.009513
# 2 -0.006725 0.006650 -0.001290 -0.000649 -0.000280 -0.001392
# 3 -0.007552 -0.001290 0.012672 0.001633 -0.005122 0.004927
# 4 0.004933 -0.000649 0.001633 0.028019 0.000625 -0.001112
# 5 -0.000346 -0.000280 -0.005122 0.000625 0.035229 0.001261
# 6 -0.009513 -0.001392 0.004927 -0.001112 0.001261 0.027963
#
#
# Mechanical properties :
#
#
# Convention : Reuss Voigt Hill
#
# Bulk Modulus (GPa) = 41.21197 77.72659 59.46928
# Shear Modulus (GPa) = 26.90660 38.66096 32.78378
#
# Velocity S-wave (km/s) = 3.37948 4.05094 3.73035
# Velocity P-wave (km/s) = 5.72021 7.40758 6.61789
#
# Compressibility (1/GPa) = 0.02426480
#
# Stress axis : x y z
#
# Youngs Moduli (GPa) = 27.72057 150.36979 78.91328
#
# Poissons Ratio (x) = 1.01119 0.59592
# Poissons Ratio (y) = 0.18641 0.10177
# Poissons Ratio (z) = 0.20933 0.19393
#
# Static dielectric constant tensor:
#      x y z
#    x 4.122940 0.082040 -0.001540 
#    y 0.082040 5.574590 -0.101150 
#    z -0.001540 -0.101150 4.526840 
# 
# 
# High freq. dielectric constant tensor:
#      x y z
#    x 1.908630 0.018050 0.011490 
#    y 0.018050 1.959910 -0.022180 
#    z 0.011490 -0.022180 1.939320 
# 
# From -- ./inp_files/333602.got.cif
#   From: 2010.06.25/outbox.cif.g09.slc.cpg/sg2_167_cif.got.tgz:333602.got - 2010.06.27 13:26:56.
