data_PCOD8039167
_publ_section_title
;
Structure prediction by ZEFSAII (Michael W. Deem and Ramdas Pophale) SiO2 
 PCOD8039167
Probable space group: P -1
;
_chemical_formula_sum "Si O2"
_cell_formula_units_Z 14
_cell_length_a 9.163302
_cell_length_b 26.066996
_cell_length_c 8.467999
_cell_angle_alpha 46.534210
_cell_angle_beta 75.027831
_cell_angle_gamma 38.719660
_cell_volume 725.371406
_symmetry_space_group_name_H-M "P -1"
_symmetry_group_IT_number 2
_symmetry_cell_setting 'triclinic'
loop_
_space_group_symop_operation_xyz
x,y,z
-x,-y,-z
loop_
_atom_site_type_symbol
_atom_site_label
_atom_site_fract_x
_atom_site_fract_y
_atom_site_fract_z
Si Si1 0.246338 0.496247 0.996994
Si Si2 0.656789 0.694379 0.590989
Si Si3 0.604921 0.402420 0.812282
Si Si4 0.945437 0.694304 0.925094
Si Si5 0.381243 0.889579 0.495837
Si Si6 0.252395 0.806890 0.920968
Si Si7 0.755529 0.652823 0.297539
O O1 0.355799 0.499082 0.813621
O O2 0.917284 0.599392 0.845864
O O3 0.219596 0.552081 0.047939
O O4 0.452857 0.343681 0.290777
O O5 0.413463 0.849463 0.389592
O O6 0.777262 0.665038 0.447611
O O7 0.500000 0.500000 0.500000
O O8 0.645286 0.309913 0.921287
O O9 0.913655 0.296895 0.037416
O O10 0.662246 0.823934 0.616063
O O11 0.813302 0.699469 0.086744
O O12 0.344200 0.830851 0.723236
O O13 0.095892 0.053839 0.241332
O O14 0.430716 0.750971 0.150260
O O15 0.000000 0.500000 0.500000
#
# Coordination Sequence:
#
# PCOD8039167 Si02
#       7
#     2   2   2   2   2   2   2
#     4  10  19  34  54  85 111 145 183 226 277 330
#     4  10  18  32  60  81 112 141 186 235 272 319
#     4  12  23  35  55  86 117 145 178 234 284 330
#     4  10  21  35  56  80 116 148 181 225 282 334
#     4   9  20  39  58  79 106 154 191 226 266 331
#     4  10  21  37  57  81 113 145 192 226 270 330
#     4  11  19  33  58  86 111 142 182 237 279 318
#
# _framework density 19.300457000000002
#
# number of rings (size 3 to 8) (size 9 to 14) (size 15 to 20)
#    0.000    1.714    2.857    3.000    0.000    1.143 
#    0.000    0.000    0.000    7.714    0.000    0.000 
#    0.000    0.000    0.000    0.000    0.000    0.000 
#
# Total GULP energy -173481.836594 kJ/mol
# GULP energy per Si atom -12391.559757 kJ/mol
# Density = 1.925653 g / cm^3
# Si number density = 19.300457 Si / 1000 Ang^3
#
#
#
# Elastic Constant Matrix: (Units=GPa)
#
#
# Indices 1 2 3 4 5 6 
#
# 1 73.6005 12.7613 13.0939 -3.5069 7.4065 -2.2113
# 2 12.7613 99.9079 23.4479 11.4959 2.1869 4.1459
# 3 13.0939 23.4479 52.5318 -0.4285 2.0131 -1.5282
# 4 -3.5069 11.4959 -0.4285 30.8465 -3.6313 4.0885
# 5 7.4065 2.1869 2.0131 -3.6313 22.2187 1.2141
# 6 -2.2113 4.1459 -1.5282 4.0885 1.2141 27.2989
#
#
#
# Elastic Compliance Matrix: (Units=1/GPa)
#
#
# Indices 1 2 3 4 5 6 
#
# 1 0.014884 -0.001346 -0.002893 0.001475 -0.004393 0.001223
# 2 -0.001346 0.011979 -0.005056 -0.004603 -0.000944 -0.001480
# 3 -0.002893 -0.005056 0.022086 0.001615 -0.000359 0.001544
# 4 0.001475 -0.004603 0.001615 0.035640 0.005896 -0.004691
# 5 -0.004393 -0.000944 -0.000359 0.005896 0.047738 -0.003239
# 6 0.001223 -0.001480 0.001544 -0.004691 -0.003239 0.037888
#
#
# Mechanical properties :
#
#
# Convention : Reuss Voigt Hill
#
# Bulk Modulus (GPa) = 32.93967 36.07183 34.50575
# Shear Modulus (GPa) = 25.13504 27.85530 26.49517
#
# Velocity S-wave (km/s) = 3.61266 3.80313 3.70912
# Velocity P-wave (km/s) = 5.87414 6.16565 6.02166
#
# Compressibility (1/GPa) = 0.03035853
#
# Stress axis : x y z
#
# Youngs Moduli (GPa) = 67.18605 83.47597 45.27797
#
# Poissons Ratio (x) = 0.11239 0.13099
# Poissons Ratio (y) = 0.09046 0.22892
# Poissons Ratio (z) = 0.19437 0.42205
#
# Static dielectric constant tensor:
#      x y z
#    x 3.666610 0.109730 0.233280 
#    y 0.109730 3.534770 -0.032440 
#    z 0.233280 -0.032440 3.394370 
# 
# 
# High freq. dielectric constant tensor:
#      x y z
#    x 1.751050 0.008290 0.011310 
#    y 0.008290 1.757870 0.007400 
#    z 0.011310 0.007400 1.718480 
# 
# From -- ./inp_files/157529.got.cif
#   From: 2010.06.25/outbox.cif.g09.slc.cpg/sg2_79_cif.got.tgz:157529.got - 2010.06.27 13:26:56.
