data_PCOD8039795
_publ_section_title
;
Structure prediction by ZEFSAII (Michael W. Deem and Ramdas Pophale) SiO2 
 PCOD8039795
Probable space group: P -1
;
_chemical_formula_sum "Si O2"
_cell_formula_units_Z 16
_cell_length_a 11.263506
_cell_length_b 9.431687
_cell_length_c 9.070795
_cell_angle_alpha 89.997754
_cell_angle_beta 45.699664
_cell_angle_gamma 84.565941
_cell_volume 683.595278
_symmetry_space_group_name_H-M "P -1"
_symmetry_group_IT_number 2
_symmetry_cell_setting 'triclinic'
loop_
_space_group_symop_operation_xyz
x,y,z
-x,-y,-z
loop_
_atom_site_type_symbol
_atom_site_label
_atom_site_fract_x
_atom_site_fract_y
_atom_site_fract_z
Si Si1 0.459757 0.414794 0.677877
Si Si2 0.845835 0.791633 0.702088
Si Si3 0.520048 0.153365 0.042229
Si Si4 0.644918 0.871335 0.349746
Si Si5 0.646789 0.401253 0.793182
Si Si6 0.800961 0.031563 0.975822
Si Si7 0.142038 0.491608 0.159109
Si Si8 0.065875 0.227380 0.695138
O O1 0.500000 0.500000 0.500000
O O2 0.438783 0.253063 0.656089
O O3 0.625021 0.419327 0.636128
O O4 0.294683 0.482943 0.910128
O O5 0.665156 0.757965 0.795198
O O6 0.914374 0.663077 0.756049
O O7 0.954550 0.800807 0.461407
O O8 0.842518 0.939934 0.790947
O O9 0.634801 0.234628 0.835566
O O10 0.619992 0.132356 0.111408
O O11 0.500000 0.000000 0.000000
O O12 0.743939 0.815173 0.412400
O O13 0.500000 0.000000 0.500000
O O14 0.786399 0.924768 0.123072
O O15 0.816757 0.443369 0.715480
O O16 0.500000 0.500000 0.000000
O O17 0.943085 0.131274 0.884594
O O18 0.991701 0.603498 0.221364
#
# Coordination Sequence:
#
# PCOD8039795 Si02
#       8
#     2   2   2   2   2   2   2   2
#     4  11  25  45  72 105 137 186 234 281 349 416
#     4  11  22  43  67 103 139 180 235 284 344 409
#     4  10  18  34  69  94 132 176 224 279 335 388
#     4  12  28  50  69  99 142 188 237 283 349 425
#     4  10  19  38  68  97 132 170 227 281 339 396
#     4  11  23  46  67 101 142 183 233 291 345 404
#     4  11  23  45  69 101 143 178 227 292 346 406
#     4  12  27  42  71 103 140 187 231 285 355 414
#
# _framework density 23.405660999999998
#
# number of rings (size 3 to 8) (size 9 to 14) (size 15 to 20)
#    0.000    1.000    5.000    2.625    3.500    1.500 
#    2.250    0.000    0.000    0.000    0.000    0.000 
#    0.000    0.000    0.000    0.000    0.000    0.000 
#
# Total GULP energy -198301.803533 kJ/mol
# GULP energy per Si atom -12393.862721 kJ/mol
# Density = 2.335239 g / cm^3
# Si number density = 23.405661 Si / 1000 Ang^3
#
#
#
# Elastic Constant Matrix: (Units=GPa)
#
#
# Indices 1 2 3 4 5 6 
#
# 1 100.8614 44.4351 16.4589 12.9557 2.3462 -14.1078
# 2 44.4351 133.6661 32.8139 0.3652 2.1763 -16.0868
# 3 16.4589 32.8139 72.1570 -1.5732 16.6432 -11.9733
# 4 12.9557 0.3652 -1.5732 42.5755 -9.7141 -1.7041
# 5 2.3462 2.1763 16.6432 -9.7141 34.0605 -0.9308
# 6 -14.1078 -16.0868 -11.9733 -1.7041 -0.9308 36.0627
#
#
#
# Elastic Compliance Matrix: (Units=1/GPa)
#
#
# Indices 1 2 3 4 5 6 
#
# 1 0.012569 -0.003682 -0.000460 -0.004031 -0.001477 0.002893
# 2 -0.003682 0.009803 -0.003725 0.001404 0.001897 0.001811
# 3 -0.000460 -0.003725 0.018341 -0.001016 -0.008874 0.003971
# 4 -0.004031 0.001404 -0.001016 0.026557 0.008264 0.000180
# 5 -0.001477 0.001897 -0.008874 0.008264 0.035996 -0.001358
# 6 0.002893 0.001811 0.003971 0.000180 -0.001358 0.030961
#
#
# Mechanical properties :
#
#
# Convention : Reuss Voigt Hill
#
# Bulk Modulus (GPa) = 40.03248 54.90004 47.46626
# Shear Modulus (GPa) = 31.58844 36.73818 34.16331
#
# Velocity S-wave (km/s) = 3.67769 3.96615 3.82464
# Velocity P-wave (km/s) = 5.93083 6.66938 6.31092
#
# Compressibility (1/GPa) = 0.02497972
#
# Stress axis : x y z
#
# Youngs Moduli (GPa) = 79.56328 102.00975 54.52336
#
# Poissons Ratio (x) = 0.37561 0.02506
# Poissons Ratio (y) = 0.29296 0.20307
# Poissons Ratio (z) = 0.03657 0.37994
#
# Static dielectric constant tensor:
#      x y z
#    x 4.674710 -0.272590 0.070220 
#    y -0.272590 4.387100 -0.047700 
#    z 0.070220 -0.047700 4.024450 
# 
# 
# High freq. dielectric constant tensor:
#      x y z
#    x 1.915790 -0.011310 -0.000590 
#    y -0.011310 1.945820 -0.007380 
#    z -0.000590 -0.007380 1.902880 
# 
# From -- ./inp_files/243831.got.cif
#   From: 2010.06.25/outbox.cif.g09.slc.cpg/sg2_122_cif.got.tgz:243831.got - 2010.06.27 13:26:56.
