data_PCOD8039669
_publ_section_title
;
Structure prediction by ZEFSAII (Michael W. Deem and Ramdas Pophale) SiO2 
 PCOD8039669
Probable space group: P -1
;
_chemical_formula_sum "Si O2"
_cell_formula_units_Z 14
_cell_length_a 10.869764
_cell_length_b 8.818841
_cell_length_c 17.547039
_cell_angle_alpha 53.923528
_cell_angle_beta 151.298112
_cell_angle_gamma 125.887683
_cell_volume 642.282975
_symmetry_space_group_name_H-M "P -1"
_symmetry_group_IT_number 2
_symmetry_cell_setting 'triclinic'
loop_
_space_group_symop_operation_xyz
x,y,z
-x,-y,-z
loop_
_atom_site_type_symbol
_atom_site_label
_atom_site_fract_x
_atom_site_fract_y
_atom_site_fract_z
Si Si1 0.436620 0.022623 0.194656
Si Si2 0.362349 0.470472 0.197389
Si Si3 0.408071 0.891621 0.058603
Si Si4 0.234377 0.365109 0.919086
Si Si5 0.921562 0.063034 0.740028
Si Si6 0.604827 0.123969 0.413124
Si Si7 0.091639 0.624434 0.130656
O O1 0.648889 0.077179 0.361673
O O2 0.240264 0.834883 0.169529
O O3 0.288448 0.200520 0.054791
O O4 0.558737 0.990356 0.186888
O O5 0.591419 0.347303 0.353505
O O6 0.294043 0.500036 0.241068
O O7 0.448609 0.674111 0.141454
O O8 0.113038 0.354943 0.053099
O O9 0.101932 0.903497 0.896774
O O10 0.500000 0.000000 0.000000
O O11 0.081319 0.271114 0.789687
O O12 0.047448 0.472514 0.838775
O O13 0.500000 0.500000 0.000000
O O14 0.848637 0.077058 0.607111
O O15 0.662822 0.007120 0.665712
#
# Coordination Sequence:
#
# PCOD8039669 Si02
#       7
#     2   2   2   2   2   2   2
#     4  10  20  36  63  84 115 167 205 242 293 372
#     4  10  20  33  63  90 115 161 201 258 294 355
#     4  10  23  40  60  90 125 157 206 252 307 354
#     4  11  21  34  58  91 122 156 205 253 295 359
#     4  10  23  38  63  90 125 159 198 261 302 356
#     4  11  20  40  64  92 119 158 211 246 306 361
#     4  10  18  34  59  85 116 152 216 240 289 352
#
# _framework density 21.797245
#
# number of rings (size 3 to 8) (size 9 to 14) (size 15 to 20)
#    0.000    1.714    2.857    3.857    4.000    0.000 
#    0.000    4.286    6.286    0.000    0.000    0.000 
#    0.000    0.000    0.000    0.000    0.000    0.000 
#
# Total GULP energy -173474.953196 kJ/mol
# GULP energy per Si atom -12391.068085 kJ/mol
# Density = 2.174763 g / cm^3
# Si number density = 21.797245 Si / 1000 Ang^3
#
#
#
# Elastic Constant Matrix: (Units=GPa)
#
#
# Indices 1 2 3 4 5 6 
#
# 1 132.6199 55.4519 25.0464 10.6216 -33.6828 6.3371
# 2 55.4519 117.0992 36.2824 3.1806 -10.3752 -6.9976
# 3 25.0464 36.2824 76.1732 10.0079 -33.3815 -11.3190
# 4 10.6216 3.1806 10.0079 26.6607 -7.8208 -0.3379
# 5 -33.6828 -10.3752 -33.3815 -7.8208 32.1559 8.1517
# 6 6.3371 -6.9976 -11.3190 -0.3379 8.1517 25.2765
#
#
#
# Elastic Compliance Matrix: (Units=1/GPa)
#
#
# Indices 1 2 3 4 5 6 
#
# 1 0.017213 -0.009210 0.009039 -0.001367 0.027039 -0.011556
# 2 -0.009210 0.015155 -0.011047 0.000857 -0.017876 0.007334
# 3 0.009039 -0.011047 0.032914 -0.002865 0.040293 -0.003618
# 4 -0.001367 0.000857 -0.002865 0.040867 0.006371 -0.002211
# 5 0.027039 -0.017876 0.040293 0.006371 0.103904 -0.027109
# 6 -0.011556 0.007334 -0.003618 -0.002211 -0.027109 0.051583
#
#
# Mechanical properties :
#
#
# Convention : Reuss Voigt Hill
#
# Bulk Modulus (GPa) = 23.33904 62.16152 42.75028
# Shear Modulus (GPa) = 16.75863 30.75938 23.75901
#
# Velocity S-wave (km/s) = 2.77581 3.76062 3.30510
# Velocity P-wave (km/s) = 4.58302 6.88740 5.84980
#
# Compressibility (1/GPa) = 0.04284667
#
# Stress axis : x y z
#
# Youngs Moduli (GPa) = 58.09506 65.98539 30.38222
#
# Poissons Ratio (x) = 0.60769 -0.27462
# Poissons Ratio (y) = 0.53503 0.33563
# Poissons Ratio (z) = -0.52510 0.72893
#
# Static dielectric constant tensor:
#      x y z
#    x 3.989330 -0.330280 -0.207810 
#    y -0.330280 3.946400 0.021450 
#    z -0.207810 0.021450 3.684430 
# 
# 
# High freq. dielectric constant tensor:
#      x y z
#    x 1.855240 -0.016710 -0.025800 
#    y -0.016710 1.857300 0.004820 
#    z -0.025800 0.004820 1.812200 
# 
# From -- ./inp_files/175049.got.cif
#   From: 2010.06.25/outbox.cif.g09.slc.cpg/sg2_88_cif.got.tgz:175049.got - 2010.06.27 13:26:56.
