data_PCOD8039188
_publ_section_title
;
Structure prediction by ZEFSAII (Michael W. Deem and Ramdas Pophale) SiO2 
 PCOD8039188
Probable space group: P -1
;
_chemical_formula_sum "Si O2"
_cell_formula_units_Z 16
_cell_length_a 11.828735
_cell_length_b 15.045529
_cell_length_c 7.843590
_cell_angle_alpha 117.719209
_cell_angle_beta 66.732203
_cell_angle_gamma 140.218303
_cell_volume 788.952230
_symmetry_space_group_name_H-M "P -1"
_symmetry_group_IT_number 2
_symmetry_cell_setting 'triclinic'
loop_
_space_group_symop_operation_xyz
x,y,z
-x,-y,-z
loop_
_atom_site_type_symbol
_atom_site_label
_atom_site_fract_x
_atom_site_fract_y
_atom_site_fract_z
Si Si1 0.243612 0.510872 0.129048
Si Si2 0.060064 0.717957 0.407882
Si Si3 0.537713 0.390014 0.227588
Si Si4 0.113874 0.592905 0.768234
Si Si5 0.627641 0.024686 0.715621
Si Si6 0.669981 0.247431 0.543876
Si Si7 0.292820 0.430911 0.377504
Si Si8 0.466589 0.836763 0.966036
O O1 0.340474 0.676920 0.230754
O O2 0.311145 0.485077 0.225379
O O3 0.031867 0.403892 0.157470
O O4 0.306925 0.495856 0.901603
O O5 0.159271 0.844366 0.319775
O O6 0.222167 0.789088 0.503573
O O7 0.975051 0.563326 0.252870
O O8 0.913538 0.700758 0.569858
O O9 0.375063 0.368716 0.275558
O O10 0.612111 0.443427 0.423749
O O11 0.464465 0.234595 0.100731
O O12 0.208870 0.626832 0.561233
O O13 0.261419 0.713647 0.920275
O O14 0.526989 0.894785 0.525371
O O15 0.599803 0.963472 0.864014
O O16 0.541838 0.087991 0.805930
#
# Coordination Sequence:
#
# PCOD8039188 Si02
#       8
#     2   2   2   2   2   2   2   2
#     4  11  20  37  65  91 117 153 200 245 303 351
#     4  11  18  33  56  85 116 153 195 238 302 345
#     4  11  24  37  62  84 122 163 195 244 297 349
#     4  10  18  32  62  88 122 147 187 260 301 340
#     4  10  22  32  58  84 122 161 184 243 305 355
#     4  10  18  35  55  88 122 154 183 245 304 349
#     4  11  22  40  56  90 124 152 201 251 286 348
#     4  10  20  39  52  90 123 150 199 242 296 360
#
# _framework density 20.280062999999998
#
# number of rings (size 3 to 8) (size 9 to 14) (size 15 to 20)
#    0.000    1.500    3.750    3.750    1.750    1.000 
#    0.000    0.625    0.000    3.000    0.000    0.000 
#    0.000    0.000    0.000    0.000    0.000    0.000 
#
# Total GULP energy -198319.761392 kJ/mol
# GULP energy per Si atom -12394.985087 kJ/mol
# Density = 2.023390 g / cm^3
# Si number density = 20.280063 Si / 1000 Ang^3
#
#
#
# Elastic Constant Matrix: (Units=GPa)
#
#
# Indices 1 2 3 4 5 6 
#
# 1 96.7089 20.0250 26.5790 -10.6621 -16.4376 -6.2619
# 2 20.0250 111.6088 20.8801 -13.6685 -9.7757 0.1541
# 3 26.5790 20.8801 72.7441 -4.2113 -12.4473 0.1554
# 4 -10.6621 -13.6685 -4.2113 22.6713 2.7322 -3.6225
# 5 -16.4376 -9.7757 -12.4473 2.7322 29.1508 1.4555
# 6 -6.2619 0.1541 0.1554 -3.6225 1.4555 20.1988
#
#
#
# Elastic Compliance Matrix: (Units=1/GPa)
#
#
# Indices 1 2 3 4 5 6 
#
# 1 0.013166 -0.000630 -0.003478 0.005317 0.004995 0.004707
# 2 -0.000630 0.010275 -0.002126 0.005400 0.001647 0.000593
# 3 -0.003478 -0.002126 0.016354 -0.000677 0.004454 -0.001630
# 4 0.005317 0.005400 -0.000677 0.051589 -0.000861 0.010926
# 5 0.004995 0.001647 0.004454 -0.000861 0.039732 -0.001516
# 6 0.004707 0.000593 -0.001630 0.010926 -0.001516 0.053044
#
#
# Mechanical properties :
#
#
# Convention : Reuss Voigt Hill
#
# Bulk Modulus (GPa) = 36.59076 46.22554 41.40815
# Shear Modulus (GPa) = 24.30295 28.64269 26.47282
#
# Velocity S-wave (km/s) = 3.46550 3.76221 3.61690
# Velocity P-wave (km/s) = 5.83908 6.45874 6.15671
#
# Compressibility (1/GPa) = 0.02732931
#
# Stress axis : x y z
#
# Youngs Moduli (GPa) = 75.95130 97.31975 61.14653
#
# Poissons Ratio (x) = 0.06128 0.21264
# Poissons Ratio (y) = 0.04782 0.13001
# Poissons Ratio (z) = 0.26412 0.20691
#
# Static dielectric constant tensor:
#      x y z
#    x 3.577950 -0.072900 0.049560 
#    y -0.072900 3.749520 -0.208720 
#    z 0.049560 -0.208720 3.729440 
# 
# 
# High freq. dielectric constant tensor:
#      x y z
#    x 1.768340 -0.006750 0.010910 
#    y -0.006750 1.787070 -0.017790 
#    z 0.010910 -0.017790 1.792180 
# 
# From -- ./inp_files/223478.got.cif
#   From: 2010.06.25/outbox.cif.g09.slc.cpg/sg2_112_cif.got.tgz:223478.got - 2010.06.27 13:26:56.
