data_PCOD8039707
_publ_section_title
;
Structure prediction by ZEFSAII (Michael W. Deem and Ramdas Pophale) SiO2 
 PCOD8039707
Probable space group: P -1
;
_chemical_formula_sum "Si O2"
_cell_formula_units_Z 16
_cell_length_a 15.070355
_cell_length_b 8.518592
_cell_length_c 18.107951
_cell_angle_alpha 43.858966
_cell_angle_beta 149.774669
_cell_angle_gamma 133.624721
_cell_volume 795.785273
_symmetry_space_group_name_H-M "P -1"
_symmetry_group_IT_number 2
_symmetry_cell_setting 'triclinic'
loop_
_space_group_symop_operation_xyz
x,y,z
-x,-y,-z
loop_
_atom_site_type_symbol
_atom_site_label
_atom_site_fract_x
_atom_site_fract_y
_atom_site_fract_z
Si Si1 0.388681 0.984502 0.214019
Si Si2 0.678649 0.883560 0.355674
Si Si3 0.057651 0.100513 0.332275
Si Si4 0.937926 0.426574 0.897681
Si Si5 0.664001 0.998959 0.536256
Si Si6 0.302466 0.910543 0.859035
Si Si7 0.512227 0.384739 0.362127
Si Si8 0.268253 0.406821 0.047669
O O1 0.491328 0.946375 0.376035
O O2 0.294935 0.206158 0.078448
O O3 0.531253 0.018261 0.238207
O O4 0.239081 0.766076 0.160331
O O5 0.859360 0.926630 0.518643
O O6 0.603280 0.609348 0.396006
O O7 0.729286 0.981710 0.278393
O O8 0.110852 0.361946 0.254482
O O9 0.842105 0.016738 0.211819
O O10 0.145976 0.950474 0.387281
O O11 0.000000 0.500000 0.000000
O O12 0.090200 0.327742 0.995537
O O13 0.659845 0.226026 0.505000
O O14 0.648540 0.771110 0.653566
O O15 0.261464 0.633159 0.917434
O O16 0.500000 0.000000 0.000000
O O17 0.436559 0.468144 0.203370
#
# Coordination Sequence:
#
# PCOD8039707 Si02
#       8
#     2   2   2   2   2   2   2   2
#     4  10  21  35  58  86 118 149 189 237 292 350
#     4  11  21  38  62  81 113 154 200 235 288 339
#     4  10  22  38  58  86 116 149 193 239 287 343
#     4  11  21  34  59  89 122 153 187 230 295 356
#     4   9  19  35  57  87 120 145 186 236 292 349
#     4  11  23  40  62  80 112 157 202 244 283 335
#     4  10  18  34  60  86 116 153 183 233 292 351
#     4  10  21  37  55  85 119 151 192 240 287 341
#
# _framework density 20.105927000000001
#
# number of rings (size 3 to 8) (size 9 to 14) (size 15 to 20)
#    0.000    1.750    1.250    3.750    1.750    2.500 
#    0.000    3.125    2.750    0.000    0.000    0.000 
#    0.000    0.000    0.000    0.000    0.000    0.000 
#
# Total GULP energy -198407.383830 kJ/mol
# GULP energy per Si atom -12400.461489 kJ/mol
# Density = 2.006016 g / cm^3
# Si number density = 20.105927 Si / 1000 Ang^3
#
#
#
# Elastic Constant Matrix: (Units=GPa)
#
#
# Indices 1 2 3 4 5 6 
#
# 1 128.3718 43.4485 45.8444 -4.3926 18.8181 2.6033
# 2 43.4485 57.7409 28.5197 0.2934 9.4749 3.7655
# 3 45.8444 28.5197 80.6007 -3.9141 9.3292 9.7627
# 4 -4.3926 0.2934 -3.9141 31.4075 8.0706 -0.5346
# 5 18.8181 9.4749 9.3292 8.0706 36.5909 -1.5294
# 6 2.6033 3.7655 9.7627 -0.5346 -1.5294 28.8023
#
#
#
# Elastic Compliance Matrix: (Units=1/GPa)
#
#
# Indices 1 2 3 4 5 6 
#
# 1 0.012101 -0.006489 -0.004139 0.002268 -0.003946 0.000990
# 2 -0.006489 0.024961 -0.004880 -0.001349 -0.001632 -0.001134
# 3 -0.004139 -0.004880 0.017376 0.001980 -0.001680 -0.004930
# 4 0.002268 -0.001349 0.001980 0.034720 -0.009002 -0.000533
# 5 -0.003946 -0.001632 -0.001680 -0.009002 0.032307 0.002688
# 6 0.000990 -0.001134 -0.004930 -0.000533 0.002688 0.036582
#
#
# Mechanical properties :
#
#
# Convention : Reuss Voigt Hill
#
# Bulk Modulus (GPa) = 42.70032 55.81539 49.25786
# Shear Modulus (GPa) = 25.39724 29.28686 27.34205
#
# Velocity S-wave (km/s) = 3.55797 3.82072 3.69168
# Velocity P-wave (km/s) = 6.17759 6.87639 6.53634
#
# Compressibility (1/GPa) = 0.02341903
#
# Stress axis : x y z
#
# Youngs Moduli (GPa) = 82.64108 40.06272 57.55073
#
# Poissons Ratio (x) = 0.25998 0.23823
# Poissons Ratio (y) = 0.53628 0.28087
# Poissons Ratio (z) = 0.34209 0.19552
#
# Static dielectric constant tensor:
#      x y z
#    x 3.890460 -0.038710 0.140800 
#    y -0.038710 3.377550 -0.136380 
#    z 0.140800 -0.136380 3.743670 
# 
# 
# High freq. dielectric constant tensor:
#      x y z
#    x 1.796940 0.000090 0.009270 
#    y 0.000090 1.757000 -0.009470 
#    z 0.009270 -0.009470 1.791470 
# 
# From -- ./inp_files/185798.got.cif
#   From: 2010.06.25/outbox.cif.g09.slc.cpg/sg2_93_cif.got.tgz:185798.got - 2010.06.27 13:26:56.
