data_PCOD8039750
_publ_section_title
;
Structure prediction by ZEFSAII (Michael W. Deem and Ramdas Pophale) SiO2 
 PCOD8039750
Probable space group: P -1
;
_chemical_formula_sum "Si O2"
_cell_formula_units_Z 14
_cell_length_a 8.407685
_cell_length_b 21.003060
_cell_length_c 10.899534
_cell_angle_alpha 140.968860
_cell_angle_beta 39.472912
_cell_angle_gamma 113.285055
_cell_volume 662.613424
_symmetry_space_group_name_H-M "P -1"
_symmetry_group_IT_number 2
_symmetry_cell_setting 'triclinic'
loop_
_space_group_symop_operation_xyz
x,y,z
-x,-y,-z
loop_
_atom_site_type_symbol
_atom_site_label
_atom_site_fract_x
_atom_site_fract_y
_atom_site_fract_z
Si Si1 0.590031 0.404983 0.409858
Si Si2 0.846144 0.798073 0.342243
Si Si3 0.181616 0.689455 0.435417
Si Si4 0.273331 0.504092 0.298090
Si Si5 0.242276 0.984219 0.180615
Si Si6 0.805495 0.094276 0.157166
Si Si7 0.302602 0.255495 0.386978
O O1 0.500000 0.500000 0.500000
O O2 0.577121 0.461912 0.633411
O O3 0.356633 0.362651 0.491449
O O4 0.917205 0.299784 0.033589
O O5 0.534321 0.862860 0.556504
O O6 0.820084 0.738065 0.393116
O O7 0.950361 0.894594 0.447650
O O8 0.156883 0.597604 0.398437
O O9 0.155842 0.793684 0.690412
O O10 0.923241 0.742483 0.571503
O O11 0.489446 0.624637 0.084597
O O12 0.000000 0.500000 0.500000
O O13 0.077508 0.966515 0.137076
O O14 0.390474 0.866414 0.998318
O O15 0.500000 0.000000 0.000000
O O16 0.000000 0.000000 0.000000
#
# Coordination Sequence:
#
# PCOD8039750 Si02
#       7
#     2   2   2   2   2   2   2
#     4  12  25  39  60  87 117 157 200 237 284 347
#     4  10  21  39  62  87 118 154 192 241 290 340
#     4  11  22  38  61  85 117 156 190 240 296 339
#     4  11  24  40  58  85 118 153 197 242 288 344
#     4   8  17  35  59  85 113 147 191 235 286 345
#     4  10  18  34  62  89 116 151 190 237 295 349
#     4  10  21  39  61  85 116 152 196 240 287 346
#
# _framework density 21.128458999999999
#
# number of rings (size 3 to 8) (size 9 to 14) (size 15 to 20)
#    0.000    2.000    0.000    6.857    0.000    5.143 
#    0.000    1.429    0.000   13.714    0.000    0.000 
#    0.000    0.000    0.000    0.000    0.000    0.000 
#
# Total GULP energy -173570.865587 kJ/mol
# GULP energy per Si atom -12397.918971 kJ/mol
# Density = 2.108037 g / cm^3
# Si number density = 21.128459 Si / 1000 Ang^3
#
#
#
# Elastic Constant Matrix: (Units=GPa)
#
#
# Indices 1 2 3 4 5 6 
#
# 1 135.0121 39.2605 40.0929 13.2696 -10.7179 0.0028
# 2 39.2605 75.1593 34.2417 11.4134 0.6661 6.6857
# 3 40.0929 34.2417 81.3243 11.3721 0.3122 -3.8842
# 4 13.2696 11.4134 11.3721 35.2313 -0.4667 -1.0100
# 5 -10.7179 0.6661 0.3122 -0.4667 32.4169 12.2486
# 6 0.0028 6.6857 -3.8842 -1.0100 12.2486 39.6987
#
#
#
# Elastic Compliance Matrix: (Units=1/GPa)
#
#
# Indices 1 2 3 4 5 6 
#
# 1 0.009789 -0.003345 -0.003262 -0.001528 0.003665 -0.000926
# 2 -0.003345 0.018532 -0.005922 -0.002940 -0.000052 -0.003759
# 3 -0.003262 -0.005922 0.016880 -0.002238 -0.002412 0.003336
# 4 -0.001528 -0.002940 -0.002238 0.030663 -0.000431 0.001190
# 5 0.003665 -0.000052 -0.002412 -0.000431 0.036413 -0.011473
# 6 -0.000926 -0.003759 0.003336 0.001190 -0.011473 0.029720
#
#
# Mechanical properties :
#
#
# Convention : Reuss Voigt Hill
#
# Bulk Modulus (GPa) = 49.64699 57.63177 53.63938
# Shear Modulus (GPa) = 28.77385 33.32942 31.05163
#
# Velocity S-wave (km/s) = 3.69433 3.97604 3.83777
# Velocity P-wave (km/s) = 6.46113 6.95806 6.71419
#
# Compressibility (1/GPa) = 0.02014221
#
# Stress axis : x y z
#
# Youngs Moduli (GPa) = 102.15059 53.96128 59.24329
#
# Poissons Ratio (x) = 0.18053 0.19326
# Poissons Ratio (y) = 0.34174 0.35082
# Poissons Ratio (z) = 0.33323 0.31954
#
# Static dielectric constant tensor:
#      x y z
#    x 4.254250 0.105470 0.340850 
#    y 0.105470 3.835130 0.425610 
#    z 0.340850 0.425610 4.357870 
# 
# 
# High freq. dielectric constant tensor:
#      x y z
#    x 1.837100 0.002610 0.008050 
#    y 0.002610 1.825260 0.019580 
#    z 0.008050 0.019580 1.828860 
# 
# From -- ./inp_files/405544.got.cif
#   From: 2010.06.25/outbox.cif.g09.slc.cpg/sg2_203_cif.got.tgz:405544.got - 2010.06.27 13:26:56.
