data_PCOD8039316
_publ_section_title
;
Structure prediction by ZEFSAII (Michael W. Deem and Ramdas Pophale) SiO2 
 PCOD8039316
Probable space group: P -1
;
_chemical_formula_sum "Si O2"
_cell_formula_units_Z 14
_cell_length_a 9.194617
_cell_length_b 13.039592
_cell_length_c 14.047154
_cell_angle_alpha 57.103745
_cell_angle_beta 28.988771
_cell_angle_gamma 57.717209
_cell_volume 678.090232
_symmetry_space_group_name_H-M "P -1"
_symmetry_group_IT_number 2
_symmetry_cell_setting 'triclinic'
loop_
_space_group_symop_operation_xyz
x,y,z
-x,-y,-z
loop_
_atom_site_type_symbol
_atom_site_label
_atom_site_fract_x
_atom_site_fract_y
_atom_site_fract_z
Si Si1 0.934706 0.812088 0.407273
Si Si2 0.880494 0.406315 0.467999
Si Si3 0.145178 0.160877 0.903627
Si Si4 0.007592 0.669833 0.257446
Si Si5 0.672964 0.702196 0.881248
Si Si6 0.528676 0.071730 0.250657
Si Si7 0.425309 0.252512 0.875127
O O1 0.698051 0.921293 0.532493
O O2 0.895232 0.679388 0.544902
O O3 0.893543 0.789205 0.329946
O O4 0.273693 0.842966 0.219360
O O5 0.543044 0.367618 0.692769
O O6 0.862751 0.549889 0.431194
O O7 0.028522 0.379926 0.291893
O O8 0.206629 0.188495 0.964501
O O9 0.106463 0.288848 0.803092
O O10 0.426283 0.065413 0.749595
O O11 0.840353 0.101572 0.101329
O O12 0.372940 0.636224 0.072407
O O13 0.609559 0.836571 0.800296
O O14 0.750460 0.708081 0.946164
#
# Coordination Sequence:
#
# PCOD8039316 Si02
#       7
#     2   2   2   2   2   2   2
#     4   8  18  34  54  80 100 136 181 219 247 313
#     4   9  18  34  56  81 107 134 182 221 248 318
#     4  10  21  35  52  79 109 145 167 222 268 317
#     4  10  18  33  57  77 110 143 173 211 271 309
#     4   9  18  35  57  79 103 143 179 217 258 310
#     4   9  19  38  55  74 109 138 184 214 260 318
#     4   9  20  35  54  84 107 132 181 217 271 301
#
# _framework density 20.64622
#
# number of rings (size 3 to 8) (size 9 to 14) (size 15 to 20)
#    0.857    2.000    0.000    0.857    0.000    2.286 
#    2.571    0.714    0.000    0.000    0.000    0.000 
#    0.000    0.000    0.000    0.000    0.000    0.000 
#
# Total GULP energy -173470.491823 kJ/mol
# GULP energy per Si atom -12390.749416 kJ/mol
# Density = 2.059923 g / cm^3
# Si number density = 20.646220 Si / 1000 Ang^3
#
#
#
# Elastic Constant Matrix: (Units=GPa)
#
#
# Indices 1 2 3 4 5 6 
#
# 1 107.5959 28.9890 22.4960 10.2893 23.2323 21.2839
# 2 28.9890 39.1608 0.9269 3.3987 7.5414 7.7036
# 3 22.4960 0.9269 73.0444 20.8586 18.8562 12.0324
# 4 10.2893 3.3987 20.8586 26.7698 12.4119 3.7029
# 5 23.2323 7.5414 18.8562 12.4119 15.9492 6.2923
# 6 21.2839 7.7036 12.0324 3.7029 6.2923 16.8854
#
#
#
# Elastic Compliance Matrix: (Units=1/GPa)
#
#
# Indices 1 2 3 4 5 6 
#
# 1 0.018012 -0.006741 0.001141 0.005921 -0.023951 -0.012815
# 2 -0.006741 0.033606 0.005354 -0.000650 -0.009085 -0.007122
# 3 0.001141 0.005354 0.022536 -0.007588 -0.020777 -0.010534
# 4 0.005921 -0.000650 -0.007588 0.063994 -0.050314 0.002956
# 5 -0.023951 -0.009085 -0.020777 -0.050314 0.166312 -0.001802
# 6 -0.012815 -0.007122 -0.010534 0.002956 -0.001802 0.086155
#
#
# Mechanical properties :
#
#
# Convention : Reuss Voigt Hill
#
# Bulk Modulus (GPa) = 13.57548 36.06945 24.82247
# Shear Modulus (GPa) = 12.02901 23.08014 17.55457
#
# Velocity S-wave (km/s) = 2.41638 3.34711 2.91908
# Velocity P-wave (km/s) = 3.79141 5.69611 4.83841
#
# Compressibility (1/GPa) = 0.07366221
#
# Stress axis : x y z
#
# Youngs Moduli (GPa) = 55.51894 29.75647 44.37258
#
# Poissons Ratio (x) = 0.20059 -0.05064
# Poissons Ratio (y) = 0.37425 -0.23755
# Poissons Ratio (z) = -0.06336 -0.15931
#
# Static dielectric constant tensor:
#      x y z
#    x 3.383930 0.008920 0.191560 
#    y 0.008920 3.412320 0.146690 
#    z 0.191560 0.146690 3.732700 
# 
# 
# High freq. dielectric constant tensor:
#      x y z
#    x 1.783640 0.006390 0.019680 
#    y 0.006390 1.781310 0.009330 
#    z 0.019680 0.009330 1.804210 
# 
# From -- ./inp_files/204228.got.cif
#   From: 2010.06.25/outbox.cif.g09.slc.cpg/sg2_103_cif.got.tgz:204228.got - 2010.06.27 13:26:56.
