data_PCOD8039820
_publ_section_title
;
Structure prediction by ZEFSAII (Michael W. Deem and Ramdas Pophale) SiO2 
 PCOD8039820
Probable space group: P -1
;
_chemical_formula_sum "Si O2"
_cell_formula_units_Z 16
_cell_length_a 7.974446
_cell_length_b 23.486473
_cell_length_c 7.655928
_cell_angle_alpha 73.499078
_cell_angle_beta 126.822359
_cell_angle_gamma 128.804436
_cell_volume 884.803534
_symmetry_space_group_name_H-M "P -1"
_symmetry_group_IT_number 2
_symmetry_cell_setting 'triclinic'
loop_
_space_group_symop_operation_xyz
x,y,z
-x,-y,-z
loop_
_atom_site_type_symbol
_atom_site_label
_atom_site_fract_x
_atom_site_fract_y
_atom_site_fract_z
Si Si1 0.101407 0.587427 0.676970
Si Si2 0.533734 0.325454 0.868004
Si Si3 0.640508 0.919569 0.211912
Si Si4 0.720596 0.414298 0.582586
Si Si5 0.823461 0.657765 0.570643
Si Si6 0.449360 0.068697 0.223192
Si Si7 0.209393 0.981622 0.474474
Si Si8 0.648838 0.213442 0.066186
O O1 0.219689 0.611056 0.535721
O O2 0.933175 0.500371 0.672763
O O3 0.923167 0.614302 0.582630
O O4 0.344208 0.624336 0.927603
O O5 0.733151 0.369514 0.790318
O O6 0.258182 0.310825 0.664707
O O7 0.490690 0.248344 0.938491
O O8 0.913618 0.930997 0.397983
O O9 0.596120 0.951285 0.328227
O O10 0.651110 0.963686 0.007550
O O11 0.410955 0.831691 0.114835
O O12 0.430416 0.395514 0.417598
O O13 0.044719 0.724190 0.772425
O O14 0.696545 0.070238 0.431817
O O15 0.537729 0.153136 0.207226
O O16 0.221743 0.017154 0.264739
#
# Coordination Sequence:
#
# PCOD8039820 Si02
#       8
#     2   2   2   2   2   2   2   2
#     4  10  18  39  56  86 108 138 189 233 263 322
#     4   9  20  37  53  78 112 146 177 222 272 322
#     4   9  20  33  56  76 106 135 174 223 267 315
#     4   9  20  35  61  81 110 142 184 230 272 314
#     4   9  20  37  55  78 115 146 178 225 270 324
#     4   9  20  33  55  76 107 133 174 224 264 315
#     4  10  18  35  55  81  99 134 181 222 270 308
#     4   9  20  35  53  74 113 142 176 218 267 328
#
# _framework density 18.083110999999999
#
# number of rings (size 3 to 8) (size 9 to 14) (size 15 to 20)
#    1.500    1.250    0.000    1.500    1.750    0.000 
#    9.000    1.250    2.750    0.000    0.000    0.000 
#    0.000    0.000    0.000    0.000    0.000    0.000 
#
# Total GULP energy -198208.780925 kJ/mol
# GULP energy per Si atom -12388.048808 kJ/mol
# Density = 1.804195 g / cm^3
# Si number density = 18.083111 Si / 1000 Ang^3
#
#
#
# Elastic Constant Matrix: (Units=GPa)
#
#
# Indices 1 2 3 4 5 6 
#
# 1 75.7337 24.4309 20.1073 -3.9667 -6.0675 -10.7541
# 2 24.4309 81.1273 33.7512 -2.8632 -5.8024 -16.5444
# 3 20.1073 33.7512 87.1114 2.8759 -6.7894 -15.0233
# 4 -3.9667 -2.8632 2.8759 34.4451 -2.3596 -2.6354
# 5 -6.0675 -5.8024 -6.7894 -2.3596 34.1731 -0.0483
# 6 -10.7541 -16.5444 -15.0233 -2.6354 -0.0483 13.7775
#
#
#
# Elastic Compliance Matrix: (Units=1/GPa)
#
#
# Indices 1 2 3 4 5 6 
#
# 1 0.015818 -0.002194 -0.001155 0.002585 0.002398 0.008956
# 2 -0.002194 0.018155 -0.003558 0.002990 0.002216 0.016788
# 3 -0.001155 -0.003558 0.015278 -0.000685 0.002195 0.011361
# 4 0.002585 0.002990 -0.000685 0.030660 0.002963 0.010736
# 5 0.002398 0.002216 0.002195 0.002963 0.030716 0.007601
# 6 0.008956 0.016788 0.011361 0.010736 0.007601 0.114201
#
#
# Mechanical properties :
#
#
# Convention : Reuss Voigt Hill
#
# Bulk Modulus (GPa) = 28.21986 44.50568 36.36277
# Shear Modulus (GPa) = 19.96375 27.52466 23.74420
#
# Velocity S-wave (km/s) = 3.32625 3.90567 3.62755
# Velocity P-wave (km/s) = 5.51285 6.70851 6.13985
#
# Compressibility (1/GPa) = 0.03543603
#
# Stress axis : x y z
#
# Youngs Moduli (GPa) = 63.22022 55.08107 65.45375
#
# Poissons Ratio (x) = 0.12084 0.07560
# Poissons Ratio (y) = 0.13869 0.23292
# Poissons Ratio (z) = 0.07302 0.19600
#
# Static dielectric constant tensor:
#      x y z
#    x 3.104740 -0.075990 -0.050630 
#    y -0.075990 3.169870 0.020750 
#    z -0.050630 0.020750 3.374660 
# 
# 
# High freq. dielectric constant tensor:
#      x y z
#    x 1.677150 -0.010280 0.002950 
#    y -0.010280 1.689710 0.002480 
#    z 0.002950 0.002480 1.708460 
# 
# From -- ./inp_files/224563.got.cif
#   From: 2010.06.25/outbox.cif.g09.slc.cpg/sg2_113_cif.got.tgz:224563.got - 2010.06.27 13:26:56.
