data_PCOD8039777
_publ_section_title
;
Structure prediction by ZEFSAII (Michael W. Deem and Ramdas Pophale) SiO2 
 PCOD8039777
Probable space group: P -1
;
_chemical_formula_sum "Si O2"
_cell_formula_units_Z 16
_cell_length_a 12.606476
_cell_length_b 21.538687
_cell_length_c 8.841247
_cell_angle_alpha 79.308430
_cell_angle_beta 80.247215
_cell_angle_gamma 19.704951
_cell_volume 795.286525
_symmetry_space_group_name_H-M "P -1"
_symmetry_group_IT_number 2
_symmetry_cell_setting 'triclinic'
loop_
_space_group_symop_operation_xyz
x,y,z
-x,-y,-z
loop_
_atom_site_type_symbol
_atom_site_label
_atom_site_fract_x
_atom_site_fract_y
_atom_site_fract_z
Si Si1 0.868551 0.639260 0.407907
Si Si2 0.103156 0.753033 0.705185
Si Si3 0.937207 0.033654 0.178785
Si Si4 0.555768 0.529140 0.072324
Si Si5 0.412859 0.412184 0.238617
Si Si6 0.864725 0.942214 0.165292
Si Si7 0.369843 0.902808 0.165399
Si Si8 0.381279 0.993870 0.541559
O O1 0.707317 0.716994 0.247934
O O2 0.632721 0.803351 0.508170
O O3 0.000000 0.500000 0.500000
O O4 0.143284 0.538005 0.359307
O O5 0.213050 0.620579 0.781078
O O6 0.395387 0.640467 0.689747
O O7 0.838334 0.923158 0.808126
O O8 0.950765 0.831412 0.542258
O O9 0.614723 0.240972 0.219164
O O10 0.907771 0.976602 0.258577
O O11 0.216882 0.919366 0.241469
O O12 0.000000 0.000000 0.000000
O O13 0.215010 0.739118 0.112661
O O14 0.500000 0.500000 0.000000
O O15 0.715838 0.491176 0.936607
O O16 0.706621 0.971079 0.278234
O O17 0.622328 0.093980 0.019754
O O18 0.500000 0.000000 0.500000
#
# Coordination Sequence:
#
# PCOD8039777 Si02
#       8
#     2   2   2   2   2   2   2   2
#     4  11  25  44  61  88 127 165 200 241 303 376
#     4   9  20  40  62  88 118 160 204 242 298 364
#     4   9  16  35  60  93 114 144 203 256 298 331
#     4  10  18  34  64  93 111 150 218 249 283 347
#     4  10  19  37  68  87 115 159 210 249 282 365
#     4  11  20  38  65  88 121 158 200 260 292 354
#     4   9  19  39  65  87 118 158 203 245 302 358
#     4  11  27  43  57  90 134 160 191 249 319 357
#
# _framework density 20.118535000000001
#
# number of rings (size 3 to 8) (size 9 to 14) (size 15 to 20)
#    0.000    2.000    5.000    0.750    3.500    2.500 
#    2.250   11.875    0.000    0.000    0.000    0.000 
#    0.000    0.000    0.000    0.000    0.000    0.000 
#
# Total GULP energy -198224.853803 kJ/mol
# GULP energy per Si atom -12389.053363 kJ/mol
# Density = 2.007274 g / cm^3
# Si number density = 20.118535 Si / 1000 Ang^3
#
#
#
# Elastic Constant Matrix: (Units=GPa)
#
#
# Indices 1 2 3 4 5 6 
#
# 1 100.6952 33.5447 41.2113 -16.0976 -15.3199 1.5478
# 2 33.5447 80.9156 41.9289 -23.0311 -6.8961 -4.1665
# 3 41.2113 41.9289 99.2027 -12.5257 -17.8068 -11.1871
# 4 -16.0976 -23.0311 -12.5257 28.4704 -2.9085 -2.2525
# 5 -15.3199 -6.8961 -17.8068 -2.9085 36.6649 3.1434
# 6 1.5478 -4.1665 -11.1871 -2.2525 3.1434 32.7716
#
#
#
# Elastic Compliance Matrix: (Units=1/GPa)
#
#
# Indices 1 2 3 4 5 6 
#
# 1 0.013523 -0.002213 -0.003650 0.004482 0.004009 -0.002242
# 2 -0.002213 0.019912 -0.005552 0.012636 0.000997 0.001514
# 3 -0.003650 -0.005552 0.015392 0.001033 0.004615 0.004349
# 4 0.004482 0.012636 0.001033 0.049528 0.008307 0.004355
# 5 0.004009 0.000997 0.004615 0.008307 0.032123 -0.000997
# 6 -0.002242 0.001514 0.004349 0.004355 -0.000997 0.032692
#
#
# Mechanical properties :
#
#
# Convention : Reuss Voigt Hill
#
# Bulk Modulus (GPa) = 38.46298 57.13150 47.79724
# Shear Modulus (GPa) = 25.68512 30.52329 28.10420
#
# Velocity S-wave (km/s) = 3.57696 3.89932 3.74161
# Velocity P-wave (km/s) = 6.01824 6.98083 6.51733
#
# Compressibility (1/GPa) = 0.02599903
#
# Stress axis : x y z
#
# Youngs Moduli (GPa) = 73.94879 50.22049 64.96727
#
# Poissons Ratio (x) = 0.11113 0.23711
# Poissons Ratio (y) = 0.16363 0.36068
# Poissons Ratio (z) = 0.26989 0.27881
#
# Static dielectric constant tensor:
#      x y z
#    x 3.452030 -0.351620 0.671540 
#    y -0.351620 3.098610 0.541010 
#    z 0.671540 0.541010 2.465180 
# 
# 
# High freq. dielectric constant tensor:
#      x y z
#    x 1.787560 0.013990 -0.005900 
#    y 0.013990 1.778430 -0.001940 
#    z -0.005900 -0.001940 1.774150 
# 
# From -- ./inp_files/283040.got.cif
#   From: 2010.06.25/outbox.cif.g09.slc.cpg/sg2_142_cif.got.tgz:283040.got - 2010.06.27 13:26:56.
