data_PCOD8039941
_publ_section_title
;
Structure prediction by ZEFSAII (Michael W. Deem and Ramdas Pophale) SiO2 
 PCOD8039941
Probable space group: P -1
;
_chemical_formula_sum "Si O2"
_cell_formula_units_Z 14
_cell_length_a 7.387073
_cell_length_b 14.773975
_cell_length_c 7.948697
_cell_angle_alpha 79.593631
_cell_angle_beta 57.143283
_cell_angle_gamma 114.699785
_cell_volume 559.861280
_symmetry_space_group_name_H-M "P -1"
_symmetry_group_IT_number 2
_symmetry_cell_setting 'triclinic'
loop_
_space_group_symop_operation_xyz
x,y,z
-x,-y,-z
loop_
_atom_site_type_symbol
_atom_site_label
_atom_site_fract_x
_atom_site_fract_y
_atom_site_fract_z
Si Si1 0.074861 0.215943 0.240786
Si Si2 0.182815 0.065018 0.047669
Si Si3 0.382784 0.761807 0.472032
Si Si4 0.931306 0.500822 0.843223
Si Si5 0.092070 0.176246 0.624662
Si Si6 0.421801 0.455933 0.834259
Si Si7 0.103037 0.374671 0.676533
O O1 0.036681 0.106038 0.214677
O O2 0.153838 0.226395 0.390856
O O3 0.797499 0.204057 0.363945
O O4 0.330942 0.329811 0.974751
O O5 0.495179 0.171032 0.792928
O O6 0.163860 0.964162 0.195844
O O7 0.000000 0.000000 0.000000
O O8 0.629837 0.798152 0.458579
O O9 0.190410 0.622035 0.584282
O O10 0.860348 0.386778 0.816880
O O11 0.663893 0.496191 0.985880
O O12 0.000000 0.500000 0.000000
O O13 0.008996 0.243407 0.757557
O O14 0.280656 0.442096 0.731216
O O15 0.744710 0.555389 0.598721
#
# Coordination Sequence:
#
# PCOD8039941 Si02
#       7
#     2   2   2   2   2   2   2
#     4  11  23  41  62  89 121 151 197 252 294 345
#     4  10  22  42  64  86 117 158 201 241 292 356
#     4  10  22  42  63  86 118 160 198 238 298 349
#     4   9  17  32  59  87 112 151 197 235 285 349
#     4  11  23  38  61  91 119 155 200 243 294 353
#     4   9  18  34  59  85 115 157 197 236 291 353
#     4  10  18  35  59  84 121 158 190 241 295 342
#
# _framework density 25.006195000000002
#
# number of rings (size 3 to 8) (size 9 to 14) (size 15 to 20)
#    0.000    2.000    0.000    5.571    0.000    3.429 
#    0.000   12.857    0.000    0.000    0.000    4.000 
#    0.000    0.000    0.000    0.000    0.000    0.000 
#
# Total GULP energy -173500.100288 kJ/mol
# GULP energy per Si atom -12392.864306 kJ/mol
# Density = 2.494928 g / cm^3
# Si number density = 25.006195 Si / 1000 Ang^3
#
#
#
# Elastic Constant Matrix: (Units=GPa)
#
#
# Indices 1 2 3 4 5 6 
#
# 1 73.6591 37.8726 37.1100 0.1023 -6.5353 -18.6201
# 2 37.8726 198.6366 61.7898 16.9873 -9.3033 -54.4271
# 3 37.1100 61.7898 136.9053 -11.7290 13.9403 -30.1947
# 4 0.1023 16.9873 -11.7290 44.5013 -7.3601 4.2833
# 5 -6.5353 -9.3033 13.9403 -7.3601 18.9647 4.4931
# 6 -18.6201 -54.4271 -30.1947 4.2833 4.4931 34.5655
#
#
#
# Elastic Compliance Matrix: (Units=1/GPa)
#
#
# Indices 1 2 3 4 5 6 
#
# 1 0.017870 -0.000604 -0.004659 0.000025 0.008466 0.003502
# 2 -0.000604 0.010337 -0.001678 -0.005806 0.000248 0.015173
# 3 -0.004659 -0.001678 0.012275 0.001104 -0.012702 0.007085
# 4 0.000025 -0.005806 0.001104 0.027922 0.010255 -0.012958
# 5 0.008466 0.000248 -0.012702 0.010255 0.073093 -0.016916
# 6 0.003502 0.015173 0.007085 -0.012958 -0.016916 0.064702
#
#
# Mechanical properties :
#
#
# Convention : Reuss Voigt Hill
#
# Bulk Modulus (GPa) = 37.59321 75.86066 56.72693
# Shear Modulus (GPa) = 21.83898 37.76821 29.80360
#
# Velocity S-wave (km/s) = 2.95844 3.89054 3.45606
# Velocity P-wave (km/s) = 5.17069 7.11227 6.21773
#
# Compressibility (1/GPa) = 0.02660055
#
# Stress axis : x y z
#
# Youngs Moduli (GPa) = 55.95907 96.73989 81.46544
#
# Poissons Ratio (x) = 0.05842 0.37954
# Poissons Ratio (y) = 0.03379 0.13670
# Poissons Ratio (z) = 0.26071 0.16233
#
# Static dielectric constant tensor:
#      x y z
#    x 4.502250 -0.716410 0.199910 
#    y -0.716410 5.813890 -0.564180 
#    z 0.199910 -0.564180 5.674670 
# 
# 
# High freq. dielectric constant tensor:
#      x y z
#    x 1.987660 -0.023490 0.019360 
#    y -0.023490 1.997900 0.008620 
#    z 0.019360 0.008620 2.007630 
# 
# From -- ./inp_files/206702.got.cif
#   From: 2010.06.25/outbox.cif.g09.slc.cpg/sg2_104_cif.got.tgz:206702.got - 2010.06.27 13:26:56.
