data_PCOD8039230
_publ_section_title
;
Structure prediction by ZEFSAII (Michael W. Deem and Ramdas Pophale) SiO2 
 PCOD8039230
Probable space group: P -1
;
_chemical_formula_sum "Si O2"
_cell_formula_units_Z 16
_cell_length_a 11.029264
_cell_length_b 13.130824
_cell_length_c 15.557017
_cell_angle_alpha 101.148572
_cell_angle_beta 22.175802
_cell_angle_gamma 104.637543
_cell_volume 817.685742
_symmetry_space_group_name_H-M "P -1"
_symmetry_group_IT_number 2
_symmetry_cell_setting 'triclinic'
loop_
_space_group_symop_operation_xyz
x,y,z
-x,-y,-z
loop_
_atom_site_type_symbol
_atom_site_label
_atom_site_fract_x
_atom_site_fract_y
_atom_site_fract_z
Si Si1 0.941245 0.090467 0.799587
Si Si2 0.198869 0.845202 0.333678
Si Si3 0.986743 0.362091 0.039173
Si Si4 0.255251 0.026023 0.735308
Si Si5 0.226317 0.063791 0.251759
Si Si6 0.782479 0.716196 0.445921
Si Si7 0.154809 0.443653 0.756410
Si Si8 0.242943 0.166857 0.912139
O O1 0.980888 0.076882 0.873231
O O2 0.232952 0.179457 0.583761
O O3 0.946027 0.977084 0.731906
O O4 0.600036 0.126255 0.005671
O O5 0.535797 0.818732 0.144932
O O6 0.962760 0.852892 0.570021
O O7 0.018250 0.748208 0.378142
O O8 0.256421 0.959182 0.269626
O O9 0.589361 0.330239 0.286608
O O10 0.063938 0.467621 0.066368
O O11 0.158428 0.383221 0.836164
O O12 0.157224 0.277841 0.960918
O O13 0.423939 0.114146 0.708006
O O14 0.500000 0.000000 0.500000
O O15 0.097733 0.916050 0.865617
O O16 0.964851 0.640775 0.254655
O O17 0.500000 0.500000 0.500000
#
# Coordination Sequence:
#
# PCOD8039230 Si02
#       8
#     2   2   2   2   2   2   2   2
#     4  10  18  33  53  81 111 155 200 226 259 325
#     4  10  20  35  51  82 121 153 191 229 277 327
#     4  10  21  39  64  85 111 142 185 242 291 338
#     4  11  22  34  52  78 121 157 193 224 273 328
#     4   9  19  32  53  74 117 162 193 227 262 317
#     4  10  21  34  61  88 109 147 196 234 278 335
#     4   9  20  41  64  86 106 138 190 242 289 343
#     4  11  23  36  54  85 119 152 186 231 285 333
#
# _framework density 19.567419000000001
#
# number of rings (size 3 to 8) (size 9 to 14) (size 15 to 20)
#    0.000    2.000    1.250    2.250    3.500    3.000 
#    0.000    0.625    0.000    6.750    0.000    0.000 
#    0.000    0.000    0.000    0.000    0.000    0.000 
#
# Total GULP energy -198210.158054 kJ/mol
# GULP energy per Si atom -12388.134878 kJ/mol
# Density = 1.952288 g / cm^3
# Si number density = 19.567419 Si / 1000 Ang^3
#
#
#
# Elastic Constant Matrix: (Units=GPa)
#
#
# Indices 1 2 3 4 5 6 
#
# 1 101.0967 38.8526 24.1552 5.2828 0.1240 13.3595
# 2 38.8526 80.3218 28.5204 6.4494 -7.0728 0.8838
# 3 24.1552 28.5204 62.7911 3.7127 14.8378 6.5672
# 4 5.2828 6.4494 3.7127 27.2197 -1.5334 7.2427
# 5 0.1240 -7.0728 14.8378 -1.5334 31.0651 1.8427
# 6 13.3595 0.8838 6.5672 7.2427 1.8427 38.1109
#
#
#
# Elastic Compliance Matrix: (Units=1/GPa)
#
#
# Indices 1 2 3 4 5 6 
#
# 1 0.013056 -0.005560 -0.002056 0.000155 -0.000084 -0.004119
# 2 -0.005560 0.019106 -0.008642 -0.002633 0.008186 0.003100
# 3 -0.002056 -0.008642 0.024112 -0.000956 -0.013381 -0.002405
# 4 0.000155 -0.002633 -0.000956 0.039574 0.002252 -0.007458
# 5 -0.000084 0.008186 -0.013381 0.002252 0.040571 -0.000244
# 6 -0.004119 0.003100 -0.002405 -0.007458 -0.000244 0.029455
#
#
# Mechanical properties :
#
#
# Convention : Reuss Voigt Hill
#
# Bulk Modulus (GPa) = 42.09053 47.47400 44.78227
# Shear Modulus (GPa) = 24.23554 29.45790 26.84672
#
# Velocity S-wave (km/s) = 3.52314 3.88423 3.70809
# Velocity P-wave (km/s) = 6.17311 6.66564 6.42410
#
# Compressibility (1/GPa) = 0.02375831
#
# Stress axis : x y z
#
# Youngs Moduli (GPa) = 76.59514 52.33925 41.47302
#
# Poissons Ratio (x) = 0.29100 0.08525
# Poissons Ratio (y) = 0.42586 0.35843
# Poissons Ratio (z) = 0.15745 0.45233
#
# Static dielectric constant tensor:
#      x y z
#    x 4.306180 0.172160 0.327120 
#    y 0.172160 3.635620 -0.035750 
#    z 0.327120 -0.035750 3.589970 
# 
# 
# High freq. dielectric constant tensor:
#      x y z
#    x 1.764570 0.013460 0.025990 
#    y 0.013460 1.743740 -0.006650 
#    z 0.025990 -0.006650 1.756140 
# 
# From -- ./inp_files/569176.got.cif
#   From: 2010.06.25/outbox.cif.g09.slc.cpg/sg2_285_cif.got.tgz:569176.got - 2010.06.27 13:26:56.
