data_PCOD8039579
_publ_section_title
;
Structure prediction by ZEFSAII (Michael W. Deem and Ramdas Pophale) SiO2 
 PCOD8039579
Probable space group: P -1
;
_chemical_formula_sum "Si O2"
_cell_formula_units_Z 16
_cell_length_a 12.778184
_cell_length_b 15.076709
_cell_length_c 12.116982
_cell_angle_alpha 141.297967
_cell_angle_beta 119.869910
_cell_angle_gamma 90.498506
_cell_volume 861.152007
_symmetry_space_group_name_H-M "P -1"
_symmetry_group_IT_number 2
_symmetry_cell_setting 'triclinic'
loop_
_space_group_symop_operation_xyz
x,y,z
-x,-y,-z
loop_
_atom_site_type_symbol
_atom_site_label
_atom_site_fract_x
_atom_site_fract_y
_atom_site_fract_z
Si Si1 0.768583 0.566530 0.777347
Si Si2 0.887016 0.829459 0.372621
Si Si3 0.390718 0.058942 0.866697
Si Si4 0.987485 0.931289 0.101830
Si Si5 0.024704 0.688323 0.206415
Si Si6 0.755498 0.880144 0.761520
Si Si7 0.554787 0.590285 0.842053
Si Si8 0.551306 0.907205 0.829184
O O1 0.651675 0.588300 0.793309
O O2 0.646342 0.322047 0.467685
O O3 0.835255 0.683058 0.807396
O O4 0.954109 0.692805 0.059107
O O5 0.912610 0.678793 0.232002
O O6 0.950225 0.937230 0.627766
O O7 0.681430 0.694094 0.116937
O O8 0.000000 0.000000 0.500000
O O9 0.229942 0.895484 0.538991
O O10 0.533596 0.055713 0.929533
O O11 0.483572 0.284822 0.099983
O O12 0.330825 0.013050 0.920315
O O13 0.153037 0.001905 0.192787
O O14 0.906634 0.981671 0.029640
O O15 0.000000 0.500000 0.000000
O O16 0.632910 0.636927 0.443706
O O17 0.636319 0.907322 0.767508
#
# Coordination Sequence:
#
# PCOD8039579 Si02
#       8
#     2   2   2   2   2   2   2   2
#     4  10  18  34  57  81 105 138 186 221 265 315
#     4  11  19  34  58  84 105 138 187 231 267 313
#     4  11  19  31  55  79 114 137 181 223 271 316
#     4  11  20  37  60  80 109 146 185 222 273 320
#     4  11  19  31  52  84 109 134 173 233 273 312
#     4  10  23  36  56  81 115 145 179 222 273 330
#     4  10  19  35  57  83 106 141 179 233 264 313
#     4  10  21  33  52  84 108 144 175 224 271 321
#
# _framework density 18.579761000000001
#
# number of rings (size 3 to 8) (size 9 to 14) (size 15 to 20)
#    0.000    1.500    5.000    2.250    0.000    2.500 
#    0.000    0.000    2.750    6.000    0.000    0.000 
#    0.000    0.000    0.000    0.000    0.000    0.000 
#
# Total GULP energy -198290.547952 kJ/mol
# GULP energy per Si atom -12393.159247 kJ/mol
# Density = 1.853747 g / cm^3
# Si number density = 18.579761 Si / 1000 Ang^3
#
#
#
# Elastic Constant Matrix: (Units=GPa)
#
#
# Indices 1 2 3 4 5 6 
#
# 1 93.7530 50.5238 33.1206 14.6441 -9.2108 1.8333
# 2 50.5238 69.4114 25.8343 6.8013 -3.0427 0.3235
# 3 33.1206 25.8343 79.3245 -2.1581 -3.3097 5.5614
# 4 14.6441 6.8013 -2.1581 33.2466 -1.4806 -2.9166
# 5 -9.2108 -3.0427 -3.3097 -1.4806 26.8794 6.6416
# 6 1.8333 0.3235 5.5614 -2.9166 6.6416 36.1501
#
#
#
# Elastic Compliance Matrix: (Units=1/GPa)
#
#
# Indices 1 2 3 4 5 6 
#
# 1 0.020462 -0.012385 -0.004356 -0.006686 0.005135 -0.001740
# 2 -0.012385 0.024388 -0.002943 0.000292 -0.002146 0.001280
# 3 -0.004356 -0.002943 0.015651 0.003394 0.000790 -0.002032
# 4 -0.006686 0.000292 0.003394 0.033385 -0.000650 0.002627
# 5 0.005135 -0.002146 0.000790 -0.000650 0.040733 -0.007899
# 6 -0.001740 0.001280 -0.002032 0.002627 -0.007899 0.029715
#
#
# Mechanical properties :
#
#
# Convention : Reuss Voigt Hill
#
# Bulk Modulus (GPa) = 47.31577 51.27183 49.29380
# Shear Modulus (GPa) = 23.72507 28.12257 25.92382
#
# Velocity S-wave (km/s) = 3.57729 3.89474 3.73939
# Velocity P-wave (km/s) = 6.52566 6.91959 6.72551
#
# Compressibility (1/GPa) = 0.02113460
#
# Stress axis : x y z
#
# Youngs Moduli (GPa) = 48.87076 41.00334 63.89184
#
# Poissons Ratio (x) = 0.50781 0.27831
# Poissons Ratio (y) = 0.60524 0.18804
# Poissons Ratio (z) = 0.21288 0.12068
#
# Static dielectric constant tensor:
#      x y z
#    x 3.502560 -0.176110 -0.119260 
#    y -0.176110 3.417430 -0.114250 
#    z -0.119260 -0.114250 3.732040 
# 
# 
# High freq. dielectric constant tensor:
#      x y z
#    x 1.699890 -0.023870 -0.010240 
#    y -0.023870 1.701500 -0.016530 
#    z -0.010240 -0.016530 1.736790 
# 
# From -- ./inp_files/283266.got.cif
#   From: 2010.06.25/outbox.cif.g09.slc.cpg/sg2_142_cif.got.tgz:283266.got - 2010.06.27 13:26:56.
