data_PCOD8039287
_publ_section_title
;
Structure prediction by ZEFSAII (Michael W. Deem and Ramdas Pophale) SiO2 
 PCOD8039287
Probable space group: P -1
;
_chemical_formula_sum "Si O2"
_cell_formula_units_Z 16
_cell_length_a 14.438429
_cell_length_b 25.886448
_cell_length_c 15.819234
_cell_angle_alpha 160.409643
_cell_angle_beta 27.183788
_cell_angle_gamma 160.280567
_cell_volume 668.719826
_symmetry_space_group_name_H-M "P -1"
_symmetry_group_IT_number 2
_symmetry_cell_setting 'triclinic'
loop_
_space_group_symop_operation_xyz
x,y,z
-x,-y,-z
loop_
_atom_site_type_symbol
_atom_site_label
_atom_site_fract_x
_atom_site_fract_y
_atom_site_fract_z
Si Si1 0.636546 0.688623 0.063378
Si Si2 0.254711 0.045754 0.144075
Si Si3 0.359512 0.248282 0.656924
Si Si4 0.218413 0.372704 0.680922
Si Si5 0.444256 0.198986 0.870485
Si Si6 0.180805 0.661081 0.918949
Si Si7 0.946457 0.247431 0.531283
Si Si8 0.228143 0.917405 0.141370
O O1 0.531551 0.705545 0.263728
O O2 0.514644 0.731308 0.153739
O O3 0.525845 0.458086 0.789972
O O4 0.967299 0.849917 0.035332
O O5 0.251074 0.217352 0.450957
O O6 0.489761 0.156585 0.051925
O O7 0.366177 0.987032 0.040557
O O8 0.040000 0.124858 0.734593
O O9 0.399403 0.103474 0.358101
O O10 0.139738 0.315397 0.558911
O O11 0.502594 0.618611 0.835922
O O12 0.980829 0.337613 0.872603
O O13 0.672083 0.191440 0.700786
O O14 0.145730 0.963646 0.761882
O O15 0.104019 0.440560 0.636142
O O16 0.118360 0.702522 0.941165
#
# Coordination Sequence:
#
# PCOD8039287 Si02
#       8
#     2   2   2   2   2   2   2   2
#     4  10  18  33  55  91 125 156 204 255 299 367
#     4  11  23  38  63  90 126 163 202 256 308 366
#     4   9  18  32  61  89 116 163 206 244 311 363
#     4  11  22  43  68  89 123 164 206 256 305 363
#     4  10  19  36  65  90 123 158 203 260 302 357
#     4  11  22  38  63  90 123 166 204 251 310 363
#     4  10  22  39  65  94 120 163 211 253 302 366
#     4  10  19  36  59  88 119 162 206 249 307 365
#
# _framework density 23.926310999999998
#
# number of rings (size 3 to 8) (size 9 to 14) (size 15 to 20)
#    0.000    1.750    1.250    6.375    0.000    0.500 
#    0.000    1.250   19.250    0.000    0.000    0.000 
#    0.000    0.000    0.000    0.000    0.000    0.000 
#
# Total GULP energy -198327.464513 kJ/mol
# GULP energy per Si atom -12395.466532 kJ/mol
# Density = 2.387185 g / cm^3
# Si number density = 23.926311 Si / 1000 Ang^3
#
#
#
# Elastic Constant Matrix: (Units=GPa)
#
#
# Indices 1 2 3 4 5 6 
#
# 1 106.7784 7.3444 48.0383 19.0012 -9.4956 5.3183
# 2 7.3444 80.3233 48.3719 25.9217 3.2869 -11.3173
# 3 48.0383 48.3719 131.2455 39.2307 -5.1798 -2.1105
# 4 19.0012 25.9217 39.2307 44.5555 -0.9708 -3.5096
# 5 -9.4956 3.2869 -5.1798 -0.9708 35.1035 11.3876
# 6 5.3183 -11.3173 -2.1105 -3.5096 11.3876 25.1829
#
#
#
# Elastic Compliance Matrix: (Units=1/GPa)
#
#
# Indices 1 2 3 4 5 6 
#
# 1 0.012150 0.001439 -0.004095 -0.002675 0.003901 -0.004399
# 2 0.001439 0.019437 -0.005949 -0.006048 -0.005597 0.009620
# 3 -0.004095 -0.005949 0.013356 -0.006710 0.002064 -0.002558
# 4 -0.002675 -0.006048 -0.006710 0.033175 -0.000995 0.002358
# 5 0.003901 -0.005597 0.002064 -0.000995 0.036816 -0.019953
# 6 -0.004399 0.009620 -0.002558 0.002358 -0.019953 0.054099
#
#
# Mechanical properties :
#
#
# Convention : Reuss Voigt Hill
#
# Bulk Modulus (GPa) = 36.05644 58.42850 47.24247
# Shear Modulus (GPa) = 25.57703 35.27454 30.42579
#
# Velocity S-wave (km/s) = 3.27309 3.84383 3.56988
# Velocity P-wave (km/s) = 5.42095 6.64629 6.06465
#
# Compressibility (1/GPa) = 0.02773429
#
# Stress axis : x y z
#
# Youngs Moduli (GPa) = 82.30147 51.44886 74.87046
#
# Poissons Ratio (x) = -0.07402 0.30658
# Poissons Ratio (y) = -0.11840 0.44537
# Poissons Ratio (z) = 0.33701 0.30605
#
# Static dielectric constant tensor:
#      x y z
#    x 4.249170 0.156530 -0.234420 
#    y 0.156530 4.420060 0.400170 
#    z -0.234420 0.400170 4.538020 
# 
# 
# High freq. dielectric constant tensor:
#      x y z
#    x 1.945800 0.008760 -0.026340 
#    y 0.008760 1.949110 0.025830 
#    z -0.026340 0.025830 1.945720 
# 
# From -- ./inp_files/472924.got.cif
#   From: 2010.06.25/outbox.cif.g09.slc.cpg/sg2_237_cif.got.tgz:472924.got - 2010.06.27 13:26:56.
