data_PCOD8039811
_publ_section_title
;
Structure prediction by ZEFSAII (Michael W. Deem and Ramdas Pophale) SiO2 
 PCOD8039811
Probable space group: P -1
;
_chemical_formula_sum "Si O2"
_cell_formula_units_Z 16
_cell_length_a 11.154731
_cell_length_b 19.510452
_cell_length_c 9.659898
_cell_angle_alpha 129.369046
_cell_angle_beta 60.402469
_cell_angle_gamma 148.280334
_cell_volume 849.090488
_symmetry_space_group_name_H-M "P -1"
_symmetry_group_IT_number 2
_symmetry_cell_setting 'triclinic'
loop_
_space_group_symop_operation_xyz
x,y,z
-x,-y,-z
loop_
_atom_site_type_symbol
_atom_site_label
_atom_site_fract_x
_atom_site_fract_y
_atom_site_fract_z
Si Si1 0.757909 0.455935 0.484492
Si Si2 0.606228 0.458798 0.857019
Si Si3 0.431004 0.363129 0.344789
Si Si4 0.042867 0.769975 0.992859
Si Si5 0.256169 0.028295 0.377030
Si Si6 0.757850 0.263458 0.342227
Si Si7 0.061283 0.066780 0.330251
Si Si8 0.744442 0.763212 0.016435
O O1 0.604715 0.421787 0.652116
O O2 0.641286 0.414659 0.351127
O O3 0.778433 0.361506 0.363526
O O4 0.016182 0.628586 0.552269
O O5 0.873628 0.605212 0.938149
O O6 0.500000 0.500000 0.000000
O O7 0.447099 0.312108 0.852111
O O8 0.500000 0.500000 0.500000
O O9 0.199174 0.216379 0.369692
O O10 0.396234 0.321514 0.151980
O O11 0.249500 0.827268 0.867947
O O12 0.887912 0.747954 0.946758
O O13 0.142204 0.879282 0.198550
O O14 0.522130 0.146950 0.413496
O O15 0.231686 0.092514 0.356954
O O16 0.129441 0.986686 0.535243
O O17 0.925200 0.937165 0.129412
#
# Coordination Sequence:
#
# PCOD8039811 Si02
#       8
#     2   2   2   2   2   2   2   2
#     4  10  21  34  58  83 112 153 193 235 279 341
#     4   9  17  32  54  83 116 142 189 235 281 322
#     4  12  23  36  58  88 119 149 188 237 289 346
#     4   9  19  31  57  88 113 149 191 235 280 341
#     4  10  19  34  61  85 115 143 192 245 283 335
#     4  10  18  35  54  84 115 148 191 239 279 330
#     4  10  22  36  57  89 115 147 190 238 297 333
#     4  10  21  36  57  86 120 151 180 241 294 340
#
# _framework density 18.843692000000001
#
# number of rings (size 3 to 8) (size 9 to 14) (size 15 to 20)
#    0.000    2.000    1.250    3.750    7.000    0.000 
#    0.000    0.000    0.000   15.000    0.000    0.000 
#    0.000    0.000    0.000    0.000    0.000    0.000 
#
# Total GULP energy -198279.098340 kJ/mol
# GULP energy per Si atom -12392.443646 kJ/mol
# Density = 1.880080 g / cm^3
# Si number density = 18.843692 Si / 1000 Ang^3
#
#
#
# Elastic Constant Matrix: (Units=GPa)
#
#
# Indices 1 2 3 4 5 6 
#
# 1 66.2137 36.0901 47.2243 1.6515 4.5713 14.6441
# 2 36.0901 118.3100 35.6285 7.6451 0.5947 8.3095
# 3 47.2243 35.6285 105.9713 7.1224 0.9393 10.2793
# 4 1.6515 7.6451 7.1224 29.0131 2.3082 -8.3826
# 5 4.5713 0.5947 0.9393 2.3082 34.1681 2.5944
# 6 14.6441 8.3095 10.2793 -8.3826 2.5944 32.1966
#
#
#
# Elastic Compliance Matrix: (Units=1/GPa)
#
#
# Indices 1 2 3 4 5 6 
#
# 1 0.026112 -0.004619 -0.009340 0.000070 -0.002594 -0.007475
# 2 -0.004619 0.010447 -0.001201 -0.002519 0.000710 -0.000925
# 3 -0.009340 -0.001201 0.014279 -0.003001 0.001147 -0.000874
# 4 0.000070 -0.002519 -0.003001 0.039661 -0.003487 0.012183
# 5 -0.002594 0.000710 0.001147 -0.003487 0.030010 -0.002696
# 6 -0.007475 -0.000925 -0.000874 0.012183 -0.002696 0.038366
#
#
# Mechanical properties :
#
#
# Convention : Reuss Voigt Hill
#
# Bulk Modulus (GPa) = 48.73904 58.70899 53.72401
# Shear Modulus (GPa) = 25.50534 30.51235 28.00884
#
# Velocity S-wave (km/s) = 3.68301 4.02834 3.85954
# Velocity P-wave (km/s) = 6.63379 7.27049 6.95943
#
# Compressibility (1/GPa) = 0.02051743
#
# Stress axis : x y z
#
# Youngs Moduli (GPa) = 38.29588 95.71783 70.03279
#
# Poissons Ratio (x) = 0.44215 0.65412
# Poissons Ratio (y) = 0.17690 0.08413
# Poissons Ratio (z) = 0.35769 0.11499
#
# Static dielectric constant tensor:
#      x y z
#    x 3.316430 0.148180 -0.145500 
#    y 0.148180 3.850780 0.219050 
#    z -0.145500 0.219050 3.453250 
# 
# 
# High freq. dielectric constant tensor:
#      x y z
#    x 1.694800 0.017260 -0.020200 
#    y 0.017260 1.742440 0.024280 
#    z -0.020200 0.024280 1.735650 
# 
# From -- ./inp_files/271268.got.cif
#   From: 2010.06.25/outbox.cif.g09.slc.cpg/sg2_136_cif.got.tgz:271268.got - 2010.06.27 13:26:56.
