data_PCOD8039767
_publ_section_title
;
Structure prediction by ZEFSAII (Michael W. Deem and Ramdas Pophale) SiO2 
 PCOD8039767
Probable space group: P -1
;
_chemical_formula_sum "Si O2"
_cell_formula_units_Z 16
_cell_length_a 13.988894
_cell_length_b 14.333382
_cell_length_c 10.435785
_cell_angle_alpha 138.928644
_cell_angle_beta 51.142254
_cell_angle_gamma 147.658753
_cell_volume 735.161552
_symmetry_space_group_name_H-M "P -1"
_symmetry_group_IT_number 2
_symmetry_cell_setting 'triclinic'
loop_
_space_group_symop_operation_xyz
x,y,z
-x,-y,-z
loop_
_atom_site_type_symbol
_atom_site_label
_atom_site_fract_x
_atom_site_fract_y
_atom_site_fract_z
Si Si1 0.774472 0.029618 0.710601
Si Si2 0.638464 0.692856 0.674764
Si Si3 0.829291 0.461847 0.737167
Si Si4 0.956905 0.753181 0.490627
Si Si5 0.107660 0.616271 0.860483
Si Si6 0.518342 0.781712 0.085388
Si Si7 0.126347 0.809836 0.670356
Si Si8 0.477665 0.955207 0.820691
O O1 0.597074 0.914151 0.653712
O O2 0.914647 0.067332 0.539548
O O3 0.731695 0.903179 0.741814
O O4 0.851758 0.250055 0.913866
O O5 0.500000 0.500000 0.500000
O O6 0.788050 0.709685 0.612900
O O7 0.532241 0.657502 0.852052
O O8 0.636108 0.370744 0.835192
O O9 0.802432 0.291073 0.508539
O O10 0.925005 0.515048 0.846837
O O11 0.952566 0.670538 0.764971
O O12 0.898436 0.553749 0.271854
O O13 0.066679 0.826775 0.604335
O O14 0.266750 0.758066 0.766265
O O15 0.454556 0.862134 0.137729
O O16 0.711093 0.961345 0.174787
O O17 0.500000 0.000000 0.000000
#
# Coordination Sequence:
#
# PCOD8039767 Si02
#       8
#     2   2   2   2   2   2   2   2
#     4  11  22  41  67  96 131 181 217 280 348 391
#     4  12  27  45  63  98 139 177 223 282 332 404
#     4  10  21  38  70 101 129 174 221 281 337 390
#     4  11  25  41  66  98 134 176 223 276 333 406
#     4  10  19  38  67  97 132 166 218 284 338 387
#     4  12  23  43  67  98 138 181 217 274 343 396
#     4  10  22  45  64 100 134 172 229 281 324 397
#     4  10  18  34  63  96 126 163 214 272 331 386
#
# _framework density 21.763922000000001
#
# number of rings (size 3 to 8) (size 9 to 14) (size 15 to 20)
#    0.000    1.250    3.750    3.375    3.500    0.500 
#    4.500    0.625    0.000    0.000    0.000    0.000 
#    0.000    0.000    0.000    0.000    0.000    0.000 
#
# Total GULP energy -198358.035665 kJ/mol
# GULP energy per Si atom -12397.377229 kJ/mol
# Density = 2.171439 g / cm^3
# Si number density = 21.763922 Si / 1000 Ang^3
#
#
#
# Elastic Constant Matrix: (Units=GPa)
#
#
# Indices 1 2 3 4 5 6 
#
# 1 77.9259 27.8473 38.5727 -1.3560 -1.9856 7.4529
# 2 27.8473 140.3172 57.0148 -28.2271 5.7062 16.2542
# 3 38.5727 57.0148 95.9674 -10.1649 4.6995 12.4817
# 4 -1.3560 -28.2271 -10.1649 35.4104 4.1623 2.6599
# 5 -1.9856 5.7062 4.6995 4.1623 23.5400 2.7307
# 6 7.4529 16.2542 12.4817 2.6599 2.7307 29.7109
#
#
#
# Elastic Compliance Matrix: (Units=1/GPa)
#
#
# Indices 1 2 3 4 5 6 
#
# 1 0.016486 -0.001309 -0.006167 -0.002523 0.003492 -0.000924
# 2 -0.001309 0.011710 -0.004779 0.008607 -0.002987 -0.004566
# 3 -0.006167 -0.004779 0.016314 0.001126 -0.002521 -0.002561
# 4 -0.002523 0.008607 0.001126 0.036826 -0.008213 -0.007091
# 5 0.003492 -0.002987 -0.002521 -0.008213 0.045645 -0.001643
# 6 -0.000924 -0.004566 -0.002561 -0.007091 -0.001643 0.038249
#
#
# Mechanical properties :
#
#
# Convention : Reuss Voigt Hill
#
# Bulk Modulus (GPa) = 49.99823 62.34222 56.17023
# Shear Modulus (GPa) = 25.45717 30.45065 27.95391
#
# Velocity S-wave (km/s) = 3.42379 3.74456 3.58776
# Velocity P-wave (km/s) = 6.21713 6.88495 6.55954
#
# Compressibility (1/GPa) = 0.02000071
#
# Stress axis : x y z
#
# Youngs Moduli (GPa) = 60.65581 85.39555 61.29622
#
# Poissons Ratio (x) = 0.11175 0.37802
# Poissons Ratio (y) = 0.07937 0.29296
# Poissons Ratio (z) = 0.37407 0.40813
#
# Static dielectric constant tensor:
#      x y z
#    x 3.835260 0.317820 0.003510 
#    y 0.317820 4.374730 -0.103650 
#    z 0.003510 -0.103650 3.716030 
# 
# 
# High freq. dielectric constant tensor:
#      x y z
#    x 1.845180 0.013480 0.011510 
#    y 0.013480 1.869970 -0.012360 
#    z 0.011510 -0.012360 1.829230 
# 
# From -- ./inp_files/455079.got.cif
#   From: 2010.06.25/outbox.cif.g09.slc.cpg/sg2_228_cif.got.tgz:455079.got - 2010.06.27 13:26:56.
