data_PCOD8039888
_publ_section_title
;
Structure prediction by ZEFSAII (Michael W. Deem and Ramdas Pophale) SiO2 
 PCOD8039888
Probable space group: P -1
;
_chemical_formula_sum "Si O2"
_cell_formula_units_Z 16
_cell_length_a 14.155933
_cell_length_b 13.917305
_cell_length_c 11.824594
_cell_angle_alpha 39.586708
_cell_angle_beta 40.133739
_cell_angle_gamma 28.563203
_cell_volume 679.767497
_symmetry_space_group_name_H-M "P -1"
_symmetry_group_IT_number 2
_symmetry_cell_setting 'triclinic'
loop_
_space_group_symop_operation_xyz
x,y,z
-x,-y,-z
loop_
_atom_site_type_symbol
_atom_site_label
_atom_site_fract_x
_atom_site_fract_y
_atom_site_fract_z
Si Si1 0.659257 0.662185 0.207850
Si Si2 0.771985 0.451028 0.864082
Si Si3 0.460316 0.036560 0.315671
Si Si4 0.681328 0.985624 0.955060
Si Si5 0.632801 0.231750 0.171385
Si Si6 0.437738 0.730733 0.550372
Si Si7 0.192184 0.217177 0.594268
Si Si8 0.134025 0.688214 0.843497
O O1 0.630954 0.582445 0.420661
O O2 0.820475 0.464188 0.158627
O O3 0.432662 0.839454 0.197089
O O4 0.737812 0.772951 0.063102
O O5 0.539612 0.679477 0.846228
O O6 0.948453 0.417866 0.661732
O O7 0.771832 0.277601 0.976477
O O8 0.821234 0.424042 0.975889
O O9 0.368738 0.956605 0.407447
O O10 0.656540 0.839848 0.391082
O O11 0.273520 0.238327 0.383142
O O12 0.533055 0.102359 0.095358
O O13 0.895800 0.910844 0.855324
O O14 0.510117 0.352193 0.292856
O O15 0.781190 0.981303 0.269483
O O16 0.258776 0.750916 0.651636
#
# Coordination Sequence:
#
# PCOD8039888 Si02
#       8
#     2   2   2   2   2   2   2   2
#     4  10  22  39  62  82 113 152 186 238 294 329
#     4  10  20  34  56  90 116 148 190 230 286 344
#     4   9  19  36  57  81 117 149 188 236 280 331
#     4  10  21  40  59  86 113 145 193 241 280 343
#     4   9  20  36  56  84 121 149 186 238 280 337
#     4   9  20  40  56  82 121 149 188 243 278 331
#     4  10  18  35  58  78 113 158 188 226 284 336
#     4  11  21  36  62  86 113 151 191 232 288 342
#
# _framework density 23.537461
#
# number of rings (size 3 to 8) (size 9 to 14) (size 15 to 20)
#    0.000    2.250    1.250    1.125    1.750    0.500 
#    0.000   14.375    0.000    0.000    0.000    0.000 
#    0.000    0.000    0.000    0.000    0.000    0.000 
#
# Total GULP energy -198332.765839 kJ/mol
# GULP energy per Si atom -12395.797865 kJ/mol
# Density = 2.348389 g / cm^3
# Si number density = 23.537461 Si / 1000 Ang^3
#
#
#
# Elastic Constant Matrix: (Units=GPa)
#
#
# Indices 1 2 3 4 5 6 
#
# 1 73.2791 19.5606 25.1461 17.6477 4.7594 5.1290
# 2 19.5606 61.5913 10.1651 31.2090 -3.8196 3.1163
# 3 25.1461 10.1651 106.6159 25.7095 -5.0464 11.1089
# 4 17.6477 31.2090 25.7095 26.0042 1.3908 -0.3085
# 5 4.7594 -3.8196 -5.0464 1.3908 35.0093 -1.8406
# 6 5.1290 3.1163 11.1089 -0.3085 -1.8406 32.3226
#
#
#
# Elastic Compliance Matrix: (Units=1/GPa)
#
#
# Indices 1 2 3 4 5 6 
#
# 1 0.016843 -0.000390 -0.001552 -0.009332 -0.002307 -0.002322
# 2 -0.000390 0.061987 0.018578 -0.093316 0.012545 -0.012476
# 3 -0.001552 0.018578 0.018812 -0.040265 0.006126 -0.008046
# 4 -0.009332 -0.093316 -0.040265 0.198024 -0.021269 0.024995
# 5 -0.002307 0.012545 0.006126 -0.021269 0.031904 -0.001335
# 6 -0.002322 -0.012476 -0.008046 0.024995 -0.001335 0.035437
#
#
# Mechanical properties :
#
#
# Convention : Reuss Voigt Hill
#
# Bulk Modulus (GPa) = 7.63863 39.02552 23.33207
# Shear Modulus (GPa) = 13.39138 31.10819 22.24978
#
# Velocity S-wave (km/s) = 2.38783 3.63939 3.07790
# Velocity P-wave (km/s) = 3.29464 5.85460 4.75032
#
# Compressibility (1/GPa) = 0.13091350
#
# Stress axis : x y z
#
# Youngs Moduli (GPa) = 59.37182 16.13238 53.15707
#
# Poissons Ratio (x) = 0.00629 0.08252
# Poissons Ratio (y) = 0.02315 -0.98755
# Poissons Ratio (z) = 0.09217 -0.29971
#
# Static dielectric constant tensor:
#      x y z
#    x 4.360840 0.268250 0.014970 
#    y 0.268250 3.763650 0.059340 
#    z 0.014970 0.059340 4.477370 
# 
# 
# High freq. dielectric constant tensor:
#      x y z
#    x 1.938500 0.024810 -0.008140 
#    y 0.024810 1.901990 0.001600 
#    z -0.008140 0.001600 1.949400 
# 
# From -- ./inp_files/273188.got.cif
#   From: 2010.06.25/outbox.cif.g09.slc.cpg/sg2_137_cif.got.tgz:273188.got - 2010.06.27 13:26:56.
