data_PCOD8039566
_publ_section_title
;
Structure prediction by ZEFSAII (Michael W. Deem and Ramdas Pophale) SiO2 
 PCOD8039566
Probable space group: P -1
;
_chemical_formula_sum "Si O2"
_cell_formula_units_Z 14
_cell_length_a 23.068316
_cell_length_b 10.133689
_cell_length_c 8.777271
_cell_angle_alpha 149.462059
_cell_angle_beta 134.520034
_cell_angle_gamma 41.491799
_cell_volume 681.080496
_symmetry_space_group_name_H-M "P -1"
_symmetry_group_IT_number 2
_symmetry_cell_setting 'triclinic'
loop_
_space_group_symop_operation_xyz
x,y,z
-x,-y,-z
loop_
_atom_site_type_symbol
_atom_site_label
_atom_site_fract_x
_atom_site_fract_y
_atom_site_fract_z
Si Si1 0.136695 0.620469 0.629517
Si Si2 0.601899 0.126552 0.572533
Si Si3 0.958373 0.750562 0.869542
Si Si4 0.676137 0.954613 0.207304
Si Si5 0.329798 0.459043 0.725171
Si Si6 0.132039 0.385386 0.694687
Si Si7 0.606489 0.546188 0.499831
O O1 0.225096 0.537406 0.611279
O O2 0.162095 0.559391 0.795512
O O3 0.082795 0.433667 0.289971
O O4 0.071739 0.945711 0.805813
O O5 0.498838 0.312498 0.552890
O O6 0.643078 0.988836 0.352486
O O7 0.617030 0.869663 0.460868
O O8 0.649982 0.327915 0.913816
O O9 0.065377 0.598317 0.907509
O O10 0.920208 0.781157 0.655130
O O11 0.782818 0.833908 0.278854
O O12 0.635752 0.246241 0.335022
O O13 0.645285 0.734121 0.850584
O O14 0.357806 0.506172 0.656492
#
# Coordination Sequence:
#
# PCOD8039566 Si02
#       7
#     2   2   2   2   2   2   2
#     4  10  18  34  56  89 111 147 200 250 288 336
#     4  12  23  44  66  87 116 167 218 249 288 360
#     4   9  19  31  58  92 114 143 203 260 279 338
#     4  12  24  40  63  91 129 156 201 254 314 357
#     4  12  23  41  67  88 122 162 211 250 294 365
#     4   9  20  33  59  88 118 150 198 251 295 345
#     4  12  27  41  59  93 129 162 195 256 317 360
#
# _framework density 20.555574
#
# number of rings (size 3 to 8) (size 9 to 14) (size 15 to 20)
#    0.857    0.286    1.429    6.429    2.000    0.000 
#    0.000    0.000    0.000    5.143    0.000    0.000 
#    0.000    0.000    0.000    0.000    0.000    0.000 
#
# Total GULP energy -173604.188798 kJ/mol
# GULP energy per Si atom -12400.299200 kJ/mol
# Density = 2.050879 g / cm^3
# Si number density = 20.555574 Si / 1000 Ang^3
#
#
#
# Elastic Constant Matrix: (Units=GPa)
#
#
# Indices 1 2 3 4 5 6 
#
# 1 77.9723 89.8920 54.5033 -6.3984 12.8780 -53.9066
# 2 89.8920 282.1061 92.6985 73.4626 42.3854 -33.8329
# 3 54.5033 92.6985 143.6792 42.9164 25.3828 -0.8976
# 4 -6.3984 73.4626 42.9164 42.6708 17.0268 -15.1431
# 5 12.8780 42.3854 25.3828 17.0268 39.5175 8.1408
# 6 -53.9066 -33.8329 -0.8976 -15.1431 8.1408 17.1056
#
#
#
# Elastic Compliance Matrix: (Units=1/GPa)
#
#
# Indices 1 2 3 4 5 6 
#
# 1 -0.000779 -0.001226 0.002437 -0.009214 0.007353 -0.016407
# 2 -0.001226 0.008477 -0.001704 -0.006906 -0.006657 0.009870
# 3 0.002437 -0.001704 0.008189 0.000068 -0.005814 0.007566
# 4 -0.009214 -0.006906 0.000068 0.022217 0.006138 -0.025945
# 5 0.007353 -0.006657 -0.005814 0.006138 0.031066 0.000350
# 6 -0.016407 0.009870 0.007566 -0.025945 0.000350 0.003541
#
#
# Mechanical properties :
#
#
# Convention : Reuss Voigt Hill
#
# Bulk Modulus (GPa) = 67.10505 108.66058 87.88282
# Shear Modulus (GPa) = 63.56021 37.63637 50.59829
#
# Velocity S-wave (km/s) = 5.56671 4.28361 4.96677
# Velocity P-wave (km/s) = 8.60432 8.80013 8.70278
#
# Compressibility (1/GPa) = 0.01490201
#
# Stress axis : x y z
#
# Youngs Moduli (GPa) = -1284.12696 117.96026 122.11230
#
# Poissons Ratio (x) = 0.14457 -0.29757
# Poissons Ratio (y) = -1.57376 0.20811
# Poissons Ratio (z) = 3.12921 0.20103
#
# Static dielectric constant tensor:
#      x y z
#    x 3.739530 -0.153580 0.057520 
#    y -0.153580 3.593510 0.144030 
#    z 0.057520 0.144030 3.692470 
# 
# 
# High freq. dielectric constant tensor:
#      x y z
#    x 1.812240 -0.020240 0.006050 
#    y -0.020240 1.788310 0.022080 
#    z 0.006050 0.022080 1.805690 
# 
# From -- ./inp_files/51544.got.cif
#   From: 2010.06.25/outbox.cif.g09.slc.cpg/sg2_26_cif.got.tgz:51544.got - 2010.06.27 13:26:56.
