data_PCOD8039047
_publ_section_title
;
Structure prediction by ZEFSAII (Michael W. Deem and Ramdas Pophale) SiO2 
 PCOD8039047
Probable space group: P -1
;
_chemical_formula_sum "Si O2"
_cell_formula_units_Z 16
_cell_length_a 25.347268
_cell_length_b 9.086548
_cell_length_c 25.671643
_cell_angle_alpha 152.727927
_cell_angle_beta 161.302996
_cell_angle_gamma 28.659580
_cell_volume 842.676140
_symmetry_space_group_name_H-M "P -1"
_symmetry_group_IT_number 2
_symmetry_cell_setting 'triclinic'
loop_
_space_group_symop_operation_xyz
x,y,z
-x,-y,-z
loop_
_atom_site_type_symbol
_atom_site_label
_atom_site_fract_x
_atom_site_fract_y
_atom_site_fract_z
Si Si1 0.584867 0.920519 0.156807
Si Si2 0.764311 0.684017 0.023123
Si Si3 0.658101 0.251262 0.435796
Si Si4 0.121544 0.409171 0.315386
Si Si5 0.363950 0.788070 0.317989
Si Si6 0.180896 0.765321 0.586001
Si Si7 0.191326 0.692207 0.785072
Si Si8 0.834892 0.606179 0.445084
O O1 0.641557 0.522182 0.095638
O O2 0.635094 0.079310 0.306084
O O3 0.683957 0.017637 0.230563
O O4 0.384535 0.062273 0.003793
O O5 0.918923 0.525974 0.156535
O O6 0.812769 0.915593 0.094921
O O7 0.701214 0.371849 0.844192
O O8 0.797906 0.457009 0.618017
O O9 0.478607 0.478811 0.360591
O O10 0.726923 0.983272 0.459825
O O11 0.176288 0.528350 0.458634
O O12 0.198416 0.008621 0.261675
O O13 0.500000 0.000000 0.500000
O O14 0.238381 0.549689 0.623313
O O15 0.000000 0.000000 0.500000
O O16 0.183679 0.602726 0.688913
O O17 0.031140 0.610188 0.638730
#
# Coordination Sequence:
#
# PCOD8039047 Si02
#       8
#     2   2   2   2   2   2   2   2
#     4   9  19  32  51  80 112 139 173 216 264 316
#     4  11  19  32  57  83 108 137 180 226 266 308
#     4   8  16  33  55  79 102 135 184 220 255 311
#     4  10  19  33  54  81 106 139 180 221 265 314
#     4   9  19  35  56  81 103 135 181 233 268 307
#     4  11  20  34  55  79 111 150 174 210 267 324
#     4  10  18  32  54  82 109 140 181 219 256 317
#     4  10  18  32  56  81 108 145 180 211 262 320
#
# _framework density 18.987128999999999
#
# number of rings (size 3 to 8) (size 9 to 14) (size 15 to 20)
#    0.000    2.250    2.500    2.250    0.000    0.000 
#    0.000    3.125    5.500    0.750    0.000    0.000 
#    0.000    0.000    0.000    0.000    0.000    0.000 
#
# Total GULP energy -198236.846208 kJ/mol
# GULP energy per Si atom -12389.802888 kJ/mol
# Density = 1.894391 g / cm^3
# Si number density = 18.987129 Si / 1000 Ang^3
#
#
#
# Elastic Constant Matrix: (Units=GPa)
#
#
# Indices 1 2 3 4 5 6 
#
# 1 75.4732 37.1487 12.4445 -6.4498 11.5375 17.8201
# 2 37.1487 129.8618 16.3822 -23.5797 0.5625 0.6391
# 3 12.4445 16.3822 56.5523 -6.8648 10.2042 4.0704
# 4 -6.4498 -23.5797 -6.8648 39.8745 -3.5482 5.1750
# 5 11.5375 0.5625 10.2042 -3.5482 19.7085 -1.4327
# 6 17.8201 0.6391 4.0704 5.1750 -1.4327 24.0276
#
#
#
# Elastic Compliance Matrix: (Units=1/GPa)
#
#
# Indices 1 2 3 4 5 6 
#
# 1 0.022793 -0.006270 0.000896 0.001161 -0.014729 -0.018018
# 2 -0.006270 0.010638 -0.002456 0.004840 0.005807 0.004087
# 3 0.000896 -0.002456 0.020845 0.001956 -0.011275 -0.005224
# 4 0.001161 0.004840 0.001956 0.029708 0.002970 -0.007543
# 5 -0.014729 0.005807 -0.011275 0.002970 0.066733 0.016019
# 6 -0.018018 0.004087 -0.005224 -0.007543 0.016019 0.058338
#
#
# Mechanical properties :
#
#
# Convention : Reuss Voigt Hill
#
# Bulk Modulus (GPa) = 25.89653 43.75979 34.82816
# Shear Modulus (GPa) = 21.04491 29.78291 25.41391
#
# Velocity S-wave (km/s) = 3.33284 3.96483 3.66249
# Velocity P-wave (km/s) = 5.33658 6.63754 6.02229
#
# Compressibility (1/GPa) = 0.03861521
#
# Stress axis : x y z
#
# Youngs Moduli (GPa) = 43.87249 94.00705 47.97338
#
# Poissons Ratio (x) = 0.58943 -0.04299
# Poissons Ratio (y) = 0.27508 0.11784
# Poissons Ratio (z) = -0.03931 0.23091
#
# Static dielectric constant tensor:
#      x y z
#    x 3.295230 0.023980 0.242300 
#    y 0.023980 4.094230 -0.084530 
#    z 0.242300 -0.084530 3.457340 
# 
# 
# High freq. dielectric constant tensor:
#      x y z
#    x 1.682230 0.002990 0.020080 
#    y 0.002990 1.758620 -0.011230 
#    z 0.020080 -0.011230 1.733600 
# 
# From -- ./inp_files/197487.got.cif
#   From: 2010.06.25/outbox.cif.g09.slc.cpg/sg2_99_cif.got.tgz:197487.got - 2010.06.27 13:26:56.
