data_PCOD8039790
_publ_section_title
;
Structure prediction by ZEFSAII (Michael W. Deem and Ramdas Pophale) SiO2 
 PCOD8039790
Probable space group: P -1
;
_chemical_formula_sum "Si O2"
_cell_formula_units_Z 16
_cell_length_a 12.368440
_cell_length_b 8.774258
_cell_length_c 14.361502
_cell_angle_alpha 49.359020
_cell_angle_beta 133.367559
_cell_angle_gamma 132.367403
_cell_volume 783.827293
_symmetry_space_group_name_H-M "P -1"
_symmetry_group_IT_number 2
_symmetry_cell_setting 'triclinic'
loop_
_space_group_symop_operation_xyz
x,y,z
-x,-y,-z
loop_
_atom_site_type_symbol
_atom_site_label
_atom_site_fract_x
_atom_site_fract_y
_atom_site_fract_z
Si Si1 0.769396 0.349778 0.183091
Si Si2 0.969343 0.412096 0.618687
Si Si3 0.334816 0.519106 0.600647
Si Si4 0.846397 0.792498 0.950621
Si Si5 0.908613 0.956240 0.724985
Si Si6 0.493427 0.767794 0.781089
Si Si7 0.881200 0.989586 0.346997
Si Si8 0.563156 0.897579 0.494050
O O1 0.595158 0.319124 0.136995
O O2 0.904870 0.394896 0.323343
O O3 0.768438 0.125497 0.230059
O O4 0.833975 0.554421 0.068899
O O5 0.785438 0.371166 0.549899
O O6 0.000000 0.500000 0.500000
O O7 0.003504 0.193797 0.736366
O O8 0.398333 0.588980 0.716017
O O9 0.250570 0.258359 0.646647
O O10 0.480447 0.631088 0.566275
O O11 0.859868 0.782021 0.850084
O O12 0.682701 0.814627 0.878062
O O13 0.000000 0.000000 0.000000
O O14 0.755088 0.970752 0.577372
O O15 0.014914 0.914882 0.723628
O O16 0.481950 0.003410 0.664784
O O17 0.000000 0.000000 0.500000
O O18 0.500000 0.000000 0.500000
#
# Coordination Sequence:
#
# PCOD8039790 Si02
#       8
#     2   2   2   2   2   2   2   2
#     4  12  25  41  62  95 132 171 216 258 318 395
#     4  12  17  34  67  96 117 158 215 270 313 362
#     4  11  20  35  66  97 126 162 206 267 327 369
#     4  12  26  42  69  96 125 169 225 271 313 376
#     4  12  21  41  66  98 130 166 212 266 329 378
#     4  11  21  43  69  95 125 164 220 277 313 366
#     4  12  25  40  64  98 135 169 208 260 332 392
#     4  10  18  34  67  96 119 153 210 277 319 358
#
# _framework density 20.412659999999999
#
# number of rings (size 3 to 8) (size 9 to 14) (size 15 to 20)
#    0.000    0.500   10.000    1.125    0.000    0.500 
#    0.000    4.375    0.000    0.000    0.000    0.000 
#    0.000    0.000    0.000    0.000    0.000    0.000 
#
# Total GULP energy -198250.309107 kJ/mol
# GULP energy per Si atom -12390.644319 kJ/mol
# Density = 2.036620 g / cm^3
# Si number density = 20.412660 Si / 1000 Ang^3
#
#
#
# Elastic Constant Matrix: (Units=GPa)
#
#
# Indices 1 2 3 4 5 6 
#
# 1 107.0010 57.9520 38.0222 -6.7891 -2.1700 8.4650
# 2 57.9520 107.6211 44.5518 -15.4733 3.7474 10.7217
# 3 38.0222 44.5518 93.5614 -18.3680 -3.3918 1.6206
# 4 -6.7891 -15.4733 -18.3680 36.8817 14.4950 1.2311
# 5 -2.1700 3.7474 -3.3918 14.4950 33.4221 -3.0087
# 6 8.4650 10.7217 1.6206 1.2311 -3.0087 27.2983
#
#
#
# Elastic Compliance Matrix: (Units=1/GPa)
#
#
# Indices 1 2 3 4 5 6 
#
# 1 0.013955 -0.006646 -0.002902 -0.002552 0.002358 -0.001170
# 2 -0.006646 0.016013 -0.003878 0.005943 -0.005638 -0.004888
# 3 -0.002902 -0.003878 0.014717 0.005301 -0.000446 0.001261
# 4 -0.002552 0.005943 0.005301 0.038907 -0.017668 -0.005559
# 5 0.002358 -0.005638 -0.000446 -0.017668 0.038917 0.006595
# 6 -0.001170 -0.004888 0.001261 -0.005559 0.006595 0.039818
#
#
# Mechanical properties :
#
#
# Convention : Reuss Voigt Hill
#
# Bulk Modulus (GPa) = 56.07080 65.47060 60.77070
# Shear Modulus (GPa) = 25.62531 30.69760 28.16145
#
# Velocity S-wave (km/s) = 3.54695 3.88216 3.71834
# Velocity P-wave (km/s) = 6.65603 7.22759 6.94769
#
# Compressibility (1/GPa) = 0.01783459
#
# Stress axis : x y z
#
# Youngs Moduli (GPa) = 71.66146 62.44857 67.95054
#
# Poissons Ratio (x) = 0.41500 0.19718
# Poissons Ratio (y) = 0.47623 0.26348
# Poissons Ratio (z) = 0.20795 0.24215
#
# Static dielectric constant tensor:
#      x y z
#    x 3.750570 0.459960 -0.244420 
#    y 0.459960 3.861380 -0.068850 
#    z -0.244420 -0.068850 3.490370 
# 
# 
# High freq. dielectric constant tensor:
#      x y z
#    x 1.792040 0.031780 -0.005290 
#    y 0.031780 1.792190 -0.011910 
#    z -0.005290 -0.011910 1.789900 
# 
# From -- ./inp_files/271484.got.cif
#   From: 2010.06.25/outbox.cif.g09.slc.cpg/sg2_136_cif.got.tgz:271484.got - 2010.06.27 13:26:56.
