data_PCOD8039017
_publ_section_title
;
Structure prediction by ZEFSAII (Michael W. Deem and Ramdas Pophale) SiO2 
 PCOD8039017
Probable space group: P -1
;
_chemical_formula_sum "Si O2"
_cell_formula_units_Z 16
_cell_length_a 16.114826
_cell_length_b 13.516967
_cell_length_c 5.306817
_cell_angle_alpha 101.321261
_cell_angle_beta 60.397798
_cell_angle_gamma 130.800283
_cell_volume 746.653706
_symmetry_space_group_name_H-M "P -1"
_symmetry_group_IT_number 2
_symmetry_cell_setting 'triclinic'
loop_
_space_group_symop_operation_xyz
x,y,z
-x,-y,-z
loop_
_atom_site_type_symbol
_atom_site_label
_atom_site_fract_x
_atom_site_fract_y
_atom_site_fract_z
Si Si1 0.186566 0.952124 0.946218
Si Si2 0.722427 0.178966 0.755842
Si Si3 0.512397 0.375439 0.169116
Si Si4 0.309411 0.069383 0.320580
Si Si5 0.078192 0.328504 0.796961
Si Si6 0.643294 0.129065 0.349592
Si Si7 0.008128 0.386469 0.431042
Si Si8 0.358382 0.470697 0.447781
O O1 0.261915 0.899639 0.806952
O O2 0.227120 0.040996 0.678352
O O3 0.036726 0.830044 0.109937
O O4 0.227118 0.040994 0.181299
O O5 0.679993 0.215052 0.592373
O O6 0.867263 0.245780 0.571993
O O7 0.649056 0.020489 0.786658
O O8 0.679992 0.215052 0.082703
O O9 0.439410 0.219538 0.200659
O O10 0.409915 0.393323 0.331786
O O11 0.597227 0.439050 0.324464
O O12 0.597216 0.439035 0.822882
O O13 0.207677 0.356113 0.616534
O O14 0.077520 0.397780 0.584047
O O15 0.077522 0.397779 0.081171
O O16 0.500000 0.000000 0.500000
O O17 0.000000 0.500000 0.500000
#
# Coordination Sequence:
#
# PCOD8039017 Si02
#       8
#     2   2   2   2   2   2   2   2
#     4  10  19  35  59  86 116 159 192 253 307 358
#     4  10  19  37  52  79 110 153 186 243 305 339
#     4  10  21  42  62  94 128 157 209 247 311 368
#     4  10  18  35  63  83 117 159 190 242 308 356
#     4  12  21  43  64  88 123 165 210 250 320 367
#     4  10  18  32  53  77 106 149 190 235 300 354
#     4  12  23  40  62  85 123 165 205 258 306 366
#     4  10  23  40  66  90 126 168 196 260 302 373
#
# _framework density 21.428941999999999
#
# number of rings (size 3 to 8) (size 9 to 14) (size 15 to 20)
#    0.000    1.500    5.000    2.250    0.000    0.000 
#    0.000   16.250    0.000    0.000    0.000    0.000 
#    0.000    0.000    0.000    0.000    0.000    0.000 
#
# Total GULP energy -198325.022660 kJ/mol
# GULP energy per Si atom -12395.313916 kJ/mol
# Density = 2.138017 g / cm^3
# Si number density = 21.428942 Si / 1000 Ang^3
#
#
#
# Elastic Constant Matrix: (Units=GPa)
#
#
# Indices 1 2 3 4 5 6 
#
# 1 65.1721 19.9422 64.3425 2.5338 11.1990 35.1362
# 2 19.9422 70.7157 35.5720 -8.0682 8.7519 15.8587
# 3 64.3425 35.5720 159.7915 14.1531 37.3981 40.8501
# 4 2.5338 -8.0682 14.1531 31.8241 22.5523 2.7170
# 5 11.1990 8.7519 37.3981 22.5523 48.5528 1.3120
# 6 35.1362 15.8587 40.8501 2.7170 1.3120 32.9715
#
#
#
# Elastic Compliance Matrix: (Units=1/GPa)
#
#
# Indices 1 2 3 4 5 6 
#
# 1 0.044161 0.002154 -0.006829 0.009671 -0.008723 -0.040086
# 2 0.002154 0.018938 -0.001809 0.011729 -0.007700 -0.009824
# 3 -0.006829 -0.001809 0.013483 0.000969 -0.008710 -0.008291
# 4 0.009671 0.011729 0.000969 0.056896 -0.030963 -0.020605
# 5 -0.008723 -0.007700 -0.008710 -0.030963 0.044423 0.024575
# 6 -0.040086 -0.009824 -0.008291 -0.020605 0.024575 0.088763
#
#
# Mechanical properties :
#
#
# Convention : Reuss Voigt Hill
#
# Bulk Modulus (GPa) = 15.71956 59.48804 37.60380
# Shear Modulus (GPa) = 16.62033 34.39118 25.50575
#
# Velocity S-wave (km/s) = 2.78798 4.01046 3.45374
# Velocity P-wave (km/s) = 4.20897 7.01897 5.78711
#
# Compressibility (1/GPa) = 0.06361502
#
# Stress axis : x y z
#
# Youngs Moduli (GPa) = 22.64426 52.80461 74.16916
#
# Poissons Ratio (x) = -0.11375 0.50650
# Poissons Ratio (y) = -0.04878 0.13414
# Poissons Ratio (z) = 0.15464 0.09550
#
# Static dielectric constant tensor:
#      x y z
#    x 4.398690 0.906210 0.704980 
#    y 0.906210 4.011870 0.230480 
#    z 0.704980 0.230480 5.570040 
# 
# 
# High freq. dielectric constant tensor:
#      x y z
#    x 1.818590 0.039920 0.026100 
#    y 0.039920 1.819600 0.000250 
#    z 0.026100 0.000250 1.869010 
# 
# From -- ./inp_files/110550.got.cif
#   From: 2010.06.25/outbox.cif.g09.slc.cpg/sg2_56_cif.got.tgz:110550.got - 2010.06.27 13:26:56.
