data_PCOD8039548
_publ_section_title
;
Structure prediction by ZEFSAII (Michael W. Deem and Ramdas Pophale) SiO2 
 PCOD8039548
Probable space group: P -1
;
_chemical_formula_sum "Si O2"
_cell_formula_units_Z 16
_cell_length_a 11.476269
_cell_length_b 14.688488
_cell_length_c 13.180013
_cell_angle_alpha 48.335758
_cell_angle_beta 33.227429
_cell_angle_gamma 61.855289
_cell_volume 889.958524
_symmetry_space_group_name_H-M "P -1"
_symmetry_group_IT_number 2
_symmetry_cell_setting 'triclinic'
loop_
_space_group_symop_operation_xyz
x,y,z
-x,-y,-z
loop_
_atom_site_type_symbol
_atom_site_label
_atom_site_fract_x
_atom_site_fract_y
_atom_site_fract_z
Si Si1 0.101545 0.976533 0.074194
Si Si2 0.327186 0.884733 0.167994
Si Si3 0.645319 0.939483 0.361823
Si Si4 0.723937 0.244397 0.337702
Si Si5 0.629978 0.707811 0.078448
Si Si6 0.949760 0.137032 0.425605
Si Si7 0.506370 0.556790 0.563972
Si Si8 0.862377 0.746842 0.089577
O O1 0.197408 0.922946 0.140797
O O2 0.253807 0.966375 0.873123
O O3 0.852504 0.902482 0.294759
O O4 0.086569 0.119567 0.994968
O O5 0.442163 0.775849 0.128176
O O6 0.158894 0.828652 0.418820
O O7 0.500000 0.000000 0.000000
O O8 0.500000 0.000000 0.500000
O O9 0.495366 0.816360 0.515873
O O10 0.791134 0.143019 0.440655
O O11 0.680843 0.363781 0.342115
O O12 0.917041 0.290251 0.082801
O O13 0.541227 0.559596 0.237411
O O14 0.694371 0.746458 0.119077
O O15 0.836419 0.755545 0.821280
O O16 0.000000 0.000000 0.500000
O O17 0.500000 0.500000 0.500000
O O18 0.745897 0.646401 0.332938
#
# Coordination Sequence:
#
# PCOD8039548 Si02
#       8
#     2   2   2   2   2   2   2   2
#     4  11  22  36  56  89 114 145 190 231 285 346
#     4  12  20  34  58  81 117 149 174 230 295 336
#     4  11  23  36  58  84 115 148 192 234 281 330
#     4  11  21  36  58  83 119 151 187 238 279 332
#     4  10  22  33  51  86 113 148 185 219 279 350
#     4  11  21  32  55  85 116 147 182 223 293 348
#     4  10  21  35  54  79 117 155 191 227 277 339
#     4  10  18  34  56  81 114 148 186 227 280 335
#
# _framework density 17.978366000000001
#
# number of rings (size 3 to 8) (size 9 to 14) (size 15 to 20)
#    0.000    1.250    5.000    3.000    0.000    5.500 
#    0.000    0.000    0.000    0.750    0.000    2.625 
#    0.000    0.000    0.000    0.000    0.000    0.000 
#
# Total GULP energy -198350.475484 kJ/mol
# GULP energy per Si atom -12396.904718 kJ/mol
# Density = 1.793745 g / cm^3
# Si number density = 17.978366 Si / 1000 Ang^3
#
#
#
# Elastic Constant Matrix: (Units=GPa)
#
#
# Indices 1 2 3 4 5 6 
#
# 1 90.1944 34.0157 52.3514 2.5640 -9.7451 -11.2816
# 2 34.0157 113.5446 62.3218 4.4684 -4.1469 -5.0810
# 3 52.3514 62.3218 152.6581 11.7090 5.1158 -13.1139
# 4 2.5640 4.4684 11.7090 37.2610 2.6609 7.0518
# 5 -9.7451 -4.1469 5.1158 2.6609 25.4516 6.8441
# 6 -11.2816 -5.0810 -13.1139 7.0518 6.8441 22.5318
#
#
#
# Elastic Compliance Matrix: (Units=1/GPa)
#
#
# Indices 1 2 3 4 5 6 
#
# 1 0.015347 -0.001812 -0.004410 -0.000450 0.005674 0.003126
# 2 -0.001812 0.011797 -0.004443 0.000243 0.002549 -0.001683
# 3 -0.004410 -0.004443 0.010828 -0.003264 -0.005830 0.005884
# 4 -0.000450 0.000243 -0.003264 0.030028 0.000509 -0.011622
# 5 0.005674 0.002549 -0.005830 0.000509 0.046861 -0.014371
# 6 0.003126 -0.001683 0.005884 -0.011622 -0.014371 0.056995
#
#
# Mechanical properties :
#
#
# Convention : Reuss Voigt Hill
#
# Bulk Modulus (GPa) = 60.09300 72.64165 66.36732
# Shear Modulus (GPa) = 25.15907 30.89609 28.02758
#
# Velocity S-wave (km/s) = 3.74492 4.14999 3.95265
# Velocity P-wave (km/s) = 7.22475 7.96593 7.60438
#
# Compressibility (1/GPa) = 0.01664087
#
# Stress axis : x y z
#
# Youngs Moduli (GPa) = 65.15775 84.76743 92.35175
#
# Poissons Ratio (x) = 0.15361 0.40731
# Poissons Ratio (y) = 0.11808 0.41034
# Poissons Ratio (z) = 0.28737 0.37664
#
# Static dielectric constant tensor:
#      x y z
#    x 3.416760 0.445010 -0.233700 
#    y 0.445010 4.281750 -0.437630 
#    z -0.233700 -0.437630 4.200060 
# 
# 
# High freq. dielectric constant tensor:
#      x y z
#    x 1.662430 0.001520 0.000340 
#    y 0.001520 1.688490 0.021670 
#    z 0.000340 0.021670 1.716380 
# 
# From -- ./inp_files/433117.got.cif
#   From: 2010.06.25/outbox.cif.g09.slc.cpg/sg2_217_cif.got.tgz:433117.got - 2010.06.27 13:26:56.
