data_PCOD8039378
_publ_section_title
;
Structure prediction by ZEFSAII (Michael W. Deem and Ramdas Pophale) SiO2 
 PCOD8039378
Probable space group: P -1
;
_chemical_formula_sum "Si O2"
_cell_formula_units_Z 16
_cell_length_a 9.865449
_cell_length_b 9.124380
_cell_length_c 15.764897
_cell_angle_alpha 47.601241
_cell_angle_beta 107.826602
_cell_angle_gamma 75.887000
_cell_volume 766.173538
_symmetry_space_group_name_H-M "P -1"
_symmetry_group_IT_number 2
_symmetry_cell_setting 'triclinic'
loop_
_space_group_symop_operation_xyz
x,y,z
-x,-y,-z
loop_
_atom_site_type_symbol
_atom_site_label
_atom_site_fract_x
_atom_site_fract_y
_atom_site_fract_z
Si Si1 0.601905 0.277724 0.731261
Si Si2 0.568856 0.997709 0.420989
Si Si3 0.834163 0.710339 0.990020
Si Si4 0.814705 0.791515 0.768689
Si Si5 0.287241 0.484096 0.457281
Si Si6 0.675656 0.440890 0.102762
Si Si7 0.930376 0.101979 0.615909
Si Si8 0.674759 0.342902 0.328330
O O1 0.471907 0.313373 0.616854
O O2 0.719369 0.348362 0.684327
O O3 0.494469 0.454601 0.722276
O O4 0.732301 0.985393 0.908526
O O5 0.720509 0.718203 0.514791
O O6 0.500000 0.000000 0.500000
O O7 0.374498 0.159424 0.271753
O O8 0.665381 0.122168 0.385982
O O9 0.892371 0.744966 0.896074
O O10 0.701211 0.636303 0.992666
O O11 0.035267 0.461671 0.163350
O O12 0.793246 0.034716 0.633714
O O13 0.114106 0.681802 0.409931
O O14 0.653289 0.487722 0.181577
O O15 0.500000 0.500000 0.000000
O O16 0.854917 0.141603 0.238271
O O17 0.869455 0.218690 0.462779
#
# Coordination Sequence:
#
# PCOD8039378 Si02
#       8
#     2   2   2   2   2   2   2   2
#     4  10  18  35  60  91 117 151 193 247 296 354
#     4  12  19  33  59  93 122 144 188 251 298 337
#     4  10  20  35  60  82 118 157 194 234 289 364
#     4  10  18  33  58  92 114 149 193 241 297 346
#     4  10  18  33  60  93 117 144 195 253 304 337
#     4  11  25  42  60  84 123 166 198 236 297 363
#     4  10  20  40  66  88 114 154 206 250 288 349
#     4  11  23  38  63  90 123 157 199 242 294 354
#
# _framework density 20.882995999999999
#
# number of rings (size 3 to 8) (size 9 to 14) (size 15 to 20)
#    0.000    1.500    5.000    1.875    0.000    0.500 
#    0.000    2.500    2.750    0.000    0.000    0.000 
#    0.000    0.000    0.000    0.000    0.000    0.000 
#
# Total GULP energy -198231.336741 kJ/mol
# GULP energy per Si atom -12389.458546 kJ/mol
# Density = 2.083547 g / cm^3
# Si number density = 20.882996 Si / 1000 Ang^3
#
#
#
# Elastic Constant Matrix: (Units=GPa)
#
#
# Indices 1 2 3 4 5 6 
#
# 1 55.9047 27.7350 23.2017 -4.5092 6.3352 -2.8604
# 2 27.7350 142.2356 52.8432 -22.1877 1.5617 -3.0570
# 3 23.2017 52.8432 84.6953 -10.8300 1.4116 -3.4743
# 4 -4.5092 -22.1877 -10.8300 40.3868 -6.3416 -8.9312
# 5 6.3352 1.5617 1.4116 -6.3416 30.9070 0.0403
# 6 -2.8604 -3.0570 -3.4743 -8.9312 0.0403 22.1201
#
#
#
# Elastic Compliance Matrix: (Units=1/GPa)
#
#
# Indices 1 2 3 4 5 6 
#
# 1 0.021432 -0.002629 -0.004158 -0.000473 -0.004169 0.001572
# 2 -0.002629 0.010132 -0.004944 0.004608 0.001195 0.002142
# 3 -0.004158 -0.004944 0.016329 0.001765 0.000716 0.002055
# 4 -0.000473 0.004608 0.001765 0.031716 0.006273 0.013647
# 5 -0.004169 0.001195 0.000716 0.006273 0.034401 0.002209
# 6 0.001572 0.002142 0.002055 0.013647 0.002209 0.051536
#
#
# Mechanical properties :
#
#
# Convention : Reuss Voigt Hill
#
# Bulk Modulus (GPa) = 40.93041 54.48838 47.70940
# Shear Modulus (GPa) = 25.36144 30.61983 27.99063
#
# Velocity S-wave (km/s) = 3.48868 3.83333 3.66506
# Velocity P-wave (km/s) = 5.98918 6.76324 6.38795
#
# Compressibility (1/GPa) = 0.02443171
#
# Stress axis : x y z
#
# Youngs Moduli (GPa) = 46.65928 98.69938 61.24156
#
# Poissons Ratio (x) = 0.25945 0.25462
# Poissons Ratio (y) = 0.12265 0.30278
# Poissons Ratio (z) = 0.19399 0.48798
#
# Static dielectric constant tensor:
#      x y z
#    x 1.788410 -0.302340 -1.606480 
#    y -0.302340 3.900290 -0.268390 
#    z -1.606480 -0.268390 2.694890 
# 
# 
# High freq. dielectric constant tensor:
#      x y z
#    x 1.786250 -0.016840 -0.008060 
#    y -0.016840 1.819500 -0.013450 
#    z -0.008060 -0.013450 1.818580 
# 
# From -- ./inp_files/318905.got.cif
#   From: 2010.06.25/outbox.cif.g09.slc.cpg/sg2_160_cif.got.tgz:318905.got - 2010.06.27 13:26:56.
