data_PCOD8039514
_publ_section_title
;
Structure prediction by ZEFSAII (Michael W. Deem and Ramdas Pophale) SiO2 
 PCOD8039514
Probable space group: P -1
;
_chemical_formula_sum "Si O2"
_cell_formula_units_Z 16
_cell_length_a 9.456361
_cell_length_b 18.828218
_cell_length_c 9.247411
_cell_angle_alpha 49.690385
_cell_angle_beta 132.823180
_cell_angle_gamma 113.233926
_cell_volume 917.856585
_symmetry_space_group_name_H-M "P -1"
_symmetry_group_IT_number 2
_symmetry_cell_setting 'triclinic'
loop_
_space_group_symop_operation_xyz
x,y,z
-x,-y,-z
loop_
_atom_site_type_symbol
_atom_site_label
_atom_site_fract_x
_atom_site_fract_y
_atom_site_fract_z
Si Si1 0.177220 0.843733 0.075702
Si Si2 0.433144 0.226087 0.184209
Si Si3 0.532644 0.392779 0.201954
Si Si4 0.255428 0.223058 0.749323
Si Si5 0.161838 0.751022 0.480603
Si Si6 0.812436 0.834737 0.662114
Si Si7 0.565140 0.715853 0.468925
Si Si8 0.715619 0.961112 0.175324
O O1 0.102286 0.816331 0.216836
O O2 0.391674 0.797030 0.257246
O O3 0.030845 0.808565 0.901079
O O4 0.166119 0.956003 0.913526
O O5 0.394872 0.330874 0.089923
O O6 0.666937 0.201760 0.373938
O O7 0.333700 0.153885 0.316184
O O8 0.344241 0.222034 0.970693
O O9 0.755109 0.352817 0.378859
O O10 0.488803 0.378153 0.362871
O O11 0.500000 0.500000 0.000000
O O12 0.373630 0.296226 0.640672
O O13 0.279378 0.120577 0.832301
O O14 0.028272 0.258220 0.544107
O O15 0.754164 0.750860 0.631022
O O16 0.802610 0.928183 0.434858
O O17 0.500000 0.000000 0.000000
#
# Coordination Sequence:
#
# PCOD8039514 Si02
#       8
#     2   2   2   2   2   2   2   2
#     4  11  18  36  55  76 106 150 192 225 259 321
#     4   9  19  36  57  78 111 142 174 224 281 322
#     4   8  17  39  63  80 107 142 177 221 268 335
#     4  11  20  36  55  79 111 149 177 223 279 314
#     4   9  20  35  58  78 113 138 179 223 282 317
#     4  10  18  34  55  75 104 149 185 222 268 324
#     4   9  20  35  58  78 113 144 178 225 272 322
#     4  11  21  36  52  77 114 145 193 231 255 311
#
# _framework density 17.431916000000001
#
# number of rings (size 3 to 8) (size 9 to 14) (size 15 to 20)
#    0.750    1.500    5.000    0.375    0.000    2.500 
#    2.250    3.125    0.000    0.000    0.000    0.000 
#    0.000    0.000    0.000    0.000    0.000    0.000 
#
# Total GULP energy -198219.530243 kJ/mol
# GULP energy per Si atom -12388.720640 kJ/mol
# Density = 1.739224 g / cm^3
# Si number density = 17.431916 Si / 1000 Ang^3
#
#
#
# Elastic Constant Matrix: (Units=GPa)
#
#
# Indices 1 2 3 4 5 6 
#
# 1 99.9101 28.0505 43.8898 -11.2874 -16.9004 -8.2533
# 2 28.0505 57.1801 50.8422 -0.4682 -4.0896 1.2482
# 3 43.8898 50.8422 105.4142 -4.2501 -16.3324 2.8768
# 4 -11.2874 -0.4682 -4.2501 37.5358 5.3751 -5.5050
# 5 -16.9004 -4.0896 -16.3324 5.3751 31.1693 3.5426
# 6 -8.2533 1.2482 2.8768 -5.5050 3.5426 16.1549
#
#
#
# Elastic Compliance Matrix: (Units=1/GPa)
#
#
# Indices 1 2 3 4 5 6 
#
# 1 0.014633 -0.003689 -0.003821 0.004772 0.003570 0.009285
# 2 -0.003689 0.032069 -0.014756 -0.001838 -0.005065 -0.001250
# 3 -0.003821 -0.014756 0.019412 -0.001049 0.007046 -0.006172
# 4 0.004772 -0.001838 -0.001049 0.030781 -0.005147 0.014385
# 5 0.003570 -0.005065 0.007046 -0.005147 0.038995 -0.009345
# 6 0.009285 -0.001250 -0.006172 0.014385 -0.009345 0.074791
#
#
# Mechanical properties :
#
#
# Convention : Reuss Voigt Hill
#
# Bulk Modulus (GPa) = 46.33577 56.45216 51.39396
# Shear Modulus (GPa) = 19.05434 26.28680 22.67057
#
# Velocity S-wave (km/s) = 3.30975 3.88747 3.61019
# Velocity P-wave (km/s) = 6.42220 7.25290 6.85015
#
# Compressibility (1/GPa) = 0.02158160
#
# Stress axis : x y z
#
# Youngs Moduli (GPa) = 68.33664 31.18322 51.51450
#
# Poissons Ratio (x) = 0.11504 0.19685
# Poissons Ratio (y) = 0.25211 0.76013
# Poissons Ratio (z) = 0.26113 0.46013
#
# Static dielectric constant tensor:
#      x y z
#    x 3.497790 0.081710 -0.245520 
#    y 0.081710 2.969900 0.162870 
#    z -0.245520 0.162870 3.298050 
# 
# 
# High freq. dielectric constant tensor:
#      x y z
#    x 1.679260 0.015750 -0.012580 
#    y 0.015750 1.632450 0.019470 
#    z -0.012580 0.019470 1.674200 
# 
# From -- ./inp_files/216846.got.cif
#   From: 2010.06.25/outbox.cif.g09.slc.cpg/sg2_109_cif.got.tgz:216846.got - 2010.06.27 13:26:56.
