data_PCOD8039640
_publ_section_title
;
Structure prediction by ZEFSAII (Michael W. Deem and Ramdas Pophale) SiO2 
 PCOD8039640
Probable space group: P -1
;
_chemical_formula_sum "Si O2"
_cell_formula_units_Z 16
_cell_length_a 15.568274
_cell_length_b 12.288870
_cell_length_c 12.296259
_cell_angle_alpha 45.419243
_cell_angle_beta 53.302484
_cell_angle_gamma 27.413632
_cell_volume 769.118967
_symmetry_space_group_name_H-M "P -1"
_symmetry_group_IT_number 2
_symmetry_cell_setting 'triclinic'
loop_
_space_group_symop_operation_xyz
x,y,z
-x,-y,-z
loop_
_atom_site_type_symbol
_atom_site_label
_atom_site_fract_x
_atom_site_fract_y
_atom_site_fract_z
Si Si1 0.337155 0.305660 0.049942
Si Si2 0.566370 0.132749 0.643271
Si Si3 0.203282 0.859216 0.063161
Si Si4 0.520481 0.552240 0.686526
Si Si5 0.802348 0.033284 0.689869
Si Si6 0.237203 0.123977 0.979603
Si Si7 0.197940 0.770477 0.890705
Si Si8 0.192408 0.505623 0.780933
O O1 0.338839 0.143670 0.226818
O O2 0.542805 0.118109 0.994503
O O3 0.251918 0.530152 0.039330
O O4 0.212682 0.446000 0.936181
O O5 0.523951 0.227599 0.482892
O O6 0.709467 0.095618 0.602790
O O7 0.380093 0.364766 0.693979
O O8 0.377743 0.565408 0.191249
O O9 0.229982 0.829273 0.934583
O O10 0.020228 0.976608 0.154913
O O11 0.192769 0.049760 0.972958
O O12 0.667092 0.305595 0.664683
O O13 0.324166 0.690830 0.753011
O O14 0.022669 0.823325 0.657686
O O15 0.839431 0.838920 0.871886
O O16 0.158538 0.383880 0.827339
#
# Coordination Sequence:
#
# PCOD8039640 Si02
#       8
#     2   2   2   2   2   2   2   2
#     4  11  19  36  62  87 116 155 193 238 283 334
#     4  11  23  36  53  88 125 156 186 230 292 348
#     4  10  23  39  66  87 105 151 201 242 293 330
#     4  11  23  39  58  84 124 151 188 238 293 348
#     4  11  20  33  57  85 115 163 189 229 284 334
#     4  10  18  34  58  89 114 145 191 245 280 327
#     4  11  22  41  66  85 110 145 203 250 279 345
#     4  11  21  35  58  88 123 150 198 237 273 343
#
# _framework density 20.803023
#
# number of rings (size 3 to 8) (size 9 to 14) (size 15 to 20)
#    0.000    1.250    5.000    3.375    1.750    1.500 
#    0.000    0.625    0.000    1.500    0.000    0.000 
#    0.000    0.000    0.000    0.000    0.000    0.000 
#
# Total GULP energy -198280.424221 kJ/mol
# GULP energy per Si atom -12392.526514 kJ/mol
# Density = 2.075567 g / cm^3
# Si number density = 20.803023 Si / 1000 Ang^3
#
#
#
# Elastic Constant Matrix: (Units=GPa)
#
#
# Indices 1 2 3 4 5 6 
#
# 1 97.7353 24.1702 30.5673 -9.0003 8.5090 4.4646
# 2 24.1702 84.9235 25.5936 -8.4332 -0.6855 -5.5321
# 3 30.5673 25.5936 88.1435 -10.1566 -5.9702 0.3714
# 4 -9.0003 -8.4332 -10.1566 8.9938 0.8580 6.6000
# 5 8.5090 -0.6855 -5.9702 0.8580 12.0465 -2.2680
# 6 4.4646 -5.5321 0.3714 6.6000 -2.2680 30.9463
#
#
#
# Elastic Compliance Matrix: (Units=1/GPa)
#
#
# Indices 1 2 3 4 5 6 
#
# 1 0.014956 -0.002180 -0.003802 0.015046 -0.014925 -0.006805
# 2 -0.002180 0.013922 -0.002422 0.007024 0.000895 0.001400
# 3 -0.003802 -0.002422 0.015342 0.011815 0.008946 -0.001933
# 4 0.015046 0.007024 0.011815 0.178602 -0.024806 -0.040966
# 5 -0.014925 0.000895 0.008946 -0.024806 0.102633 0.015018
# 6 -0.006805 0.001400 -0.001933 -0.040966 0.015018 0.043407
#
#
# Mechanical properties :
#
#
# Convention : Reuss Voigt Hill
#
# Bulk Modulus (GPa) = 36.48171 47.94051 42.21111
# Shear Modulus (GPa) = 12.66438 23.09539 17.87988
#
# Velocity S-wave (km/s) = 2.47002 3.33557 2.93488
# Velocity P-wave (km/s) = 5.07045 6.15871 5.64088
#
# Compressibility (1/GPa) = 0.02741099
#
# Stress axis : x y z
#
# Youngs Moduli (GPa) = 66.86353 71.83002 65.17882
#
# Poissons Ratio (x) = 0.15662 0.24781
# Poissons Ratio (y) = 0.14579 0.15787
# Poissons Ratio (z) = 0.25421 0.17398
#
# Static dielectric constant tensor:
#      x y z
#    x 3.826000 -0.196920 -0.048920 
#    y -0.196920 4.022940 -0.215490 
#    z -0.048920 -0.215490 3.597800 
# 
# 
# High freq. dielectric constant tensor:
#      x y z
#    x 1.808120 -0.024910 -0.004470 
#    y -0.024910 1.824080 -0.010700 
#    z -0.004470 -0.010700 1.780000 
# 
# From -- ./inp_files/451080.got.cif
#   From: 2010.06.25/outbox.cif.g09.slc.cpg/sg2_226_cif.got.tgz:451080.got - 2010.06.27 13:26:56.
