data_PCOD8039894
_publ_section_title
;
Structure prediction by ZEFSAII (Michael W. Deem and Ramdas Pophale) SiO2 
 PCOD8039894
Probable space group: P -1
;
_chemical_formula_sum "Si O2"
_cell_formula_units_Z 14
_cell_length_a 19.441260
_cell_length_b 8.755824
_cell_length_c 14.643876
_cell_angle_alpha 43.046060
_cell_angle_beta 146.616696
_cell_angle_gamma 148.200359
_cell_volume 720.842791
_symmetry_space_group_name_H-M "P -1"
_symmetry_group_IT_number 2
_symmetry_cell_setting 'triclinic'
loop_
_space_group_symop_operation_xyz
x,y,z
-x,-y,-z
loop_
_atom_site_type_symbol
_atom_site_label
_atom_site_fract_x
_atom_site_fract_y
_atom_site_fract_z
Si Si1 0.125800 0.837338 0.197214
Si Si2 0.196907 0.005073 0.668778
Si Si3 0.125884 0.425173 0.815931
Si Si4 0.963650 0.737125 0.687275
Si Si5 0.538407 0.288873 0.885086
Si Si6 0.641546 0.585093 0.687495
Si Si7 0.966454 0.841225 0.844090
O O1 0.150738 0.595892 0.329343
O O2 0.958927 0.701501 0.124190
O O3 0.281813 0.120823 0.297394
O O4 0.094855 0.892647 0.037181
O O5 0.120454 0.119879 0.478096
O O6 0.390389 0.271983 0.765349
O O7 0.152344 0.717943 0.693975
O O8 0.133090 0.929257 0.735246
O O9 0.290134 0.464326 0.985275
O O10 0.011191 0.156749 0.735706
O O11 0.995204 0.733849 0.830809
O O12 0.556375 0.322415 0.780488
O O13 0.500000 0.000000 0.000000
O O14 0.500000 0.500000 0.500000
O O15 0.779927 0.613644 0.770819
#
# Coordination Sequence:
#
# PCOD8039894 Si02
#       7
#     2   2   2   2   2   2   2
#     4  10  19  37  60  82 117 149 185 234 286 338
#     4   9  20  36  54  80 118 156 183 232 286 338
#     4   9  17  34  61  81 105 149 193 237 278 326
#     4  10  21  36  55  83 118 154 187 224 289 350
#     4  10  18  35  58  81 115 149 184 236 290 331
#     4  11  21  36  62  91 111 142 198 248 284 324
#     4  11  19  35  61  89 108 146 198 238 276 333
#
# _framework density 19.421710000000001
#
# number of rings (size 3 to 8) (size 9 to 14) (size 15 to 20)
#    0.000    2.000    2.857    2.143    0.000    0.571 
#    0.000   10.714    0.000    0.000    0.000    0.000 
#    0.000    0.000    0.000    0.000    0.000    0.000 
#
# Total GULP energy -173436.202120 kJ/mol
# GULP energy per Si atom -12388.300151 kJ/mol
# Density = 1.937751 g / cm^3
# Si number density = 19.421710 Si / 1000 Ang^3
#
#
#
# Elastic Constant Matrix: (Units=GPa)
#
#
# Indices 1 2 3 4 5 6 
#
# 1 95.6908 46.2556 36.8873 9.5730 -3.1083 8.9890
# 2 46.2556 95.4378 45.9309 1.6392 -3.3747 8.7338
# 3 36.8873 45.9309 88.3436 9.5834 -1.7282 11.7051
# 4 9.5730 1.6392 9.5834 26.7498 2.5754 0.1037
# 5 -3.1083 -3.3747 -1.7282 2.5754 31.8883 3.6314
# 6 8.9890 8.7338 11.7051 0.1037 3.6314 27.9776
#
#
#
# Elastic Compliance Matrix: (Units=1/GPa)
#
#
# Indices 1 2 3 4 5 6 
#
# 1 0.014805 -0.005675 -0.002474 -0.004180 0.001285 -0.002101
# 2 -0.005675 0.016323 -0.006363 0.003251 0.000647 -0.000706
# 3 -0.002474 -0.006363 0.016773 -0.004801 0.000875 -0.004332
# 4 -0.004180 0.003251 -0.004801 0.040767 -0.003923 0.002695
# 5 0.001285 0.000647 0.000875 -0.003923 0.032508 -0.005186
# 6 -0.002101 -0.000706 -0.004332 0.002695 -0.005186 0.039114
#
#
# Mechanical properties :
#
#
# Convention : Reuss Voigt Hill
#
# Bulk Modulus (GPa) = 52.97966 59.73554 56.35760
# Shear Modulus (GPa) = 25.56167 27.34970 26.45569
#
# Velocity S-wave (km/s) = 3.63180 3.75667 3.69476
# Velocity P-wave (km/s) = 6.70257 7.04561 6.87623
#
# Compressibility (1/GPa) = 0.01887517
#
# Stress axis : x y z
#
# Youngs Moduli (GPa) = 67.54676 61.26472 59.62084
#
# Poissons Ratio (x) = 0.34768 0.14750
# Poissons Ratio (y) = 0.38333 0.37938
# Poissons Ratio (z) = 0.16711 0.38984
#
# Static dielectric constant tensor:
#      x y z
#    x 4.277720 0.830500 0.631920 
#    y 0.830500 4.539760 0.392130 
#    z 0.631920 0.392130 3.808750 
# 
# 
# High freq. dielectric constant tensor:
#      x y z
#    x 1.746000 0.017360 0.002920 
#    y 0.017360 1.759130 -0.015070 
#    z 0.002920 -0.015070 1.742410 
# 
# From -- ./inp_files/157119.got.cif
#   From: 2010.06.25/outbox.cif.g09.slc.cpg/sg2_79_cif.got.tgz:157119.got - 2010.06.27 13:26:56.
