data_PCOD8039222
_publ_section_title
;
Structure prediction by ZEFSAII (Michael W. Deem and Ramdas Pophale) SiO2 
 PCOD8039222
Probable space group: P -1
;
_chemical_formula_sum "Si O2"
_cell_formula_units_Z 14
_cell_length_a 9.598523
_cell_length_b 25.260370
_cell_length_c 13.060692
_cell_angle_alpha 152.796583
_cell_angle_beta 46.820931
_cell_angle_gamma 144.364085
_cell_volume 834.575776
_symmetry_space_group_name_H-M "P -1"
_symmetry_group_IT_number 2
_symmetry_cell_setting 'triclinic'
loop_
_space_group_symop_operation_xyz
x,y,z
-x,-y,-z
loop_
_atom_site_type_symbol
_atom_site_label
_atom_site_fract_x
_atom_site_fract_y
_atom_site_fract_z
Si Si1 0.255846 0.053379 0.257967
Si Si2 0.781868 0.182255 0.234971
Si Si3 0.497833 0.508682 0.685832
Si Si4 0.960552 0.761031 0.990049
Si Si5 0.141308 0.423296 0.086661
Si Si6 0.819527 0.521737 0.377328
Si Si7 0.354502 0.343637 0.673416
O O1 0.524435 0.141062 0.320576
O O2 0.206852 0.168912 0.457501
O O3 0.062894 0.931700 0.229280
O O4 0.234443 0.965329 0.013790
O O5 0.978217 0.301167 0.421722
O O6 0.873531 0.254554 0.198318
O O7 0.629684 0.469950 0.475276
O O8 0.316294 0.524844 0.743213
O O9 0.348075 0.376635 0.614824
O O10 0.685187 0.659276 0.912444
O O11 0.975037 0.715278 0.017666
O O12 0.369310 0.569715 0.278107
O O13 0.939910 0.442066 0.193585
O O14 0.220533 0.392101 0.888729
#
# Coordination Sequence:
#
# PCOD8039222 Si02
#       7
#     2   2   2   2   2   2   2
#     4   9  16  30  51  72 105 121 161 203 250 283
#     4   8  16  28  50  77  96 125 159 205 246 280
#     4   9  20  32  52  75  98 130 166 200 246 283
#     4   8  17  31  50  75  97 127 159 201 248 284
#     4  10  20  31  52  76  99 127 169 202 242 287
#     4  10  18  33  53  75  99 127 167 204 239 294
#     4  10  20  33  49  77 100 130 163 204 243 291
#
# _framework density 16.774989999999999
#
# number of rings (size 3 to 8) (size 9 to 14) (size 15 to 20)
#    0.857    2.000    1.429    0.000    2.000    2.857 
#    0.000    0.714    3.143    0.857    0.000    0.000 
#    0.000    0.000    0.000    0.000    0.000    0.000 
#
# Total GULP energy -173470.311437 kJ/mol
# GULP energy per Si atom -12390.736531 kJ/mol
# Density = 1.673681 g / cm^3
# Si number density = 16.774990 Si / 1000 Ang^3
#
#
#
# Elastic Constant Matrix: (Units=GPa)
#
#
# Indices 1 2 3 4 5 6 
#
# 1 117.7341 55.8756 43.1018 -1.2312 -4.4423 -9.2335
# 2 55.8756 87.2455 41.6966 15.7431 -8.0858 -10.8372
# 3 43.1018 41.6966 57.2733 8.8285 -3.0511 -13.7521
# 4 -1.2312 15.7431 8.8285 24.9562 -0.7388 -4.4650
# 5 -4.4423 -8.0858 -3.0511 -0.7388 14.4686 4.9585
# 6 -9.2335 -10.8372 -13.7521 -4.4650 4.9585 21.2715
#
#
#
# Elastic Compliance Matrix: (Units=1/GPa)
#
#
# Indices 1 2 3 4 5 6 
#
# 1 0.014640 -0.007681 -0.006697 0.007905 -0.000791 -0.000044
# 2 -0.007681 0.023754 -0.009686 -0.012050 0.008985 -0.002118
# 3 -0.006697 -0.009686 0.033213 -0.003600 -0.005501 0.014157
# 4 0.007905 -0.012050 -0.003600 0.050384 -0.004774 0.006654
# 5 -0.000791 0.008985 -0.005501 -0.004774 0.078904 -0.018717
# 6 -0.000044 -0.002118 0.014157 0.006654 -0.018717 0.060826
#
#
# Mechanical properties :
#
#
# Convention : Reuss Voigt Hill
#
# Bulk Modulus (GPa) = 42.58986 60.40009 51.49497
# Shear Modulus (GPa) = 15.73937 20.24452 17.99195
#
# Velocity S-wave (km/s) = 3.06643 3.47771 3.27853
# Velocity P-wave (km/s) = 6.16290 7.22566 6.71534
#
# Compressibility (1/GPa) = 0.02347977
#
# Stress axis : x y z
#
# Youngs Moduli (GPa) = 68.30582 42.09824 30.10888
#
# Poissons Ratio (x) = 0.32334 0.20164
# Poissons Ratio (y) = 0.52463 0.29163
# Poissons Ratio (z) = 0.45745 0.40775
#
# Static dielectric constant tensor:
#      x y z
#    x 2.884830 0.040440 0.058550 
#    y 0.040440 3.228500 0.140650 
#    z 0.058550 0.140650 2.951190 
# 
# 
# High freq. dielectric constant tensor:
#      x y z
#    x 1.614710 0.004280 -0.000730 
#    y 0.004280 1.648630 0.007560 
#    z -0.000730 0.007560 1.629180 
# 
# From -- ./inp_files/174447.got.cif
#   From: 2010.06.25/outbox.cif.g09.slc.cpg/sg2_88_cif.got.tgz:174447.got - 2010.06.27 13:26:56.
