data_PCOD8039541
_publ_section_title
;
Structure prediction by ZEFSAII (Michael W. Deem and Ramdas Pophale) SiO2 
 PCOD8039541
Probable space group: P -1
;
_chemical_formula_sum "Si O2"
_cell_formula_units_Z 16
_cell_length_a 11.912200
_cell_length_b 11.423327
_cell_length_c 15.440301
_cell_angle_alpha 60.046569
_cell_angle_beta 47.300028
_cell_angle_gamma 97.935451
_cell_volume 887.065828
_symmetry_space_group_name_H-M "P -1"
_symmetry_group_IT_number 2
_symmetry_cell_setting 'triclinic'
loop_
_space_group_symop_operation_xyz
x,y,z
-x,-y,-z
loop_
_atom_site_type_symbol
_atom_site_label
_atom_site_fract_x
_atom_site_fract_y
_atom_site_fract_z
Si Si1 0.843360 0.113068 0.712018
Si Si2 0.421265 0.501041 0.448025
Si Si3 0.122092 0.067363 0.002205
Si Si4 0.405458 0.736450 0.977715
Si Si5 0.268115 0.097490 0.402935
Si Si6 0.141661 0.301853 0.331490
Si Si7 0.838368 0.892604 0.370189
Si Si8 0.930640 0.269149 0.787747
O O1 0.847913 0.223596 0.747434
O O2 0.989157 0.272590 0.497215
O O3 0.965442 0.055389 0.697734
O O4 0.585827 0.904409 0.894275
O O5 0.500000 0.500000 0.500000
O O6 0.622938 0.707691 0.215480
O O7 0.354526 0.332335 0.484885
O O8 0.207445 0.463911 0.581480
O O9 0.145146 0.925836 0.064739
O O10 0.000000 0.000000 0.000000
O O11 0.970883 0.048098 0.161351
O O12 0.324624 0.529752 0.114264
O O13 0.184620 0.688251 0.112730
O O14 0.517979 0.824787 0.790459
O O15 0.274826 0.260442 0.314645
O O16 0.288553 0.093084 0.499073
O O17 0.029801 0.865352 0.590950
#
# Coordination Sequence:
#
# PCOD8039541 Si02
#       8
#     2   2   2   2   2   2   2   2
#     4   8  18  33  47  76 113 136 175 211 246 306
#     4  10  18  34  56  79 100 124 169 221 267 309
#     4  10  18  35  58  77  99 128 166 222 276 301
#     4  11  20  32  52  74 114 150 170 203 252 307
#     4   9  19  34  48  76 108 138 184 213 238 299
#     4   9  18  32  52  70 104 149 182 211 244 288
#     4   9  19  32  54  83 102 131 177 217 254 308
#     4  10  22  32  50  84 108 136 174 209 263 320
#
# _framework density 18.036992999999999
#
# number of rings (size 3 to 8) (size 9 to 14) (size 15 to 20)
#    0.000    2.750    2.500    1.500    0.000    9.500 
#    0.000    0.000    0.000    1.500    0.000    0.000 
#    0.000    0.000    0.000    0.000    0.000    0.000 
#
# Total GULP energy -198261.052271 kJ/mol
# GULP energy per Si atom -12391.315767 kJ/mol
# Density = 1.799594 g / cm^3
# Si number density = 18.036993 Si / 1000 Ang^3
#
#
#
# Elastic Constant Matrix: (Units=GPa)
#
#
# Indices 1 2 3 4 5 6 
#
# 1 53.0854 38.7810 35.6389 9.4365 -3.3007 21.0365
# 2 38.7810 85.0793 54.2915 26.8397 -5.1105 13.9137
# 3 35.6389 54.2915 146.5614 4.3573 -3.5432 15.8098
# 4 9.4365 26.8397 4.3573 36.9613 5.7663 5.8686
# 5 -3.3007 -5.1105 -3.5432 5.7663 26.4616 2.2338
# 6 21.0365 13.9137 15.8098 5.8686 2.2338 23.1774
#
#
#
# Elastic Compliance Matrix: (Units=1/GPa)
#
#
# Indices 1 2 3 4 5 6 
#
# 1 0.041365 -0.013890 -0.001767 0.003784 0.003892 -0.029333
# 2 -0.013890 0.027330 -0.006570 -0.017172 0.006032 0.004449
# 3 -0.001767 -0.006570 0.009761 0.004571 -0.000995 -0.002172
# 4 0.003784 -0.017172 0.004571 0.040546 -0.010605 -0.005488
# 5 0.003892 0.006032 -0.000995 -0.010605 0.042283 -0.007865
# 6 -0.029333 0.004449 -0.002172 -0.005488 -0.007865 0.070728
#
#
# Mechanical properties :
#
#
# Convention : Reuss Voigt Hill
#
# Bulk Modulus (GPa) = 29.41112 60.23873 44.82493
# Shear Modulus (GPa) = 17.37323 27.72105 22.54714
#
# Velocity S-wave (km/s) = 3.10691 3.92458 3.53944
# Velocity P-wave (km/s) = 5.40481 7.34890 6.45051
#
# Compressibility (1/GPa) = 0.03400075
#
# Stress axis : x y z
#
# Youngs Moduli (GPa) = 24.17522 36.59040 102.45056
#
# Poissons Ratio (x) = 0.50824 0.18107
# Poissons Ratio (y) = 0.33579 0.67308
# Poissons Ratio (z) = 0.04273 0.24039
#
# Static dielectric constant tensor:
#      x y z
#    x 3.116990 0.340340 0.006510 
#    y 0.340340 3.416700 0.240630 
#    z 0.006510 0.240630 3.495920 
# 
# 
# High freq. dielectric constant tensor:
#      x y z
#    x 1.657880 0.026390 0.000220 
#    y 0.026390 1.688150 0.008970 
#    z 0.000220 0.008970 1.716270 
# 
# From -- ./inp_files/466922.got.cif
#   From: 2010.06.25/outbox.cif.g09.slc.cpg/sg2_234_cif.got.tgz:466922.got - 2010.06.27 13:26:56.
