data_PCOD8039957
_publ_section_title
;
Structure prediction by ZEFSAII (Michael W. Deem and Ramdas Pophale) SiO2 
 PCOD8039957
Probable space group: P -1
;
_chemical_formula_sum "Si O2"
_cell_formula_units_Z 16
_cell_length_a 12.746251
_cell_length_b 17.387079
_cell_length_c 13.056528
_cell_angle_alpha 158.563587
_cell_angle_beta 134.354801
_cell_angle_gamma 51.357129
_cell_volume 752.317485
_symmetry_space_group_name_H-M "P -1"
_symmetry_group_IT_number 2
_symmetry_cell_setting 'triclinic'
loop_
_space_group_symop_operation_xyz
x,y,z
-x,-y,-z
loop_
_atom_site_type_symbol
_atom_site_label
_atom_site_fract_x
_atom_site_fract_y
_atom_site_fract_z
Si Si1 0.224588 0.377294 0.653060
Si Si2 0.322017 0.850956 0.366333
Si Si3 0.582254 0.771838 0.236613
Si Si4 0.392210 0.640907 0.354180
Si Si5 0.081452 0.529537 0.371720
Si Si6 0.124103 0.659674 0.338816
Si Si7 0.982892 0.047774 0.666545
Si Si8 0.316427 0.486041 0.640864
O O1 0.335109 0.222340 0.588938
O O2 0.230277 0.337067 0.484222
O O3 0.057435 0.339401 0.534629
O O4 0.279108 0.622034 0.008440
O O5 0.395561 0.816885 0.484570
O O6 0.420798 0.997323 0.533148
O O7 0.187471 0.989687 0.466375
O O8 0.670277 0.597523 0.020002
O O9 0.410999 0.675749 0.003387
O O10 0.283777 0.690431 0.432154
O O11 0.566320 0.639423 0.500883
O O12 0.152763 0.592275 0.389607
O O13 0.202400 0.582643 0.607740
O O14 0.040227 0.280725 0.029636
O O15 0.069837 0.889660 0.594798
O O16 0.000000 0.500000 0.000000
O O17 0.000000 0.000000 0.500000
#
# Coordination Sequence:
#
# PCOD8039957 Si02
#       8
#     2   2   2   2   2   2   2   2
#     4  10  20  41  62  85 115 157 203 239 282 345
#     4  10  18  35  59  91 112 148 204 239 282 341
#     4   9  20  36  61  86 114 151 197 238 286 346
#     4   9  21  35  55  85 120 151 187 239 288 347
#     4  11  24  39  61  87 120 156 194 243 292 347
#     4  12  20  37  62  87 115 150 197 240 288 346
#     4  11  20  34  60  89 109 153 198 239 283 340
#     4  10  23  42  56  86 126 155 190 243 298 341
#
# _framework density 21.267616
#
# number of rings (size 3 to 8) (size 9 to 14) (size 15 to 20)
#    0.750    1.000    2.500    3.750    0.000    1.000 
#    2.250    0.625    0.000    4.500    0.000    0.000 
#    0.000    0.000    0.000    0.000    0.000    0.000 
#
# Total GULP energy -198220.708895 kJ/mol
# GULP energy per Si atom -12388.794306 kJ/mol
# Density = 2.121921 g / cm^3
# Si number density = 21.267616 Si / 1000 Ang^3
#
#
#
# Elastic Constant Matrix: (Units=GPa)
#
#
# Indices 1 2 3 4 5 6 
#
# 1 93.9565 39.1420 12.6873 -12.4014 16.2231 10.0129
# 2 39.1420 160.1565 33.4707 -10.1165 12.3183 10.2704
# 3 12.6873 33.4707 20.0894 1.5963 4.2661 -8.1248
# 4 -12.4014 -10.1165 1.5963 40.1023 -2.9778 1.4345
# 5 16.2231 12.3183 4.2661 -2.9778 20.3778 5.4200
# 6 10.0129 10.2704 -8.1248 1.4345 5.4200 38.2649
#
#
#
# Elastic Compliance Matrix: (Units=1/GPa)
#
#
# Indices 1 2 3 4 5 6 
#
# 1 0.014398 -0.000539 -0.008816 0.004280 -0.007442 -0.004601
# 2 -0.000539 0.012057 -0.023686 0.004189 0.000950 -0.008416
# 3 -0.008816 -0.023686 0.113294 -0.015516 -0.014035 0.035290
# 4 0.004280 0.004189 -0.015516 0.028436 0.003347 -0.007079
# 5 -0.007442 0.000950 -0.014035 0.003347 0.060506 -0.009983
# 6 -0.004601 -0.008416 0.035290 -0.007079 -0.009983 0.038769
#
#
# Mechanical properties :
#
#
# Convention : Reuss Voigt Hill
#
# Bulk Modulus (GPa) = 13.57459 49.42249 31.49854
# Shear Modulus (GPa) = 13.96267 32.34250 23.15258
#
# Velocity S-wave (km/s) = 2.56505 3.90390 3.30302
# Velocity P-wave (km/s) = 3.89477 6.60374 5.42119
#
# Compressibility (1/GPa) = 0.07366707
#
# Stress axis : x y z
#
# Youngs Moduli (GPa) = 69.45232 82.94042 8.82661
#
# Poissons Ratio (x) = 0.04467 0.07782
# Poissons Ratio (y) = 0.03741 0.20907
# Poissons Ratio (z) = 0.61232 1.96452
#
# Static dielectric constant tensor:
#      x y z
#    x 4.063100 -0.108480 0.079590 
#    y -0.108480 3.912320 0.201820 
#    z 0.079590 0.201820 3.439980 
# 
# 
# High freq. dielectric constant tensor:
#      x y z
#    x 1.855940 -0.005080 0.002500 
#    y -0.005080 1.839910 0.016780 
#    z 0.002500 0.016780 1.781310 
# 
# From -- ./inp_files/433578.got.cif
#   From: 2010.06.25/outbox.cif.g09.slc.cpg/sg2_217_cif.got.tgz:433578.got - 2010.06.27 13:26:56.
