data_PCOD8039495
_publ_section_title
;
Structure prediction by ZEFSAII (Michael W. Deem and Ramdas Pophale) SiO2 
 PCOD8039495
Probable space group: P -1
;
_chemical_formula_sum "Si O2"
_cell_formula_units_Z 14
_cell_length_a 12.032152
_cell_length_b 28.064920
_cell_length_c 12.337486
_cell_angle_alpha 152.495807
_cell_angle_beta 33.351396
_cell_angle_gamma 161.168283
_cell_volume 620.796136
_symmetry_space_group_name_H-M "P -1"
_symmetry_group_IT_number 2
_symmetry_cell_setting 'triclinic'
loop_
_space_group_symop_operation_xyz
x,y,z
-x,-y,-z
loop_
_atom_site_type_symbol
_atom_site_label
_atom_site_fract_x
_atom_site_fract_y
_atom_site_fract_z
Si Si1 0.223163 0.741266 0.741317
Si Si2 0.867439 0.125067 0.074344
Si Si3 0.179299 0.198148 0.305953
Si Si4 0.699262 0.450016 0.756252
Si Si5 0.199147 0.323813 0.740629
Si Si6 0.423400 0.930803 0.579455
Si Si7 0.296465 0.153737 0.910794
O O1 0.024531 0.747003 0.846351
O O2 0.255897 0.651729 0.460683
O O3 0.012892 0.627928 0.791161
O O4 0.601477 0.934434 0.855185
O O5 0.697656 0.118876 0.298392
O O6 0.204062 0.200552 0.989668
O O7 0.374538 0.355067 0.548244
O O8 0.833926 0.110903 0.368991
O O9 0.428931 0.268016 0.143406
O O10 0.061982 0.048827 0.168472
O O11 0.344522 0.320279 0.717861
O O12 0.708146 0.517026 0.997373
O O13 0.794269 0.136762 0.683493
O O14 0.432008 0.815730 0.296745
#
# Coordination Sequence:
#
# PCOD8039495 Si02
#       7
#     2   2   2   2   2   2   2
#     4  10  20  38  51  82 106 155 177 224 270 322
#     4  10  20  35  58  79 116 137 188 227 269 317
#     4   9  18  31  56  85 110 136 185 232 268 309
#     4  10  21  35  56  77 116 143 183 215 275 335
#     4  10  18  34  53  84 107 142 180 227 268 327
#     4  10  18  34  56  88 108 138 183 237 265 318
#     4   9  17  31  51  85 107 136 172 234 273 309
#
# _framework density 22.551689
#
# number of rings (size 3 to 8) (size 9 to 14) (size 15 to 20)
#    0.000    2.286    1.429    3.429    0.000    0.000 
#   10.286    2.143    0.000    6.857    0.000    0.000 
#    0.000    0.000    0.000    0.000    0.000    0.000 
#
# Total GULP energy -173530.848116 kJ/mol
# GULP energy per Si atom -12395.060580 kJ/mol
# Density = 2.250036 g / cm^3
# Si number density = 22.551689 Si / 1000 Ang^3
#
#
#
# Elastic Constant Matrix: (Units=GPa)
#
#
# Indices 1 2 3 4 5 6 
#
# 1 80.0131 -3.1266 58.6533 2.2153 -8.8114 -5.7831
# 2 -3.1266 22.4896 27.7778 -6.3096 -4.2100 3.3868
# 3 58.6533 27.7778 196.5583 -28.8770 10.8196 -5.0240
# 4 2.2153 -6.3096 -28.8770 27.2612 0.1481 -4.9393
# 5 -8.8114 -4.2100 10.8196 0.1481 42.8615 -1.8010
# 6 -5.7831 3.3868 -5.0240 -4.9393 -1.8010 20.3652
#
#
#
# Elastic Compliance Matrix: (Units=1/GPa)
#
#
# Indices 1 2 3 4 5 6 
#
# 1 0.022117 0.015244 -0.010674 -0.009708 0.008752 -0.000468
# 2 0.015244 0.069343 -0.015989 -0.004186 0.013535 -0.010966
# 3 -0.010674 -0.015989 0.012739 0.011600 -0.006811 0.004982
# 4 -0.009708 -0.004186 0.011600 0.051129 -0.004976 0.012762
# 5 0.008752 0.013535 -0.006811 -0.004976 0.028190 -0.000160
# 6 -0.000468 -0.010966 0.004982 0.012762 -0.000160 0.055104
#
#
# Mechanical properties :
#
#
# Convention : Reuss Voigt Hill
#
# Bulk Modulus (GPa) = 12.29084 51.74111 32.01598
# Shear Modulus (GPa) = 17.32621 32.48134 24.90377
#
# Velocity S-wave (km/s) = 2.77481 3.79925 3.32670
# Velocity P-wave (km/s) = 3.96585 6.49915 5.38363
#
# Compressibility (1/GPa) = 0.08136140
#
# Stress axis : x y z
#
# Youngs Moduli (GPa) = 45.21413 14.42098 78.50070
#
# Poissons Ratio (x) = -0.21983 0.83792
# Poissons Ratio (y) = -0.68925 1.25514
# Poissons Ratio (z) = 0.48262 0.23057
#
# Static dielectric constant tensor:
#      x y z
#    x 4.037470 -0.000660 0.185220 
#    y -0.000660 3.543250 -0.452400 
#    z 0.185220 -0.452400 4.692570 
# 
# 
# High freq. dielectric constant tensor:
#      x y z
#    x 1.884370 0.009250 0.006750 
#    y 0.009250 1.836330 -0.027430 
#    z 0.006750 -0.027430 1.910850 
# 
# From -- ./inp_files/306290.got.cif
#   From: 2010.06.25/outbox.cif.g09.slc.cpg/sg2_154_cif.got.tgz:306290.got - 2010.06.27 13:26:56.
