data_PCOD8039052
_publ_section_title
;
Structure prediction by ZEFSAII (Michael W. Deem and Ramdas Pophale) SiO2 
 PCOD8039052
Probable space group: P -1
;
_chemical_formula_sum "Si O2"
_cell_formula_units_Z 16
_cell_length_a 10.381095
_cell_length_b 10.203476
_cell_length_c 12.138635
_cell_angle_alpha 53.763745
_cell_angle_beta 78.096508
_cell_angle_gamma 49.126301
_cell_volume 749.039602
_symmetry_space_group_name_H-M "P -1"
_symmetry_group_IT_number 2
_symmetry_cell_setting 'triclinic'
loop_
_space_group_symop_operation_xyz
x,y,z
-x,-y,-z
loop_
_atom_site_type_symbol
_atom_site_label
_atom_site_fract_x
_atom_site_fract_y
_atom_site_fract_z
Si Si1 0.810738 0.642089 0.404862
Si Si2 0.296191 0.074169 0.099152
Si Si3 0.771364 0.030273 0.227780
Si Si4 0.827508 0.030943 0.641298
Si Si5 0.799380 0.331670 0.659405
Si Si6 0.200105 0.878351 0.050250
Si Si7 0.309017 0.344824 0.809502
Si Si8 0.762318 0.240679 0.329054
O O1 0.701996 0.901148 0.308856
O O2 0.712570 0.576394 0.519795
O O3 0.831861 0.569325 0.308439
O O4 0.000000 0.500000 0.500000
O O5 0.224464 0.095828 0.225355
O O6 0.198644 0.037575 0.048243
O O7 0.507702 0.877158 0.160482
O O8 0.250685 0.295159 0.955243
O O9 0.985527 0.843450 0.285396
O O10 0.689213 0.207556 0.251341
O O11 0.697927 0.170687 0.057342
O O12 0.745422 0.246049 0.619728
O O13 0.744977 0.122726 0.488662
O O14 0.038643 0.862985 0.676004
O O15 0.716245 0.343441 0.785720
O O16 0.000000 0.000000 0.000000
O O17 0.343215 0.505223 0.753116
#
# Coordination Sequence:
#
# PCOD8039052 Si02
#       8
#     2   2   2   2   2   2   2   2
#     4  10  18  32  54  85 107 150 194 239 273 338
#     4  10  22  38  59  86 116 159 194 238 283 346
#     4   9  17  30  52  78 111 145 180 234 286 329
#     4   9  18  35  56  82 117 146 192 238 287 342
#     4   8  15  28  50  81 103 136 189 236 273 322
#     4   9  16  32  55  81 110 144 194 240 273 330
#     4  11  22  38  59  87 119 152 198 235 290 348
#     4  10  20  35  57  87 116 153 188 240 297 342
#
# _framework density 21.360686999999999
#
# number of rings (size 3 to 8) (size 9 to 14) (size 15 to 20)
#    0.000    2.500    2.500    0.750    1.750    1.000 
#    0.000    1.875    0.000    0.750    0.000    0.000 
#    0.000    0.000    0.000    0.000    0.000    0.000 
#
# Total GULP energy -198221.490336 kJ/mol
# GULP energy per Si atom -12388.843146 kJ/mol
# Density = 2.131207 g / cm^3
# Si number density = 21.360687 Si / 1000 Ang^3
#
#
#
# Elastic Constant Matrix: (Units=GPa)
#
#
# Indices 1 2 3 4 5 6 
#
# 1 36.1411 7.9844 21.6215 3.6788 -8.6506 9.5345
# 2 7.9844 63.3976 51.4255 9.0971 -4.2328 24.0333
# 3 21.6215 51.4255 190.5939 22.4813 -35.0512 10.2796
# 4 3.6788 9.0971 22.4813 29.5462 3.5746 -4.6815
# 5 -8.6506 -4.2328 -35.0512 3.5746 28.3377 1.7883
# 6 9.5345 24.0333 10.2796 -4.6815 1.7883 27.6297
#
#
#
# Elastic Compliance Matrix: (Units=1/GPa)
#
#
# Indices 1 2 3 4 5 6 
#
# 1 0.036590 0.006445 -0.001057 -0.010614 0.013459 -0.020509
# 2 0.006445 0.033884 -0.006279 -0.011786 0.002739 -0.031536
# 3 -0.001057 -0.006279 0.010133 -0.007107 0.012165 0.000065
# 4 -0.010614 -0.011786 -0.007107 0.051074 -0.021914 0.026631
# 5 0.013459 0.002739 0.012165 -0.021914 0.058822 -0.019073
# 6 -0.020509 -0.031536 0.000065 0.026631 -0.019073 0.076424
#
#
# Mechanical properties :
#
#
# Convention : Reuss Voigt Hill
#
# Bulk Modulus (GPa) = 12.68612 50.24395 31.46503
# Shear Modulus (GPa) = 16.95023 31.04279 23.99651
#
# Velocity S-wave (km/s) = 2.82001 3.81631 3.35535
# Velocity P-wave (km/s) = 4.06881 6.55681 5.45651
#
# Compressibility (1/GPa) = 0.07882629
#
# Stress axis : x y z
#
# Youngs Moduli (GPa) = 27.32987 29.51279 98.68963
#
# Poissons Ratio (x) = -0.19022 0.10428
# Poissons Ratio (y) = -0.17615 0.61965
# Poissons Ratio (z) = 0.02888 0.18530
#
# Static dielectric constant tensor:
#      x y z
#    x 3.771910 0.320900 -0.368980 
#    y 0.320900 3.441010 0.140920 
#    z -0.368980 0.140920 4.696190 
# 
# 
# High freq. dielectric constant tensor:
#      x y z
#    x 1.821050 0.025110 -0.010420 
#    y 0.025110 1.779620 0.011020 
#    z -0.010420 0.011020 1.868730 
# 
# From -- ./inp_files/388393.got.cif
#   From: 2010.06.25/outbox.cif.g09.slc.cpg/sg2_195_cif.got.tgz:388393.got - 2010.06.27 13:26:56.
