data_PCOD8039177
_publ_section_title
;
Structure prediction by ZEFSAII (Michael W. Deem and Ramdas Pophale) SiO2 
 PCOD8039177
Probable space group: P -1
;
_chemical_formula_sum "Si O2"
_cell_formula_units_Z 16
_cell_length_a 13.240679
_cell_length_b 13.818221
_cell_length_c 8.968033
_cell_angle_alpha 63.249983
_cell_angle_beta 112.770188
_cell_angle_gamma 147.507384
_cell_volume 787.005529
_symmetry_space_group_name_H-M "P -1"
_symmetry_group_IT_number 2
_symmetry_cell_setting 'triclinic'
loop_
_space_group_symop_operation_xyz
x,y,z
-x,-y,-z
loop_
_atom_site_type_symbol
_atom_site_label
_atom_site_fract_x
_atom_site_fract_y
_atom_site_fract_z
Si Si1 0.616283 0.694203 0.340460
Si Si2 0.712073 0.952555 0.018660
Si Si3 0.758609 0.481002 0.703247
Si Si4 0.337117 0.492614 0.647772
Si Si5 0.374052 0.811043 0.978772
Si Si6 0.014415 0.898971 0.161327
Si Si7 0.173355 0.844838 0.755082
Si Si8 0.723469 0.881876 0.568947
O O1 0.721435 0.834777 0.161998
O O2 0.413022 0.585968 0.288891
O O3 0.605454 0.556880 0.403233
O O4 0.731756 0.809821 0.479307
O O5 0.782691 0.084236 0.101567
O O6 0.502882 0.830356 0.943116
O O7 0.843679 0.066645 0.869379
O O8 0.753914 0.482807 0.518039
O O9 0.953609 0.689191 0.720461
O O10 0.740449 0.344888 0.849975
O O11 0.533942 0.698037 0.684533
O O12 0.188286 0.325574 0.796751
O O13 0.230281 0.763340 0.824218
O O14 0.500000 0.000000 0.000000
O O15 0.093574 0.983026 0.315464
O O16 0.000000 0.000000 0.000000
O O17 0.287301 0.005470 0.584279
#
# Coordination Sequence:
#
# PCOD8039177 Si02
#       8
#     2   2   2   2   2   2   2   2
#     4   9  19  37  57  84 113 151 192 238 278 332
#     4   9  20  37  54  83 117 149 189 234 284 336
#     4  10  18  32  60  91 111 138 194 241 278 335
#     4  11  21  38  57  83 120 153 192 232 284 337
#     4   9  18  35  60  84 113 144 187 245 286 323
#     4  12  24  39  56  82 122 156 188 228 283 354
#     4  10  19  37  63  85 108 149 194 243 282 327
#     4  10  22  38  59  83 114 152 191 239 283 327
#
# _framework density 20.330227000000001
#
# number of rings (size 3 to 8) (size 9 to 14) (size 15 to 20)
#    0.000    2.000    2.500    4.125    0.000    3.000 
#    4.500    0.625    0.000    3.750    0.000    0.000 
#    0.000    0.000    0.000    0.000    0.000    0.000 
#
# Total GULP energy -198219.349686 kJ/mol
# GULP energy per Si atom -12388.709355 kJ/mol
# Density = 2.028395 g / cm^3
# Si number density = 20.330227 Si / 1000 Ang^3
#
#
#
# Elastic Constant Matrix: (Units=GPa)
#
#
# Indices 1 2 3 4 5 6 
#
# 1 49.3986 13.3755 33.4554 -5.2931 -0.4181 2.4759
# 2 13.3755 92.5284 28.0063 -20.9082 -0.9524 9.8437
# 3 33.4554 28.0063 90.0465 -19.1257 9.5679 -0.4530
# 4 -5.2931 -20.9082 -19.1257 42.7576 2.6422 3.9848
# 5 -0.4181 -0.9524 9.5679 2.6422 26.1862 -11.3526
# 6 2.4759 9.8437 -0.4530 3.9848 -11.3526 21.7664
#
#
#
# Elastic Compliance Matrix: (Units=1/GPa)
#
#
# Indices 1 2 3 4 5 6 
#
# 1 0.027755 -0.001177 -0.010928 -0.002311 0.004617 -0.000021
# 2 -0.001177 0.014158 -0.002181 0.006891 -0.003472 -0.009387
# 3 -0.010928 -0.002181 0.018177 0.006572 -0.008980 -0.003280
# 4 -0.002311 0.006891 0.006572 0.031492 -0.011684 -0.014576
# 5 0.004617 -0.003472 -0.008980 -0.011684 0.056720 0.032580
# 6 -0.000021 -0.009387 -0.003280 -0.014576 0.032580 0.069783
#
#
# Mechanical properties :
#
#
# Convention : Reuss Voigt Hill
#
# Bulk Modulus (GPa) = 31.72613 42.40531 37.06572
# Shear Modulus (GPa) = 19.44299 28.61782 24.03040
#
# Velocity S-wave (km/s) = 3.09586 3.75593 3.44176
# Velocity P-wave (km/s) = 5.33089 6.30182 5.83658
#
# Compressibility (1/GPa) = 0.03151976
#
# Stress axis : x y z
#
# Youngs Moduli (GPa) = 36.02901 70.63285 55.01403
#
# Poissons Ratio (x) = 0.08314 0.60117
# Poissons Ratio (y) = 0.04241 0.11997
# Poissons Ratio (z) = 0.39371 0.15402
#
# Static dielectric constant tensor:
#      x y z
#    x 4.156070 0.147210 0.646780 
#    y 0.147210 3.820100 -0.369930 
#    z 0.646780 -0.369930 4.129560 
# 
# 
# High freq. dielectric constant tensor:
#      x y z
#    x 1.761590 0.022200 0.025070 
#    y 0.022200 1.799470 -0.026750 
#    z 0.025070 -0.026750 1.793370 
# 
# From -- ./inp_files/314823.got.cif
#   From: 2010.06.25/outbox.cif.g09.slc.cpg/sg2_158_cif.got.tgz:314823.got - 2010.06.27 13:26:56.
