data_PCOD8039648
_publ_section_title
;
Structure prediction by ZEFSAII (Michael W. Deem and Ramdas Pophale) SiO2 
 PCOD8039648
Probable space group: P -1
;
_chemical_formula_sum "Si O2"
_cell_formula_units_Z 16
_cell_length_a 12.162785
_cell_length_b 9.208054
_cell_length_c 12.830481
_cell_angle_alpha 64.569064
_cell_angle_beta 114.807370
_cell_angle_gamma 143.388363
_cell_volume 766.430573
_symmetry_space_group_name_H-M "P -1"
_symmetry_group_IT_number 2
_symmetry_cell_setting 'triclinic'
loop_
_space_group_symop_operation_xyz
x,y,z
-x,-y,-z
loop_
_atom_site_type_symbol
_atom_site_label
_atom_site_fract_x
_atom_site_fract_y
_atom_site_fract_z
Si Si1 0.336160 0.679834 0.156938
Si Si2 0.004608 0.295572 0.852679
Si Si3 0.330717 0.475107 0.026786
Si Si4 0.089833 0.046548 0.631010
Si Si5 0.683564 0.988591 0.977511
Si Si6 0.080931 0.716974 0.819939
Si Si7 0.821784 0.914414 0.738341
Si Si8 0.501020 0.476154 0.629156
O O1 0.365738 0.672719 0.049146
O O2 0.431931 0.639145 0.280191
O O3 0.113242 0.453665 0.146814
O O4 0.402138 0.930078 0.130051
O O5 0.086873 0.556029 0.810201
O O6 0.177954 0.347145 0.915888
O O7 0.863394 0.116108 0.945301
O O8 0.905152 0.163116 0.742064
O O9 0.256793 0.265093 0.139317
O O10 0.543808 0.690928 0.998871
O O11 0.299995 0.321940 0.641052
O O12 0.101828 0.866338 0.690054
O O13 0.000000 0.000000 0.500000
O O14 0.979176 0.989155 0.707588
O O15 0.748149 0.087462 0.091766
O O16 0.641533 0.754061 0.643552
O O17 0.500000 0.500000 0.500000
#
# Coordination Sequence:
#
# PCOD8039648 Si02
#       8
#     2   2   2   2   2   2   2   2
#     4  10  18  34  58  92 124 149 206 254 286 349
#     4  11  23  37  58  89 138 159 191 249 305 364
#     4  11  20  34  58  88 127 163 204 240 295 362
#     4  12  23  42  70  87 111 156 214 260 303 358
#     4  11  21  35  61  93 125 167 203 241 296 362
#     4  11  19  38  63  93 120 165 205 246 298 360
#     4  11  24  41  58  93 124 159 201 254 308 360
#     4  11  22  40  67  89 112 157 211 260 297 355
#
# _framework density 20.875993000000001
#
# number of rings (size 3 to 8) (size 9 to 14) (size 15 to 20)
#    0.000    1.000    6.250    3.000    1.750    1.500 
#    0.000    0.625    0.000    3.750    0.000    0.000 
#    0.000    0.000    0.000    0.000    0.000    0.000 
#
# Total GULP energy -198215.834384 kJ/mol
# GULP energy per Si atom -12388.489649 kJ/mol
# Density = 2.082848 g / cm^3
# Si number density = 20.875993 Si / 1000 Ang^3
#
#
#
# Elastic Constant Matrix: (Units=GPa)
#
#
# Indices 1 2 3 4 5 6 
#
# 1 16.6106 27.2155 13.7457 5.8940 3.1774 7.2884
# 2 27.2155 128.3195 42.0791 20.5803 -3.4537 3.0640
# 3 13.7457 42.0791 109.7694 13.0814 3.5896 -9.8520
# 4 5.8940 20.5803 13.0814 33.2768 6.0854 -4.1607
# 5 3.1774 -3.4537 3.5896 6.0854 21.7246 5.5239
# 6 7.2884 3.0640 -9.8520 -4.1607 5.5239 37.3644
#
#
#
# Elastic Compliance Matrix: (Units=1/GPa)
#
#
# Indices 1 2 3 4 5 6 
#
# 1 0.113370 -0.020728 -0.007169 -0.004891 -0.011962 -0.021081
# 2 -0.020728 0.013950 -0.002293 -0.005234 0.006919 0.000689
# 3 -0.007169 -0.002293 0.011492 -0.000817 -0.002220 0.004854
# 4 -0.004891 -0.005234 -0.000817 0.037632 -0.012350 0.007184
# 5 -0.011962 0.006919 -0.002220 -0.012350 0.054817 -0.008299
# 6 -0.021081 0.000689 0.004854 0.007184 -0.008299 0.034126
#
#
# Mechanical properties :
#
#
# Convention : Reuss Voigt Hill
#
# Bulk Modulus (GPa) = 12.74968 46.75335 29.75151
# Shear Modulus (GPa) = 14.20814 29.91711 22.06263
#
# Velocity S-wave (km/s) = 2.61166 3.78972 3.25444
# Velocity P-wave (km/s) = 3.90063 6.44932 5.32957
#
# Compressibility (1/GPa) = 0.07843334
#
# Stress axis : x y z
#
# Youngs Moduli (GPa) = 8.82069 71.68208 87.01546
#
# Poissons Ratio (x) = 1.48585 0.62377
# Poissons Ratio (y) = 0.18284 0.19951
# Poissons Ratio (z) = 0.06323 0.16435
#
# Static dielectric constant tensor:
#      x y z
#    x 3.942490 0.447260 0.041580 
#    y 0.447260 5.142050 -0.056660 
#    z 0.041580 -0.056660 3.707320 
# 
# 
# High freq. dielectric constant tensor:
#      x y z
#    x 1.809390 0.024530 0.000130 
#    y 0.024530 1.835600 -0.000680 
#    z 0.000130 -0.000680 1.790770 
# 
# From -- ./inp_files/515232.got.cif
#   From: 2010.06.25/outbox.cif.g09.slc.cpg/sg2_258_cif.got.tgz:515232.got - 2010.06.27 13:26:56.
