data_PCOD8039920
_publ_section_title
;
Structure prediction by ZEFSAII (Michael W. Deem and Ramdas Pophale) SiO2 
 PCOD8039920
Probable space group: P -1
;
_chemical_formula_sum "Si O2"
_cell_formula_units_Z 14
_cell_length_a 10.149998
_cell_length_b 9.560033
_cell_length_c 9.619645
_cell_angle_alpha 94.091524
_cell_angle_beta 118.277919
_cell_angle_gamma 65.576168
_cell_volume 739.394145
_symmetry_space_group_name_H-M "P -1"
_symmetry_group_IT_number 2
_symmetry_cell_setting 'triclinic'
loop_
_space_group_symop_operation_xyz
x,y,z
-x,-y,-z
loop_
_atom_site_type_symbol
_atom_site_label
_atom_site_fract_x
_atom_site_fract_y
_atom_site_fract_z
Si Si1 0.338423 0.567105 0.333508
Si Si2 0.413449 0.740052 0.165252
Si Si3 0.982893 0.252394 0.659638
Si Si4 0.748847 0.620411 0.232552
Si Si5 0.899938 0.032441 0.095582
Si Si6 0.168722 0.725869 0.698293
Si Si7 0.451571 0.414581 0.110064
O O1 0.500000 0.500000 0.500000
O O2 0.331772 0.725357 0.269262
O O3 0.175709 0.603870 0.344669
O O4 0.359006 0.441721 0.215477
O O5 0.602186 0.719580 0.277721
O O6 0.294611 0.898488 0.040253
O O7 0.436259 0.587936 0.066563
O O8 0.927105 0.195667 0.487108
O O9 0.119051 0.311261 0.694649
O O10 0.056096 0.118676 0.801293
O O11 0.840453 0.438321 0.301850
O O12 0.652739 0.650623 0.039672
O O13 0.925491 0.162171 0.211140
O O14 0.000000 0.000000 0.000000
O O15 0.356840 0.707056 0.780421
#
# Coordination Sequence:
#
# PCOD8039920 Si02
#       7
#     2   2   2   2   2   2   2
#     4  10  18  35  58  87 117 151 203 241 283 346
#     4   9  18  36  61  78 116 164 193 229 291 357
#     4  12  25  34  61  98 120 145 196 255 296 334
#     4  11  20  38  63  91 116 149 199 253 293 335
#     4  12  22  40  60  84 121 162 200 232 286 369
#     4  11  20  41  62  85 116 161 199 237 290 358
#     4   9  17  34  64  80 107 162 201 225 285 357
#
# _framework density 18.934419999999999
#
# number of rings (size 3 to 8) (size 9 to 14) (size 15 to 20)
#    0.857    0.571    5.714    1.714    0.000    1.143 
#    0.000    0.000    0.000    0.857    0.000    0.000 
#    0.000    0.000    0.000    0.000    0.000    0.000 
#
# Total GULP energy -173478.175831 kJ/mol
# GULP energy per Si atom -12391.298274 kJ/mol
# Density = 1.889132 g / cm^3
# Si number density = 18.934420 Si / 1000 Ang^3
#
#
#
# Elastic Constant Matrix: (Units=GPa)
#
#
# Indices 1 2 3 4 5 6 
#
# 1 108.9823 23.4205 27.4980 8.5815 2.3326 -12.5831
# 2 23.4205 54.0178 19.1701 -7.6445 -2.8377 -12.6424
# 3 27.4980 19.1701 93.7248 -4.5329 -2.1940 -4.2705
# 4 8.5815 -7.6445 -4.5329 29.2506 -6.8693 -6.8447
# 5 2.3326 -2.8377 -2.1940 -6.8693 29.4933 1.3360
# 6 -12.5831 -12.6424 -4.2705 -6.8447 1.3360 21.1008
#
#
#
# Elastic Compliance Matrix: (Units=1/GPa)
#
#
# Indices 1 2 3 4 5 6 
#
# 1 0.011514 -0.004383 -0.002692 -0.005082 -0.002817 0.002225
# 2 -0.004383 0.027634 -0.002809 0.013340 0.005116 0.017378
# 3 -0.002692 -0.002809 0.012164 0.002218 0.001373 -0.000194
# 4 -0.005082 0.013340 0.002218 0.046954 0.011885 0.019890
# 5 -0.002817 0.005116 0.001373 0.011885 0.037349 0.003154
# 6 0.002225 0.017378 -0.000194 0.019890 0.003154 0.065343
#
#
# Mechanical properties :
#
#
# Convention : Reuss Voigt Hill
#
# Bulk Modulus (GPa) = 31.70237 44.10023 37.90130
# Shear Modulus (GPa) = 21.62242 28.41136 25.01689
#
# Velocity S-wave (km/s) = 3.38296 3.87785 3.63883
# Velocity P-wave (km/s) = 5.66029 6.58725 6.14128
#
# Compressibility (1/GPa) = 0.03154338
#
# Stress axis : x y z
#
# Youngs Moduli (GPa) = 86.84794 36.18786 82.20656
#
# Poissons Ratio (x) = 0.15862 0.22130
# Poissons Ratio (y) = 0.38067 0.23094
# Poissons Ratio (z) = 0.23379 0.10166
#
# Static dielectric constant tensor:
#      x y z
#    x 3.927410 -0.635350 -0.368840 
#    y -0.635350 3.364650 0.004870 
#    z -0.368840 0.004870 3.757240 
# 
# 
# High freq. dielectric constant tensor:
#      x y z
#    x 1.725590 -0.034240 -0.009440 
#    y -0.034240 1.698510 -0.015210 
#    z -0.009440 -0.015210 1.752930 
# 
# From -- ./inp_files/158845.got.cif
#   From: 2010.06.25/outbox.cif.g09.slc.cpg/sg2_80_cif.got.tgz:158845.got - 2010.06.27 13:26:56.
