data_PCOD8039395
_publ_section_title
;
Structure prediction by ZEFSAII (Michael W. Deem and Ramdas Pophale) SiO2 
 PCOD8039395
Probable space group: P -1
;
_chemical_formula_sum "Si O2"
_cell_formula_units_Z 16
_cell_length_a 21.841789
_cell_length_b 18.573227
_cell_length_c 6.675030
_cell_angle_alpha 126.442035
_cell_angle_beta 64.707783
_cell_angle_gamma 157.795942
_cell_volume 753.162764
_symmetry_space_group_name_H-M "P -1"
_symmetry_group_IT_number 2
_symmetry_cell_setting 'triclinic'
loop_
_space_group_symop_operation_xyz
x,y,z
-x,-y,-z
loop_
_atom_site_type_symbol
_atom_site_label
_atom_site_fract_x
_atom_site_fract_y
_atom_site_fract_z
Si Si1 0.126409 0.803370 0.509248
Si Si2 0.287680 0.059632 0.337260
Si Si3 0.425387 0.704115 0.898089
Si Si4 0.883434 0.667641 0.572515
Si Si5 0.015996 0.583221 0.918651
Si Si6 0.870249 0.951116 0.468274
Si Si7 0.245217 0.807650 0.634316
Si Si8 0.193356 0.325159 0.915763
O O1 0.976334 0.693853 0.579664
O O2 0.290309 0.045860 0.553093
O O3 0.038732 0.610786 0.181745
O O4 0.201960 0.856410 0.696204
O O5 0.275402 0.149709 0.452529
O O6 0.458159 0.225312 0.270936
O O7 0.100688 0.784112 0.079203
O O8 0.273727 0.558152 0.725934
O O9 0.345140 0.556600 0.956776
O O10 0.545140 0.935161 0.186228
O O11 0.020615 0.894917 0.631188
O O12 0.799756 0.625923 0.792267
O O13 0.815698 0.336067 0.694264
O O14 0.134210 0.655362 0.743022
O O15 0.998404 0.102093 0.729757
O O16 0.766169 0.731249 0.220990
#
# Coordination Sequence:
#
# PCOD8039395 Si02
#       8
#     2   2   2   2   2   2   2   2
#     4   9  19  33  59  79 103 146 188 213 256 328
#     4   8  18  35  56  77 113 132 179 233 259 308
#     4  10  22  34  51  84 116 138 172 229 275 311
#     4  10  21  36  54  80 114 143 175 223 269 317
#     4   8  18  33  55  84 108 134 186 228 253 312
#     4   9  19  39  56  83 100 143 191 222 252 333
#     4  10  18  33  59  82 105 146 179 218 271 315
#     4  10  21  34  60  76 111 146 177 217 280 318
#
# _framework density 21.243749000000001
#
# number of rings (size 3 to 8) (size 9 to 14) (size 15 to 20)
#    0.750    2.000    0.000    0.750    5.250    0.500 
#    0.000    1.250    0.000    7.500    0.000    0.000 
#    0.000    0.000    0.000    0.000    0.000    0.000 
#
# Total GULP energy -198244.485682 kJ/mol
# GULP energy per Si atom -12390.280355 kJ/mol
# Density = 2.119540 g / cm^3
# Si number density = 21.243749 Si / 1000 Ang^3
#
#
#
# Elastic Constant Matrix: (Units=GPa)
#
#
# Indices 1 2 3 4 5 6 
#
# 1 42.1471 -7.7224 -5.9145 -7.3058 6.5319 -8.2622
# 2 -7.7224 63.7271 13.0668 -3.8470 12.4888 -8.0066
# 3 -5.9145 13.0668 65.8805 -2.6043 8.7858 -12.6068
# 4 -7.3058 -3.8470 -2.6043 27.0973 -0.9934 0.0952
# 5 6.5319 12.4888 8.7858 -0.9934 22.5338 -4.8177
# 6 -8.2622 -8.0066 -12.6068 0.0952 -4.8177 21.4757
#
#
#
# Elastic Compliance Matrix: (Units=1/GPa)
#
#
# Indices 1 2 3 4 5 6 
#
# 1 0.033062 0.007795 0.006685 0.010146 -0.012492 0.016703
# 2 0.007795 0.020172 -0.000080 0.004507 -0.011528 0.007866
# 3 0.006685 -0.000080 0.019159 0.003348 -0.006587 0.012296
# 4 0.010146 0.004507 0.003348 0.040448 -0.003556 0.006572
# 5 -0.012492 -0.011528 -0.006587 -0.003556 0.056751 -0.000223
# 6 0.016703 0.007866 0.012296 0.006572 -0.000223 0.063062
#
#
# Mechanical properties :
#
#
# Convention : Reuss Voigt Hill
#
# Bulk Modulus (GPa) = 9.88218 18.95717 14.41967
# Shear Modulus (GPa) = 21.04506 25.70971 23.37738
#
# Velocity S-wave (km/s) = 3.15087 3.48260 3.32088
# Velocity P-wave (km/s) = 4.23075 5.01142 4.63754
#
# Compressibility (1/GPa) = 0.10119224
#
# Stress axis : x y z
#
# Youngs Moduli (GPa) = 30.24643 49.57249 52.19517
#
# Poissons Ratio (x) = -0.38640 -0.34894
# Poissons Ratio (y) = -0.23576 0.00420
# Poissons Ratio (z) = -0.20221 0.00399
#
# Static dielectric constant tensor:
#      x y z
#    x 3.684250 -0.309110 -0.011710 
#    y -0.309110 3.770360 -0.060760 
#    z -0.011710 -0.060760 3.891900 
# 
# 
# High freq. dielectric constant tensor:
#      x y z
#    x 1.818550 -0.027200 0.001710 
#    y -0.027200 1.822400 -0.008400 
#    z 0.001710 -0.008400 1.835010 
# 
# From -- ./inp_files/355117.got.cif
#   From: 2010.06.25/outbox.cif.g09.slc.cpg/sg2_178_cif.got.tgz:355117.got - 2010.06.27 13:26:56.
