data_PCOD8039268
_publ_section_title
;
Structure prediction by ZEFSAII (Michael W. Deem and Ramdas Pophale) SiO2 
 PCOD8039268
Probable space group: P -1
;
_chemical_formula_sum "Si O2"
_cell_formula_units_Z 16
_cell_length_a 11.642817
_cell_length_b 8.622268
_cell_length_c 13.627741
_cell_angle_alpha 64.992118
_cell_angle_beta 97.810330
_cell_angle_gamma 138.851388
_cell_volume 776.691112
_symmetry_space_group_name_H-M "P -1"
_symmetry_group_IT_number 2
_symmetry_cell_setting 'triclinic'
loop_
_space_group_symop_operation_xyz
x,y,z
-x,-y,-z
loop_
_atom_site_type_symbol
_atom_site_label
_atom_site_fract_x
_atom_site_fract_y
_atom_site_fract_z
Si Si1 0.386830 0.022177 0.860117
Si Si2 0.125283 0.646840 0.762567
Si Si3 0.116676 0.342937 0.691023
Si Si4 0.720330 0.942528 0.761933
Si Si5 0.549163 0.520806 0.300079
Si Si6 0.607440 0.888012 0.462886
Si Si7 0.710470 0.131166 0.892209
Si Si8 0.296346 0.763548 0.443041
O O1 0.432284 0.256308 0.755617
O O2 0.571359 0.124926 0.857599
O O3 0.233949 0.753812 0.848478
O O4 0.303607 0.953659 0.976508
O O5 0.161765 0.513622 0.743723
O O6 0.913155 0.438070 0.814446
O O7 0.207464 0.897790 0.637838
O O8 0.248954 0.331609 0.715137
O O9 0.139672 0.474696 0.556556
O O10 0.905108 0.039074 0.750979
O O11 0.665346 0.914433 0.876231
O O12 0.777140 0.200849 0.662720
O O13 0.559206 0.664547 0.759916
O O14 0.446144 0.360799 0.434891
O O15 0.447398 0.803267 0.405858
O O16 0.612115 0.998270 0.535503
#
# Coordination Sequence:
#
# PCOD8039268 Si02
#       8
#     2   2   2   2   2   2   2   2
#     4  11  23  39  55  74 108 144 178 220 261 309
#     4  10  19  37  59  78 104 138 179 221 254 307
#     4   9  18  32  55  83 106 136 176 213 261 318
#     4  10  18  33  55  80 107 136 176 220 258 305
#     4  10  21  35  53  82 114 138 163 214 278 317
#     4   8  15  29  52  80 107 136 169 207 263 322
#     4  10  23  39  57  77  97 143 194 216 250 308
#     4   8  13  26  51  80 108 136 167 210 259 310
#
# _framework density 20.600210000000001
#
# number of rings (size 3 to 8) (size 9 to 14) (size 15 to 20)
#    0.000    2.500    0.000    4.500    0.000    3.000 
#    0.000    3.125    0.000    0.000    0.000    0.000 
#    0.000    0.000    0.000    0.000    0.000    0.000 
#
# Total GULP energy -198315.980712 kJ/mol
# GULP energy per Si atom -12394.748795 kJ/mol
# Density = 2.055332 g / cm^3
# Si number density = 20.600210 Si / 1000 Ang^3
#
#
#
# Elastic Constant Matrix: (Units=GPa)
#
#
# Indices 1 2 3 4 5 6 
#
# 1 59.2447 23.0451 16.5553 -14.5233 -5.3860 16.4855
# 2 23.0451 58.4689 18.1847 8.4939 -4.9088 14.5074
# 3 16.5553 18.1847 48.3656 -5.4826 -5.9141 10.8587
# 4 -14.5233 8.4939 -5.4826 26.0948 1.2361 -1.9360
# 5 -5.3860 -4.9088 -5.9141 1.2361 31.6533 -3.8896
# 6 16.4855 14.5074 10.8587 -1.9360 -3.8896 21.9661
#
#
#
# Elastic Compliance Matrix: (Units=1/GPa)
#
#
# Indices 1 2 3 4 5 6 
#
# 1 0.029626 -0.010881 -0.000940 0.018844 0.000873 -0.012768
# 2 -0.010881 0.028212 -0.006842 -0.017346 0.000883 -0.008457
# 3 -0.000940 -0.006842 0.026126 0.006577 0.002586 -0.006653
# 4 0.018844 -0.017346 0.006577 0.055781 -0.000571 -0.001122
# 5 0.000873 0.000883 0.002586 -0.000571 0.032781 0.003237
# 6 -0.012768 -0.008457 -0.006653 -0.001122 0.003237 0.064455
#
#
# Mechanical properties :
#
#
# Convention : Reuss Voigt Hill
#
# Bulk Modulus (GPa) = 21.44242 31.29437 26.36839
# Shear Modulus (GPa) = 17.25012 23.16246 20.20629
#
# Velocity S-wave (km/s) = 2.89688 3.35682 3.13529
# Velocity P-wave (km/s) = 4.64980 5.49987 5.09260
#
# Compressibility (1/GPa) = 0.04663653
#
# Stress axis : x y z
#
# Youngs Moduli (GPa) = 33.75433 35.44596 38.27645
#
# Poissons Ratio (x) = 0.38567 0.03600
# Poissons Ratio (y) = 0.36727 0.26191
# Poissons Ratio (z) = 0.03174 0.24254
#
# Static dielectric constant tensor:
#      x y z
#    x 3.567600 0.168260 -0.121560 
#    y 0.168260 3.586490 0.190620 
#    z -0.121560 0.190620 3.879000 
# 
# 
# High freq. dielectric constant tensor:
#      x y z
#    x 1.791660 0.015290 -0.015800 
#    y 0.015290 1.795280 0.015050 
#    z -0.015800 0.015050 1.799600 
# 
# From -- ./inp_files/234790.got.cif
#   From: 2010.06.25/outbox.cif.g09.slc.cpg/sg2_118_cif.got.tgz:234790.got - 2010.06.27 13:26:56.
