data_PCOD8039330
_publ_section_title
;
Structure prediction by ZEFSAII (Michael W. Deem and Ramdas Pophale) SiO2 
 PCOD8039330
Probable space group: P -1
;
_chemical_formula_sum "Si O2"
_cell_formula_units_Z 16
_cell_length_a 26.471684
_cell_length_b 15.003608
_cell_length_c 20.572616
_cell_angle_alpha 162.100958
_cell_angle_beta 159.935559
_cell_angle_gamma 27.690169
_cell_volume 858.826143
_symmetry_space_group_name_H-M "P -1"
_symmetry_group_IT_number 2
_symmetry_cell_setting 'triclinic'
loop_
_space_group_symop_operation_xyz
x,y,z
-x,-y,-z
loop_
_atom_site_type_symbol
_atom_site_label
_atom_site_fract_x
_atom_site_fract_y
_atom_site_fract_z
Si Si1 0.795893 0.312010 0.345728
Si Si2 0.155183 0.658563 0.722305
Si Si3 0.849809 0.778507 0.831994
Si Si4 0.304270 0.637139 0.305770
Si Si5 0.083861 0.147371 0.642490
Si Si6 0.365354 0.294411 0.269071
Si Si7 0.868120 0.448155 0.753001
Si Si8 0.119369 0.145776 0.414509
O O1 0.784599 0.390193 0.310653
O O2 0.753413 0.583338 0.527811
O O3 0.964076 0.249817 0.518744
O O4 0.684578 0.038096 0.040736
O O5 0.195797 0.381985 0.621448
O O6 0.976379 0.695244 0.535217
O O7 0.238035 0.957837 0.060619
O O8 0.913855 0.579646 0.828815
O O9 0.998023 0.925016 0.077184
O O10 0.323744 0.510318 0.312230
O O11 0.461221 0.676399 0.485898
O O12 0.244662 0.956289 0.463910
O O13 0.198148 0.418003 0.983546
O O14 0.171977 0.897150 0.541192
O O15 0.000000 0.000000 0.500000
O O16 0.276149 0.390868 0.290717
O O17 0.000000 0.500000 0.000000
#
# Coordination Sequence:
#
# PCOD8039330 Si02
#       8
#     2   2   2   2   2   2   2   2
#     4  12  20  34  61  86 109 147 191 233 279 334
#     4   9  20  35  58  89 108 143 194 238 278 325
#     4  10  18  33  57  84 111 138 188 240 267 326
#     4  11  22  38  53  81 121 149 179 233 284 338
#     4  12  19  33  56  85 108 144 194 225 278 340
#     4  11  23  35  55  84 115 152 183 222 295 341
#     4  12  19  31  57  81 114 149 186 235 277 330
#     4   9  18  38  55  82 116 146 180 242 282 321
#
# _framework density 18.63008
#
# number of rings (size 3 to 8) (size 9 to 14) (size 15 to 20)
#    0.750    0.500    6.250    0.750    1.750    1.000 
#    0.000    0.625    0.000    0.750    0.000    0.000 
#    0.000    0.000    0.000    0.000    0.000    0.000 
#
# Total GULP energy -198254.660368 kJ/mol
# GULP energy per Si atom -12390.916273 kJ/mol
# Density = 1.858768 g / cm^3
# Si number density = 18.630080 Si / 1000 Ang^3
#
#
#
# Elastic Constant Matrix: (Units=GPa)
#
#
# Indices 1 2 3 4 5 6 
#
# 1 83.9507 29.6589 39.0734 11.9320 -9.8311 1.6052
# 2 29.6589 66.7256 42.9150 20.4167 7.2340 8.8526
# 3 39.0734 42.9150 107.3168 11.9750 -2.8726 -1.2475
# 4 11.9320 20.4167 11.9750 27.7583 -8.5537 5.2442
# 5 -9.8311 7.2340 -2.8726 -8.5537 24.4668 2.8542
# 6 1.6052 8.8526 -1.2475 5.2442 2.8542 19.4148
#
#
#
# Elastic Compliance Matrix: (Units=1/GPa)
#
#
# Indices 1 2 3 4 5 6 
#
# 1 0.016655 -0.006902 -0.003314 0.002251 0.009177 -0.000400
# 2 -0.006902 0.034512 -0.009266 -0.023966 -0.021733 -0.006093
# 3 -0.003314 -0.009266 0.014103 0.002402 0.003407 0.004256
# 4 0.002251 -0.023966 0.002402 0.063494 0.031744 -0.010922
# 5 0.009177 -0.021733 0.003407 0.031744 0.063479 -0.008537
# 6 -0.000400 -0.006093 0.004256 -0.010922 -0.008537 0.058797
#
#
# Mechanical properties :
#
#
# Convention : Reuss Voigt Hill
#
# Bulk Modulus (GPa) = 38.01550 53.47642 45.74596
# Shear Modulus (GPa) = 16.73505 24.08435 20.40970
#
# Velocity S-wave (km/s) = 3.00039 3.59941 3.31346
# Velocity P-wave (km/s) = 5.69674 6.78535 6.26473
#
# Compressibility (1/GPa) = 0.02630506
#
# Stress axis : x y z
#
# Youngs Moduli (GPa) = 60.04136 28.97542 70.90686
#
# Poissons Ratio (x) = 0.19999 0.23499
# Poissons Ratio (y) = 0.41442 0.65705
# Poissons Ratio (z) = 0.19898 0.26850
#
# Static dielectric constant tensor:
#      x y z
#    x 3.344780 -0.143800 -0.004910 
#    y -0.143800 3.390320 0.301530 
#    z -0.004910 0.301530 3.479190 
# 
# 
# High freq. dielectric constant tensor:
#      x y z
#    x 1.708360 -0.001810 -0.000550 
#    y -0.001810 1.708410 0.035120 
#    z -0.000550 0.035120 1.707630 
# 
# From -- ./inp_files/602433.got.cif
#   From: 2010.06.25/outbox.cif.g09.slc.cpg/sg2_302_cif.got.tgz:602433.got - 2010.06.27 13:26:56.
