data_PCOD8039392
_publ_section_title
;
Structure prediction by ZEFSAII (Michael W. Deem and Ramdas Pophale) SiO2 
 PCOD8039392
Probable space group: P -1
;
_chemical_formula_sum "Si O2"
_cell_formula_units_Z 14
_cell_length_a 5.113113
_cell_length_b 23.869780
_cell_length_c 9.455976
_cell_angle_alpha 145.127687
_cell_angle_beta 95.982155
_cell_angle_gamma 86.352317
_cell_volume 655.771702
_symmetry_space_group_name_H-M "P -1"
_symmetry_group_IT_number 2
_symmetry_cell_setting 'triclinic'
loop_
_space_group_symop_operation_xyz
x,y,z
-x,-y,-z
loop_
_atom_site_type_symbol
_atom_site_label
_atom_site_fract_x
_atom_site_fract_y
_atom_site_fract_z
Si Si1 0.256678 0.749626 0.255702
Si Si2 0.463726 0.557666 0.949138
Si Si3 0.000071 0.367545 0.778064
Si Si4 0.977708 0.803883 0.767146
Si Si5 0.564921 0.591640 0.593361
Si Si6 0.547072 0.113610 0.212247
Si Si7 0.082027 0.722273 0.891647
O O1 0.431534 0.652624 0.040587
O O2 0.418827 0.835602 0.526383
O O3 0.009936 0.716818 0.274343
O O4 0.158669 0.782874 0.164863
O O5 0.751853 0.559758 0.036077
O O6 0.258286 0.567191 0.087676
O O7 0.406727 0.454384 0.656264
O O8 0.005657 0.310628 0.512270
O O9 0.694864 0.842200 0.791994
O O10 0.200767 0.871332 0.843633
O O11 0.006540 0.802698 0.936749
O O12 0.500000 0.500000 0.500000
O O13 0.331045 0.665909 0.732195
O O14 0.841309 0.646549 0.760451
O O15 0.500000 0.000000 0.000000
#
# Coordination Sequence:
#
# PCOD8039392 Si02
#       7
#     2   2   2   2   2   2   2
#     4   9  21  36  64  85 118 161 206 234 307 363
#     4  10  18  33  59  79 116 159 217 243 261 340
#     4   9  17  35  58  77 112 168 194 241 289 361
#     4  11  22  43  61  93 128 153 195 258 324 357
#     4  12  22  37  56  92 127 166 221 245 276 356
#     4  11  23  44  72  91 112 158 207 248 301 395
#     4  12  25  37  61  92 128 167 194 262 311 335
#
# _framework density 21.348891999999999
#
# number of rings (size 3 to 8) (size 9 to 14) (size 15 to 20)
#    0.857    0.571    2.857    3.429    0.000    0.000 
#    0.000    5.714    0.000    0.000    0.000    0.000 
#    0.000    0.000    0.000    0.000    0.000    0.000 
#
# Total GULP energy -173525.597259 kJ/mol
# GULP energy per Si atom -12394.685518 kJ/mol
# Density = 2.130030 g / cm^3
# Si number density = 21.348892 Si / 1000 Ang^3
#
#
#
# Elastic Constant Matrix: (Units=GPa)
#
#
# Indices 1 2 3 4 5 6 
#
# 1 126.5466 13.9837 28.2563 -6.1185 18.9297 -5.4507
# 2 13.9837 108.0237 62.9235 -19.4455 18.4726 -9.9103
# 3 28.2563 62.9235 107.7786 -5.3452 15.4257 -12.0978
# 4 -6.1185 -19.4455 -5.3452 32.4876 -3.5054 13.9302
# 5 18.9297 18.4726 15.4257 -3.5054 28.5869 -4.6475
# 6 -5.4507 -9.9103 -12.0978 13.9302 -4.6475 34.8742
#
#
#
# Elastic Compliance Matrix: (Units=1/GPa)
#
#
# Indices 1 2 3 4 5 6 
#
# 1 0.009182 0.001456 -0.002422 0.001795 -0.005567 -0.000450
# 2 0.001456 0.016951 -0.009228 0.009406 -0.006231 -0.002744
# 3 -0.002422 -0.009228 0.015652 -0.005414 -0.000814 0.004483
# 4 0.001795 0.009406 -0.005414 0.042606 -0.001751 -0.016176
# 5 -0.005567 -0.006231 -0.000814 -0.001751 0.043500 0.003573
# 6 -0.000450 -0.002744 0.004483 -0.016176 0.003573 0.036317
#
#
# Mechanical properties :
#
#
# Convention : Reuss Voigt Hill
#
# Bulk Modulus (GPa) = 46.73450 61.40843 54.07146
# Shear Modulus (GPa) = 26.07868 35.00210 30.54039
#
# Velocity S-wave (km/s) = 3.49886 4.05350 3.78635
# Velocity P-wave (km/s) = 6.18555 7.12281 6.67066
#
# Compressibility (1/GPa) = 0.02139747
#
# Stress axis : x y z
#
# Youngs Moduli (GPa) = 108.90472 58.99400 63.89034
#
# Poissons Ratio (x) = -0.08589 0.15475
# Poissons Ratio (y) = -0.15856 0.58956
# Poissons Ratio (z) = 0.26377 0.54438
#
# Static dielectric constant tensor:
#      x y z
#    x 3.894390 0.011060 0.035990 
#    y 0.011060 3.800000 -0.145700 
#    z 0.035990 -0.145700 3.763180 
# 
# 
# High freq. dielectric constant tensor:
#      x y z
#    x 1.847270 0.005880 0.008440 
#    y 0.005880 1.828650 -0.018870 
#    z 0.008440 -0.018870 1.816430 
# 
# From -- ./inp_files/142103.got.cif
#   From: 2010.06.25/outbox.cif.g09.slc.cpg/sg2_72_cif.got.tgz:142103.got - 2010.06.27 13:26:56.
