data_PCOD8039408
_publ_section_title
;
Structure prediction by ZEFSAII (Michael W. Deem and Ramdas Pophale) SiO2 
 PCOD8039408
Probable space group: P -1
;
_chemical_formula_sum "Si O2"
_cell_formula_units_Z 14
_cell_length_a 9.009849
_cell_length_b 17.755288
_cell_length_c 21.441427
_cell_angle_alpha 161.223557
_cell_angle_beta 40.465374
_cell_angle_gamma 141.257174
_cell_volume 686.678372
_symmetry_space_group_name_H-M "P -1"
_symmetry_group_IT_number 2
_symmetry_cell_setting 'triclinic'
loop_
_space_group_symop_operation_xyz
x,y,z
-x,-y,-z
loop_
_atom_site_type_symbol
_atom_site_label
_atom_site_fract_x
_atom_site_fract_y
_atom_site_fract_z
Si Si1 0.158770 0.893933 0.530351
Si Si2 0.367112 0.996367 0.974486
Si Si3 0.745650 0.927144 0.493677
Si Si4 0.609150 0.733692 0.605053
Si Si5 0.984852 0.629176 0.873739
Si Si6 0.586704 0.512716 0.310014
Si Si7 0.398219 0.213314 0.815593
O O1 0.198185 0.629618 0.292777
O O2 0.894456 0.832366 0.595018
O O3 0.202996 0.069163 0.593486
O O4 0.349743 0.044001 0.636493
O O5 0.358746 0.274567 0.186327
O O6 0.509151 0.947348 0.830200
O O7 0.117931 0.784009 0.892882
O O8 0.500000 0.000000 0.000000
O O9 0.609909 0.658595 0.352161
O O10 0.595010 0.113064 0.709474
O O11 0.000000 0.000000 0.500000
O O12 0.500000 0.500000 0.500000
O O13 0.531493 0.671053 0.509204
O O14 0.171646 0.565201 0.812525
O O15 0.849450 0.813751 0.090643
O O16 0.500000 0.500000 0.000000
#
# Coordination Sequence:
#
# PCOD8039408 Si02
#       7
#     2   2   2   2   2   2   2
#     4  11  22  40  68  92 127 165 211 256 313 371
#     4  10  18  33  59  92 127 160 211 253 299 373
#     4  12  23  45  63  91 133 161 205 273 315 369
#     4  11  18  33  65  98 120 165 211 254 302 368
#     4  10  20  38  64  92 123 161 213 254 302 374
#     4  10  21  38  60  94 131 158 207 263 308 359
#     4  12  25  41  66  92 123 171 217 250 316 381
#
# _framework density 20.388002
#
# number of rings (size 3 to 8) (size 9 to 14) (size 15 to 20)
#    0.000    1.143    8.571    2.143    0.000    0.000 
#    2.571    2.857    0.000    1.714    0.000    0.000 
#    0.000    0.000    0.000    0.000    0.000    0.000 
#
# Total GULP energy -173456.527451 kJ/mol
# GULP energy per Si atom -12389.751961 kJ/mol
# Density = 2.034160 g / cm^3
# Si number density = 20.388002 Si / 1000 Ang^3
#
#
#
# Elastic Constant Matrix: (Units=GPa)
#
#
# Indices 1 2 3 4 5 6 
#
# 1 64.3709 46.6176 55.2684 1.3238 -1.6289 -0.1102
# 2 46.6176 127.1398 43.2815 20.8230 -6.8015 -23.8110
# 3 55.2684 43.2815 126.1934 2.6836 1.9878 -4.2022
# 4 1.3238 20.8230 2.6836 56.2191 4.4742 -0.1241
# 5 -1.6289 -6.8015 1.9878 4.4742 35.1595 0.6196
# 6 -0.1102 -23.8110 -4.2022 -0.1241 0.6196 18.6218
#
#
#
# Elastic Compliance Matrix: (Units=1/GPa)
#
#
# Indices 1 2 3 4 5 6 
#
# 1 0.034829 -0.013289 -0.011429 0.004649 -0.000562 -0.019315
# 2 -0.013289 0.018185 0.000442 -0.006657 0.003317 0.023118
# 3 -0.011429 0.000442 0.012921 -0.000410 -0.001183 0.003450
# 4 0.004649 -0.006657 -0.000410 0.020423 -0.003501 -0.008324
# 5 -0.000562 0.003317 -0.001183 -0.003501 0.029518 0.002965
# 6 -0.019315 0.023118 0.003450 -0.008324 0.002965 0.083771
#
#
# Mechanical properties :
#
#
# Convention : Reuss Voigt Hill
#
# Bulk Modulus (GPa) = 57.52911 67.55990 62.54450
# Shear Modulus (GPa) = 19.68570 33.50253 26.59412
#
# Velocity S-wave (km/s) = 3.11071 4.05810 3.61557
# Velocity P-wave (km/s) = 6.41719 7.42742 6.94071
#
# Compressibility (1/GPa) = 0.01738250
#
# Stress axis : x y z
#
# Youngs Moduli (GPa) = 28.71189 54.99179 77.39590
#
# Poissons Ratio (x) = 0.73076 0.88458
# Poissons Ratio (y) = 0.38154 -0.03422
# Poissons Ratio (z) = 0.32816 -0.02432
#
# Static dielectric constant tensor:
#      x y z
#    x -12.359850 15.090730 6.945940 
#    y 15.090730 -9.894240 -6.639510 
#    z 6.945940 -6.639510 1.284770 
# 
# 
# High freq. dielectric constant tensor:
#      x y z
#    x 1.743520 0.006180 0.011770 
#    y 0.006180 1.825410 0.002540 
#    z 0.011770 0.002540 1.801380 
# 
# From -- ./inp_files/500142.got.cif
#   From: 2010.06.25/outbox.cif.g09.slc.cpg/sg2_251_cif.got.tgz:500142.got - 2010.06.27 13:26:56.
