data_PCOD8039642
_publ_section_title
;
Structure prediction by ZEFSAII (Michael W. Deem and Ramdas Pophale) SiO2 
 PCOD8039642
Probable space group: P -1
;
_chemical_formula_sum "Si O2"
_cell_formula_units_Z 16
_cell_length_a 8.491664
_cell_length_b 13.011030
_cell_length_c 15.345945
_cell_angle_alpha 150.614731
_cell_angle_beta 109.509021
_cell_angle_gamma 69.459615
_cell_volume 777.585344
_symmetry_space_group_name_H-M "P -1"
_symmetry_group_IT_number 2
_symmetry_cell_setting 'triclinic'
loop_
_space_group_symop_operation_xyz
x,y,z
-x,-y,-z
loop_
_atom_site_type_symbol
_atom_site_label
_atom_site_fract_x
_atom_site_fract_y
_atom_site_fract_z
Si Si1 0.147420 0.080846 0.305175
Si Si2 0.380843 0.368402 0.989237
Si Si3 0.949426 0.785219 0.793640
Si Si4 0.431564 0.290711 0.299694
Si Si5 0.664428 0.505297 0.729810
Si Si6 0.964750 0.574110 0.334293
Si Si7 0.754859 0.394947 0.024229
Si Si8 0.468858 0.904385 0.659959
O O1 0.026614 0.195562 0.291851
O O2 0.081094 0.189222 0.463091
O O3 0.340804 0.103235 0.342038
O O4 0.130835 0.832231 0.123613
O O5 0.321571 0.425178 0.117614
O O6 0.576211 0.392290 0.035243
O O7 0.266189 0.522957 0.017832
O O8 0.358144 0.127088 0.782429
O O9 0.759631 0.741653 0.741138
O O10 0.070741 0.592193 0.718178
O O11 0.000000 0.000000 0.000000
O O12 0.500000 0.500000 0.500000
O O13 0.449545 0.306926 0.209105
O O14 0.541711 0.113713 0.248544
O O15 0.596068 0.281089 0.544304
O O16 0.844846 0.470475 0.693028
O O17 0.847567 0.555538 0.215952
#
# Coordination Sequence:
#
# PCOD8039642 Si02
#       8
#     2   2   2   2   2   2   2   2
#     4  10  20  37  61  84 114 151 188 237 284 341
#     4  10  22  39  61  79 111 153 193 247 280 331
#     4  10  18  34  58  89 119 149 193 237 287 349
#     4   8  17  34  56  83 119 150 185 232 285 354
#     4  10  21  37  56  85 118 148 186 231 293 349
#     4  11  22  36  59  87 118 149 184 237 294 345
#     4  10  22  40  58  85 109 146 205 239 281 335
#     4   9  19  38  59  81 112 150 194 228 281 345
#
# _framework density 20.576519000000001
#
# number of rings (size 3 to 8) (size 9 to 14) (size 15 to 20)
#    0.000    2.250    1.250    1.125    0.000    3.000 
#    0.000    6.250    0.000    0.000    0.000    0.000 
#    0.000    0.000    0.000    0.000    0.000    0.000 
#
# Total GULP energy -198216.491173 kJ/mol
# GULP energy per Si atom -12388.530698 kJ/mol
# Density = 2.052969 g / cm^3
# Si number density = 20.576519 Si / 1000 Ang^3
#
#
#
# Elastic Constant Matrix: (Units=GPa)
#
#
# Indices 1 2 3 4 5 6 
#
# 1 36.1526 24.3661 28.5204 -2.7274 -1.3182 5.4843
# 2 24.3661 86.4512 11.0893 -5.8545 -17.1482 8.1380
# 3 28.5204 11.0893 79.0692 -14.8922 -7.5021 3.6962
# 4 -2.7274 -5.8545 -14.8922 31.1882 1.8211 0.8065
# 5 -1.3182 -17.1482 -7.5021 1.8211 34.4616 -6.4746
# 6 5.4843 8.1380 3.6962 0.8065 -6.4746 21.7478
#
#
#
# Elastic Compliance Matrix: (Units=1/GPa)
#
#
# Indices 1 2 3 4 5 6 
#
# 1 0.052070 -0.014008 -0.018587 -0.006166 -0.010110 -0.007512
# 2 -0.014008 0.016997 0.004182 0.003500 0.008430 -0.001159
# 3 -0.018587 0.004182 0.020912 0.008793 0.005630 0.000918
# 4 -0.006166 0.003500 0.008793 0.036376 0.001069 -0.002280
# 5 -0.010110 0.008430 0.005630 0.001069 0.035690 0.009024
# 6 -0.007512 -0.001159 0.000918 -0.002280 0.009024 0.050925
#
#
# Mechanical properties :
#
#
# Convention : Reuss Voigt Hill
#
# Bulk Modulus (GPa) = 30.16177 36.62497 33.39337
# Shear Modulus (GPa) = 17.80337 26.65934 22.23136
#
# Velocity S-wave (km/s) = 2.94467 3.60338 3.29055
# Velocity P-wave (km/s) = 5.12363 5.92878 5.54085
#
# Compressibility (1/GPa) = 0.03315455
#
# Stress axis : x y z
#
# Youngs Moduli (GPa) = 19.20501 58.83396 47.81903
#
# Poissons Ratio (x) = 0.82412 0.88879
# Poissons Ratio (y) = 0.26901 -0.19998
# Poissons Ratio (z) = 0.35696 -0.24604
#
# Static dielectric constant tensor:
#      x y z
#    x 3.441460 0.063510 0.243720 
#    y 0.063510 4.186170 0.127760 
#    z 0.243720 0.127760 3.714800 
# 
# 
# High freq. dielectric constant tensor:
#      x y z
#    x 1.778240 0.002910 0.020630 
#    y 0.002910 1.815760 -0.001630 
#    z 0.020630 -0.001630 1.804890 
# 
# From -- ./inp_files/283075.got.cif
#   From: 2010.06.25/outbox.cif.g09.slc.cpg/sg2_142_cif.got.tgz:283075.got - 2010.06.27 13:26:56.
