data_PCOD8039432
_publ_section_title
;
Structure prediction by ZEFSAII (Michael W. Deem and Ramdas Pophale) SiO2 
 PCOD8039432
Probable space group: P -1
;
_chemical_formula_sum "Si O2"
_cell_formula_units_Z 14
_cell_length_a 9.584275
_cell_length_b 11.441434
_cell_length_c 13.416875
_cell_angle_alpha 146.072448
_cell_angle_beta 85.428465
_cell_angle_gamma 78.682678
_cell_volume 721.827276
_symmetry_space_group_name_H-M "P -1"
_symmetry_group_IT_number 2
_symmetry_cell_setting 'triclinic'
loop_
_space_group_symop_operation_xyz
x,y,z
-x,-y,-z
loop_
_atom_site_type_symbol
_atom_site_label
_atom_site_fract_x
_atom_site_fract_y
_atom_site_fract_z
Si Si1 0.736467 0.184656 0.417508
Si Si2 0.151772 0.115636 0.146855
Si Si3 0.900153 0.462288 0.690887
Si Si4 0.213433 0.697051 0.708950
Si Si5 0.138765 0.335828 0.948188
Si Si6 0.462396 0.014114 0.627691
Si Si7 0.751769 0.790437 0.585350
O O1 0.799068 0.327238 0.582219
O O2 0.689178 0.296913 0.389109
O O3 0.581454 0.194920 0.486977
O O4 0.871282 0.907543 0.203018
O O5 0.168858 0.300998 0.204090
O O6 0.248453 0.092839 0.225780
O O7 0.968032 0.208393 0.249955
O O8 0.227099 0.857910 0.909524
O O9 0.083501 0.289507 0.536556
O O10 0.880879 0.524932 0.851221
O O11 0.283088 0.431155 0.556231
O O12 0.310747 0.268925 0.842042
O O13 0.000000 0.500000 0.000000
O O14 0.612972 0.984996 0.662886
O O15 0.500000 0.000000 0.500000
#
# Coordination Sequence:
#
# PCOD8039432 Si02
#       7
#     2   2   2   2   2   2   2
#     4  10  21  39  63  88 121 156 205 245 299 359
#     4  10  18  33  60  95 130 152 199 244 297 365
#     4  11  19  38  66  91 117 161 205 246 292 365
#     4  10  18  35  60  98 123 160 194 244 302 362
#     4  10  23  42  63  83 119 164 208 248 296 361
#     4  10  24  46  59  85 127 160 197 260 307 350
#     4  11  21  36  65  93 127 156 196 250 308 351
#
# _framework density 19.395222
#
# number of rings (size 3 to 8) (size 9 to 14) (size 15 to 20)
#    0.857    0.857    4.286    1.714    0.000    1.143 
#    2.571    2.143    0.000    0.000    0.000    0.000 
#    0.000    0.000    0.000    0.000    0.000    0.000 
#
# Total GULP energy -173579.614362 kJ/mol
# GULP energy per Si atom -12398.543883 kJ/mol
# Density = 1.935108 g / cm^3
# Si number density = 19.395222 Si / 1000 Ang^3
#
#
#
# Elastic Constant Matrix: (Units=GPa)
#
#
# Indices 1 2 3 4 5 6 
#
# 1 82.4290 42.2276 46.2174 -18.7014 7.5748 -9.7396
# 2 42.2276 68.7098 46.7152 -31.6886 -0.8497 -17.7695
# 3 46.2174 46.7152 129.6141 -29.6465 19.9438 -11.6695
# 4 -18.7014 -31.6886 -29.6465 39.1870 7.1981 2.2878
# 5 7.5748 -0.8497 19.9438 7.1981 30.9662 -4.3224
# 6 -9.7396 -17.7695 -11.6695 2.2878 -4.3224 42.6716
#
#
#
# Elastic Compliance Matrix: (Units=1/GPa)
#
#
# Indices 1 2 3 4 5 6 
#
# 1 0.019061 -0.010534 -0.002845 -0.000952 -0.003047 -0.001072
# 2 -0.010534 0.035570 -0.004178 0.019369 0.003214 0.010553
# 3 -0.002845 -0.004178 0.013355 0.007154 -0.009697 -0.000103
# 4 -0.000952 0.019369 0.007154 0.048430 -0.014297 0.005760
# 5 -0.003047 0.003214 -0.009697 -0.014297 0.043132 0.003127
# 6 -0.001072 0.010553 -0.000103 0.005760 0.003127 0.027564
#
#
# Mechanical properties :
#
#
# Convention : Reuss Voigt Hill
#
# Bulk Modulus (GPa) = 30.42166 61.23038 45.82602
# Shear Modulus (GPa) = 21.44228 32.27112 26.85670
#
# Velocity S-wave (km/s) = 3.32858 4.08348 3.72520
# Velocity P-wave (km/s) = 5.52194 7.33972 6.49474
#
# Compressibility (1/GPa) = 0.03287132
#
# Stress axis : x y z
#
# Youngs Moduli (GPa) = 52.46373 28.11326 74.87854
#
# Poissons Ratio (x) = 0.29613 0.21306
# Poissons Ratio (y) = 0.55263 0.31287
# Poissons Ratio (z) = 0.14928 0.11747
#
# Static dielectric constant tensor:
#      x y z
#    x 3.397980 0.088050 0.060610 
#    y 0.088050 3.425630 -0.045810 
#    z 0.060610 -0.045810 3.552870 
# 
# 
# High freq. dielectric constant tensor:
#      x y z
#    x 1.743520 0.004620 0.006940 
#    y 0.004620 1.746190 -0.013100 
#    z 0.006940 -0.013100 1.757860 
# 
# From -- ./inp_files/227237.got.cif
#   From: 2010.06.25/outbox.cif.g09.slc.cpg/sg2_114_cif.got.tgz:227237.got - 2010.06.27 13:26:56.
