data_PCOD8039249
_publ_section_title
;
Structure prediction by ZEFSAII (Michael W. Deem and Ramdas Pophale) SiO2 
 PCOD8039249
Probable space group: P -1
;
_chemical_formula_sum "Si O2"
_cell_formula_units_Z 14
_cell_length_a 12.358209
_cell_length_b 9.235735
_cell_length_c 8.524792
_cell_angle_alpha 95.860667
_cell_angle_beta 89.197273
_cell_angle_gamma 55.758141
_cell_volume 797.114433
_symmetry_space_group_name_H-M "P -1"
_symmetry_group_IT_number 2
_symmetry_cell_setting 'triclinic'
loop_
_space_group_symop_operation_xyz
x,y,z
-x,-y,-z
loop_
_atom_site_type_symbol
_atom_site_label
_atom_site_fract_x
_atom_site_fract_y
_atom_site_fract_z
Si Si1 0.605519 0.726720 0.048950
Si Si2 0.341851 0.987637 0.914710
Si Si3 0.863845 0.087698 0.597479
Si Si4 0.551167 0.560512 0.301911
Si Si5 0.301233 0.601159 0.170654
Si Si6 0.365329 0.785744 0.596413
Si Si7 0.862949 0.053364 0.938190
O O1 0.621777 0.626226 0.199784
O O2 0.678579 0.824057 0.076052
O O3 0.451445 0.866441 0.029423
O O4 0.678788 0.583071 0.891471
O O5 0.388151 0.894399 0.734462
O O6 0.200789 0.027658 0.968564
O O7 0.797436 0.296373 0.667433
O O8 0.765829 0.076568 0.483341
O O9 0.883213 0.984611 0.749162
O O10 0.000000 0.000000 0.500000
O O11 0.441014 0.565694 0.200709
O O12 0.491607 0.687133 0.469221
O O13 0.652092 0.358732 0.335160
O O14 0.239346 0.732424 0.035305
O O15 0.000000 0.000000 0.000000
#
# Coordination Sequence:
#
# PCOD8039249 Si02
#       7
#     2   2   2   2   2   2   2
#     4  11  20  34  52  82 119 140 174 222 272 326
#     4  11  21  32  55  83 112 147 173 218 277 319
#     4   9  19  34  57  80 101 134 187 230 260 308
#     4  10  18  33  54  81 107 141 179 223 266 319
#     4   9  18  33  55  79 105 136 180 225 262 311
#     4  10  19  31  55  79 109 140 183 218 266 320
#     4  10  20  36  59  81 101 142 190 225 256 319
#
# _framework density 17.56335
#
# number of rings (size 3 to 8) (size 9 to 14) (size 15 to 20)
#    0.857    1.143    2.857    2.143    0.000    0.571 
#    0.000    0.714    0.000    0.857    0.000    0.000 
#    0.000    0.000    0.000    0.000    0.000    0.000 
#
# Total GULP energy -173503.926560 kJ/mol
# GULP energy per Si atom -12393.137611 kJ/mol
# Density = 1.752338 g / cm^3
# Si number density = 17.563350 Si / 1000 Ang^3
#
#
#
# Elastic Constant Matrix: (Units=GPa)
#
#
# Indices 1 2 3 4 5 6 
#
# 1 90.2916 39.7580 33.8139 2.5432 3.5043 7.7091
# 2 39.7580 68.4503 33.7337 4.3393 1.2540 17.7539
# 3 33.8139 33.7337 91.1833 3.3271 2.5167 13.6796
# 4 2.5432 4.3393 3.3271 32.6295 -7.8033 9.4732
# 5 3.5043 1.2540 2.5167 -7.8033 25.6292 -1.4294
# 6 7.7091 17.7539 13.6796 9.4732 -1.4294 26.7837
#
#
#
# Elastic Compliance Matrix: (Units=1/GPa)
#
#
# Indices 1 2 3 4 5 6 
#
# 1 0.015717 -0.008220 -0.003126 -0.001004 -0.001590 0.002791
# 2 -0.008220 0.024564 -0.004258 0.001376 0.000077 -0.012224
# 3 -0.003126 -0.004258 0.014272 0.000209 -0.000908 -0.003690
# 4 -0.001004 0.001376 0.000209 0.036877 0.010541 -0.013210
# 5 -0.001590 0.000077 -0.000908 0.010541 0.042497 -0.000590
# 6 0.002791 -0.012224 -0.003690 -0.013210 -0.000590 0.051161
#
#
# Mechanical properties :
#
#
# Convention : Reuss Voigt Hill
#
# Bulk Modulus (GPa) = 42.83287 51.61518 47.22402
# Shear Modulus (GPa) = 22.31381 26.51645 24.41513
#
# Velocity S-wave (km/s) = 3.56824 3.88978 3.73247
# Velocity P-wave (km/s) = 6.43561 7.04455 6.74695
#
# Compressibility (1/GPa) = 0.02334656
#
# Stress axis : x y z
#
# Youngs Moduli (GPa) = 63.62623 40.71059 70.06635
#
# Poissons Ratio (x) = 0.33463 0.21901
# Poissons Ratio (y) = 0.52298 0.29832
# Poissons Ratio (z) = 0.19888 0.17333
#
# Static dielectric constant tensor:
#      x y z
#    x 2.908360 -0.088670 0.077970 
#    y -0.088670 3.223880 -0.045020 
#    z 0.077970 -0.045020 3.415520 
# 
# 
# High freq. dielectric constant tensor:
#      x y z
#    x 1.642020 -0.015070 0.004180 
#    y -0.015070 1.659760 -0.001680 
#    z 0.004180 -0.001680 1.693950 
# 
# From -- ./inp_files/195231.got.cif
#   From: 2010.06.25/outbox.cif.g09.slc.cpg/sg2_98_cif.got.tgz:195231.got - 2010.06.27 13:26:56.
