data_PCOD8039122
_publ_section_title
;
Structure prediction by ZEFSAII (Michael W. Deem and Ramdas Pophale) SiO2 
 PCOD8039122
Probable space group: P -1
;
_chemical_formula_sum "Si O2"
_cell_formula_units_Z 14
_cell_length_a 9.047718
_cell_length_b 18.358910
_cell_length_c 10.197415
_cell_angle_alpha 126.229000
_cell_angle_beta 100.259764
_cell_angle_gamma 123.587249
_cell_volume 750.807217
_symmetry_space_group_name_H-M "P -1"
_symmetry_group_IT_number 2
_symmetry_cell_setting 'triclinic'
loop_
_space_group_symop_operation_xyz
x,y,z
-x,-y,-z
loop_
_atom_site_type_symbol
_atom_site_label
_atom_site_fract_x
_atom_site_fract_y
_atom_site_fract_z
Si Si1 0.614507 0.738462 0.916313
Si Si2 0.242989 0.056599 0.638972
Si Si3 0.296962 0.236856 0.329212
Si Si4 0.439205 0.482538 0.761354
Si Si5 0.838909 0.010889 0.835382
Si Si6 0.443443 0.885352 0.455635
Si Si7 0.943386 0.724314 0.285158
O O1 0.576233 0.808712 0.073200
O O2 0.543606 0.717667 0.728546
O O3 0.429978 0.565287 0.755565
O O4 0.934409 0.873970 0.121066
O O5 0.454045 0.149526 0.649934
O O6 0.000000 0.000000 0.500000
O O7 0.128137 0.905152 0.513310
O O8 0.446949 0.397012 0.583523
O O9 0.290060 0.153630 0.346230
O O10 0.988301 0.110114 0.102555
O O11 0.176366 0.353298 0.672980
O O12 0.709525 0.621286 0.034777
O O13 0.610558 0.967577 0.707402
O O14 0.127590 0.729891 0.278234
O O15 0.500000 0.000000 0.500000
#
# Coordination Sequence:
#
# PCOD8039122 Si02
#       7
#     2   2   2   2   2   2   2
#     4  10  18  32  57  85 103 147 190 226 273 328
#     4  11  17  34  62  81 108 142 193 238 266 332
#     4   9  20  34  59  87 108 148 194 234 266 338
#     4  11  20  36  55  82 121 147 189 224 286 344
#     4   9  18  35  59  83 108 140 200 226 276 319
#     4  10  20  36  57  88 115 139 187 243 285 320
#     4  10  23  34  55  87 114 148 184 235 289 329
#
# _framework density 18.646598000000001
#
# number of rings (size 3 to 8) (size 9 to 14) (size 15 to 20)
#    0.857    1.143    2.857    2.143    0.000    0.000 
#    0.000    3.571    0.000    1.714    0.000    0.000 
#    0.000    0.000    0.000    0.000    0.000    0.000 
#
# Total GULP energy -173454.975013 kJ/mol
# GULP energy per Si atom -12389.641072 kJ/mol
# Density = 1.860416 g / cm^3
# Si number density = 18.646598 Si / 1000 Ang^3
#
#
#
# Elastic Constant Matrix: (Units=GPa)
#
#
# Indices 1 2 3 4 5 6 
#
# 1 80.6751 35.5898 13.1988 2.3619 -0.0743 12.1470
# 2 35.5898 110.6548 32.2403 10.5781 -3.1945 0.1386
# 3 13.1988 32.2403 57.5266 8.9523 -28.9965 -2.0779
# 4 2.3619 10.5781 8.9523 27.7896 -1.1721 -2.2949
# 5 -0.0743 -3.1945 -28.9965 -1.1721 34.1675 -2.1643
# 6 12.1470 0.1386 -2.0779 -2.2949 -2.1643 33.9008
#
#
#
# Elastic Compliance Matrix: (Units=1/GPa)
#
#
# Indices 1 2 3 4 5 6 
#
# 1 0.015688 -0.004234 -0.003346 0.000712 -0.003556 -0.005988
# 2 -0.004234 0.013185 -0.009663 -0.001817 -0.007020 0.000300
# 3 -0.003346 -0.009663 0.042961 -0.007911 0.035632 0.005611
# 4 0.000712 -0.001817 -0.007911 0.039064 -0.005443 0.001564
# 5 -0.003556 -0.007020 0.035632 -0.005443 0.059093 0.006891
# 6 -0.005988 0.000300 0.005611 0.001564 0.006891 0.032532
#
#
# Mechanical properties :
#
#
# Convention : Reuss Voigt Hill
#
# Bulk Modulus (GPa) = 26.77545 45.65714 36.21629
# Shear Modulus (GPa) = 20.04342 30.36011 25.20176
#
# Velocity S-wave (km/s) = 3.28214 4.03945 3.68033
# Velocity P-wave (km/s) = 5.36226 6.80404 6.12572
#
# Compressibility (1/GPa) = 0.03734765
#
# Stress axis : x y z
#
# Youngs Moduli (GPa) = 63.74242 75.84375 23.27699
#
# Poissons Ratio (x) = 0.32112 0.07789
# Poissons Ratio (y) = 0.26989 0.22493
# Poissons Ratio (z) = 0.21329 0.73288
#
# Static dielectric constant tensor:
#      x y z
#    x 3.552300 0.260100 -0.059740 
#    y 0.260100 3.541880 0.007250 
#    z -0.059740 0.007250 3.284300 
# 
# 
# High freq. dielectric constant tensor:
#      x y z
#    x 1.691430 0.005740 -0.012340 
#    y 0.005740 1.737310 -0.000700 
#    z -0.012340 -0.000700 1.705160 
# 
# From -- ./inp_files/402226.got.cif
#   From: 2010.06.25/outbox.cif.g09.slc.cpg/sg2_202_cif.got.tgz:402226.got - 2010.06.27 13:26:56.
