data_PCOD8039331
_publ_section_title
;
Structure prediction by ZEFSAII (Michael W. Deem and Ramdas Pophale) SiO2 
 PCOD8039331
Probable space group: P -1
;
_chemical_formula_sum "Si O2"
_cell_formula_units_Z 16
_cell_length_a 28.848119
_cell_length_b 14.413134
_cell_length_c 9.266446
_cell_angle_alpha 55.085780
_cell_angle_beta 42.521367
_cell_angle_gamma 20.545623
_cell_volume 793.236943
_symmetry_space_group_name_H-M "P -1"
_symmetry_group_IT_number 2
_symmetry_cell_setting 'triclinic'
loop_
_space_group_symop_operation_xyz
x,y,z
-x,-y,-z
loop_
_atom_site_type_symbol
_atom_site_label
_atom_site_fract_x
_atom_site_fract_y
_atom_site_fract_z
Si Si1 0.398642 0.678814 0.425484
Si Si2 0.647301 0.453570 0.857367
Si Si3 0.965018 0.809024 0.754703
Si Si4 0.565627 0.597151 0.588405
Si Si5 0.853831 0.748396 0.990824
Si Si6 0.985415 0.699450 0.128987
Si Si7 0.357375 0.280066 0.374188
Si Si8 0.300486 0.369133 0.764587
O O1 0.500000 0.500000 0.500000
O O2 0.374310 0.596398 0.477669
O O3 0.199512 0.039845 0.588776
O O4 0.511197 0.591850 0.146521
O O5 0.589441 0.523638 0.763684
O O6 0.631766 0.607500 0.802029
O O7 0.857694 0.089622 0.718803
O O8 0.880677 0.841105 0.812939
O O9 0.182787 0.490239 0.507732
O O10 0.929198 0.832701 0.982496
O O11 0.696741 0.501006 0.325786
O O12 0.351475 0.961785 0.737061
O O13 0.898618 0.596198 0.889314
O O14 0.000000 0.500000 0.000000
O O15 0.103979 0.609811 0.028466
O O16 0.335930 0.298915 0.576793
O O17 0.547379 0.923775 0.219968
#
# Coordination Sequence:
#
# PCOD8039331 Si02
#       8
#     2   2   2   2   2   2   2   2
#     4  12  23  39  58  87 122 158 187 237 298 352
#     4  11  21  37  59  89 120 151 195 242 290 341
#     4  10  18  33  59  88 115 150 197 238 288 344
#     4  11  22  38  64  85 118 152 198 246 283 343
#     4  10  18  33  57  86 114 151 196 237 277 343
#     4  10  20  35  58  86 116 155 196 234 290 348
#     4   9  18  33  59  87 114 148 197 248 283 334
#     4   9  18  36  57  85 114 151 196 241 290 339
#
# _framework density 20.170518000000001
#
# number of rings (size 3 to 8) (size 9 to 14) (size 15 to 20)
#    0.000    1.750    2.500    5.250    0.000    0.500 
#    0.000    2.500    0.000    1.500    0.000    0.000 
#    0.000    0.000    0.000    0.000    0.000    0.000 
#
# Total GULP energy -198348.852075 kJ/mol
# GULP energy per Si atom -12396.803255 kJ/mol
# Density = 2.012461 g / cm^3
# Si number density = 20.170518 Si / 1000 Ang^3
#
#
#
# Elastic Constant Matrix: (Units=GPa)
#
#
# Indices 1 2 3 4 5 6 
#
# 1 90.0793 17.2487 49.3091 -2.0757 -24.9301 10.1929
# 2 17.2487 93.7759 40.0555 -0.1955 -10.3209 2.6421
# 3 49.3091 40.0555 68.7520 2.9858 -22.0236 2.9425
# 4 -2.0757 -0.1955 2.9858 33.9197 0.0511 -3.6513
# 5 -24.9301 -10.3209 -22.0236 0.0511 31.6102 2.5028
# 6 10.1929 2.6421 2.9425 -3.6513 2.5028 30.9803
#
#
#
# Elastic Compliance Matrix: (Units=1/GPa)
#
#
# Indices 1 2 3 4 5 6 
#
# 1 0.021491 0.003337 -0.014448 0.001900 0.008480 -0.006444
# 2 0.003337 0.014793 -0.011061 0.001138 -0.000154 -0.001162
# 3 -0.014448 -0.011061 0.034276 -0.003841 0.008779 0.001279
# 4 0.001900 0.001138 -0.003841 0.030300 -0.001117 0.003304
# 5 0.008480 -0.000154 0.008779 -0.001117 0.044975 -0.007376
# 6 -0.006444 -0.001162 0.001279 0.003304 -0.007376 0.035362
#
#
# Mechanical properties :
#
#
# Convention : Reuss Voigt Hill
#
# Bulk Modulus (GPa) = 38.14471 51.75931 44.95201
# Shear Modulus (GPa) = 21.34220 29.03497 25.18858
#
# Velocity S-wave (km/s) = 3.25636 3.79816 3.53764
# Velocity P-wave (km/s) = 5.75245 6.70457 6.24668
#
# Compressibility (1/GPa) = 0.02621595
#
# Stress axis : x y z
#
# Youngs Moduli (GPa) = 46.53131 67.60162 29.17525
#
# Poissons Ratio (x) = -0.22560 0.42152
# Poissons Ratio (y) = -0.15528 0.32270
# Poissons Ratio (z) = 0.67228 0.74773
#
# Static dielectric constant tensor:
#      x y z
#    x 3.916360 0.134790 -0.336890 
#    y 0.134790 4.050380 0.261220 
#    z -0.336890 0.261220 4.121080 
# 
# 
# High freq. dielectric constant tensor:
#      x y z
#    x 1.779810 0.000110 -0.039140 
#    y 0.000110 1.801260 0.005230 
#    z -0.039140 0.005230 1.755740 
# 
# From -- ./inp_files/358753.got.cif
#   From: 2010.06.25/outbox.cif.g09.slc.cpg/sg2_180_cif.got.tgz:358753.got - 2010.06.27 13:26:56.
