data_PCOD8039124
_publ_section_title
;
Structure prediction by ZEFSAII (Michael W. Deem and Ramdas Pophale) SiO2 
 PCOD8039124
Probable space group: P -1
;
_chemical_formula_sum "Si O2"
_cell_formula_units_Z 12
_cell_length_a 11.369541
_cell_length_b 13.766584
_cell_length_c 8.841873
_cell_angle_alpha 60.847123
_cell_angle_beta 129.121919
_cell_angle_gamma 146.976222
_cell_volume 582.250258
_symmetry_space_group_name_H-M "P -1"
_symmetry_group_IT_number 2
_symmetry_cell_setting 'triclinic'
loop_
_space_group_symop_operation_xyz
x,y,z
-x,-y,-z
loop_
_atom_site_type_symbol
_atom_site_label
_atom_site_fract_x
_atom_site_fract_y
_atom_site_fract_z
Si Si1 0.163636 0.741598 0.577902
Si Si2 0.580529 0.479834 0.934088
Si Si3 0.957248 0.401853 0.738058
Si Si4 0.369475 0.947354 0.090359
Si Si5 0.943507 0.850435 0.882294
Si Si6 0.949770 0.847867 0.248404
O O1 0.178122 0.704058 0.448126
O O2 0.994194 0.556005 0.674213
O O3 0.048004 0.797558 0.454778
O O4 0.437282 0.906574 0.736346
O O5 0.707228 0.641760 0.798792
O O6 0.325426 0.284475 0.813910
O O7 0.500000 0.500000 0.000000
O O8 0.769253 0.491053 0.119391
O O9 0.784053 0.251976 0.840809
O O10 0.183674 0.943479 0.922544
O O11 0.500000 0.000000 0.000000
O O12 0.977014 0.844244 0.093804
O O13 0.897703 0.953901 0.732931
#
# Coordination Sequence:
#
# PCOD8039124 Si02
#       6
#     2   2   2   2   2   2
#     4  11  21  35  58  90 114 140 191 243 284 322
#     4   9  15  31  49  80 110 136 174 224 289 326
#     4  10  21  36  59  87 114 143 189 242 282 329
#     4  11  23  40  57  80 119 159 188 222 280 347
#     4   9  19  33  54  82 110 148 181 226 282 332
#     4  10  18  32  57  87 110 137 183 243 284 322
#
# _framework density 20.609694999999999
#
# number of rings (size 3 to 8) (size 9 to 14) (size 15 to 20)
#    0.000    2.000    5.000    1.500    0.000    2.000 
#    0.000    0.833    0.000    5.000    0.000    0.000 
#    0.000    0.000    0.000    0.000    0.000    0.000 
#
# Total GULP energy -148706.567802 kJ/mol
# GULP energy per Si atom -12392.213984 kJ/mol
# Density = 2.056279 g / cm^3
# Si number density = 20.609695 Si / 1000 Ang^3
#
#
#
# Elastic Constant Matrix: (Units=GPa)
#
#
# Indices 1 2 3 4 5 6 
#
# 1 86.8831 47.2538 29.2351 -16.0534 16.2376 13.1134
# 2 47.2538 126.3233 38.2045 -24.0972 17.8297 -1.4991
# 3 29.2351 38.2045 42.7614 -12.7447 15.9340 -1.2419
# 4 -16.0534 -24.0972 -12.7447 35.4543 -7.6680 13.9355
# 5 16.2376 17.8297 15.9340 -7.6680 17.2978 -9.0550
# 6 13.1134 -1.4991 -1.2419 13.9355 -9.0550 37.6271
#
#
#
# Elastic Compliance Matrix: (Units=1/GPa)
#
#
# Indices 1 2 3 4 5 6 
#
# 1 0.021584 -0.003094 -0.002922 0.008657 -0.018619 -0.015429
# 2 -0.003094 0.012221 -0.006853 0.004322 -0.001831 -0.000702
# 3 -0.002922 -0.006853 0.045793 0.006405 -0.033863 -0.008264
# 4 0.008657 0.004322 0.006405 0.043473 -0.010316 -0.021217
# 5 -0.018619 -0.001831 -0.033863 -0.010316 0.124218 0.039012
# 6 -0.015429 -0.000702 -0.008264 -0.021217 0.039012 0.048899
#
#
# Mechanical properties :
#
#
# Convention : Reuss Voigt Hill
#
# Bulk Modulus (GPa) = 18.56694 53.92830 36.24762
# Shear Modulus (GPa) = 14.71114 27.49413 21.10264
#
# Velocity S-wave (km/s) = 2.67460 3.65641 3.20334
# Velocity P-wave (km/s) = 4.30887 6.63695 5.59533
#
# Compressibility (1/GPa) = 0.05385916
#
# Stress axis : x y z
#
# Youngs Moduli (GPa) = 46.33163 81.82869 21.83728
#
# Poissons Ratio (x) = 0.25315 0.06381
# Poissons Ratio (y) = 0.14334 0.14965
# Poissons Ratio (z) = 0.13539 0.56078
#
# Static dielectric constant tensor:
#      x y z
#    x 3.340300 -0.144450 0.299400 
#    y -0.144450 3.765000 -0.110820 
#    z 0.299400 -0.110820 3.392890 
# 
# 
# High freq. dielectric constant tensor:
#      x y z
#    x 1.775760 -0.001660 0.035560 
#    y -0.001660 1.838200 -0.005950 
#    z 0.035560 -0.005950 1.760970 
# 
# From -- ./inp_files/255647.got.cif
#   From: 2010.06.25/outbox.cif.g09.slc.cpg/sg2_128_cif.got.tgz:255647.got - 2010.06.27 13:26:56.
