data_PCOD8039253
_publ_section_title
;
Structure prediction by ZEFSAII (Michael W. Deem and Ramdas Pophale) SiO2 
 PCOD8039253
Probable space group: P -1
;
_chemical_formula_sum "Si O2"
_cell_formula_units_Z 16
_cell_length_a 23.687456
_cell_length_b 5.216137
_cell_length_c 12.345201
_cell_angle_alpha 102.495020
_cell_angle_beta 137.245095
_cell_angle_gamma 92.922549
_cell_volume 958.959123
_symmetry_space_group_name_H-M "P -1"
_symmetry_group_IT_number 2
_symmetry_cell_setting 'triclinic'
loop_
_space_group_symop_operation_xyz
x,y,z
-x,-y,-z
loop_
_atom_site_type_symbol
_atom_site_label
_atom_site_fract_x
_atom_site_fract_y
_atom_site_fract_z
Si Si1 0.183468 0.373544 0.828187
Si Si2 0.884561 0.857073 0.518392
Si Si3 0.115639 0.588682 0.365405
Si Si4 0.272978 0.058058 0.282348
Si Si5 0.053076 0.303075 0.829825
Si Si6 0.272940 0.988119 0.036527
Si Si7 0.558839 0.808814 0.588256
Si Si8 0.183600 0.493866 0.222696
O O1 0.134147 0.228459 0.639339
O O2 0.111454 0.393925 0.814265
O O3 0.242625 0.685630 0.912247
O O4 0.245589 0.205380 0.944251
O O5 0.846112 0.595974 0.518957
O O6 0.838961 0.088685 0.508044
O O7 0.990042 0.985826 0.695849
O O8 0.134793 0.541691 0.264604
O O9 0.010108 0.506129 0.225818
O O10 0.378804 0.172005 0.427616
O O11 0.242709 0.299808 0.315913
O O12 0.229200 0.979707 0.093814
O O13 0.245645 0.785695 0.292305
O O14 0.111169 0.329058 0.020431
O O15 0.378767 0.085654 0.208744
O O16 0.500000 0.500000 0.500000
O O17 0.500000 0.000000 0.500000
#
# Coordination Sequence:
#
# PCOD8039253 Si02
#       8
#     2   2   2   2   2   2   2   2
#     4  12  20  37  53  71 113 137 187 221 250 333
#     4  10  24  35  49  73 100 142 195 226 271 284
#     4  10  24  35  49  73 100 142 195 226 271 284
#     4  10  21  33  53  82 102 146 162 199 270 320
#     4  10  22  33  52  74  98 144 186 226 286 279
#     4  10  21  33  53  82 102 146 162 199 270 320
#     4  10  18  33  54  82 120 132 152 204 256 339
#     4  12  20  37  53  71 113 137 187 221 250 333
#
# _framework density 16.684757999999999
#
# number of rings (size 3 to 8) (size 9 to 14) (size 15 to 20)
#    1.500    0.000    2.500    3.750    3.500    1.000 
#    0.000    0.000    0.000    0.000    0.000    0.000 
#    0.000   70.000    0.000    0.000    0.000    0.000 
#
# Total GULP energy -198289.001450 kJ/mol
# GULP energy per Si atom -12393.062591 kJ/mol
# Density = 1.664678 g / cm^3
# Si number density = 16.684758 Si / 1000 Ang^3
#
#
#
# Elastic Constant Matrix: (Units=GPa)
#
#
# Indices 1 2 3 4 5 6 
#
# 1 86.6463 43.3333 69.7177 1.0007 -6.4269 -11.1090
# 2 43.3333 137.4399 44.8878 7.3061 8.7955 -11.9059
# 3 69.7177 44.8878 79.6296 10.8992 -3.8340 1.4438
# 4 1.0007 7.3061 10.8992 22.9423 -0.5104 -3.8687
# 5 -6.4269 8.7955 -3.8340 -0.5104 26.6089 -1.3638
# 6 -11.1090 -11.9059 1.4438 -3.8687 -1.3638 23.2931
#
#
#
# Elastic Compliance Matrix: (Units=1/GPa)
#
#
# Indices 1 2 3 4 5 6 
#
# 1 0.077500 0.001361 -0.074497 0.040180 0.010847 0.049583
# 2 0.001361 0.009910 -0.007225 0.001172 -0.003651 0.006143
# 3 -0.074497 -0.007225 0.088749 -0.045637 -0.006393 -0.052678
# 4 0.040180 0.001172 -0.045637 0.069074 0.005830 0.034404
# 5 0.010847 -0.003651 -0.006393 0.005830 0.040961 0.007070
# 6 0.049583 0.006143 -0.052678 0.034404 0.007070 0.079112
#
#
# Mechanical properties :
#
#
# Convention : Reuss Voigt Hill
#
# Bulk Modulus (GPa) = 64.78243 68.84371 66.81307
# Shear Modulus (GPa) = 9.41311 24.28733 16.85022
#
# Velocity S-wave (km/s) = 2.37781 3.81945 3.18137
# Velocity P-wave (km/s) = 6.81544 7.79756 7.32298
#
# Compressibility (1/GPa) = 0.01543629
#
# Stress axis : x y z
#
# Youngs Moduli (GPa) = 12.90321 100.90629 11.26777
#
# Poissons Ratio (x) = -0.13732 0.83941
# Poissons Ratio (y) = -0.01756 0.08141
# Poissons Ratio (z) = 0.96125 0.72909
#
# Static dielectric constant tensor:
#      x y z
#    x 2.966400 -0.076800 -0.022240 
#    y -0.076800 3.145460 0.051820 
#    z -0.022240 0.051820 2.951710 
# 
# 
# High freq. dielectric constant tensor:
#      x y z
#    x 1.621650 -0.007980 -0.003550 
#    y -0.007980 1.660080 0.003500 
#    z -0.003550 0.003500 1.619920 
# 
# From -- ./inp_files/92180.got.cif
#   From: 2010.06.25/outbox.cif.g09.slc.cpg/sg2_47_cif.got.tgz:92180.got - 2010.06.27 13:26:56.
