data_PCOD8039798
_publ_section_title
;
Structure prediction by ZEFSAII (Michael W. Deem and Ramdas Pophale) SiO2 
 PCOD8039798
Probable space group: P -1
;
_chemical_formula_sum "Si O2"
_cell_formula_units_Z 16
_cell_length_a 9.941369
_cell_length_b 18.428937
_cell_length_c 11.936102
_cell_angle_alpha 36.565228
_cell_angle_beta 36.145719
_cell_angle_gamma 47.549041
_cell_volume 766.252535
_symmetry_space_group_name_H-M "P -1"
_symmetry_group_IT_number 2
_symmetry_cell_setting 'triclinic'
loop_
_space_group_symop_operation_xyz
x,y,z
-x,-y,-z
loop_
_atom_site_type_symbol
_atom_site_label
_atom_site_fract_x
_atom_site_fract_y
_atom_site_fract_z
Si Si1 0.762476 0.771661 0.827771
Si Si2 0.174293 0.608140 0.782782
Si Si3 0.168813 0.215310 0.971815
Si Si4 0.505106 0.781278 0.443303
Si Si5 0.559232 0.425413 0.738531
Si Si6 0.243879 0.449067 0.352900
Si Si7 0.162938 0.968654 0.534841
Si Si8 0.004881 0.485409 0.763759
O O1 0.979678 0.683467 0.746771
O O2 0.780709 0.906062 0.594550
O O3 0.761978 0.789217 0.939794
O O4 0.528229 0.710466 0.029827
O O5 0.280897 0.707878 0.665915
O O6 0.365999 0.523794 0.689747
O O7 0.042731 0.517704 0.067066
O O8 0.392882 0.178122 0.793808
O O9 0.084987 0.352917 0.823961
O O10 0.976289 0.122701 0.182474
O O11 0.693648 0.696249 0.491199
O O12 0.412342 0.903521 0.418065
O O13 0.577985 0.473296 0.794893
O O14 0.792311 0.425447 0.510031
O O15 0.228995 0.471074 0.201096
O O16 0.000000 0.500000 0.500000
O O17 0.000000 0.000000 0.500000
#
# Coordination Sequence:
#
# PCOD8039798 Si02
#       8
#     2   2   2   2   2   2   2   2
#     4  10  21  36  49  73 115 139 162 213 253 314
#     4  10  19  33  52  81 103 132 172 212 258 314
#     4  10  19  33  55  78 103 135 179 211 256 302
#     4  11  18  33  54  82 100 136 179 208 267 291
#     4  10  20  34  51  77 108 137 164 205 273 311
#     4   9  18  33  56  80 102 130 172 225 255 302
#     4  10  20  36  50  74 109 139 176 215 240 308
#     4  10  18  35  53  81 101 128 172 223 260 292
#
# _framework density 20.880845000000001
#
# number of rings (size 3 to 8) (size 9 to 14) (size 15 to 20)
#    0.000    2.000    7.500    0.375    0.000    6.000 
#    2.250    0.000    0.000    3.750    0.000    0.000 
#    0.000    0.000    0.000    0.000    0.000    0.000 
#
# Total GULP energy -198242.542858 kJ/mol
# GULP energy per Si atom -12390.158929 kJ/mol
# Density = 2.083332 g / cm^3
# Si number density = 20.880845 Si / 1000 Ang^3
#
#
#
# Elastic Constant Matrix: (Units=GPa)
#
#
# Indices 1 2 3 4 5 6 
#
# 1 26.6749 18.8977 12.5314 -7.4763 -10.7333 -14.6418
# 2 18.8977 100.8491 35.0043 -10.3457 -9.7666 -12.0760
# 3 12.5314 35.0043 101.9518 -15.6000 -28.7104 0.7728
# 4 -7.4763 -10.3457 -15.6000 35.5769 9.2707 -2.5303
# 5 -10.7333 -9.7666 -28.7104 9.2707 23.6887 -2.4955
# 6 -14.6418 -12.0760 0.7728 -2.5303 -2.4955 21.4049
#
#
#
# Elastic Compliance Matrix: (Units=1/GPa)
#
#
# Indices 1 2 3 4 5 6 
#
# 1 0.110428 -0.006209 0.006586 0.014861 0.058103 0.080327
# 2 -0.006209 0.012776 -0.004253 0.001535 -0.002990 0.002947
# 3 0.006586 -0.004253 0.016696 0.002293 0.021013 0.004223
# 4 0.014861 0.001535 0.002293 0.034170 -0.001670 0.014793
# 5 0.058103 -0.002990 0.021013 -0.001670 0.098547 0.048590
# 6 0.080327 0.002947 0.004223 0.014793 0.048590 0.110589
#
#
# Mechanical properties :
#
#
# Convention : Reuss Voigt Hill
#
# Bulk Modulus (GPa) = 7.56728 40.26029 23.91379
# Shear Modulus (GPa) = 11.49407 27.00361 19.24884
#
# Velocity S-wave (km/s) = 2.34873 3.60004 3.03948
# Velocity P-wave (km/s) = 3.31471 6.05006 4.87804
#
# Compressibility (1/GPa) = 0.13214783
#
# Stress axis : x y z
#
# Youngs Moduli (GPa) = 9.05564 78.27055 59.89634
#
# Poissons Ratio (x) = 0.48595 -0.39445
# Poissons Ratio (y) = 0.05622 0.25475
# Poissons Ratio (z) = -0.05964 0.33290
#
# Static dielectric constant tensor:
#      x y z
#    x 3.867590 -0.266230 -0.103650 
#    y -0.266230 3.856340 -0.211400 
#    z -0.103650 -0.211400 4.117750 
# 
# 
# High freq. dielectric constant tensor:
#      x y z
#    x 1.772540 -0.010620 -0.016180 
#    y -0.010620 1.813230 0.005990 
#    z -0.016180 0.005990 1.820850 
# 
# From -- ./inp_files/523742.got.cif
#   From: 2010.06.25/outbox.cif.g09.slc.cpg/sg2_262_cif.got.tgz:523742.got - 2010.06.27 13:26:56.
