data_PCOD8039010
_publ_section_title
;
Structure prediction by ZEFSAII (Michael W. Deem and Ramdas Pophale) SiO2 
 PCOD8039010
Probable space group: P -1
;
_chemical_formula_sum "Si O2"
_cell_formula_units_Z 14
_cell_length_a 23.210297
_cell_length_b 23.739658
_cell_length_c 14.416130
_cell_angle_alpha 161.743206
_cell_angle_beta 29.020927
_cell_angle_gamma 161.612370
_cell_volume 755.702542
_symmetry_space_group_name_H-M "P -1"
_symmetry_group_IT_number 2
_symmetry_cell_setting 'triclinic'
loop_
_space_group_symop_operation_xyz
x,y,z
-x,-y,-z
loop_
_atom_site_type_symbol
_atom_site_label
_atom_site_fract_x
_atom_site_fract_y
_atom_site_fract_z
Si Si1 0.699526 0.861360 0.558431
Si Si2 0.596109 0.142522 0.455145
Si Si3 0.793752 0.317904 0.261992
Si Si4 0.805787 0.340675 0.787328
Si Si5 0.664918 0.424872 0.975029
Si Si6 0.375690 0.680051 0.652904
Si Si7 0.930497 0.603236 0.215984
O O1 0.516278 0.676232 0.460189
O O2 0.670024 0.645121 0.319737
O O3 0.885012 0.061509 0.545504
O O4 0.723797 0.051315 0.895014
O O5 0.735592 0.255361 0.352594
O O6 0.700204 0.404758 0.787345
O O7 0.398538 0.997287 0.467796
O O8 0.541647 0.894779 0.200699
O O9 0.709806 0.393677 0.445239
O O10 0.022529 0.596051 0.370007
O O11 0.825199 0.528683 0.979713
O O12 0.804166 0.419130 0.015374
O O13 0.200441 0.446626 0.605049
O O14 0.500000 0.000000 0.000000
O O15 0.000000 0.500000 0.000000
#
# Coordination Sequence:
#
# PCOD8039010 Si02
#       7
#     2   2   2   2   2   2   2
#     4  10  21  34  53  84 114 133 178 228 260 321
#     4   9  20  39  56  74 106 152 178 215 266 322
#     4  10  19  31  59  83  98 142 182 219 273 306
#     4   9  18  34  56  77 106 141 179 219 256 333
#     4   9  21  40  52  77 112 145 179 215 272 312
#     4  10  18  32  52  81 110 137 173 216 265 325
#     4  11  18  32  56  84 110 141 171 219 284 303
#
# _framework density 18.525808000000001
#
# number of rings (size 3 to 8) (size 9 to 14) (size 15 to 20)
#    0.857    1.429    4.286    1.714    0.000    3.429 
#    2.571    0.714    0.000    1.714    0.000    0.000 
#    0.000    0.000    0.000    0.000    0.000    0.000 
#
# Total GULP energy -173479.692575 kJ/mol
# GULP energy per Si atom -12391.406613 kJ/mol
# Density = 1.848364 g / cm^3
# Si number density = 18.525808 Si / 1000 Ang^3
#
#
#
# Elastic Constant Matrix: (Units=GPa)
#
#
# Indices 1 2 3 4 5 6 
#
# 1 108.0180 15.1408 26.6050 -4.4617 1.5462 -0.5993
# 2 15.1408 74.3935 4.9911 -7.0530 8.3814 -16.5355
# 3 26.6050 4.9911 28.9928 -1.2801 7.2252 -4.5657
# 4 -4.4617 -7.0530 -1.2801 11.7842 -2.6482 4.6376
# 5 1.5462 8.3814 7.2252 -2.6482 16.0869 -8.0581
# 6 -0.5993 -16.5355 -4.5657 4.6376 -8.0581 37.4265
#
#
#
# Elastic Compliance Matrix: (Units=1/GPa)
#
#
# Indices 1 2 3 4 5 6 
#
# 1 0.012830 -0.002381 -0.012846 0.003961 0.005575 -0.001704
# 2 -0.002381 0.016155 0.001847 0.005610 -0.005350 0.005477
# 3 -0.012846 0.001847 0.051760 -0.004194 -0.022346 0.002633
# 4 0.003961 0.005610 -0.004194 0.094530 0.010414 -0.007441
# 5 0.005575 -0.005350 -0.022346 0.010414 0.081840 0.011330
# 6 -0.001704 0.005477 0.002633 -0.007441 0.011330 0.032794
#
#
# Mechanical properties :
#
#
# Convention : Reuss Voigt Hill
#
# Bulk Modulus (GPa) = 18.52361 33.87534 26.19948
# Shear Modulus (GPa) = 14.94038 24.03733 19.48885
#
# Velocity S-wave (km/s) = 2.84291 3.60600 3.24695
# Velocity P-wave (km/s) = 4.56034 5.97183 5.31317
#
# Compressibility (1/GPa) = 0.05398514
#
# Stress axis : x y z
#
# Youngs Moduli (GPa) = 77.94362 61.90126 19.31995
#
# Poissons Ratio (x) = 0.14737 0.24819
# Poissons Ratio (y) = 0.18556 -0.03569
# Poissons Ratio (z) = 1.00128 -0.11434
#
# Static dielectric constant tensor:
#      x y z
#    x 3.789750 0.130770 -0.032640 
#    y 0.130770 3.613940 0.032520 
#    z -0.032640 0.032520 2.819980 
# 
# 
# High freq. dielectric constant tensor:
#      x y z
#    x 1.736880 0.000980 0.001410 
#    y 0.000980 1.719240 0.002200 
#    z 0.001410 0.002200 1.655430 
# 
# From -- ./inp_files/219992.got.cif
#   From: 2010.06.25/outbox.cif.g09.slc.cpg/sg2_110_cif.got.tgz:219992.got - 2010.06.27 13:26:56.
