data_PCOD8039208
_publ_section_title
;
Structure prediction by ZEFSAII (Michael W. Deem and Ramdas Pophale) SiO2 
 PCOD8039208
Probable space group: P -1
;
_chemical_formula_sum "Si O2"
_cell_formula_units_Z 16
_cell_length_a 12.091282
_cell_length_b 13.940461
_cell_length_c 11.589774
_cell_angle_alpha 90.823865
_cell_angle_beta 63.693024
_cell_angle_gamma 41.177680
_cell_volume 931.328185
_symmetry_space_group_name_H-M "P -1"
_symmetry_group_IT_number 2
_symmetry_cell_setting 'triclinic'
loop_
_space_group_symop_operation_xyz
x,y,z
-x,-y,-z
loop_
_atom_site_type_symbol
_atom_site_label
_atom_site_fract_x
_atom_site_fract_y
_atom_site_fract_z
Si Si1 0.578410 0.047339 0.912470
Si Si2 0.989121 0.198752 0.432092
Si Si3 0.818472 0.167341 0.315484
Si Si4 0.492718 0.386075 0.846387
Si Si5 0.741825 0.636865 0.103336
Si Si6 0.320625 0.823828 0.015473
Si Si7 0.491016 0.423628 0.267109
Si Si8 0.317488 0.868981 0.428050
O O1 0.363879 0.223190 0.939459
O O2 0.626742 0.098752 0.984927
O O3 0.809026 0.875216 0.727501
O O4 0.500000 0.000000 0.000000
O O5 0.882330 0.195571 0.390172
O O6 0.782987 0.402441 0.576340
O O7 0.102454 0.075732 0.490739
O O8 0.628797 0.339140 0.322274
O O9 0.713357 0.141653 0.425207
O O10 0.044382 0.991190 0.134056
O O11 0.260669 0.472512 0.942454
O O12 0.441165 0.530088 0.843552
O O13 0.682471 0.221692 0.663293
O O14 0.591989 0.305370 0.926898
O O15 0.570116 0.755692 0.297092
O O16 0.000000 0.500000 0.000000
O O17 0.439249 0.717268 0.838076
#
# Coordination Sequence:
#
# PCOD8039208 Si02
#       8
#     2   2   2   2   2   2   2   2
#     4   9  19  35  56  72  93 135 174 207 250 296
#     4  10  18  33  52  73 100 137 176 203 241 307
#     4  11  19  32  49  74 108 135 166 211 248 294
#     4   9  18  33  51  74 103 136 169 198 255 303
#     4   8  16  30  50  77  98 118 167 219 244 280
#     4  10  21  37  49  72 110 136 166 201 258 315
#     4  12  22  29  50  83 105 133 165 212 257 295
#     4   9  17  32  52  72 102 137 173 204 247 300
#
# _framework density 17.179763999999999
#
# number of rings (size 3 to 8) (size 9 to 14) (size 15 to 20)
#    0.750    1.500    3.750    2.250    0.000    3.000 
#    0.000    0.625    0.000    0.000    0.000    9.625 
#    0.000    0.000    0.000    0.000    0.000    0.000 
#
# Total GULP energy -198239.726462 kJ/mol
# GULP energy per Si atom -12389.982904 kJ/mol
# Density = 1.714066 g / cm^3
# Si number density = 17.179764 Si / 1000 Ang^3
#
#
#
# Elastic Constant Matrix: (Units=GPa)
#
#
# Indices 1 2 3 4 5 6 
#
# 1 54.1530 37.3713 48.0495 2.2150 -15.7906 5.9564
# 2 37.3713 89.1866 48.1070 -2.6595 -21.0887 -0.5902
# 3 48.0495 48.1070 107.1660 15.2128 -8.9811 2.1686
# 4 2.2150 -2.6595 15.2128 33.0847 1.8577 -10.4322
# 5 -15.7906 -21.0887 -8.9811 1.8577 28.1751 2.4489
# 6 5.9564 -0.5902 2.1686 -10.4322 2.4489 24.7553
#
#
#
# Elastic Compliance Matrix: (Units=1/GPa)
#
#
# Indices 1 2 3 4 5 6 
#
# 1 0.040385 -0.006133 -0.013772 -0.001006 0.014634 -0.010528
# 2 -0.006133 0.019187 -0.006030 0.005510 0.008294 0.003963
# 3 -0.013772 -0.006030 0.018985 -0.008462 -0.005491 -0.001516
# 4 -0.001006 0.005510 -0.008462 0.040684 -0.003436 0.018599
# 5 0.014634 0.008294 -0.005491 -0.003436 0.049174 -0.009155
# 6 -0.010528 0.003963 -0.001516 0.018599 -0.009155 0.051900
#
#
# Mechanical properties :
#
#
# Convention : Reuss Voigt Hill
#
# Bulk Modulus (GPa) = 37.47266 57.50681 47.48973
# Shear Modulus (GPa) = 17.78856 25.00155 21.39505
#
# Velocity S-wave (km/s) = 3.22131 3.81897 3.53280
# Velocity P-wave (km/s) = 5.97455 7.27958 6.65911
#
# Compressibility (1/GPa) = 0.02668612
#
# Stress axis : x y z
#
# Youngs Moduli (GPa) = 24.76194 52.11940 52.67349
#
# Poissons Ratio (x) = 0.31965 0.72540
# Poissons Ratio (y) = 0.15186 0.31764
# Poissons Ratio (z) = 0.34101 0.31430
#
# Static dielectric constant tensor:
#      x y z
#    x 2.805160 -0.008980 -0.085840 
#    y -0.008980 3.140100 0.024730 
#    z -0.085840 0.024730 3.273160 
# 
# 
# High freq. dielectric constant tensor:
#      x y z
#    x 1.620050 -0.005220 -0.010120 
#    y -0.005220 1.666230 0.000220 
#    z -0.010120 0.000220 1.663540 
# 
# From -- ./inp_files/269553.got.cif
#   From: 2010.06.25/outbox.cif.g09.slc.cpg/sg2_135_cif.got.tgz:269553.got - 2010.06.27 13:26:56.
