data_PCOD8039021
_publ_section_title
;
Structure prediction by ZEFSAII (Michael W. Deem and Ramdas Pophale) SiO2 
 PCOD8039021
Probable space group: P -1
;
_chemical_formula_sum "Si O2"
_cell_formula_units_Z 16
_cell_length_a 13.897265
_cell_length_b 8.104220
_cell_length_c 8.388292
_cell_angle_alpha 104.783745
_cell_angle_beta 101.074938
_cell_angle_gamma 124.551783
_cell_volume 681.741408
_symmetry_space_group_name_H-M "P -1"
_symmetry_group_IT_number 2
_symmetry_cell_setting 'triclinic'
loop_
_space_group_symop_operation_xyz
x,y,z
-x,-y,-z
loop_
_atom_site_type_symbol
_atom_site_label
_atom_site_fract_x
_atom_site_fract_y
_atom_site_fract_z
Si Si1 0.940708 0.686127 0.091157
Si Si2 0.337274 0.582347 0.099000
Si Si3 0.989078 0.564672 0.755652
Si Si4 0.375238 0.024459 0.252615
Si Si5 0.801864 0.915579 0.601222
Si Si6 0.400504 0.538439 0.448934
Si Si7 0.435895 0.102821 0.952595
Si Si8 0.184905 0.843384 0.618990
O O1 0.944452 0.520222 0.157685
O O2 0.803915 0.623999 0.065767
O O3 0.056168 0.942654 0.241850
O O4 0.946049 0.652315 0.895515
O O5 0.361225 0.501704 0.244518
O O6 0.447943 0.653092 0.025183
O O7 0.337220 0.784516 0.185048
O O8 0.092838 0.768428 0.722391
O O9 0.866050 0.366049 0.563439
O O10 0.270649 0.008583 0.317067
O O11 0.523164 0.205130 0.409916
O O12 0.373709 0.108841 0.095443
O O13 0.727492 0.651519 0.535058
O O14 0.810929 0.973375 0.431754
O O15 0.500000 0.500000 0.500000
O O16 0.327721 0.953617 0.747078
O O17 0.500000 0.000000 0.000000
#
# Coordination Sequence:
#
# PCOD8039021 Si02
#       8
#     2   2   2   2   2   2   2   2
#     4  10  19  34  56  84 112 142 184 225 280 326
#     4  11  21  35  59  84 110 145 186 233 274 325
#     4   9  18  32  55  85 111 141 183 234 272 326
#     4  10  20  37  60  84 109 143 189 233 274 322
#     4  10  21  38  58  80 116 150 181 226 274 337
#     4  10  22  39  55  79 113 151 187 223 277 331
#     4  10  20  32  52  83 114 138 178 236 278 316
#     4  10  18  32  53  78 112 148 183 222 279 326
#
# _framework density 23.469308999999999
#
# number of rings (size 3 to 8) (size 9 to 14) (size 15 to 20)
#    0.000    2.000    0.000    6.375    0.000    3.500 
#    0.000    6.875    0.000    1.500    0.000    0.000 
#    0.000    0.000    0.000    0.000    0.000    0.000 
#
# Total GULP energy -198353.643449 kJ/mol
# GULP energy per Si atom -12397.102716 kJ/mol
# Density = 2.341589 g / cm^3
# Si number density = 23.469309 Si / 1000 Ang^3
#
#
#
# Elastic Constant Matrix: (Units=GPa)
#
#
# Indices 1 2 3 4 5 6 
#
# 1 53.0960 27.8892 36.4415 2.0047 22.7921 24.9000
# 2 27.8892 137.8198 46.3026 -11.4416 19.3549 39.6111
# 3 36.4415 46.3026 115.2805 -12.2126 35.0956 25.9012
# 4 2.0047 -11.4416 -12.2126 44.9818 12.5363 0.0583
# 5 22.7921 19.3549 35.0956 12.5363 39.9314 6.7844
# 6 24.9000 39.6111 25.9012 0.0583 6.7844 35.5531
#
#
#
# Elastic Compliance Matrix: (Units=1/GPa)
#
#
# Indices 1 2 3 4 5 6 
#
# 1 0.038110 0.003080 -0.001330 0.004055 -0.019012 -0.025532
# 2 0.003080 0.012105 -0.000105 0.004771 -0.006599 -0.014316
# 3 -0.001330 -0.000105 0.016435 0.008682 -0.014988 -0.008079
# 4 0.004055 0.004771 0.008682 0.031284 -0.020267 -0.010665
# 5 -0.019012 -0.006599 -0.014988 -0.020267 0.055041 0.021116
# 6 -0.025532 -0.014316 -0.008079 -0.010665 0.021116 0.063832
#
#
# Mechanical properties :
#
#
# Convention : Reuss Voigt Hill
#
# Bulk Modulus (GPa) = 14.29802 58.60700 36.45251
# Shear Modulus (GPa) = 21.11213 37.13080 29.12146
#
# Velocity S-wave (km/s) = 3.00253 3.98188 3.52637
# Velocity P-wave (km/s) = 4.25742 6.79459 5.66975
#
# Compressibility (1/GPa) = 0.06993974
#
# Stress axis : x y z
#
# Youngs Moduli (GPa) = 26.23958 82.60886 60.84654
#
# Poissons Ratio (x) = -0.25440 0.08094
# Poissons Ratio (y) = -0.08081 0.00637
# Poissons Ratio (z) = 0.03490 0.00865
#
# Static dielectric constant tensor:
#      x y z
#    x 3.821790 0.521920 0.109490 
#    y 0.521920 4.750810 -0.078540 
#    z 0.109490 -0.078540 4.804920 
# 
# 
# High freq. dielectric constant tensor:
#      x y z
#    x 1.889780 0.031770 0.024180 
#    y 0.031770 1.941560 -0.011890 
#    z 0.024180 -0.011890 1.934780 
# 
# From -- ./inp_files/298862.got.cif
#   From: 2010.06.25/outbox.cif.g09.slc.cpg/sg2_150_cif.got.tgz:298862.got - 2010.06.27 13:26:56.
