data_PCOD8039299
_publ_section_title
;
Structure prediction by ZEFSAII (Michael W. Deem and Ramdas Pophale) SiO2 
 PCOD8039299
Probable space group: P -1
;
_chemical_formula_sum "Si O2"
_cell_formula_units_Z 16
_cell_length_a 12.464945
_cell_length_b 19.160434
_cell_length_c 24.988550
_cell_angle_alpha 163.042632
_cell_angle_beta 151.796658
_cell_angle_gamma 28.173290
_cell_volume 789.787878
_symmetry_space_group_name_H-M "P -1"
_symmetry_group_IT_number 2
_symmetry_cell_setting 'triclinic'
loop_
_space_group_symop_operation_xyz
x,y,z
-x,-y,-z
loop_
_atom_site_type_symbol
_atom_site_label
_atom_site_fract_x
_atom_site_fract_y
_atom_site_fract_z
Si Si1 0.538577 0.886051 0.311591
Si Si2 0.230326 0.599193 0.000307
Si Si3 0.432261 0.780776 0.695277
Si Si4 0.878532 0.405186 0.755507
Si Si5 0.873593 0.953767 0.033645
Si Si6 0.356841 0.671733 0.701594
Si Si7 0.839057 0.712325 0.620703
Si Si8 0.984244 0.041924 0.435097
O O1 0.592035 0.671423 0.132217
O O2 0.785361 0.920193 0.466449
O O3 0.390534 0.141258 0.406558
O O4 0.385078 0.795235 0.223837
O O5 0.065208 0.570945 0.956797
O O6 0.062232 0.697878 0.947022
O O7 0.500000 0.500000 0.500000
O O8 0.360904 0.793704 0.735290
O O9 0.215284 0.948124 0.688931
O O10 0.651648 0.894063 0.864258
O O11 0.617850 0.588847 0.781230
O O12 0.892353 0.251079 0.593348
O O13 0.945221 0.230371 0.707776
O O14 0.802526 0.117385 0.176028
O O15 0.003378 0.100491 0.156763
O O16 0.253261 0.428096 0.473927
O O17 0.000000 0.500000 0.500000
#
# Coordination Sequence:
#
# PCOD8039299 Si02
#       8
#     2   2   2   2   2   2   2   2
#     4   9  16  31  52  79 109 143 186 231 283 323
#     4   9  17  29  53  82 106 140 191 237 265 335
#     4  12  22  36  56  88 121 148 189 242 288 332
#     4  10  18  33  56  82 107 149 195 226 282 340
#     4  10  21  37  59  86 115 151 197 233 283 345
#     4  11  20  37  62  83 114 155 195 232 285 344
#     4   9  19  35  60  85 109 151 200 235 275 347
#     4  10  20  33  53  82 116 145 184 237 280 337
#
# _framework density 20.258603999999998
#
# number of rings (size 3 to 8) (size 9 to 14) (size 15 to 20)
#    0.000    2.000    3.750    1.125    0.000    0.000 
#    0.000    2.500    0.000    6.750    0.000    0.000 
#    0.000    0.000    0.000    0.000    0.000    0.000 
#
# Total GULP energy -198286.326662 kJ/mol
# GULP energy per Si atom -12392.895416 kJ/mol
# Density = 2.021249 g / cm^3
# Si number density = 20.258604 Si / 1000 Ang^3
#
#
#
# Elastic Constant Matrix: (Units=GPa)
#
#
# Indices 1 2 3 4 5 6 
#
# 1 52.6246 28.8250 29.5826 -9.1041 31.2623 -4.1659
# 2 28.8250 132.5097 36.0986 -8.0608 9.2541 -3.3003
# 3 29.5826 36.0986 91.6651 -17.3392 38.8326 -0.0682
# 4 -9.1041 -8.0608 -17.3392 36.3365 -11.4616 4.8063
# 5 31.2623 9.2541 38.8326 -11.4616 44.3665 -0.9886
# 6 -4.1659 -3.3003 -0.0682 4.8063 -0.9886 26.8917
#
#
#
# Elastic Compliance Matrix: (Units=1/GPa)
#
#
# Indices 1 2 3 4 5 6 
#
# 1 0.037949 -0.006767 0.001748 -0.000157 -0.026808 0.004095
# 2 -0.006767 0.009793 -0.004442 0.000440 0.006734 0.000311
# 3 0.001748 -0.004442 0.019939 0.003874 -0.016791 -0.001533
# 4 -0.000157 0.000440 0.003874 0.031622 0.004676 -0.005440
# 5 -0.026808 0.006734 -0.016791 0.004676 0.055881 -0.002151
# 6 0.004095 0.000311 -0.001533 -0.005440 -0.002151 0.038748
#
#
# Mechanical properties :
#
#
# Convention : Reuss Voigt Hill
#
# Bulk Modulus (GPa) = 20.50868 51.75687 36.13277
# Shear Modulus (GPa) = 21.82379 33.67180 27.74779
#
# Velocity S-wave (km/s) = 3.28572 4.08131 3.70493
# Velocity P-wave (km/s) = 4.95379 6.91469 6.01469
#
# Compressibility (1/GPa) = 0.04875985
#
# Stress axis : x y z
#
# Youngs Moduli (GPa) = 26.35109 102.11439 50.15217
#
# Poissons Ratio (x) = 0.69097 -0.08766
# Poissons Ratio (y) = 0.17831 0.22278
# Poissons Ratio (z) = -0.04606 0.45360
#
# Static dielectric constant tensor:
#      x y z
#    x 3.760090 -0.287590 0.774970 
#    y -0.287590 3.786490 0.088990 
#    z 0.774970 0.088990 3.964930 
# 
# 
# High freq. dielectric constant tensor:
#      x y z
#    x 1.763220 -0.033820 0.054450 
#    y -0.033820 1.798110 0.022740 
#    z 0.054450 0.022740 1.782640 
# 
# From -- ./inp_files/263588.got.cif
#   From: 2010.06.25/outbox.cif.g09.slc.cpg/sg2_132_cif.got.tgz:263588.got - 2010.06.27 13:26:56.
