data_PCOD8039692
_publ_section_title
;
Structure prediction by ZEFSAII (Michael W. Deem and Ramdas Pophale) SiO2 
 PCOD8039692
Probable space group: P -1
;
_chemical_formula_sum "Si O2"
_cell_formula_units_Z 16
_cell_length_a 10.704000
_cell_length_b 22.554150
_cell_length_c 8.052461
_cell_angle_alpha 119.140475
_cell_angle_beta 133.451622
_cell_angle_gamma 36.982836
_cell_volume 840.269166
_symmetry_space_group_name_H-M "P -1"
_symmetry_group_IT_number 2
_symmetry_cell_setting 'triclinic'
loop_
_space_group_symop_operation_xyz
x,y,z
-x,-y,-z
loop_
_atom_site_type_symbol
_atom_site_label
_atom_site_fract_x
_atom_site_fract_y
_atom_site_fract_z
Si Si1 0.313021 0.286998 0.164302
Si Si2 0.239774 0.524738 0.965714
Si Si3 0.291264 0.427110 0.192323
Si Si4 0.984392 0.018124 0.822180
Si Si5 0.242422 0.037376 0.662427
Si Si6 0.759541 0.195252 0.660403
Si Si7 0.474346 0.103174 0.980137
Si Si8 0.485640 0.413312 0.706766
O O1 0.406020 0.317535 0.157199
O O2 0.536804 0.215264 0.403270
O O3 0.060173 0.386571 0.158452
O O4 0.276265 0.223503 0.961983
O O5 0.287697 0.475600 0.763833
O O6 0.384287 0.443049 0.138024
O O7 0.339073 0.572066 0.118185
O O8 0.347029 0.447721 0.448354
O O9 0.000000 0.500000 0.000000
O O10 0.833497 0.131489 0.805251
O O11 0.843739 0.993408 0.587902
O O12 0.000000 0.000000 0.000000
O O13 0.267366 0.942039 0.914010
O O14 0.349572 0.076097 0.727156
O O15 0.005418 0.128252 0.679896
O O16 0.473820 0.938957 0.844286
O O17 0.665719 0.297756 0.754631
#
# Coordination Sequence:
#
# PCOD8039692 Si02
#       8
#     2   2   2   2   2   2   2   2
#     4  10  18  34  60  82 109 149 195 239 282 345
#     4  10  21  37  57  86 115 150 198 238 293 344
#     4   9  20  34  56  80 111 149 190 235 290 340
#     4  11  22  37  57  85 123 149 184 238 292 345
#     4  10  19  36  61  82 109 150 192 235 281 340
#     4  10  19  37  58  82 110 148 199 231 284 347
#     4  10  19  35  61  83 109 150 195 231 278 344
#     4  10  21  37  59  82 117 154 189 247 287 340
#
# _framework density 19.041519999999998
#
# number of rings (size 3 to 8) (size 9 to 14) (size 15 to 20)
#    0.000    2.000    2.500    1.875    0.000    6.000 
#    0.000    1.250    5.500    0.000    0.000    0.000 
#    0.000    0.000    0.000    0.000    0.000    0.000 
#
# Total GULP energy -198237.297931 kJ/mol
# GULP energy per Si atom -12389.831121 kJ/mol
# Density = 1.899818 g / cm^3
# Si number density = 19.041520 Si / 1000 Ang^3
#
#
#
# Elastic Constant Matrix: (Units=GPa)
#
#
# Indices 1 2 3 4 5 6 
#
# 1 72.7986 38.2094 44.7594 11.5215 -9.2098 28.0737
# 2 38.2094 110.6705 33.6487 9.3464 -2.2375 21.0983
# 3 44.7594 33.6487 94.5165 11.0202 0.0904 12.6590
# 4 11.5215 9.3464 11.0202 32.1647 7.0849 8.9721
# 5 -9.2098 -2.2375 0.0904 7.0849 33.4926 0.2177
# 6 28.0737 21.0983 12.6590 8.9721 0.2177 23.1925
#
#
#
# Elastic Compliance Matrix: (Units=1/GPa)
#
#
# Indices 1 2 3 4 5 6 
#
# 1 0.038465 -0.002040 -0.012348 -0.000825 0.010894 -0.037748
# 2 -0.002040 0.011776 -0.002288 -0.000019 0.000282 -0.006990
# 3 -0.012348 -0.002288 0.016303 -0.002330 -0.003158 0.009060
# 4 -0.000825 -0.000019 -0.002330 0.037329 -0.008040 -0.012078
# 5 0.010894 0.000282 -0.003158 -0.008040 0.034639 -0.008934
# 6 -0.037748 -0.006990 0.009060 -0.012078 -0.008934 0.094980
#
#
# Mechanical properties :
#
#
# Convention : Reuss Voigt Hill
#
# Bulk Modulus (GPa) = 30.12722 56.80230 43.46476
# Shear Modulus (GPa) = 17.99164 28.52782 23.25973
#
# Velocity S-wave (km/s) = 3.07720 3.87485 3.49883
# Velocity P-wave (km/s) = 5.33683 7.06504 6.26085
#
# Compressibility (1/GPa) = 0.03319258
#
# Stress axis : x y z
#
# Youngs Moduli (GPa) = 25.99785 84.92170 61.33692
#
# Poissons Ratio (x) = 0.17320 0.75738
# Poissons Ratio (y) = 0.05302 0.14035
# Poissons Ratio (z) = 0.32102 0.19432
#
# Static dielectric constant tensor:
#      x y z
#    x 3.851440 0.620610 0.161220 
#    y 0.620610 4.045720 0.114940 
#    z 0.161220 0.114940 3.672760 
# 
# 
# High freq. dielectric constant tensor:
#      x y z
#    x 1.734720 0.022850 0.023030 
#    y 0.022850 1.744780 -0.000370 
#    z 0.023030 -0.000370 1.734640 
# 
# From -- ./inp_files/284990.got.cif
#   From: 2010.06.25/outbox.cif.g09.slc.cpg/sg2_143_cif.got.tgz:284990.got - 2010.06.27 13:26:56.
