data_PCOD8039733
_publ_section_title
;
Structure prediction by ZEFSAII (Michael W. Deem and Ramdas Pophale) SiO2 
 PCOD8039733
Probable space group: P -1
;
_chemical_formula_sum "Si O2"
_cell_formula_units_Z 14
_cell_length_a 9.059188
_cell_length_b 11.314352
_cell_length_c 9.349701
_cell_angle_alpha 87.265355
_cell_angle_beta 117.269175
_cell_angle_gamma 54.691018
_cell_volume 627.299638
_symmetry_space_group_name_H-M "P -1"
_symmetry_group_IT_number 2
_symmetry_cell_setting 'triclinic'
loop_
_space_group_symop_operation_xyz
x,y,z
-x,-y,-z
loop_
_atom_site_type_symbol
_atom_site_label
_atom_site_fract_x
_atom_site_fract_y
_atom_site_fract_z
Si Si1 0.203936 0.632122 0.812460
Si Si2 0.642506 0.885809 0.790717
Si Si3 0.484141 0.497794 0.292903
Si Si4 0.830872 0.596712 0.048880
Si Si5 0.935718 0.164638 0.996530
Si Si6 0.256317 0.213893 0.488575
Si Si7 0.241618 0.474824 0.398109
O O1 0.428689 0.558394 0.828237
O O2 0.257334 0.489907 0.940340
O O3 0.129787 0.779096 0.869383
O O4 0.003524 0.697127 0.607670
O O5 0.695113 0.828857 0.654541
O O6 0.844426 0.866388 0.945899
O O7 0.406140 0.068922 0.676025
O O8 0.625622 0.779348 0.893589
O O9 0.388673 0.419294 0.318275
O O10 0.695182 0.441616 0.483959
O O11 0.277951 0.691168 0.200646
O O12 0.974517 0.591369 0.239978
O O13 0.000000 0.500000 0.000000
O O14 0.000000 0.000000 0.000000
O O15 0.310595 0.326098 0.529416
#
# Coordination Sequence:
#
# PCOD8039733 Si02
#       7
#     2   2   2   2   2   2   2
#     4  10  22  38  64  94 120 159 206 256 298 351
#     4  10  18  34  61  87 119 157 207 241 301 363
#     4  11  22  37  61  93 124 160 207 248 304 363
#     4  11  17  36  63  92 115 158 210 249 291 366
#     4  11  21  36  61  90 124 158 199 244 306 365
#     4   9  19  34  60  89 115 160 200 252 300 358
#     4  10  20  36  61  87 117 165 206 245 296 368
#
# _framework density 22.317882999999998
#
# number of rings (size 3 to 8) (size 9 to 14) (size 15 to 20)
#    0.000    1.714    5.714    1.286    0.000    2.286 
#    0.000    0.000    9.429   12.000    0.000    0.000 
#    0.000    0.000    0.000    0.000    0.000    0.000 
#
# Total GULP energy -173487.316904 kJ/mol
# GULP energy per Si atom -12391.951207 kJ/mol
# Density = 2.226709 g / cm^3
# Si number density = 22.317883 Si / 1000 Ang^3
#
#
#
# Elastic Constant Matrix: (Units=GPa)
#
#
# Indices 1 2 3 4 5 6 
#
# 1 95.0422 48.3220 33.9469 -4.1264 1.8618 -0.9000
# 2 48.3220 103.9901 41.6125 -27.0128 -3.8479 15.1694
# 3 33.9469 41.6125 95.9182 -31.3005 1.6885 3.5425
# 4 -4.1264 -27.0128 -31.3005 44.3181 2.1562 4.5513
# 5 1.8618 -3.8479 1.6885 2.1562 32.0744 4.0894
# 6 -0.9000 15.1694 3.5425 4.5513 4.0894 20.7837
#
#
#
# Elastic Compliance Matrix: (Units=1/GPa)
#
#
# Indices 1 2 3 4 5 6 
#
# 1 0.017298 -0.010212 -0.005099 -0.009275 -0.002824 0.011658
# 2 -0.010212 0.021059 -0.000552 0.013273 0.004750 -0.019560
# 3 -0.005099 -0.000552 0.016344 0.011275 -0.000761 -0.004923
# 4 -0.009275 0.013273 0.011275 0.039839 0.001541 -0.021038
# 5 -0.002824 0.004750 -0.000761 0.001541 0.033164 -0.010322
# 6 0.011658 -0.019560 -0.004923 -0.021038 -0.010322 0.070373
#
#
# Mechanical properties :
#
#
# Convention : Reuss Voigt Hill
#
# Bulk Modulus (GPa) = 43.52551 60.30147 51.91349
# Shear Modulus (GPa) = 21.05601 30.83987 25.94794
#
# Velocity S-wave (km/s) = 3.07491 3.72135 3.41347
# Velocity P-wave (km/s) = 5.67024 6.74853 6.23275
#
# Compressibility (1/GPa) = 0.02297503
#
# Stress axis : x y z
#
# Youngs Moduli (GPa) = 57.80998 47.48494 61.18387
#
# Poissons Ratio (x) = 0.48491 0.31200
# Poissons Ratio (y) = 0.59035 0.03377
# Poissons Ratio (z) = 0.29479 0.02621
#
# Static dielectric constant tensor:
#      x y z
#    x 4.036400 0.188400 0.144000 
#    y 0.188400 3.986980 -0.421090 
#    z 0.144000 -0.421090 4.672410 
# 
# 
# High freq. dielectric constant tensor:
#      x y z
#    x 1.872780 0.018820 0.021310 
#    y 0.018820 1.839870 -0.003090 
#    z 0.021310 -0.003090 1.893430 
# 
# From -- ./inp_files/178028.got.cif
#   From: 2010.06.25/outbox.cif.g09.slc.cpg/sg2_90_cif.got.tgz:178028.got - 2010.06.27 13:26:56.
