data_PCOD8039716
_publ_section_title
;
Structure prediction by ZEFSAII (Michael W. Deem and Ramdas Pophale) SiO2 
 PCOD8039716
Probable space group: P -1
;
_chemical_formula_sum "Si O2"
_cell_formula_units_Z 14
_cell_length_a 7.756553
_cell_length_b 9.654642
_cell_length_c 11.456258
_cell_angle_alpha 81.852088
_cell_angle_beta 94.349264
_cell_angle_gamma 129.530517
_cell_volume 654.907192
_symmetry_space_group_name_H-M "P -1"
_symmetry_group_IT_number 2
_symmetry_cell_setting 'triclinic'
loop_
_space_group_symop_operation_xyz
x,y,z
-x,-y,-z
loop_
_atom_site_type_symbol
_atom_site_label
_atom_site_fract_x
_atom_site_fract_y
_atom_site_fract_z
Si Si1 0.820459 0.710112 0.983115
Si Si2 0.414531 0.564452 0.816841
Si Si3 0.528952 0.853800 0.274071
Si Si4 0.728041 0.955630 0.036970
Si Si5 0.588363 0.508396 0.629659
Si Si6 0.349786 0.051068 0.235209
Si Si7 0.027944 0.074806 0.364327
O O1 0.782656 0.556382 0.084194
O O2 0.797292 0.829136 0.055749
O O3 0.646660 0.628366 0.879083
O O4 0.069887 0.841928 0.928363
O O5 0.390022 0.458448 0.712440
O O6 0.434667 0.737077 0.761309
O O7 0.388364 0.647367 0.335592
O O8 0.401177 0.925700 0.308329
O O9 0.527041 0.864794 0.130656
O O10 0.783290 0.984194 0.315243
O O11 0.673436 0.977935 0.901602
O O12 0.500000 0.500000 0.500000
O O13 0.819867 0.707015 0.646917
O O14 0.138103 0.013653 0.292647
O O15 0.000000 0.000000 0.500000
#
# Coordination Sequence:
#
# PCOD8039716 Si02
#       7
#     2   2   2   2   2   2   2
#     4   9  16  31  61  87 118 170 200 245 311 372
#     4   9  18  35  56  88 125 157 209 253 304 371
#     4  12  23  43  66  92 133 164 204 266 310 366
#     4  10  18  34  60  92 126 161 204 249 313 374
#     4  11  22  40  65  91 118 167 215 257 310 371
#     4  10  24  40  63  97 126 162 207 257 315 376
#     4  11  24  46  67  89 127 169 210 260 316 366
#
# _framework density 21.377075999999999
#
# number of rings (size 3 to 8) (size 9 to 14) (size 15 to 20)
#    0.000    1.714    2.857    3.857    0.000    0.571 
#    2.571    1.429    0.000    0.000    0.000    0.000 
#    0.000    0.000    0.000    0.000    0.000    0.000 
#
# Total GULP energy -173469.504719 kJ/mol
# GULP energy per Si atom -12390.678909 kJ/mol
# Density = 2.132842 g / cm^3
# Si number density = 21.377076 Si / 1000 Ang^3
#
#
#
# Elastic Constant Matrix: (Units=GPa)
#
#
# Indices 1 2 3 4 5 6 
#
# 1 67.0739 39.3700 27.6521 -9.2775 12.7990 -14.7862
# 2 39.3700 122.9589 38.9036 -22.1216 9.4396 -11.4890
# 3 27.6521 38.9036 117.1464 -6.6138 -10.5279 -9.0204
# 4 -9.2775 -22.1216 -6.6138 39.5944 -0.1271 5.4990
# 5 12.7990 9.4396 -10.5279 -0.1271 17.5041 -7.0541
# 6 -14.7862 -11.4890 -9.0204 5.4990 -7.0541 30.3546
#
#
#
# Elastic Compliance Matrix: (Units=1/GPa)
#
#
# Indices 1 2 3 4 5 6 
#
# 1 0.023843 -0.003893 -0.005416 0.001859 -0.016854 0.004278
# 2 -0.003893 0.011701 -0.003235 0.005161 -0.005644 -0.000675
# 3 -0.005416 -0.003235 0.012380 -0.001442 0.014532 0.003455
# 4 0.001859 0.005161 -0.001442 0.028914 -0.006544 -0.004328
# 5 -0.016854 -0.005644 0.014532 -0.006544 0.087426 0.015475
# 6 0.004278 -0.000675 0.003455 -0.004328 0.015475 0.040179
#
#
# Mechanical properties :
#
#
# Convention : Reuss Voigt Hill
#
# Bulk Modulus (GPa) = 43.78814 57.67008 50.72911
# Shear Modulus (GPa) = 21.08441 30.90753 25.99597
#
# Velocity S-wave (km/s) = 3.14396 3.80653 3.49100
# Velocity P-wave (km/s) = 5.80582 6.80850 6.32705
#
# Compressibility (1/GPa) = 0.02283723
#
# Stress axis : x y z
#
# Youngs Moduli (GPa) = 41.94159 85.45963 80.77817
#
# Poissons Ratio (x) = 0.33266 0.43746
# Poissons Ratio (y) = 0.16326 0.26132
# Poissons Ratio (z) = 0.22714 0.27646
#
# Static dielectric constant tensor:
#      x y z
#    x 3.457440 0.021470 -0.235630 
#    y 0.021470 4.270550 -0.157560 
#    z -0.235630 -0.157560 4.103580 
# 
# 
# High freq. dielectric constant tensor:
#      x y z
#    x 1.787020 0.000980 -0.015110 
#    y 0.000980 1.851370 -0.008980 
#    z -0.015110 -0.008980 1.847910 
# 
# From -- ./inp_files/378415.got.cif
#   From: 2010.06.25/outbox.cif.g09.slc.cpg/sg2_190_cif.got.tgz:378415.got - 2010.06.27 13:26:56.
