data_PCOD8039443
_publ_section_title
;
Structure prediction by ZEFSAII (Michael W. Deem and Ramdas Pophale) SiO2 
 PCOD8039443
Probable space group: P -1
;
_chemical_formula_sum "Si O2"
_cell_formula_units_Z 16
_cell_length_a 14.335806
_cell_length_b 9.735283
_cell_length_c 18.269655
_cell_angle_alpha 38.016485
_cell_angle_beta 30.886828
_cell_angle_gamma 59.327091
_cell_volume 686.134548
_symmetry_space_group_name_H-M "P -1"
_symmetry_group_IT_number 2
_symmetry_cell_setting 'triclinic'
loop_
_space_group_symop_operation_xyz
x,y,z
-x,-y,-z
loop_
_atom_site_type_symbol
_atom_site_label
_atom_site_fract_x
_atom_site_fract_y
_atom_site_fract_z
Si Si1 0.130003 0.073606 0.552352
Si Si2 0.777756 0.263705 0.460724
Si Si3 0.254496 0.729571 0.846644
Si Si4 0.508892 0.667174 0.590188
Si Si5 0.830486 0.670885 0.152161
Si Si6 0.944281 0.808172 0.287870
Si Si7 0.575605 0.268549 0.121451
Si Si8 0.952230 0.608099 0.633221
O O1 0.056062 0.049339 0.696282
O O2 0.385995 0.287676 0.280754
O O3 0.000251 0.167770 0.550998
O O4 0.085184 0.793898 0.668694
O O5 0.789320 0.536280 0.317445
O O6 0.864741 0.267874 0.480631
O O7 0.532422 0.019253 0.723392
O O8 0.345490 0.574344 0.807503
O O9 0.242472 0.676341 0.964232
O O10 0.422299 0.039977 0.598622
O O11 0.030319 0.656706 0.992222
O O12 0.387495 0.488342 0.678067
O O13 0.703862 0.630435 0.494185
O O14 0.909984 0.978317 0.963008
O O15 0.038194 0.624534 0.316125
O O16 0.712690 0.493076 0.874909
#
# Coordination Sequence:
#
# PCOD8039443 Si02
#       8
#     2   2   2   2   2   2   2   2
#     4  10  23  46  67  91 122 166 222 266 297 361
#     4  10  23  39  68  96 121 164 214 261 309 366
#     4  10  18  33  61  92 127 160 210 255 307 365
#     4  10  19  35  57  93 130 163 201 257 308 374
#     4  11  22  36  65  97 129 163 204 260 317 380
#     4  11  26  40  64  97 130 168 201 257 329 374
#     4  10  21  39  66  94 118 165 215 259 306 364
#     4  12  24  45  64  90 132 169 209 259 314 373
#
# _framework density 23.319042
#
# number of rings (size 3 to 8) (size 9 to 14) (size 15 to 20)
#    0.750    0.750    3.750    1.500    5.250    1.500 
#    0.000    1.250    0.000    3.000    0.000    0.000 
#    0.000    0.000    0.000    0.000    0.000    0.000 
#
# Total GULP energy -198252.022263 kJ/mol
# GULP energy per Si atom -12390.751391 kJ/mol
# Density = 2.326597 g / cm^3
# Si number density = 23.319042 Si / 1000 Ang^3
#
#
#
# Elastic Constant Matrix: (Units=GPa)
#
#
# Indices 1 2 3 4 5 6 
#
# 1 116.0117 8.8218 23.2926 -4.0066 -0.4136 -8.6873
# 2 8.8218 57.5120 -3.7837 -6.7344 0.3996 -5.2425
# 3 23.2926 -3.7837 45.9053 -6.4141 1.2901 -9.0570
# 4 -4.0066 -6.7344 -6.4141 23.5044 -8.1774 3.0191
# 5 -0.4136 0.3996 1.2901 -8.1774 23.0246 -5.5783
# 6 -8.6873 -5.2425 -9.0570 3.0191 -5.5783 22.7550
#
#
#
# Elastic Compliance Matrix: (Units=1/GPa)
#
#
# Indices 1 2 3 4 5 6 
#
# 1 0.009845 -0.001687 -0.004836 -0.000037 0.000867 0.001663
# 2 -0.001687 0.019197 0.004361 0.006793 0.003107 0.005375
# 3 -0.004836 0.004361 0.027562 0.007888 0.003503 0.009941
# 4 -0.000037 0.006793 0.007888 0.052876 0.018770 0.002277
# 5 0.000867 0.003107 0.003503 0.018770 0.052999 0.012943
# 6 0.001663 0.005375 0.009941 0.002277 0.012943 0.052647
#
#
# Mechanical properties :
#
#
# Convention : Reuss Voigt Hill
#
# Bulk Modulus (GPa) = 19.12791 30.67672 24.90231
# Shear Modulus (GPa) = 21.10780 26.59668 23.85224
#
# Velocity S-wave (km/s) = 3.01188 3.38088 3.20170
# Velocity P-wave (km/s) = 4.50729 5.33144 4.93659
#
# Compressibility (1/GPa) = 0.05227962
#
# Stress axis : x y z
#
# Youngs Moduli (GPa) = 101.57003 52.09105 36.28132
#
# Poissons Ratio (x) = 0.08789 0.17546
# Poissons Ratio (y) = 0.17136 -0.15821
# Poissons Ratio (z) = 0.49121 -0.22715
#
# Static dielectric constant tensor:
#      x y z
#    x 4.036810 -0.099330 -0.035510 
#    y -0.099330 3.814880 0.038630 
#    z -0.035510 0.038630 4.082020 
# 
# 
# High freq. dielectric constant tensor:
#      x y z
#    x 1.922130 -0.009840 -0.007740 
#    y -0.009840 1.892840 0.004730 
#    z -0.007740 0.004730 1.919160 
# 
# From -- ./inp_files/597786.got.cif
#   From: 2010.06.25/outbox.cif.g09.slc.cpg/sg2_299_cif.got.tgz:597786.got - 2010.06.27 13:26:56.
