data_PCOD8039439
_publ_section_title
;
Structure prediction by ZEFSAII (Michael W. Deem and Ramdas Pophale) SiO2 
 PCOD8039439
Probable space group: P -1
;
_chemical_formula_sum "Si O2"
_cell_formula_units_Z 16
_cell_length_a 9.530663
_cell_length_b 13.279671
_cell_length_c 13.725786
_cell_angle_alpha 138.736296
_cell_angle_beta 65.920443
_cell_angle_gamma 131.684585
_cell_volume 840.623946
_symmetry_space_group_name_H-M "P -1"
_symmetry_group_IT_number 2
_symmetry_cell_setting 'triclinic'
loop_
_space_group_symop_operation_xyz
x,y,z
-x,-y,-z
loop_
_atom_site_type_symbol
_atom_site_label
_atom_site_fract_x
_atom_site_fract_y
_atom_site_fract_z
Si Si1 0.711809 0.172814 0.090792
Si Si2 0.988435 0.737271 0.616068
Si Si3 0.276064 0.702861 0.608573
Si Si4 0.985435 0.048298 0.932657
Si Si5 0.676605 0.550263 0.923778
Si Si6 0.023113 0.504799 0.112437
Si Si7 0.525882 0.230230 0.587774
Si Si8 0.809882 0.163136 0.559729
O O1 0.683988 0.248472 0.254133
O O2 0.820126 0.341535 0.102492
O O3 0.833000 0.091875 0.005360
O O4 0.500000 0.000000 0.000000
O O5 0.179306 0.800967 0.666806
O O6 0.019657 0.762975 0.510474
O O7 0.841553 0.521594 0.532757
O O8 0.916901 0.864325 0.754272
O O9 0.455188 0.773163 0.537699
O O10 0.196163 0.226916 0.972075
O O11 0.000000 0.000000 0.000000
O O12 0.808542 0.512094 0.919359
O O13 0.590889 0.431484 0.760294
O O14 0.500000 0.500000 0.000000
O O15 0.091654 0.711813 0.280024
O O16 0.000000 0.500000 0.000000
O O17 0.663126 0.194323 0.577328
O O18 0.303332 0.061090 0.549263
#
# Coordination Sequence:
#
# PCOD8039439 Si02
#       8
#     2   2   2   2   2   2   2   2
#     4  11  24  40  57  86 123 157 197 238 288 354
#     4  10  18  33  61  84 113 146 190 245 294 338
#     4  10  19  34  58  85 115 150 191 241 293 343
#     4  11  21  36  60  91 118 151 192 241 297 344
#     4  10  21  37  58  89 121 144 189 248 294 339
#     4  10  22  39  59  82 115 159 199 233 284 355
#     4   9  18  30  53  85 112 141 186 242 283 339
#     4   9  17  32  54  82 107 144 194 232 284 338
#
# _framework density 19.033480999999998
#
# number of rings (size 3 to 8) (size 9 to 14) (size 15 to 20)
#    0.000    2.000    2.500    1.500    5.250    2.000 
#    0.000    0.625    2.750    2.250    0.000    0.000 
#    0.000    0.000    0.000    0.000    0.000    0.000 
#
# Total GULP energy -198256.870185 kJ/mol
# GULP energy per Si atom -12391.054387 kJ/mol
# Density = 1.899016 g / cm^3
# Si number density = 19.033481 Si / 1000 Ang^3
#
#
#
# Elastic Constant Matrix: (Units=GPa)
#
#
# Indices 1 2 3 4 5 6 
#
# 1 33.5676 38.8135 26.9124 0.8133 5.8989 7.4496
# 2 38.8135 119.9425 49.7580 -10.6497 7.3634 6.8565
# 3 26.9124 49.7580 134.8555 -7.6574 7.2419 -6.4975
# 4 0.8133 -10.6497 -7.6574 41.1991 -6.4015 2.7681
# 5 5.8989 7.3634 7.2419 -6.4015 27.5509 -1.5089
# 6 7.4496 6.8565 -6.4975 2.7681 -1.5089 26.3376
#
#
#
# Elastic Compliance Matrix: (Units=1/GPa)
#
#
# Indices 1 2 3 4 5 6 
#
# 1 0.057099 -0.015104 -0.006383 -0.006672 -0.008806 -0.013596
# 2 -0.015104 0.014426 -0.002155 0.003776 0.000802 -0.000366
# 3 -0.006383 -0.002155 0.009775 0.001053 -0.000127 0.004660
# 4 -0.006672 0.003776 0.001053 0.026634 0.006261 -0.001276
# 5 -0.008806 0.000802 -0.000127 0.006261 0.039667 0.003865
# 6 -0.013596 -0.000366 0.004660 -0.001276 0.003865 0.043415
#
#
# Mechanical properties :
#
#
# Convention : Reuss Voigt Hill
#
# Bulk Modulus (GPa) = 29.39738 57.70370 43.55054
# Shear Modulus (GPa) = 20.02888 30.54298 25.28593
#
# Velocity S-wave (km/s) = 3.24743 4.01021 3.64881
# Velocity P-wave (km/s) = 5.43504 7.19897 6.37828
#
# Compressibility (1/GPa) = 0.03401663
#
# Stress axis : x y z
#
# Youngs Moduli (GPa) = 17.51341 69.32010 102.29763
#
# Poissons Ratio (x) = 1.04700 0.65298
# Poissons Ratio (y) = 0.26452 0.22043
# Poissons Ratio (z) = 0.11179 0.14937
#
# Static dielectric constant tensor:
#      x y z
#    x 3.030760 0.073200 -0.012180 
#    y 0.073200 3.829570 0.097090 
#    z -0.012180 0.097090 3.665820 
# 
# 
# High freq. dielectric constant tensor:
#      x y z
#    x 1.685730 0.005910 -0.005230 
#    y 0.005910 1.758460 -0.002000 
#    z -0.005230 -0.002000 1.756110 
# 
# From -- ./inp_files/279429.got.cif
#   From: 2010.06.25/outbox.cif.g09.slc.cpg/sg2_140_cif.got.tgz:279429.got - 2010.06.27 13:26:56.
