data_PCOD8039174
_publ_section_title
;
Structure prediction by ZEFSAII (Michael W. Deem and Ramdas Pophale) SiO2 
 PCOD8039174
Probable space group: P -1
;
_chemical_formula_sum "Si O2"
_cell_formula_units_Z 16
_cell_length_a 18.163905
_cell_length_b 7.792404
_cell_length_c 8.886933
_cell_angle_alpha 52.853127
_cell_angle_beta 55.136509
_cell_angle_gamma 95.421796
_cell_volume 609.045983
_symmetry_space_group_name_H-M "P -1"
_symmetry_group_IT_number 2
_symmetry_cell_setting 'triclinic'
loop_
_space_group_symop_operation_xyz
x,y,z
-x,-y,-z
loop_
_atom_site_type_symbol
_atom_site_label
_atom_site_fract_x
_atom_site_fract_y
_atom_site_fract_z
Si Si1 0.811586 0.717553 0.656991
Si Si2 0.053524 0.901028 0.285487
Si Si3 0.220468 0.207668 0.673249
Si Si4 0.552377 0.661864 0.695362
Si Si5 0.841618 0.473628 0.134243
Si Si6 0.081521 0.690477 0.635684
Si Si7 0.386136 0.780681 0.638460
Si Si8 0.442177 0.709503 0.308836
O O1 0.796965 0.683587 0.513136
O O2 0.909015 0.685601 0.591715
O O3 0.858193 0.024742 0.485923
O O4 0.683771 0.465309 0.021558
O O5 0.103039 0.775238 0.388481
O O6 0.093631 0.937247 0.044905
O O7 0.111640 0.210950 0.123488
O O8 0.301619 0.128821 0.581999
O O9 0.296990 0.475590 0.564155
O O10 0.498578 0.419269 0.755244
O O11 0.527877 0.880402 0.573461
O O12 0.500000 0.500000 0.000000
O O13 0.853473 0.427734 0.324227
O O14 0.707286 0.233661 0.350563
O O15 0.935958 0.453573 0.959708
O O16 0.460343 0.754128 0.444922
O O17 0.500000 0.000000 0.000000
#
# Coordination Sequence:
#
# PCOD8039174 Si02
#       8
#     2   2   2   2   2   2   2   2
#     4  11  21  36  60  92 135 181 210 272 328 387
#     4  11  19  40  58  93 137 182 222 264 322 392
#     4  10  22  39  60  94 130 166 220 274 325 386
#     4  10  22  40  66  95 119 160 227 275 336 396
#     4  10  18  32  60  89 120 179 219 257 315 384
#     4  10  19  33  58  89 129 173 232 248 313 395
#     4  12  19  40  68  89 132 174 213 269 339 388
#     4  10  21  41  68  91 118 167 220 277 338 391
#
# _framework density 26.270596000000001
#
# number of rings (size 3 to 8) (size 9 to 14) (size 15 to 20)
#    0.750    0.750    5.000    1.875    0.000    0.000 
#    2.250    3.125    0.000    1.500    0.000    0.000 
#    0.000    0.000    0.000    0.000    0.000    0.000 
#
# Total GULP energy -198299.774542 kJ/mol
# GULP energy per Si atom -12393.735909 kJ/mol
# Density = 2.621080 g / cm^3
# Si number density = 26.270596 Si / 1000 Ang^3
#
#
#
# Elastic Constant Matrix: (Units=GPa)
#
#
# Indices 1 2 3 4 5 6 
#
# 1 74.6115 7.0865 29.0367 1.0427 16.9268 4.9821
# 2 7.0865 125.7522 50.6404 20.7740 7.5510 2.7364
# 3 29.0367 50.6404 168.0746 26.0156 20.6786 -1.1864
# 4 1.0427 20.7740 26.0156 44.0629 0.4454 12.7879
# 5 16.9268 7.5510 20.6786 0.4454 56.6571 3.7477
# 6 4.9821 2.7364 -1.1864 12.7879 3.7477 31.9418
#
#
#
# Elastic Compliance Matrix: (Units=1/GPa)
#
#
# Indices 1 2 3 4 5 6 
#
# 1 0.015353 0.000122 -0.002587 0.001979 -0.003484 -0.002885
# 2 0.000122 0.009420 -0.002305 -0.003202 -0.000453 0.000423
# 3 -0.002587 -0.002305 0.008044 -0.004425 -0.002013 0.002908
# 4 0.001979 -0.003202 -0.004425 0.030410 0.002046 -0.012614
# 5 -0.003484 -0.000453 -0.002013 0.002046 0.019643 -0.002616
# 6 -0.002885 0.000423 0.002908 -0.012614 -0.002616 0.037185
#
#
# Mechanical properties :
#
#
# Convention : Reuss Voigt Hill
#
# Bulk Modulus (GPa) = 42.96100 60.21841 51.58970
# Shear Modulus (GPa) = 36.40146 45.31068 40.85607
#
# Velocity S-wave (km/s) = 3.72645 4.15754 3.94788
# Velocity P-wave (km/s) = 5.90796 6.78373 6.36093
#
# Compressibility (1/GPa) = 0.02327693
#
# Stress axis : x y z
#
# Youngs Moduli (GPa) = 65.13222 106.15210 124.31019
#
# Poissons Ratio (x) = -0.01291 0.32162
# Poissons Ratio (y) = -0.00792 0.28654
# Poissons Ratio (z) = 0.16851 0.24468
#
# Static dielectric constant tensor:
#      x y z
#    x 5.190670 0.082800 -0.081560 
#    y 0.082800 4.680380 0.090790 
#    z -0.081560 0.090790 4.597220 
# 
# 
# High freq. dielectric constant tensor:
#      x y z
#    x 2.059260 0.004600 0.007240 
#    y 0.004600 2.044800 0.008300 
#    z 0.007240 0.008300 2.058640 
# 
# From -- ./inp_files/352033.got.cif
#   From: 2010.06.25/outbox.cif.g09.slc.cpg/sg2_177_cif.got.tgz:352033.got - 2010.06.27 13:26:56.
