data_PCOD8039719
_publ_section_title
;
Structure prediction by ZEFSAII (Michael W. Deem and Ramdas Pophale) SiO2 
 PCOD8039719
Probable space group: P -1
;
_chemical_formula_sum "Si O2"
_cell_formula_units_Z 16
_cell_length_a 15.348202
_cell_length_b 19.888967
_cell_length_c 9.185730
_cell_angle_alpha 138.561504
_cell_angle_beta 141.194242
_cell_angle_gamma 28.525673
_cell_volume 819.145872
_symmetry_space_group_name_H-M "P -1"
_symmetry_group_IT_number 2
_symmetry_cell_setting 'triclinic'
loop_
_space_group_symop_operation_xyz
x,y,z
-x,-y,-z
loop_
_atom_site_type_symbol
_atom_site_label
_atom_site_fract_x
_atom_site_fract_y
_atom_site_fract_z
Si Si1 0.075570 0.169696 0.533860
Si Si2 0.320747 0.549891 0.438975
Si Si3 0.821600 0.585858 0.018434
Si Si4 0.587641 0.551776 0.276742
Si Si5 0.577411 0.864642 0.005792
Si Si6 0.414984 0.857663 0.493779
Si Si7 0.971402 0.676633 0.558354
Si Si8 0.614432 0.903360 0.634916
O O1 0.859027 0.275721 0.498216
O O2 0.219114 0.177099 0.809863
O O3 0.047479 0.222258 0.417450
O O4 0.180188 0.004299 0.406669
O O5 0.500000 0.500000 0.500000
O O6 0.394855 0.475622 0.573031
O O7 0.229100 0.503548 0.154295
O O8 0.626147 0.730885 0.922493
O O9 0.874930 0.621275 0.288767
O O10 0.000000 0.500000 0.000000
O O11 0.447220 0.721749 0.340732
O O12 0.800109 0.462944 0.335989
O O13 0.500000 0.500000 0.000000
O O14 0.415266 0.001384 0.119443
O O15 0.490265 0.891579 0.777119
O O16 0.528371 0.837939 0.465190
O O17 0.848768 0.772361 0.697090
O O18 0.500000 0.000000 0.500000
#
# Coordination Sequence:
#
# PCOD8039719 Si02
#       8
#     2   2   2   2   2   2   2   2
#     4   9  18  35  62  88 119 157 202 245 313 362
#     4  11  23  41  63  89 123 164 216 256 295 372
#     4  11  16  35  68  87 115 167 207 246 305 369
#     4  11  25  45  58  85 132 168 201 256 319 365
#     4  10  18  34  60  94 122 154 195 258 311 358
#     4  11  21  38  64  88 124 164 200 251 319 367
#     4  10  20  38  64  89 125 160 208 255 304 370
#     4  11  19  34  60  98 127 145 204 266 302 367
#
# _framework density 19.532540999999998
#
# number of rings (size 3 to 8) (size 9 to 14) (size 15 to 20)
#    0.000    1.500    8.750    1.500    0.000    1.500 
#    4.500    4.375    0.000    0.000    0.000    0.000 
#    0.000    0.000    0.000    0.000    0.000    0.000 
#
# Total GULP energy -198308.776883 kJ/mol
# GULP energy per Si atom -12394.298555 kJ/mol
# Density = 1.948808 g / cm^3
# Si number density = 19.532541 Si / 1000 Ang^3
#
#
#
# Elastic Constant Matrix: (Units=GPa)
#
#
# Indices 1 2 3 4 5 6 
#
# 1 104.5844 67.2404 40.1601 12.6978 7.6433 -25.5898
# 2 67.2404 166.1873 39.2946 22.3116 10.7725 -12.7072
# 3 40.1601 39.2946 73.5911 7.8522 -2.9687 -2.3882
# 4 12.6978 22.3116 7.8522 24.8106 -1.7597 -1.2578
# 5 7.6433 10.7725 -2.9687 -1.7597 19.3419 0.3519
# 6 -25.5898 -12.7072 -2.3882 -1.2578 0.3519 43.0713
#
#
#
# Elastic Compliance Matrix: (Units=1/GPa)
#
#
# Indices 1 2 3 4 5 6 
#
# 1 0.018056 -0.004013 -0.007324 -0.003314 -0.006491 0.009094
# 2 -0.004013 0.009271 -0.002312 -0.005864 -0.004468 0.000088
# 3 -0.007324 -0.002312 0.018965 0.000130 0.007178 -0.004037
# 4 -0.003314 -0.005864 0.000130 0.047751 0.008983 -0.002371
# 5 -0.006491 -0.004468 0.007178 0.008983 0.058764 -0.004995
# 6 0.009094 0.000088 -0.004037 -0.002371 -0.004995 0.028394
#
#
# Mechanical properties :
#
#
# Convention : Reuss Voigt Hill
#
# Bulk Modulus (GPa) = 52.64860 70.86146 61.75503
# Shear Modulus (GPa) = 23.27423 30.62262 26.94843
#
# Velocity S-wave (km/s) = 3.45565 3.96381 3.71842
# Velocity P-wave (km/s) = 6.55247 7.57010 7.07959
#
# Compressibility (1/GPa) = 0.01899386
#
# Stress axis : x y z
#
# Youngs Moduli (GPa) = 55.38428 107.85932 52.72941
#
# Poissons Ratio (x) = 0.43281 0.38618
# Poissons Ratio (y) = 0.22224 0.12193
# Poissons Ratio (z) = 0.40563 0.24940
#
# Static dielectric constant tensor:
#      x y z
#    x 2.057320 1.075750 -2.698730 
#    y 1.075750 2.883860 1.696710 
#    z -2.698730 1.696710 -2.630240 
# 
# 
# High freq. dielectric constant tensor:
#      x y z
#    x 1.736910 0.001760 -0.012250 
#    y 0.001760 1.783250 0.012310 
#    z -0.012250 0.012310 1.733730 
# 
# From -- ./inp_files/319524.got.cif
#   From: 2010.06.25/outbox.cif.g09.slc.cpg/sg2_160_cif.got.tgz:319524.got - 2010.06.27 13:26:56.
