data_PCOD8039338
_publ_section_title
;
Structure prediction by ZEFSAII (Michael W. Deem and Ramdas Pophale) SiO2 
 PCOD8039338
Probable space group: P -1
;
_chemical_formula_sum "Si O2"
_cell_formula_units_Z 14
_cell_length_a 5.267832
_cell_length_b 10.099553
_cell_length_c 14.363101
_cell_angle_alpha 66.887757
_cell_angle_beta 106.171152
_cell_angle_gamma 83.873221
_cell_volume 654.514107
_symmetry_space_group_name_H-M "P -1"
_symmetry_group_IT_number 2
_symmetry_cell_setting 'triclinic'
loop_
_space_group_symop_operation_xyz
x,y,z
-x,-y,-z
loop_
_atom_site_type_symbol
_atom_site_label
_atom_site_fract_x
_atom_site_fract_y
_atom_site_fract_z
Si Si1 0.427577 0.962492 0.898920
Si Si2 0.992363 0.636726 0.530898
Si Si3 0.176486 0.874301 0.192040
Si Si4 0.688166 0.335456 0.069643
Si Si5 0.585357 0.321847 0.560496
Si Si6 0.232546 0.534783 0.781845
Si Si7 0.853248 0.357806 0.888464
O O1 0.611005 0.024139 0.826561
O O2 0.109707 0.030428 0.824508
O O3 0.483609 0.785999 0.935777
O O4 0.500000 0.000000 0.000000
O O5 0.682285 0.736652 0.475406
O O6 0.000000 0.500000 0.500000
O O7 0.187339 0.734141 0.480882
O O8 0.083912 0.583794 0.657395
O O9 0.297395 0.738084 0.311256
O O10 0.132498 0.804040 0.107715
O O11 0.810248 0.323520 0.190575
O O12 0.500000 0.500000 0.000000
O O13 0.914334 0.327628 0.013352
O O14 0.500000 0.500000 0.500000
O O15 0.550221 0.462889 0.813559
O O16 0.089062 0.417705 0.847764
#
# Coordination Sequence:
#
# PCOD8039338 Si02
#       7
#     2   2   2   2   2   2   2
#     4  12  26  45  65  97 138 177 216 266 326 398
#     4  10  18  33  57  87 127 154 210 268 318 364
#     4  12  24  40  70  95 136 173 217 270 336 378
#     4  10  25  43  65  93 134 175 221 266 321 396
#     4  10  20  36  59  95 125 161 213 275 317 374
#     4  11  22  37  61  95 131 169 211 271 329 377
#     4  11  21  37  61  94 130 170 214 261 324 387
#
# _framework density 21.389914000000001
#
# number of rings (size 3 to 8) (size 9 to 14) (size 15 to 20)
#    0.000    1.143    1.429    6.857    2.000    2.286 
#    0.000    0.000    0.000    5.143    0.000    0.000 
#    0.000    0.000    0.000    0.000    0.000    0.000 
#
# Total GULP energy -173524.704874 kJ/mol
# GULP energy per Si atom -12394.621777 kJ/mol
# Density = 2.134123 g / cm^3
# Si number density = 21.389914 Si / 1000 Ang^3
#
#
#
# Elastic Constant Matrix: (Units=GPa)
#
#
# Indices 1 2 3 4 5 6 
#
# 1 162.6944 26.3612 34.5556 -6.6842 -6.1406 9.9434
# 2 26.3612 123.2072 46.0435 8.2258 -8.0734 10.8515
# 3 34.5556 46.0435 109.1552 13.5461 -10.7430 1.1838
# 4 -6.6842 8.2258 13.5461 37.8284 -1.3578 -2.3465
# 5 -6.1406 -8.0734 -10.7430 -1.3578 38.7709 -3.0798
# 6 9.9434 10.8515 1.1838 -2.3465 -3.0798 22.9238
#
#
#
# Elastic Compliance Matrix: (Units=1/GPa)
#
#
# Indices 1 2 3 4 5 6 
#
# 1 0.006933 -0.000589 -0.002141 0.001982 0.000263 -0.002380
# 2 -0.000589 0.010191 -0.003861 -0.001191 0.000567 -0.004415
# 3 -0.002141 -0.003861 0.012122 -0.003671 0.002251 0.002057
# 4 0.001982 -0.001191 -0.003671 0.028546 0.000275 0.002853
# 5 0.000263 0.000567 0.002251 0.000275 0.026834 0.003135
# 6 -0.002380 -0.004415 0.002057 0.002853 0.003135 0.047352
#
#
# Mechanical properties :
#
#
# Convention : Reuss Voigt Hill
#
# Bulk Modulus (GPa) = 62.24478 67.66416 64.95447
# Shear Modulus (GPa) = 33.21938 39.11106 36.16522
#
# Velocity S-wave (km/s) = 3.94514 4.28071 4.11635
# Velocity P-wave (km/s) = 7.06508 7.49233 7.28184
#
# Compressibility (1/GPa) = 0.01606560
#
# Stress axis : x y z
#
# Youngs Moduli (GPa) = 144.22971 98.12878 82.49257
#
# Poissons Ratio (x) = 0.05779 0.17660
# Poissons Ratio (y) = 0.08494 0.31848
# Poissons Ratio (z) = 0.30876 0.37885
#
# Static dielectric constant tensor:
#      x y z
#    x 6.611280 0.178980 -0.111490 
#    y 0.178980 4.059050 0.386690 
#    z -0.111490 0.386690 3.946470 
# 
# 
# High freq. dielectric constant tensor:
#      x y z
#    x 1.869840 0.004720 -0.007840 
#    y 0.004720 1.801160 0.013380 
#    z -0.007840 0.013380 1.832150 
# 
# From -- ./inp_files/36261.got.cif
#   From: 2010.06.25/outbox.cif.g09.slc.cpg/sg2_19_cif.got.tgz:36261.got - 2010.06.27 13:26:56.
