data_PCOD8039703
_publ_section_title
;
Structure prediction by ZEFSAII (Michael W. Deem and Ramdas Pophale) SiO2 
 PCOD8039703
Probable space group: P -1
;
_chemical_formula_sum "Si O2"
_cell_formula_units_Z 16
_cell_length_a 13.581654
_cell_length_b 9.010490
_cell_length_c 10.704158
_cell_angle_alpha 126.611384
_cell_angle_beta 83.637554
_cell_angle_gamma 123.915662
_cell_volume 822.730921
_symmetry_space_group_name_H-M "P -1"
_symmetry_group_IT_number 2
_symmetry_cell_setting 'triclinic'
loop_
_space_group_symop_operation_xyz
x,y,z
-x,-y,-z
loop_
_atom_site_type_symbol
_atom_site_label
_atom_site_fract_x
_atom_site_fract_y
_atom_site_fract_z
Si Si1 0.985318 0.325745 0.517378
Si Si2 0.250649 0.143576 0.630855
Si Si3 0.473886 0.158142 0.515120
Si Si4 0.609378 0.637243 0.660536
Si Si5 0.680107 0.387301 0.127585
Si Si6 0.132944 0.132944 0.393157
Si Si7 0.961161 0.596869 0.163936
Si Si8 0.510188 0.890818 0.798474
O O1 0.091636 0.295904 0.460339
O O2 0.991277 0.403509 0.701582
O O3 0.000000 0.500000 0.500000
O O4 0.849550 0.078196 0.380955
O O5 0.340869 0.090386 0.537950
O O6 0.320898 0.399352 0.813680
O O7 0.171479 0.159976 0.544744
O O8 0.580915 0.438788 0.663311
O O9 0.473282 0.098599 0.343879
O O10 0.500000 0.000000 0.500000
O O11 0.500000 0.500000 0.500000
O O12 0.750908 0.781112 0.667841
O O13 0.593708 0.821909 0.816508
O O14 0.810392 0.435369 0.105433
O O15 0.636562 0.314848 0.243712
O O16 0.563007 0.151664 0.958634
O O17 0.018985 0.860071 0.246644
O O18 0.000000 0.500000 0.000000
#
# Coordination Sequence:
#
# PCOD8039703 Si02
#       8
#     2   2   2   2   2   2   2   2
#     4  11  25  39  62  94 123 158 205 258 306 360
#     4  11  19  40  62  87 116 162 207 246 291 371
#     4  11  23  36  60  91 123 156 193 250 310 356
#     4  10  18  34  60  84 117 146 204 253 292 348
#     4  11  20  37  64  86 115 156 208 250 290 353
#     4  11  19  39  62  87 114 161 213 246 293 373
#     4  11  23  38  64  90 120 160 211 251 302 362
#     4  10  21  36  61  90 116 150 205 250 296 357
#
# _framework density 19.447427000000001
#
# number of rings (size 3 to 8) (size 9 to 14) (size 15 to 20)
#    0.000    1.250    6.250    2.250    3.500    0.000 
#    0.000    1.250    5.500    0.000    0.000    0.000 
#    0.000    0.000    0.000    0.000    0.000    0.000 
#
# Total GULP energy -198213.315986 kJ/mol
# GULP energy per Si atom -12388.332249 kJ/mol
# Density = 1.940316 g / cm^3
# Si number density = 19.447427 Si / 1000 Ang^3
#
#
#
# Elastic Constant Matrix: (Units=GPa)
#
#
# Indices 1 2 3 4 5 6 
#
# 1 104.1347 75.9246 39.9368 -2.7183 -28.0364 9.5232
# 2 75.9246 158.8272 46.6115 21.5668 -16.8534 2.2412
# 3 39.9368 46.6115 87.1203 9.9039 -25.8853 -6.3852
# 4 -2.7183 21.5668 9.9039 26.6397 6.2145 -6.1325
# 5 -28.0364 -16.8534 -25.8853 6.2145 27.0222 1.9143
# 6 9.5232 2.2412 -6.3852 -6.1325 1.9143 49.4775
#
#
#
# Elastic Compliance Matrix: (Units=1/GPa)
#
#
# Indices 1 2 3 4 5 6 
#
# 1 0.020685 -0.008707 -0.001864 0.005962 0.013129 -0.003597
# 2 -0.008707 0.012251 -0.001602 -0.010152 -0.000570 -0.000322
# 3 -0.001864 -0.001602 0.019935 -0.010385 0.018480 0.001002
# 4 0.005962 -0.010152 -0.010385 0.057117 -0.023652 0.005967
# 5 0.013129 -0.000570 0.018480 -0.023652 0.073833 -0.005905
# 6 -0.003597 -0.000322 0.001002 0.005967 -0.005905 0.022015
#
#
# Mechanical properties :
#
#
# Convention : Reuss Voigt Hill
#
# Bulk Modulus (GPa) = 35.05738 75.00309 55.03023
# Shear Modulus (GPa) = 20.86004 33.13517 26.99761
#
# Velocity S-wave (km/s) = 3.27867 4.13223 3.72995
# Velocity P-wave (km/s) = 5.69199 7.83696 6.84897
#
# Compressibility (1/GPa) = 0.02852467
#
# Stress axis : x y z
#
# Youngs Moduli (GPa) = 48.34306 81.62525 50.16287
#
# Poissons Ratio (x) = 0.71070 0.09353
# Poissons Ratio (y) = 0.42091 0.08037
# Poissons Ratio (z) = 0.09013 0.13078
#
# Static dielectric constant tensor:
#      x y z
#    x 3.580550 0.118280 -0.454380 
#    y 0.118280 3.897990 0.361990 
#    z -0.454380 0.361990 3.785410 
# 
# 
# High freq. dielectric constant tensor:
#      x y z
#    x 1.740460 0.031260 -0.036780 
#    y 0.031260 1.769850 0.025480 
#    z -0.036780 0.025480 1.745490 
# 
# From -- ./inp_files/446405.got.cif
#   From: 2010.06.25/outbox.cif.g09.slc.cpg/sg2_224_cif.got.tgz:446405.got - 2010.06.27 13:26:56.
