data_PCOD8039046
_publ_section_title
;
Structure prediction by ZEFSAII (Michael W. Deem and Ramdas Pophale) SiO2 
 PCOD8039046
Probable space group: P -1
;
_chemical_formula_sum "Si O2"
_cell_formula_units_Z 12
_cell_length_a 7.491823
_cell_length_b 20.106111
_cell_length_c 9.577367
_cell_angle_alpha 144.140856
_cell_angle_beta 48.607208
_cell_angle_gamma 136.208720
_cell_volume 574.418419
_symmetry_space_group_name_H-M "P -1"
_symmetry_group_IT_number 2
_symmetry_cell_setting 'triclinic'
loop_
_space_group_symop_operation_xyz
x,y,z
-x,-y,-z
loop_
_atom_site_type_symbol
_atom_site_label
_atom_site_fract_x
_atom_site_fract_y
_atom_site_fract_z
Si Si1 0.202469 0.170201 0.804632
Si Si2 0.170014 0.536776 0.834407
Si Si3 0.248834 0.130524 0.116267
Si Si4 0.769651 0.652241 0.693095
Si Si5 0.664998 0.190347 0.795768
Si Si6 0.892656 0.890377 0.551522
O O1 0.480193 0.185116 0.750792
O O2 0.235252 0.194953 0.663383
O O3 0.970441 0.034309 0.720967
O O4 0.106130 0.267877 0.094399
O O5 0.473075 0.559071 0.735745
O O6 0.068723 0.425166 0.579425
O O7 0.160786 0.664623 0.003840
O O8 0.000000 0.500000 0.000000
O O9 0.219352 0.248823 0.264204
O O10 0.309255 0.154181 0.290563
O O11 0.494564 0.118116 0.895036
O O12 0.000000 0.000000 0.000000
O O13 0.849389 0.123104 0.548311
#
# Coordination Sequence:
#
# PCOD8039046 Si02
#       6
#     2   2   2   2   2   2
#     4   9  20  34  54  82 110 146 174 223 268 321
#     4   9  17  33  56  79  99 144 186 217 264 316
#     4  10  18  32  54  82 108 142 177 217 274 316
#     4   9  18  34  53  78 112 136 180 225 262 317
#     4  10  21  36  57  80 107 145 184 218 270 321
#     4  11  19  36  55  78 117 141 178 220 269 324
#
# _framework density 20.890695000000001
#
# number of rings (size 3 to 8) (size 9 to 14) (size 15 to 20)
#    0.000    2.667    3.333    1.500    0.000    0.000 
#    0.000   10.833    0.000   32.000    0.000    0.000 
#    0.000    0.000    0.000    0.000    0.000    0.000 
#
# Total GULP energy -148658.687578 kJ/mol
# GULP energy per Si atom -12388.223965 kJ/mol
# Density = 2.084315 g / cm^3
# Si number density = 20.890695 Si / 1000 Ang^3
#
#
#
# Elastic Constant Matrix: (Units=GPa)
#
#
# Indices 1 2 3 4 5 6 
#
# 1 48.6839 15.8237 29.5995 -16.1370 22.4837 -6.0964
# 2 15.8237 107.3835 48.4543 -11.9426 7.8293 -4.1923
# 3 29.5995 48.4543 155.6804 -7.7456 30.2786 -1.2850
# 4 -16.1370 -11.9426 -7.7456 43.9128 -7.0340 4.1376
# 5 22.4837 7.8293 30.2786 -7.0340 38.2828 -12.0450
# 6 -6.0964 -4.1923 -1.2850 4.1376 -12.0450 13.9927
#
#
#
# Elastic Compliance Matrix: (Units=1/GPa)
#
#
# Indices 1 2 3 4 5 6 
#
# 1 0.032481 -0.001854 -0.001955 0.008751 -0.016643 -0.003498
# 2 -0.001854 0.011420 -0.003767 0.001883 0.003589 0.004800
# 3 -0.001955 -0.003767 0.009463 -0.000634 -0.008192 -0.007975
# 4 0.008751 0.001883 -0.000634 0.026586 -0.001718 -0.005022
# 5 -0.016643 0.003589 -0.008192 -0.001718 0.053905 0.039981
# 6 -0.003498 0.004800 -0.007975 -0.005022 0.039981 0.106549
#
#
# Mechanical properties :
#
#
# Convention : Reuss Voigt Hill
#
# Bulk Modulus (GPa) = 26.16901 55.50032 40.83466
# Shear Modulus (GPa) = 18.63626 33.76234 26.19930
#
# Velocity S-wave (km/s) = 2.99002 4.02449 3.54519
# Velocity P-wave (km/s) = 4.94713 6.94406 6.02885
#
# Compressibility (1/GPa) = 0.03821314
#
# Stress axis : x y z
#
# Youngs Moduli (GPa) = 30.78739 87.56267 105.67045
#
# Poissons Ratio (x) = 0.16234 0.20659
# Poissons Ratio (y) = 0.05708 0.39803
# Poissons Ratio (z) = 0.06019 0.32982
#
# Static dielectric constant tensor:
#      x y z
#    x 3.242020 -0.069850 0.174360 
#    y -0.069850 3.941020 0.021820 
#    z 0.174360 0.021820 4.480940 
# 
# 
# High freq. dielectric constant tensor:
#      x y z
#    x 1.749410 -0.006520 0.006720 
#    y -0.006520 1.817770 0.001270 
#    z 0.006720 0.001270 1.847600 
# 
# From -- ./inp_files/171845.got.cif
#   From: 2010.06.25/outbox.cif.g09.slc.cpg/sg2_86_cif.got.tgz:171845.got - 2010.06.27 13:26:56.
