data_PCOD8039908
_publ_section_title
;
Structure prediction by ZEFSAII (Michael W. Deem and Ramdas Pophale) SiO2 
 PCOD8039908
Probable space group: P -1
;
_chemical_formula_sum "Si O2"
_cell_formula_units_Z 16
_cell_length_a 10.241028
_cell_length_b 13.952973
_cell_length_c 12.335133
_cell_angle_alpha 40.631797
_cell_angle_beta 116.017230
_cell_angle_gamma 137.989483
_cell_volume 735.779714
_symmetry_space_group_name_H-M "P -1"
_symmetry_group_IT_number 2
_symmetry_cell_setting 'triclinic'
loop_
_space_group_symop_operation_xyz
x,y,z
-x,-y,-z
loop_
_atom_site_type_symbol
_atom_site_label
_atom_site_fract_x
_atom_site_fract_y
_atom_site_fract_z
Si Si1 0.701911 0.553351 0.003001
Si Si2 0.314644 0.699573 0.430600
Si Si3 0.140494 0.371512 0.468393
Si Si4 0.825552 0.669442 0.719239
Si Si5 0.105504 0.015153 0.800154
Si Si6 0.753843 0.942565 0.419590
Si Si7 0.107947 0.542506 0.708380
Si Si8 0.296831 0.900976 0.074329
O O1 0.713093 0.406356 0.199929
O O2 0.500000 0.500000 0.000000
O O3 0.717304 0.514142 0.915408
O O4 0.880778 0.788719 0.904595
O O5 0.287596 0.564912 0.437304
O O6 0.528937 0.840972 0.449781
O O7 0.142762 0.544292 0.590604
O O8 0.308365 0.859920 0.239764
O O9 0.257065 0.438000 0.336832
O O10 0.926728 0.305929 0.422166
O O11 0.089937 0.179338 0.670148
O O12 0.784769 0.812256 0.606466
O O13 0.071497 0.819562 0.681680
O O14 0.233298 0.071792 0.691326
O O15 0.238677 0.033313 0.929705
O O16 0.894087 0.319750 0.860391
O O17 0.500000 0.000000 0.000000
#
# Coordination Sequence:
#
# PCOD8039908 Si02
#       8
#     2   2   2   2   2   2   2   2
#     4  10  20  39  63  81 118 166 206 236 299 370
#     4  11  21  38  63  86 122 161 202 239 308 361
#     4  10  21  38  60  89 125 150 193 264 300 343
#     4   9  19  34  59  87 117 151 203 247 294 345
#     4   9  19  35  58  87 117 151 200 249 292 353
#     4   9  17  34  57  87 112 158 194 240 295 365
#     4  10  23  39  59  86 123 162 198 246 304 361
#     4  10  18  35  58  84 113 158 198 238 294 361
#
# _framework density 21.745638
#
# number of rings (size 3 to 8) (size 9 to 14) (size 15 to 20)
#    0.000    2.250    1.250    3.000    0.000    2.500 
#    0.000    8.125   11.000    0.000    0.000    0.000 
#    0.000    0.000    0.000    0.000    0.000    0.000 
#
# Total GULP energy -198220.050064 kJ/mol
# GULP energy per Si atom -12388.753129 kJ/mol
# Density = 2.169614 g / cm^3
# Si number density = 21.745638 Si / 1000 Ang^3
#
#
#
# Elastic Constant Matrix: (Units=GPa)
#
#
# Indices 1 2 3 4 5 6 
#
# 1 108.9998 37.2275 66.2912 6.3765 15.2087 20.2559
# 2 37.2275 52.6494 36.2161 11.7246 -1.0549 11.3458
# 3 66.2912 36.2161 148.4693 22.9525 13.5867 9.0352
# 4 6.3765 11.7246 22.9525 26.8384 3.7363 -1.5124
# 5 15.2087 -1.0549 13.5867 3.7363 47.4000 9.8390
# 6 20.2559 11.3458 9.0352 -1.5124 9.8390 36.1430
#
#
#
# Elastic Compliance Matrix: (Units=1/GPa)
#
#
# Indices 1 2 3 4 5 6 
#
# 1 0.016111 -0.007829 -0.005420 0.004451 -0.003282 -0.004137
# 2 -0.007829 0.030006 -0.002366 -0.010432 0.006034 -0.006519
# 3 -0.005420 -0.002366 0.010803 -0.006701 -0.001111 0.001102
# 4 0.004451 -0.010432 -0.006701 0.047462 -0.004667 0.005712
# 5 -0.003282 0.006034 -0.001111 -0.004667 0.024340 -0.006598
# 6 -0.004137 -0.006519 0.001102 0.005712 -0.006598 0.033793
#
#
# Mechanical properties :
#
#
# Convention : Reuss Voigt Hill
#
# Bulk Modulus (GPa) = 38.92664 65.50980 52.21822
# Shear Modulus (GPa) = 24.71480 33.43519 29.07499
#
# Velocity S-wave (km/s) = 3.37492 3.92543 3.66054
# Velocity P-wave (km/s) = 5.75556 7.12293 6.47544
#
# Compressibility (1/GPa) = 0.02568935
#
# Stress axis : x y z
#
# Youngs Moduli (GPa) = 62.07047 33.32657 92.56689
#
# Poissons Ratio (x) = 0.26092 0.50168
# Poissons Ratio (y) = 0.48596 0.21905
# Poissons Ratio (z) = 0.33640 0.07886
#
# Static dielectric constant tensor:
#      x y z
#    x 3.845580 0.310350 0.271460 
#    y 0.310350 3.596670 0.238130 
#    z 0.271460 0.238130 4.352840 
# 
# 
# High freq. dielectric constant tensor:
#      x y z
#    x 1.837760 0.031020 0.007510 
#    y 0.031020 1.821290 0.020190 
#    z 0.007510 0.020190 1.868860 
# 
# From -- ./inp_files/398438.got.cif
#   From: 2010.06.25/outbox.cif.g09.slc.cpg/sg2_200_cif.got.tgz:398438.got - 2010.06.27 13:26:56.
