data_PCOD8039983
_publ_section_title
;
Structure prediction by ZEFSAII (Michael W. Deem and Ramdas Pophale) SiO2 
 PCOD8039983
Probable space group: P -1
;
_chemical_formula_sum "Si O2"
_cell_formula_units_Z 16
_cell_length_a 9.378165
_cell_length_b 16.594799
_cell_length_c 11.423620
_cell_angle_alpha 125.402250
_cell_angle_beta 123.801486
_cell_angle_gamma 101.285412
_cell_volume 775.905106
_symmetry_space_group_name_H-M "P -1"
_symmetry_group_IT_number 2
_symmetry_cell_setting 'triclinic'
loop_
_space_group_symop_operation_xyz
x,y,z
-x,-y,-z
loop_
_atom_site_type_symbol
_atom_site_label
_atom_site_fract_x
_atom_site_fract_y
_atom_site_fract_z
Si Si1 0.033915 0.351849 0.657120
Si Si2 0.056276 0.200033 0.708590
Si Si3 0.736112 0.833665 0.588277
Si Si4 0.844872 0.136174 0.179963
Si Si5 0.209192 0.148016 0.941383
Si Si6 0.493617 0.127692 0.875508
Si Si7 0.512665 0.305703 0.872000
Si Si8 0.506414 0.803516 0.693759
O O1 0.119533 0.338016 0.807316
O O2 0.911936 0.213944 0.401340
O O3 0.811781 0.335975 0.571772
O O4 0.284576 0.516750 0.851096
O O5 0.155716 0.225321 0.908983
O O6 0.216355 0.194491 0.693612
O O7 0.739157 0.044721 0.425912
O O8 0.495228 0.699717 0.277756
O O9 0.624122 0.849115 0.655987
O O10 0.885534 0.802955 0.684440
O O11 0.929361 0.983942 0.721985
O O12 0.746241 0.175551 0.076747
O O13 0.613370 0.951441 0.930214
O O14 0.369507 0.140680 0.929910
O O15 0.396226 0.246608 0.224326
O O16 0.612059 0.246769 0.924300
#
# Coordination Sequence:
#
# PCOD8039983 Si02
#       8
#     2   2   2   2   2   2   2   2
#     4  12  23  38  63  93 122 157 203 251 296 356
#     4  11  19  37  63  91 117 153 203 256 291 343
#     4  11  22  39  62  87 127 159 198 243 306 365
#     4  11  21  38  62  90 117 153 212 248 289 348
#     4  10  18  35  60  88 115 153 198 253 293 338
#     4  11  19  37  65  92 119 150 204 264 289 342
#     4  11  23  38  60  95 126 156 194 248 314 352
#     4  11  23  39  60  91 123 163 197 247 303 356
#
# _framework density 20.621078000000001
#
# number of rings (size 3 to 8) (size 9 to 14) (size 15 to 20)
#    0.000    1.000    6.250    3.750    0.000    1.000 
#    0.000    3.750    0.000    1.500    0.000    0.000 
#    0.000    0.000    0.000    0.000    0.000    0.000 
#
# Total GULP energy -198284.787312 kJ/mol
# GULP energy per Si atom -12392.799207 kJ/mol
# Density = 2.057414 g / cm^3
# Si number density = 20.621078 Si / 1000 Ang^3
#
#
#
# Elastic Constant Matrix: (Units=GPa)
#
#
# Indices 1 2 3 4 5 6 
#
# 1 54.8386 25.4555 33.3397 -1.6504 9.0451 5.9195
# 2 25.4555 150.2642 58.4521 -22.8928 8.7941 -11.3276
# 3 33.3397 58.4521 68.6693 -13.6079 4.9808 -0.3840
# 4 -1.6504 -22.8928 -13.6079 34.4108 -2.8367 3.7454
# 5 9.0451 8.7941 4.9808 -2.8367 16.2427 -8.3962
# 6 5.9195 -11.3276 -0.3840 3.7454 -8.3962 22.6006
#
#
#
# Elastic Compliance Matrix: (Units=1/GPa)
#
#
# Indices 1 2 3 4 5 6 
#
# 1 0.033097 -0.000370 -0.015098 -0.004696 -0.023180 -0.016944
# 2 -0.000370 0.010846 -0.008357 0.003366 -0.000022 0.004825
# 3 -0.015098 -0.008357 0.029762 0.005792 0.005523 0.001363
# 4 -0.004696 0.003366 0.005792 0.033834 0.004438 -0.000943
# 5 -0.023180 -0.000022 0.005523 0.004438 0.094520 0.040533
# 6 -0.016944 0.004825 0.001363 -0.000943 0.040533 0.066341
#
#
# Mechanical properties :
#
#
# Convention : Reuss Voigt Hill
#
# Bulk Modulus (GPa) = 38.38153 56.47409 47.42781
# Shear Modulus (GPa) = 15.39714 25.08580 20.24147
#
# Velocity S-wave (km/s) = 2.73549 3.49164 3.13643
# Velocity P-wave (km/s) = 5.35074 6.61070 6.01381
#
# Compressibility (1/GPa) = 0.02605420
#
# Stress axis : x y z
#
# Youngs Moduli (GPa) = 30.21417 92.19594 33.60018
#
# Poissons Ratio (x) = 0.03409 0.50730
# Poissons Ratio (y) = 0.01117 0.28081
# Poissons Ratio (z) = 0.45618 0.77053
#
# Static dielectric constant tensor:
#      x y z
#    x 3.406790 -0.152570 0.209860 
#    y -0.152570 4.003730 -0.482990 
#    z 0.209860 -0.482990 3.692100 
# 
# 
# High freq. dielectric constant tensor:
#      x y z
#    x 1.769900 -0.003660 0.021990 
#    y -0.003660 1.812070 -0.031440 
#    z 0.021990 -0.031440 1.790070 
# 
# From -- ./inp_files/305845.got.cif
#   From: 2010.06.25/outbox.cif.g09.slc.cpg/sg2_153_cif.got.tgz:305845.got - 2010.06.27 13:26:56.
