data_PCOD8039845
_publ_section_title
;
Structure prediction by ZEFSAII (Michael W. Deem and Ramdas Pophale) SiO2 
 PCOD8039845
Probable space group: P -1
;
_chemical_formula_sum "Si O2"
_cell_formula_units_Z 16
_cell_length_a 19.086456
_cell_length_b 9.173826
_cell_length_c 17.801544
_cell_angle_alpha 117.604188
_cell_angle_beta 36.950879
_cell_angle_gamma 145.389399
_cell_volume 874.993293
_symmetry_space_group_name_H-M "P -1"
_symmetry_group_IT_number 2
_symmetry_cell_setting 'triclinic'
loop_
_space_group_symop_operation_xyz
x,y,z
-x,-y,-z
loop_
_atom_site_type_symbol
_atom_site_label
_atom_site_fract_x
_atom_site_fract_y
_atom_site_fract_z
Si Si1 0.829537 0.664165 0.036430
Si Si2 0.182531 0.488924 0.149506
Si Si3 0.441439 0.621754 0.205752
Si Si4 0.978677 0.864306 0.655550
Si Si5 0.814528 0.995429 0.873830
Si Si6 0.626678 0.719817 0.690953
Si Si7 0.165181 0.681811 0.971108
Si Si8 0.684519 0.001380 0.843712
O O1 0.597988 0.479778 0.198567
O O2 0.830844 0.498929 0.044711
O O3 0.893636 0.702116 0.904358
O O4 0.000000 0.000000 0.000000
O O5 0.036579 0.285352 0.300072
O O6 0.162562 0.658169 0.190645
O O7 0.432835 0.743676 0.016122
O O8 0.214250 0.390660 0.302080
O O9 0.402967 0.483075 0.284218
O O10 0.582366 0.959624 0.181151
O O11 0.594307 0.688009 0.037714
O O12 0.976411 0.034245 0.743755
O O13 0.213463 0.126428 0.477985
O O14 0.754755 0.942290 0.825210
O O15 0.924428 0.295227 0.883853
O O16 0.726139 0.984047 0.720439
O O17 0.000000 0.500000 0.000000
#
# Coordination Sequence:
#
# PCOD8039845 Si02
#       8
#     2   2   2   2   2   2   2   2
#     4  11  23  42  64  85 114 151 203 244 288 345
#     4  10  20  35  58  84 115 154 193 246 276 352
#     4  10  20  36  58  88 119 155 198 235 282 346
#     4  12  22  35  57  93 125 154 189 234 306 343
#     4  10  19  35  60  85 117 149 200 238 279 350
#     4  11  24  36  57  90 125 157 183 242 298 353
#     4  10  22  38  65  90 105 150 208 245 281 333
#     4  10  18  35  56  85 119 149 197 232 295 337
#
# _framework density 18.285855000000002
#
# number of rings (size 3 to 8) (size 9 to 14) (size 15 to 20)
#    0.750    0.750    3.750    3.000    5.250    0.500 
#    0.000    0.625    0.000    1.500    0.000    0.000 
#    0.000    0.000    0.000    0.000    0.000    0.000 
#
# Total GULP energy -198291.522953 kJ/mol
# GULP energy per Si atom -12393.220185 kJ/mol
# Density = 1.824424 g / cm^3
# Si number density = 18.285855 Si / 1000 Ang^3
#
#
#
# Elastic Constant Matrix: (Units=GPa)
#
#
# Indices 1 2 3 4 5 6 
#
# 1 110.7832 40.3261 44.0201 -16.0980 12.9161 0.4143
# 2 40.3261 121.0613 37.7136 -11.7072 2.1229 0.6727
# 3 44.0201 37.7136 107.2571 -1.7713 20.6593 0.9298
# 4 -16.0980 -11.7072 -1.7713 10.9591 -1.4806 2.1119
# 5 12.9161 2.1229 20.6593 -1.4806 25.0264 -6.6375
# 6 0.4143 0.6727 0.9298 2.1119 -6.6375 29.4493
#
#
#
# Elastic Compliance Matrix: (Units=1/GPa)
#
#
# Indices 1 2 3 4 5 6 
#
# 1 0.014476 -0.001535 -0.004479 0.018884 -0.003076 -0.002075
# 2 -0.001535 0.010727 -0.003655 0.009076 0.003441 0.000017
# 3 -0.004479 -0.003655 0.014282 -0.009181 -0.010229 -0.001952
# 4 0.018884 0.009076 -0.009181 0.129235 0.002342 -0.008923
# 5 -0.003076 0.003441 -0.010229 0.002342 0.053039 0.012074
# 6 -0.002075 0.000017 -0.001952 -0.008923 0.012074 0.037408
#
#
# Mechanical properties :
#
#
# Convention : Reuss Voigt Hill
#
# Bulk Modulus (GPa) = 49.63336 64.80234 57.21785
# Shear Modulus (GPa) = 17.53026 27.55640 22.54333
#
# Velocity S-wave (km/s) = 3.09961 3.88619 3.51498
# Velocity P-wave (km/s) = 6.32551 7.46003 6.91608
#
# Compressibility (1/GPa) = 0.02014774
#
# Stress axis : x y z
#
# Youngs Moduli (GPa) = 69.08184 93.21883 70.01644
#
# Poissons Ratio (x) = 0.14309 0.31360
# Poissons Ratio (y) = 0.10604 0.25591
# Poissons Ratio (z) = 0.30941 0.34071
#
# Static dielectric constant tensor:
#      x y z
#    x 3.378780 -0.114440 0.082480 
#    y -0.114440 3.406860 0.061970 
#    z 0.082480 0.061970 3.059730 
# 
# 
# High freq. dielectric constant tensor:
#      x y z
#    x 1.716530 -0.012930 0.011160 
#    y -0.012930 1.711700 0.009240 
#    z 0.011160 0.009240 1.672190 
# 
# From -- ./inp_files/575434.got.cif
#   From: 2010.06.25/outbox.cif.g09.slc.cpg/sg2_288_cif.got.tgz:575434.got - 2010.06.27 13:26:56.
