data_PCOD8039782
_publ_section_title
;
Structure prediction by ZEFSAII (Michael W. Deem and Ramdas Pophale) SiO2 
 PCOD8039782
Probable space group: P -1
;
_chemical_formula_sum "Si O2"
_cell_formula_units_Z 14
_cell_length_a 8.473774
_cell_length_b 7.766319
_cell_length_c 17.444354
_cell_angle_alpha 72.185060
_cell_angle_beta 81.575097
_cell_angle_gamma 133.081379
_cell_volume 686.085646
_symmetry_space_group_name_H-M "P -1"
_symmetry_group_IT_number 2
_symmetry_cell_setting 'triclinic'
loop_
_space_group_symop_operation_xyz
x,y,z
-x,-y,-z
loop_
_atom_site_type_symbol
_atom_site_label
_atom_site_fract_x
_atom_site_fract_y
_atom_site_fract_z
Si Si1 0.776285 0.162642 0.630303
Si Si2 0.046394 0.246797 0.980075
Si Si3 0.617825 0.833744 0.830709
Si Si4 0.265301 0.906267 0.689203
Si Si5 0.784728 0.190933 0.458760
Si Si6 0.848545 0.315547 0.857584
Si Si7 0.919661 0.743581 0.850670
O O1 0.822175 0.119321 0.547164
O O2 0.031610 0.474936 0.600530
O O3 0.694920 0.929552 0.723717
O O4 0.563055 0.133727 0.644950
O O5 0.328755 0.539660 0.897638
O O6 0.861255 0.205792 0.947990
O O7 0.989221 0.235596 0.074468
O O8 0.000000 0.000000 0.000000
O O9 0.773915 0.803504 0.857973
O O10 0.671591 0.063976 0.842730
O O11 0.176539 0.889571 0.611601
O O12 0.125965 0.593266 0.763155
O O13 0.168119 0.975263 0.746514
O O14 0.500000 0.000000 0.500000
O O15 0.743314 0.424300 0.873822
#
# Coordination Sequence:
#
# PCOD8039782 Si02
#       7
#     2   2   2   2   2   2   2
#     4  10  18  34  65  89 116 164 192 244 305 360
#     4  12  24  42  60  88 124 164 208 248 299 357
#     4  12  22  41  62  89 124 160 205 247 305 354
#     4   9  19  39  57  90 118 153 201 243 296 359
#     4   9  18  34  62  91 119 152 201 242 301 363
#     4  10  22  40  60  83 124 155 202 250 299 350
#     4  10  23  40  60  90 122 160 202 256 297 350
#
# _framework density 20.405615000000001
#
# number of rings (size 3 to 8) (size 9 to 14) (size 15 to 20)
#    0.857    0.857    4.286    0.857    0.000    0.571 
#    7.714    0.714    0.000    7.714    0.000    0.000 
#    0.000    0.000    0.000    0.000    0.000    0.000 
#
# Total GULP energy -173441.754239 kJ/mol
# GULP energy per Si atom -12388.696731 kJ/mol
# Density = 2.035917 g / cm^3
# Si number density = 20.405615 Si / 1000 Ang^3
#
#
#
# Elastic Constant Matrix: (Units=GPa)
#
#
# Indices 1 2 3 4 5 6 
#
# 1 29.4631 12.4665 3.7691 4.8344 3.4244 -8.8101
# 2 12.4665 99.7147 43.7012 -5.3023 -2.6309 -3.7763
# 3 3.7691 43.7012 134.5030 31.4694 -4.8449 4.0470
# 4 4.8344 -5.3023 31.4694 39.8034 9.3180 -1.6647
# 5 3.4244 -2.6309 -4.8449 9.3180 19.5425 2.4787
# 6 -8.8101 -3.7763 4.0470 -1.6647 2.4787 30.1355
#
#
#
# Elastic Compliance Matrix: (Units=1/GPa)
#
#
# Indices 1 2 3 4 5 6 
#
# 1 0.041176 -0.005639 0.001143 -0.004539 -0.006986 0.011502
# 2 -0.005639 0.014047 -0.006561 0.008524 -0.003029 0.001713
# 3 0.001143 -0.006561 0.013203 -0.013772 0.009236 -0.003782
# 4 -0.004539 0.008524 -0.013772 0.043295 -0.022858 0.005862
# 5 -0.006986 -0.003029 0.009236 -0.022858 0.066494 -0.010394
# 6 0.011502 0.001713 -0.003782 0.005862 -0.010394 0.038447
#
#
# Mechanical properties :
#
#
# Convention : Reuss Voigt Hill
#
# Bulk Modulus (GPa) = 21.59256 42.61714 32.10485
# Shear Modulus (GPa) = 19.66841 31.47922 25.57381
#
# Velocity S-wave (km/s) = 3.10800 3.93195 3.54400
# Velocity P-wave (km/s) = 4.84605 6.44546 5.70211
#
# Compressibility (1/GPa) = 0.04631226
#
# Stress axis : x y z
#
# Youngs Moduli (GPa) = 24.28572 71.18796 75.73938
#
# Poissons Ratio (x) = 0.40141 -0.08654
# Poissons Ratio (y) = 0.13694 0.49694
# Poissons Ratio (z) = -0.02775 0.46708
#
# Static dielectric constant tensor:
#      x y z
#    x 3.230970 0.097070 0.090760 
#    y 0.097070 3.772200 0.334350 
#    z 0.090760 0.334350 4.409110 
# 
# 
# High freq. dielectric constant tensor:
#      x y z
#    x 1.748240 0.014350 -0.002490 
#    y 0.014350 1.796870 0.014780 
#    z -0.002490 0.014780 1.824100 
# 
# From -- ./inp_files/208568.got.cif
#   From: 2010.06.25/outbox.cif.g09.slc.cpg/sg2_105_cif.got.tgz:208568.got - 2010.06.27 13:26:56.
