data_PCOD8039275
_publ_section_title
;
Structure prediction by ZEFSAII (Michael W. Deem and Ramdas Pophale) SiO2 
 PCOD8039275
Probable space group: P -1
;
_chemical_formula_sum "Si O2"
_cell_formula_units_Z 14
_cell_length_a 9.890824
_cell_length_b 12.468747
_cell_length_c 13.914240
_cell_angle_alpha 65.704058
_cell_angle_beta 148.450184
_cell_angle_gamma 123.362675
_cell_volume 743.459095
_symmetry_space_group_name_H-M "P -1"
_symmetry_group_IT_number 2
_symmetry_cell_setting 'triclinic'
loop_
_space_group_symop_operation_xyz
x,y,z
-x,-y,-z
loop_
_atom_site_type_symbol
_atom_site_label
_atom_site_fract_x
_atom_site_fract_y
_atom_site_fract_z
Si Si1 0.329741 0.147588 0.956708
Si Si2 0.862390 0.385013 0.587689
Si Si3 0.198991 0.167069 0.652909
Si Si4 0.714504 0.106977 0.660385
Si Si5 0.654575 0.561919 0.296135
Si Si6 0.422373 0.012195 0.714636
Si Si7 0.680035 0.442336 0.071126
O O1 0.287816 0.131635 0.822984
O O2 0.033934 0.123426 0.836113
O O3 0.440436 0.044739 0.100580
O O4 0.566069 0.289187 0.076276
O O5 0.686730 0.240315 0.571480
O O6 0.641917 0.433818 0.387400
O O7 0.094901 0.385395 0.651409
O O8 0.998610 0.482571 0.724209
O O9 0.289015 0.320613 0.639555
O O10 0.861118 0.097198 0.461521
O O11 0.357864 0.125427 0.681713
O O12 0.500000 0.000000 0.500000
O O13 0.643333 0.072507 0.740729
O O14 0.353644 0.528004 0.072599
O O15 0.500000 0.500000 0.000000
#
# Coordination Sequence:
#
# PCOD8039275 Si02
#       7
#     2   2   2   2   2   2   2
#     4  11  20  38  59  84 111 147 190 235 275 328
#     4  10  18  33  55  83 106 143 183 233 278 316
#     4  10  20  40  57  83 113 145 199 227 268 346
#     4  12  22  38  54  86 123 142 184 236 280 336
#     4   9  17  32  56  78 103 140 185 232 268 314
#     4  11  23  35  58  82 115 158 179 227 289 334
#     4   9  16  30  53  82 102 129 187 232 263 319
#
# _framework density 18.830895000000002
#
# number of rings (size 3 to 8) (size 9 to 14) (size 15 to 20)
#    0.000    1.714    5.714    1.714    0.000    2.286 
#    2.571    0.714    0.000    3.429    0.000    0.000 
#    0.000    0.000    0.000    0.000    0.000    0.000 
#
# Total GULP energy -173574.187337 kJ/mol
# GULP energy per Si atom -12398.156238 kJ/mol
# Density = 1.878803 g / cm^3
# Si number density = 18.830895 Si / 1000 Ang^3
#
#
#
# Elastic Constant Matrix: (Units=GPa)
#
#
# Indices 1 2 3 4 5 6 
#
# 1 50.6320 18.3182 16.3772 7.6593 -7.7577 -3.9382
# 2 18.3182 101.9516 50.0134 2.4689 -1.3499 -7.3357
# 3 16.3772 50.0134 87.4220 1.0934 -8.1768 1.5271
# 4 7.6593 2.4689 1.0934 35.0319 -3.6014 -5.2308
# 5 -7.7577 -1.3499 -8.1768 -3.6014 19.0655 1.0180
# 6 -3.9382 -7.3357 1.5271 -5.2308 1.0180 22.5704
#
#
#
# Elastic Compliance Matrix: (Units=1/GPa)
#
#
# Indices 1 2 3 4 5 6 
#
# 1 0.023330 -0.002867 -0.002008 -0.003746 0.007611 0.002063
# 2 -0.002867 0.014727 -0.008347 0.000203 -0.003937 0.005075
# 3 -0.002008 -0.008347 0.017252 0.000481 0.006317 -0.004404
# 4 -0.003746 0.000203 0.000481 0.030705 0.004160 0.006308
# 5 0.007611 -0.003937 0.006317 0.004160 0.058875 -0.002070
# 6 0.002063 0.005075 -0.004404 0.006308 -0.002070 0.048169
#
#
# Mechanical properties :
#
#
# Convention : Reuss Voigt Hill
#
# Bulk Modulus (GPa) = 34.64398 45.49147 40.06773
# Shear Modulus (GPa) = 21.82236 25.68668 23.75452
#
# Velocity S-wave (km/s) = 3.40790 3.69734 3.55556
# Velocity P-wave (km/s) = 5.82429 6.51440 6.17899
#
# Compressibility (1/GPa) = 0.02886504
#
# Stress axis : x y z
#
# Youngs Moduli (GPa) = 42.86268 67.90359 57.96398
#
# Poissons Ratio (x) = 0.19468 0.11637
# Poissons Ratio (y) = 0.12289 0.48385
# Poissons Ratio (z) = 0.08605 0.56682
#
# Static dielectric constant tensor:
#      x y z
#    x 3.116680 -0.145650 -0.202260 
#    y -0.145650 3.528950 0.118540 
#    z -0.202260 0.118540 3.884620 
# 
# 
# High freq. dielectric constant tensor:
#      x y z
#    x 1.692670 -0.018640 -0.018870 
#    y -0.018640 1.737820 -0.002560 
#    z -0.018870 -0.002560 1.743620 
# 
# From -- ./inp_files/182699.got.cif
#   From: 2010.06.25/outbox.cif.g09.slc.cpg/sg2_92_cif.got.tgz:182699.got - 2010.06.27 13:26:56.
