data_PCOD8039414
_publ_section_title
;
Structure prediction by ZEFSAII (Michael W. Deem and Ramdas Pophale) SiO2 
 PCOD8039414
Probable space group: P -1
;
_chemical_formula_sum "Si O2"
_cell_formula_units_Z 14
_cell_length_a 8.514176
_cell_length_b 19.371093
_cell_length_c 8.325027
_cell_angle_alpha 53.192813
_cell_angle_beta 117.662877
_cell_angle_gamma 144.241682
_cell_volume 641.708257
_symmetry_space_group_name_H-M "P -1"
_symmetry_group_IT_number 2
_symmetry_cell_setting 'triclinic'
loop_
_space_group_symop_operation_xyz
x,y,z
-x,-y,-z
loop_
_atom_site_type_symbol
_atom_site_label
_atom_site_fract_x
_atom_site_fract_y
_atom_site_fract_z
Si Si1 0.998969 0.794715 0.471056
Si Si2 0.485381 0.278725 0.095407
Si Si3 0.631144 0.886363 0.304217
Si Si4 0.124887 0.656115 0.576116
Si Si5 0.026729 0.128694 0.343715
Si Si6 0.272884 0.053168 0.091264
Si Si7 0.453109 0.583014 0.362874
O O1 0.053480 0.719780 0.538750
O O2 0.015188 0.800956 0.665515
O O3 0.692621 0.715216 0.393057
O O4 0.221273 0.939490 0.297241
O O5 0.750419 0.364059 0.208484
O O6 0.233707 0.213237 0.178265
O O7 0.441292 0.172427 0.129621
O O8 0.534741 0.377237 0.867214
O O9 0.336157 0.746270 0.408187
O O10 0.869393 0.903102 0.428313
O O11 0.587618 0.901706 0.080128
O O12 0.731980 0.000809 0.308386
O O13 0.848843 0.511786 0.578327
O O14 0.000000 0.000000 0.000000
O O15 0.500000 0.500000 0.500000
#
# Coordination Sequence:
#
# PCOD8039414 Si02
#       7
#     2   2   2   2   2   2   2
#     4  11  21  38  61  87 116 154 193 236 286 340
#     4  11  21  39  63  86 113 151 194 240 288 338
#     4  10  19  34  55  89 115 152 188 236 288 340
#     4  10  24  38  56  86 123 150 190 241 284 335
#     4  10  18  33  60  84 115 148 193 234 288 346
#     4  12  19  35  64  87 113 150 194 234 286 343
#     4  10  21  41  61  80 114 158 196 233 281 345
#
# _framework density 21.816768
#
# number of rings (size 3 to 8) (size 9 to 14) (size 15 to 20)
#    0.000    1.429    4.286    2.143    0.000    2.857 
#    0.000   13.571    0.000    0.000    0.000    0.000 
#    0.000    0.000    0.000    0.000    0.000    0.000 
#
# Total GULP energy -173510.589978 kJ/mol
# GULP energy per Si atom -12393.613570 kJ/mol
# Density = 2.176711 g / cm^3
# Si number density = 21.816768 Si / 1000 Ang^3
#
#
#
# Elastic Constant Matrix: (Units=GPa)
#
#
# Indices 1 2 3 4 5 6 
#
# 1 38.2265 11.7137 33.9333 0.0836 -16.8034 -7.8719
# 2 11.7137 82.0062 45.2543 -8.0167 -16.1323 12.8708
# 3 33.9333 45.2543 124.8978 -13.8651 -20.5703 1.9003
# 4 0.0836 -8.0167 -13.8651 26.5433 -4.9904 -4.3303
# 5 -16.8034 -16.1323 -20.5703 -4.9904 34.3117 2.1316
# 6 -7.8719 12.8708 1.9003 -4.3303 2.1316 30.6515
#
#
#
# Elastic Compliance Matrix: (Units=1/GPa)
#
#
# Indices 1 2 3 4 5 6 
#
# 1 0.043325 0.000382 -0.009686 -0.000583 0.014856 0.010451
# 2 0.000382 0.017490 -0.005009 0.002697 0.006234 -0.006988
# 3 -0.009686 -0.005009 0.013399 0.005771 0.001806 -0.000526
# 4 -0.000583 0.002697 0.005771 0.044131 0.010621 0.003856
# 5 0.014856 0.006234 0.001806 0.010621 0.042000 -0.000335
# 6 0.010451 -0.006988 -0.000526 0.003856 -0.000335 0.038844
#
#
# Mechanical properties :
#
#
# Convention : Reuss Voigt Hill
#
# Bulk Modulus (GPa) = 21.93528 47.43701 34.68614
# Shear Modulus (GPa) = 20.57517 28.58326 24.57921
#
# Velocity S-wave (km/s) = 3.07431 3.62353 3.36016
# Velocity P-wave (km/s) = 4.76214 6.26875 5.56665
#
# Compressibility (1/GPa) = 0.04558867
#
# Stress axis : x y z
#
# Youngs Moduli (GPa) = 23.08134 57.17411 74.63195
#
# Poissons Ratio (x) = -0.02183 0.72290
# Poissons Ratio (y) = -0.00881 0.37380
# Poissons Ratio (z) = 0.22357 0.28636
#
# Static dielectric constant tensor:
#      x y z
#    x 3.540190 0.481090 -0.019950 
#    y 0.481090 3.887910 -0.518270 
#    z -0.019950 -0.518270 3.778360 
# 
# 
# High freq. dielectric constant tensor:
#      x y z
#    x 1.837630 0.004420 -0.013260 
#    y 0.004420 1.864950 -0.000150 
#    z -0.013260 -0.000150 1.852710 
# 
# From -- ./inp_files/201943.got.cif
#   From: 2010.06.25/outbox.cif.g09.slc.cpg/sg2_101_cif.got.tgz:201943.got - 2010.06.27 13:26:56.
