data_PCOD8039620
_publ_section_title
;
Structure prediction by ZEFSAII (Michael W. Deem and Ramdas Pophale) SiO2 
 PCOD8039620
Probable space group: P -1
;
_chemical_formula_sum "Si O2"
_cell_formula_units_Z 16
_cell_length_a 21.191508
_cell_length_b 27.588195
_cell_length_c 9.756237
_cell_angle_alpha 139.931718
_cell_angle_beta 29.529986
_cell_angle_gamma 162.142155
_cell_volume 783.907639
_symmetry_space_group_name_H-M "P -1"
_symmetry_group_IT_number 2
_symmetry_cell_setting 'triclinic'
loop_
_space_group_symop_operation_xyz
x,y,z
-x,-y,-z
loop_
_atom_site_type_symbol
_atom_site_label
_atom_site_fract_x
_atom_site_fract_y
_atom_site_fract_z
Si Si1 0.163661 0.186200 0.318522
Si Si2 0.540371 0.806436 0.702968
Si Si3 0.047466 0.677786 0.601555
Si Si4 0.046213 0.773381 0.294761
Si Si5 0.570719 0.322148 0.646290
Si Si6 0.337599 0.865771 0.200776
Si Si7 0.150220 0.569587 0.168901
Si Si8 0.271467 0.484258 0.884846
O O1 0.383336 0.341185 0.350213
O O2 0.056988 0.194795 0.433271
O O3 0.313079 0.197321 0.975533
O O4 0.874739 0.001418 0.543120
O O5 0.570457 0.771990 0.435793
O O6 0.360150 0.787616 0.972088
O O7 0.363849 0.664237 0.840950
O O8 0.757816 0.499447 0.673867
O O9 0.242247 0.833750 0.470009
O O10 0.225308 0.695303 0.345748
O O11 0.936385 0.659497 0.911041
O O12 0.087209 0.763478 0.348728
O O13 0.799579 0.593883 0.292425
O O14 0.354567 0.929244 0.966425
O O15 0.801548 0.377928 0.372859
O O16 0.214302 0.544072 0.112497
#
# Coordination Sequence:
#
# PCOD8039620 Si02
#       8
#     2   2   2   2   2   2   2   2
#     4  10  22  35  50  79 117 145 172 214 272 320
#     4  10  18  34  58  81 108 138 176 228 268 312
#     4   8  19  32  55  83 106 128 175 229 269 302
#     4  10  21  35  58  75 108 146 183 218 260 318
#     4   9  18  32  56  83 106 138 174 224 274 307
#     4   9  19  37  56  84 101 136 188 229 259 307
#     4   9  19  32  59  80 104 137 182 225 259 317
#     4  11  20  35  55  80 107 148 178 212 267 325
#
# _framework density 20.410567
#
# number of rings (size 3 to 8) (size 9 to 14) (size 15 to 20)
#    0.750    1.750    0.000    2.250    1.750    1.000 
#    0.000    2.500    2.750    0.000    0.000    0.000 
#    0.000    0.000    0.000    0.000    0.000    0.000 
#
# Total GULP energy -198254.586903 kJ/mol
# GULP energy per Si atom -12390.911681 kJ/mol
# Density = 2.036411 g / cm^3
# Si number density = 20.410567 Si / 1000 Ang^3
#
#
#
# Elastic Constant Matrix: (Units=GPa)
#
#
# Indices 1 2 3 4 5 6 
#
# 1 91.6335 24.9067 35.6326 -20.5797 1.4556 -2.9242
# 2 24.9067 40.4145 23.2510 -11.8224 -0.1591 5.5227
# 3 35.6326 23.2510 79.1169 -23.5983 0.7201 3.1245
# 4 -20.5797 -11.8224 -23.5983 26.2933 3.6608 3.6754
# 5 1.4556 -0.1591 0.7201 3.6608 21.4939 -2.8828
# 6 -2.9242 5.5227 3.1245 3.6754 -2.8828 29.5810
#
#
#
# Elastic Compliance Matrix: (Units=1/GPa)
#
#
# Indices 1 2 3 4 5 6 
#
# 1 0.015342 -0.005979 -0.003343 0.006281 -0.001768 0.002033
# 2 -0.005979 0.034517 -0.004806 0.007810 -0.001535 -0.007648
# 3 -0.003343 -0.004806 0.019932 0.014085 -0.003361 -0.003616
# 4 0.006281 0.007810 0.014085 0.062501 -0.013008 -0.011358
# 5 -0.001768 -0.001535 -0.003361 -0.013008 0.049893 0.006945
# 6 0.002033 -0.007648 -0.003616 -0.011358 0.006945 0.037904
#
#
# Mechanical properties :
#
#
# Convention : Reuss Voigt Hill
#
# Bulk Modulus (GPa) = 24.07599 42.08284 33.07942
# Shear Modulus (GPa) = 19.07022 23.96528 21.51775
#
# Velocity S-wave (km/s) = 3.06000 3.43032 3.25044
# Velocity P-wave (km/s) = 4.93014 6.02929 5.50721
#
# Compressibility (1/GPa) = 0.04153516
#
# Stress axis : x y z
#
# Youngs Moduli (GPa) = 65.18119 28.97153 50.17022
#
# Poissons Ratio (x) = 0.17322 0.16773
# Poissons Ratio (y) = 0.38971 0.24110
# Poissons Ratio (z) = 0.21792 0.13922
#
# Static dielectric constant tensor:
#      x y z
#    x 3.542370 0.009430 -0.035130 
#    y 0.009430 3.447780 -0.267870 
#    z -0.035130 -0.267870 3.580360 
# 
# 
# High freq. dielectric constant tensor:
#      x y z
#    x 1.779420 0.004880 0.002590 
#    y 0.004880 1.774440 -0.016210 
#    z 0.002590 -0.016210 1.785980 
# 
# From -- ./inp_files/350191.got.cif
#   From: 2010.06.25/outbox.cif.g09.slc.cpg/sg2_176_cif.got.tgz:350191.got - 2010.06.27 13:26:56.
