data_PCOD8039986
_publ_section_title
;
Structure prediction by ZEFSAII (Michael W. Deem and Ramdas Pophale) SiO2 
 PCOD8039986
Probable space group: P -1
;
_chemical_formula_sum "Si O2"
_cell_formula_units_Z 16
_cell_length_a 23.307751
_cell_length_b 20.039699
_cell_length_c 9.744607
_cell_angle_alpha 142.536386
_cell_angle_beta 144.681167
_cell_angle_gamma 17.238467
_cell_volume 777.021711
_symmetry_space_group_name_H-M "P -1"
_symmetry_group_IT_number 2
_symmetry_cell_setting 'triclinic'
loop_
_space_group_symop_operation_xyz
x,y,z
-x,-y,-z
loop_
_atom_site_type_symbol
_atom_site_label
_atom_site_fract_x
_atom_site_fract_y
_atom_site_fract_z
Si Si1 0.544422 0.947422 0.341027
Si Si2 0.700088 0.016879 0.676872
Si Si3 0.219533 0.921013 0.812927
Si Si4 0.492016 0.762120 0.855576
Si Si5 0.145588 0.147178 0.587135
Si Si6 0.270006 0.483409 0.492658
Si Si7 0.759494 0.344924 0.533609
Si Si8 0.297771 0.221289 0.054120
O O1 0.500000 0.000000 0.500000
O O2 0.715452 0.872536 0.510604
O O3 0.341043 0.169063 0.216649
O O4 0.611771 0.758805 0.123075
O O5 0.461664 0.282649 0.639710
O O6 0.808420 0.935380 0.611397
O O7 0.813091 0.981262 0.950806
O O8 0.374852 0.836332 0.882841
O O9 0.310383 0.713048 0.681872
O O10 0.003206 0.120224 0.641683
O O11 0.660364 0.509896 0.732618
O O12 0.333604 0.929973 0.695538
O O13 0.933654 0.295086 0.456048
O O14 0.123299 0.302126 0.804415
O O15 0.316610 0.538694 0.572367
O O16 0.231219 0.411050 0.205433
O O17 0.500000 0.000000 0.000000
#
# Coordination Sequence:
#
# PCOD8039986 Si02
#       8
#     2   2   2   2   2   2   2   2
#     4  10  19  35  62  90 128 160 192 250 317 365
#     4  11  23  42  61  95 131 157 202 267 307 363
#     4  11  25  44  65  90 127 160 214 263 308 363
#     4  11  21  41  68  90 124 169 205 251 313 373
#     4  11  21  37  63  92 125 166 206 246 314 373
#     4  11  21  38  64  90 124 165 211 250 305 368
#     4  11  24  43  67  91 118 171 216 252 305 375
#     4  10  18  35  60  89 124 166 203 246 299 376
#
# _framework density 20.591446999999999
#
# number of rings (size 3 to 8) (size 9 to 14) (size 15 to 20)
#    0.000    1.250    6.250    1.500    0.000    1.500 
#    0.000    1.250    0.000    0.000    0.000    0.000 
#    0.000    0.000    0.000    0.000    0.000    0.000 
#
# Total GULP energy -198396.348301 kJ/mol
# GULP energy per Si atom -12399.771769 kJ/mol
# Density = 2.054458 g / cm^3
# Si number density = 20.591447 Si / 1000 Ang^3
#
#
#
# Elastic Constant Matrix: (Units=GPa)
#
#
# Indices 1 2 3 4 5 6 
#
# 1 117.5520 28.1239 48.2348 14.3618 -15.3330 7.9530
# 2 28.1239 46.4419 10.5244 14.7395 5.7461 -5.4772
# 3 48.2348 10.5244 97.4087 18.1024 2.5948 5.6844
# 4 14.3618 14.7395 18.1024 28.0168 4.7629 0.8669
# 5 -15.3330 5.7461 2.5948 4.7629 37.6759 10.0363
# 6 7.9530 -5.4772 5.6844 0.8669 10.0363 28.3557
#
#
#
# Elastic Compliance Matrix: (Units=1/GPa)
#
#
# Indices 1 2 3 4 5 6 
#
# 1 0.015616 -0.010405 -0.006382 0.000041 0.010752 -0.008917
# 2 -0.010405 0.034307 0.003465 -0.013400 -0.011569 0.013355
# 3 -0.006382 0.003465 0.014447 -0.007328 -0.003464 0.001013
# 4 0.000041 -0.013400 -0.007328 0.048031 -0.003108 -0.001499
# 5 0.010752 -0.011569 -0.003464 -0.003108 0.038094 -0.017944
# 6 -0.008917 0.013355 0.001013 -0.001499 -0.017944 0.046541
#
#
# Mechanical properties :
#
#
# Convention : Reuss Voigt Hill
#
# Bulk Modulus (GPa) = 26.50718 48.35208 37.42963
# Shear Modulus (GPa) = 21.16352 30.44432 25.80392
#
# Velocity S-wave (km/s) = 3.20938 3.84929 3.54381
# Velocity P-wave (km/s) = 5.16085 6.57941 5.91283
#
# Compressibility (1/GPa) = 0.03772563
#
# Stress axis : x y z
#
# Youngs Moduli (GPa) = 64.03828 29.14816 69.21866
#
# Poissons Ratio (x) = 0.30329 0.44175
# Poissons Ratio (y) = 0.66632 -0.23983
# Poissons Ratio (z) = 0.40869 -0.10099
#
# Static dielectric constant tensor:
#      x y z
#    x 3.908110 0.136750 0.115040 
#    y 0.136750 3.514790 0.160000 
#    z 0.115040 0.160000 3.724780 
# 
# 
# High freq. dielectric constant tensor:
#      x y z
#    x 1.821090 0.002640 0.000300 
#    y 0.002640 1.779590 0.011700 
#    z 0.000300 0.011700 1.794560 
# 
# From -- ./inp_files/348967.got.cif
#   From: 2010.06.25/outbox.cif.g09.slc.cpg/sg2_175_cif.got.tgz:348967.got - 2010.06.27 13:26:56.
