data_PCOD8039761
_publ_section_title
;
Structure prediction by ZEFSAII (Michael W. Deem and Ramdas Pophale) SiO2 
 PCOD8039761
Probable space group: P -1
;
_chemical_formula_sum "Si O2"
_cell_formula_units_Z 16
_cell_length_a 10.000187
_cell_length_b 15.695197
_cell_length_c 8.667185
_cell_angle_alpha 133.553764
_cell_angle_beta 80.218620
_cell_angle_gamma 70.474600
_cell_volume 753.021180
_symmetry_space_group_name_H-M "P -1"
_symmetry_group_IT_number 2
_symmetry_cell_setting 'triclinic'
loop_
_space_group_symop_operation_xyz
x,y,z
-x,-y,-z
loop_
_atom_site_type_symbol
_atom_site_label
_atom_site_fract_x
_atom_site_fract_y
_atom_site_fract_z
Si Si1 0.389315 0.586822 0.345228
Si Si2 0.059798 0.574525 0.893549
Si Si3 0.250736 0.681987 0.151919
Si Si4 0.929097 0.022562 0.309873
Si Si5 0.078152 0.714780 0.785462
Si Si6 0.154214 0.095543 0.207739
Si Si7 0.226447 0.265896 0.617980
Si Si8 0.589493 0.161092 0.360515
O O1 0.273671 0.645939 0.286161
O O2 0.467558 0.674797 0.464922
O O3 0.271858 0.614143 0.548164
O O4 0.557636 0.407627 0.076052
O O5 0.154541 0.621970 0.033148
O O6 0.862634 0.669452 0.116765
O O7 0.156653 0.397882 0.671797
O O8 0.059781 0.606172 0.752557
O O9 0.130561 0.868032 0.389650
O O10 0.748510 0.074981 0.340785
O O11 0.027559 0.055453 0.214796
O O12 0.050884 0.839127 0.069275
O O13 0.931541 0.788776 0.774918
O O14 0.180474 0.162108 0.434191
O O15 0.346077 0.941588 0.933758
O O16 0.432458 0.173780 0.484044
#
# Coordination Sequence:
#
# PCOD8039761 Si02
#       8
#     2   2   2   2   2   2   2   2
#     4  10  18  34  63  89 114 147 197 245 289 340
#     4  11  24  37  58  83 121 160 190 240 290 349
#     4  10  19  35  57  89 115 153 189 233 293 343
#     4  10  19  37  65  90 112 151 196 238 295 346
#     4  11  21  38  62  89 117 148 199 246 290 338
#     4  11  19  38  64  85 115 154 196 238 290 355
#     4  11  23  40  56  83 120 160 198 228 292 355
#     4  10  18  35  64  89 107 152 199 243 281 347
#
# _framework density 21.247743
#
# number of rings (size 3 to 8) (size 9 to 14) (size 15 to 20)
#    0.000    1.500    6.250    1.125    0.000    1.500 
#    0.000    2.500    2.750    0.000    0.000    0.000 
#    0.000    0.000    0.000    0.000    0.000    0.000 
#
# Total GULP energy -198314.961934 kJ/mol
# GULP energy per Si atom -12394.685121 kJ/mol
# Density = 2.119938 g / cm^3
# Si number density = 21.247743 Si / 1000 Ang^3
#
#
#
# Elastic Constant Matrix: (Units=GPa)
#
#
# Indices 1 2 3 4 5 6 
#
# 1 82.9588 1.4457 12.9505 -7.2692 -17.0141 8.6791
# 2 1.4457 48.3879 10.2115 -9.1888 -12.1132 22.7096
# 3 12.9505 10.2115 120.2991 3.9004 -24.3814 5.8834
# 4 -7.2692 -9.1888 3.9004 24.8992 4.8236 -0.8630
# 5 -17.0141 -12.1132 -24.3814 4.8236 41.0388 -2.5728
# 6 8.6791 22.7096 5.8834 -0.8630 -2.5728 10.5565
#
#
#
# Elastic Compliance Matrix: (Units=1/GPa)
#
#
# Indices 1 2 3 4 5 6 
#
# 1 0.005143 -0.030749 -0.001345 -0.006912 -0.003084 0.061354
# 2 -0.030749 -0.101921 -0.003965 -0.032608 -0.026457 0.237635
# 3 -0.001345 -0.003965 0.009654 -0.004124 0.004811 0.005091
# 4 -0.006912 -0.032608 -0.004124 0.032124 -0.013865 0.077375
# 5 -0.003084 -0.026457 0.004811 -0.013865 0.023616 0.061393
# 6 0.061354 0.237635 0.005091 0.077375 0.061393 -0.448476
#
#
# Mechanical properties :
#
#
# Convention : Reuss Voigt Hill
#
# Bulk Modulus (GPa) = -6.27968 33.42902 13.57467
# Shear Modulus (GPa) = -10.85018 30.43477 9.79230
#
# Velocity S-wave (km/s) = -2.26221 3.78878 2.14910
# Velocity P-wave (km/s) = 3.12815 5.90821 3.54412
#
# Compressibility (1/GPa) = -0.15924391
#
# Stress axis : x y z
#
# Youngs Moduli (GPa) = 194.44096 -9.81152 103.58588
#
# Poissons Ratio (x) = -0.30170 0.13934
# Poissons Ratio (y) = 5.97896 0.41074
# Poissons Ratio (z) = 0.26156 -0.03890
#
# Static dielectric constant tensor:
#      x y z
#    x 3.628360 0.141600 -0.024890 
#    y 0.141600 3.407150 0.199830 
#    z -0.024890 0.199830 4.553040 
# 
# 
# High freq. dielectric constant tensor:
#      x y z
#    x 1.821440 0.007320 -0.005830 
#    y 0.007320 1.786460 0.007770 
#    z -0.005830 0.007770 1.863970 
# 
# From -- ./inp_files/208912.got.cif
#   From: 2010.06.25/outbox.cif.g09.slc.cpg/sg2_105_cif.got.tgz:208912.got - 2010.06.27 13:26:56.
