data_PCOD8039611
_publ_section_title
;
Structure prediction by ZEFSAII (Michael W. Deem and Ramdas Pophale) SiO2 
 PCOD8039611
Probable space group: P -1
;
_chemical_formula_sum "Si O2"
_cell_formula_units_Z 16
_cell_length_a 15.696019
_cell_length_b 12.308428
_cell_length_c 9.481359
_cell_angle_alpha 98.084105
_cell_angle_beta 123.132281
_cell_angle_gamma 38.376426
_cell_volume 792.991704
_symmetry_space_group_name_H-M "P -1"
_symmetry_group_IT_number 2
_symmetry_cell_setting 'triclinic'
loop_
_space_group_symop_operation_xyz
x,y,z
-x,-y,-z
loop_
_atom_site_type_symbol
_atom_site_label
_atom_site_fract_x
_atom_site_fract_y
_atom_site_fract_z
Si Si1 0.179422 0.724205 0.023803
Si Si2 0.761457 0.095907 0.821988
Si Si3 0.686166 0.937017 0.789692
Si Si4 0.411154 0.178738 0.167705
Si Si5 0.175370 0.249540 0.427967
Si Si6 0.261671 0.401265 0.534077
Si Si7 0.773116 0.515467 0.172043
Si Si8 0.354927 0.430202 0.368079
O O1 0.247916 0.786348 0.068083
O O2 0.264494 0.614422 0.234474
O O3 0.263699 0.568733 0.949159
O O4 0.945682 0.932485 0.854310
O O5 0.573792 0.257826 0.581272
O O6 0.775821 0.974945 0.915426
O O7 0.716229 0.814296 0.911400
O O8 0.779954 0.815769 0.705470
O O9 0.454906 0.163769 0.603884
O O10 0.345693 0.331800 0.244671
O O11 0.641714 0.945120 0.340683
O O12 0.355822 0.270324 0.977948
O O13 0.112395 0.436403 0.420989
O O14 0.000222 0.335297 0.336769
O O15 0.293607 0.432999 0.717124
O O16 0.214387 0.535794 0.396509
#
# Coordination Sequence:
#
# PCOD8039611 Si02
#       8
#     2   2   2   2   2   2   2   2
#     4  10  21  34  56  82 104 138 186 224 256 315
#     4  10  19  35  56  80 104 139 186 222 257 310
#     4  10  18  34  58  78 105 146 178 215 262 318
#     4  10  19  34  58  80 109 140 182 217 263 326
#     4  11  18  36  55  78 111 148 171 217 269 321
#     4  10  20  35  55  82 114 141 172 223 275 319
#     4  11  23  34  53  87 112 137 177 226 272 310
#     4  10  18  35  57  78 104 143 180 217 265 319
#
# _framework density 20.176755
#
# number of rings (size 3 to 8) (size 9 to 14) (size 15 to 20)
#    0.000    1.750    5.000    1.500    0.000    3.500 
#    0.000    5.000    0.000    3.000    0.000    0.000 
#    0.000    0.000    0.000    0.000    0.000    0.000 
#
# Total GULP energy -198302.280389 kJ/mol
# GULP energy per Si atom -12393.892524 kJ/mol
# Density = 2.013083 g / cm^3
# Si number density = 20.176755 Si / 1000 Ang^3
#
#
#
# Elastic Constant Matrix: (Units=GPa)
#
#
# Indices 1 2 3 4 5 6 
#
# 1 81.5786 26.7926 40.2414 10.7029 10.1503 25.1984
# 2 26.7926 54.2248 32.0859 4.6847 -0.5835 17.1439
# 3 40.2414 32.0859 76.5907 4.3558 -6.1023 3.8798
# 4 10.7029 4.6847 4.3558 25.1185 -1.8001 6.5775
# 5 10.1503 -0.5835 -6.1023 -1.8001 26.1471 11.5397
# 6 25.1984 17.1439 3.8798 6.5775 11.5397 36.2316
#
#
#
# Elastic Compliance Matrix: (Units=1/GPa)
#
#
# Indices 1 2 3 4 5 6 
#
# 1 0.023355 -0.000607 -0.011700 -0.005315 -0.007113 -0.011473
# 2 -0.000607 0.029739 -0.011104 0.000635 0.004540 -0.014022
# 3 -0.011700 -0.011104 0.023838 0.001080 0.006091 0.008702
# 4 -0.005315 0.000635 0.001080 0.044372 0.008717 -0.007551
# 5 -0.007113 0.004540 0.006091 0.008717 0.049894 -0.015327
# 6 -0.011473 -0.014022 0.008702 -0.007551 -0.015327 0.047535
#
#
# Mechanical properties :
#
#
# Convention : Reuss Voigt Hill
#
# Bulk Modulus (GPa) = 33.21004 45.62598 39.41801
# Shear Modulus (GPa) = 18.14280 25.05104 21.59692
#
# Velocity S-wave (km/s) = 3.00191 3.52743 3.27523
# Velocity P-wave (km/s) = 5.33953 6.26519 5.82079
#
# Compressibility (1/GPa) = 0.03011137
#
# Stress axis : x y z
#
# Youngs Moduli (GPa) = 42.81771 33.62568 41.94913
#
# Poissons Ratio (x) = 0.02040 0.49080
# Poissons Ratio (y) = 0.02598 0.46580
# Poissons Ratio (z) = 0.50096 0.37337
#
# Static dielectric constant tensor:
#      x y z
#    x 3.920600 0.318500 0.089760 
#    y 0.318500 3.636420 -0.037270 
#    z 0.089760 -0.037270 3.577380 
# 
# 
# High freq. dielectric constant tensor:
#      x y z
#    x 1.781660 0.015490 0.012050 
#    y 0.015490 1.776020 -0.001310 
#    z 0.012050 -0.001310 1.769580 
# 
# From -- ./inp_files/178253.got.cif
#   From: 2010.06.25/outbox.cif.g09.slc.cpg/sg2_90_cif.got.tgz:178253.got - 2010.06.27 13:26:56.
