data_PCOD8039674
_publ_section_title
;
Structure prediction by ZEFSAII (Michael W. Deem and Ramdas Pophale) SiO2 
 PCOD8039674
Probable space group: P -1
;
_chemical_formula_sum "Si O2"
_cell_formula_units_Z 16
_cell_length_a 12.483760
_cell_length_b 12.346460
_cell_length_c 18.319670
_cell_angle_alpha 151.688028
_cell_angle_beta 48.734260
_cell_angle_gamma 111.076766
_cell_volume 789.745959
_symmetry_space_group_name_H-M "P -1"
_symmetry_group_IT_number 2
_symmetry_cell_setting 'triclinic'
loop_
_space_group_symop_operation_xyz
x,y,z
-x,-y,-z
loop_
_atom_site_type_symbol
_atom_site_label
_atom_site_fract_x
_atom_site_fract_y
_atom_site_fract_z
Si Si1 0.726387 0.696790 0.907095
Si Si2 0.234566 0.597674 0.028164
Si Si3 0.658717 0.822763 0.383714
Si Si4 0.649382 0.926244 0.234418
Si Si5 0.568606 0.186074 0.988418
Si Si6 0.256080 0.695183 0.518065
Si Si7 0.850207 0.109932 0.478175
Si Si8 0.080072 0.456430 0.516828
O O1 0.558815 0.876157 0.031337
O O2 0.744650 0.409904 0.749055
O O3 0.918874 0.599305 0.732880
O O4 0.674677 0.896868 0.119186
O O5 0.208161 0.497332 0.900969
O O6 0.272680 0.382788 0.948331
O O7 0.392336 0.632549 0.973668
O O8 0.043573 0.908175 0.310888
O O9 0.500000 0.000000 0.500000
O O10 0.565837 0.837181 0.509895
O O11 0.754260 0.964188 0.440186
O O12 0.749557 0.045080 0.293391
O O13 0.458920 0.394894 0.231739
O O14 0.759974 0.885747 0.745432
O O15 0.141485 0.808490 0.561013
O O16 0.163755 0.628129 0.581198
O O17 0.000000 0.500000 0.500000
#
# Coordination Sequence:
#
# PCOD8039674 Si02
#       8
#     2   2   2   2   2   2   2   2
#     4  11  25  41  61  93 128 161 206 253 309 366
#     4  11  20  36  66  92 126 159 209 253 302 369
#     4  10  18  34  59  87 121 161 201 246 299 364
#     4  11  23  40  58  92 130 166 196 249 316 368
#     4  11  22  42  69  94 116 161 211 255 303 364
#     4  11  21  39  67  89 122 163 209 258 301 358
#     4  11  20  37  62  97 121 161 213 253 299 365
#     4  12  23  43  70  92 117 159 216 260 298 358
#
# _framework density 20.259678999999998
#
# number of rings (size 3 to 8) (size 9 to 14) (size 15 to 20)
#    0.000    1.000    7.500    3.000    0.000    3.000 
#    2.250    0.625    0.000    0.000    0.000    0.000 
#    0.000    0.000    0.000    0.000    0.000    0.000 
#
# Total GULP energy -198289.574325 kJ/mol
# GULP energy per Si atom -12393.098395 kJ/mol
# Density = 2.021357 g / cm^3
# Si number density = 20.259679 Si / 1000 Ang^3
#
#
#
# Elastic Constant Matrix: (Units=GPa)
#
#
# Indices 1 2 3 4 5 6 
#
# 1 67.3616 33.0754 33.1697 -9.9365 1.6035 5.5146
# 2 33.0754 100.5438 26.5202 -7.2830 0.3341 21.1239
# 3 33.1697 26.5202 69.8328 -10.7259 -6.1193 -13.6243
# 4 -9.9365 -7.2830 -10.7259 32.7707 -2.1106 0.2963
# 5 1.6035 0.3341 -6.1193 -2.1106 33.6565 -5.8627
# 6 5.5146 21.1239 -13.6243 0.2963 -5.8627 33.6414
#
#
#
# Elastic Compliance Matrix: (Units=1/GPa)
#
#
# Indices 1 2 3 4 5 6 
#
# 1 0.022775 -0.002853 -0.011134 0.002423 -0.004183 -0.007201
# 2 -0.002853 0.015564 -0.007384 0.000062 -0.003609 -0.012925
# 3 -0.011134 -0.007384 0.027663 0.004460 0.009264 0.019240
# 4 0.002423 0.000062 0.004460 0.032904 0.003039 0.001610
# 5 -0.004183 -0.003609 0.009264 0.003039 0.034018 0.012605
# 6 -0.007201 -0.012925 0.019240 0.001610 0.012605 0.048996
#
#
# Mechanical properties :
#
#
# Convention : Reuss Voigt Hill
#
# Bulk Modulus (GPa) = 42.99114 47.02989 45.01052
# Shear Modulus (GPa) = 21.51319 29.67856 25.59587
#
# Velocity S-wave (km/s) = 3.26217 3.83156 3.55828
# Velocity P-wave (km/s) = 5.95442 6.54511 6.25674
#
# Compressibility (1/GPa) = 0.02326060
#
# Stress axis : x y z
#
# Youngs Moduli (GPa) = 43.90749 64.25047 36.14934
#
# Poissons Ratio (x) = 0.18331 0.40248
# Poissons Ratio (y) = 0.12527 0.26693
# Poissons Ratio (z) = 0.48886 0.47442
#
# Static dielectric constant tensor:
#      x y z
#    x 3.861540 0.467470 -0.033660 
#    y 0.467470 3.911850 -0.108620 
#    z -0.033660 -0.108620 3.990070 
# 
# 
# High freq. dielectric constant tensor:
#      x y z
#    x 1.773320 0.031730 -0.007400 
#    y 0.031730 1.782530 -0.000610 
#    z -0.007400 -0.000610 1.791370 
# 
# From -- ./inp_files/522498.got.cif
#   From: 2010.06.25/outbox.cif.g09.slc.cpg/sg2_262_cif.got.tgz:522498.got - 2010.06.27 13:26:56.
