data_PCOD8039598
_publ_section_title
;
Structure prediction by ZEFSAII (Michael W. Deem and Ramdas Pophale) SiO2 
 PCOD8039598
Probable space group: P -1
;
_chemical_formula_sum "Si O2"
_cell_formula_units_Z 16
_cell_length_a 17.584896
_cell_length_b 12.047047
_cell_length_c 11.478085
_cell_angle_alpha 50.006139
_cell_angle_beta 147.257870
_cell_angle_gamma 141.304580
_cell_volume 821.521379
_symmetry_space_group_name_H-M "P -1"
_symmetry_group_IT_number 2
_symmetry_cell_setting 'triclinic'
loop_
_space_group_symop_operation_xyz
x,y,z
-x,-y,-z
loop_
_atom_site_type_symbol
_atom_site_label
_atom_site_fract_x
_atom_site_fract_y
_atom_site_fract_z
Si Si1 0.842523 0.419407 0.436111
Si Si2 0.440807 0.753862 0.143894
Si Si3 0.946776 0.491294 0.126073
Si Si4 0.373893 0.369913 0.655334
Si Si5 0.645221 0.599440 0.025718
Si Si6 0.242663 0.096472 0.880062
Si Si7 0.032624 0.295241 0.199266
Si Si8 0.529413 0.071850 0.180301
O O1 0.761864 0.527230 0.232970
O O2 0.710854 0.209265 0.384166
O O3 0.000000 0.500000 0.500000
O O4 0.904022 0.440381 0.633204
O O5 0.561675 0.683884 0.337565
O O6 0.499769 0.883155 0.245207
O O7 0.239321 0.594418 0.998164
O O8 0.475033 0.854508 0.999412
O O9 0.940082 0.341575 0.142876
O O10 0.996838 0.658309 0.998693
O O11 0.273621 0.216663 0.727445
O O12 0.238481 0.408292 0.410025
O O13 0.547013 0.549562 0.808724
O O14 0.748880 0.807326 0.052362
O O15 0.500000 0.500000 0.000000
O O16 0.381695 0.048899 0.089500
O O17 0.052223 0.913950 0.757399
#
# Coordination Sequence:
#
# PCOD8039598 Si02
#       8
#     2   2   2   2   2   2   2   2
#     4  12  21  36  60  90 114 149 192 242 289 339
#     4  10  19  37  59  85 116 147 189 243 283 342
#     4  11  23  39  57  82 124 156 192 231 289 353
#     4  10  20  36  61  86 112 148 197 241 288 334
#     4  10  18  34  57  86 112 143 185 243 293 330
#     4  10  19  36  59  85 116 146 196 244 284 335
#     4  11  24  38  55  87 118 161 191 230 289 348
#     4  10  19  34  60  89 114 142 193 240 291 329
#
# _framework density 19.476058999999999
#
# number of rings (size 3 to 8) (size 9 to 14) (size 15 to 20)
#    0.000    1.500    6.250    1.875    0.000    1.500 
#    0.000    1.875    0.000    3.750    0.000    0.000 
#    0.000    0.000    0.000    0.000    0.000    0.000 
#
# Total GULP energy -198346.566203 kJ/mol
# GULP energy per Si atom -12396.660388 kJ/mol
# Density = 1.943173 g / cm^3
# Si number density = 19.476059 Si / 1000 Ang^3
#
#
#
# Elastic Constant Matrix: (Units=GPa)
#
#
# Indices 1 2 3 4 5 6 
#
# 1 75.5780 26.9017 39.4483 2.8035 15.8273 -19.9837
# 2 26.9017 78.9047 31.6632 19.0946 -6.1195 -24.1507
# 3 39.4483 31.6632 103.5080 15.3319 3.9367 -4.2414
# 4 2.8035 19.0946 15.3319 25.0826 -3.5268 0.9661
# 5 15.8273 -6.1195 3.9367 -3.5268 33.6115 3.3548
# 6 -19.9837 -24.1507 -4.2414 0.9661 3.3548 22.6282
#
#
#
# Elastic Compliance Matrix: (Units=1/GPa)
#
#
# Indices 1 2 3 4 5 6 
#
# 1 0.027500 0.001813 -0.009102 -0.001948 -0.014426 0.026737
# 2 0.001813 0.028997 -0.005194 -0.020404 -0.000351 0.032499
# 3 -0.009102 -0.005194 0.014653 -0.003224 0.002389 -0.011052
# 4 -0.001948 -0.020404 -0.003224 0.059580 0.006589 -0.027622
# 5 -0.014426 -0.000351 0.002389 0.006589 0.038759 -0.018694
# 6 0.026737 0.032499 -0.011052 -0.027622 -0.018694 0.104370
#
#
# Mechanical properties :
#
#
# Convention : Reuss Voigt Hill
#
# Bulk Modulus (GPa) = 21.65293 50.44635 36.04964
# Shear Modulus (GPa) = 15.91247 26.92962 21.42105
#
# Velocity S-wave (km/s) = 2.86147 3.72251 3.32002
# Velocity P-wave (km/s) = 4.69672 6.66589 5.76599
#
# Compressibility (1/GPa) = 0.04618313
#
# Stress axis : x y z
#
# Youngs Moduli (GPa) = 36.36358 34.48619 68.24685
#
# Poissons Ratio (x) = -0.06252 0.62121
# Poissons Ratio (y) = -0.06593 0.35447
# Poissons Ratio (z) = 0.33100 0.17912
#
# Static dielectric constant tensor:
#      x y z
#    x 3.822770 -0.558560 0.028070 
#    y -0.558560 3.831190 0.359610 
#    z 0.028070 0.359610 3.637410 
# 
# 
# High freq. dielectric constant tensor:
#      x y z
#    x 1.759600 -0.021140 0.018880 
#    y -0.021140 1.743510 0.020270 
#    z 0.018880 0.020270 1.745650 
# 
# From -- ./inp_files/262310.got.cif
#   From: 2010.06.25/outbox.cif.g09.slc.cpg/sg2_132_cif.got.tgz:262310.got - 2010.06.27 13:26:56.
