data_PCOD8039530
_publ_section_title
;
Structure prediction by ZEFSAII (Michael W. Deem and Ramdas Pophale) SiO2 
 PCOD8039530
Probable space group: P -1
;
_chemical_formula_sum "Si O2"
_cell_formula_units_Z 16
_cell_length_a 11.162857
_cell_length_b 11.743024
_cell_length_c 18.032299
_cell_angle_alpha 40.856913
_cell_angle_beta 147.929034
_cell_angle_gamma 129.115138
_cell_volume 820.703676
_symmetry_space_group_name_H-M "P -1"
_symmetry_group_IT_number 2
_symmetry_cell_setting 'triclinic'
loop_
_space_group_symop_operation_xyz
x,y,z
-x,-y,-z
loop_
_atom_site_type_symbol
_atom_site_label
_atom_site_fract_x
_atom_site_fract_y
_atom_site_fract_z
Si Si1 0.681895 0.624596 0.000983
Si Si2 0.530061 0.374301 0.846218
Si Si3 0.228186 0.175026 0.322603
Si Si4 0.178204 0.632287 0.503415
Si Si5 0.539815 0.159908 0.352412
Si Si6 0.186409 0.218650 0.857616
Si Si7 0.173655 0.853143 0.968331
Si Si8 0.977115 0.497130 0.095760
O O1 0.798908 0.735428 0.071390
O O2 0.875688 0.503776 0.122502
O O3 0.500000 0.500000 0.000000
O O4 0.557031 0.760756 0.813062
O O5 0.404363 0.519209 0.656683
O O6 0.376077 0.325108 0.860104
O O7 0.581814 0.201121 0.911064
O O8 0.769255 0.457593 0.951479
O O9 0.358976 0.203661 0.300065
O O10 0.993463 0.089666 0.215316
O O11 0.171131 0.346987 0.258011
O O12 0.389168 0.044138 0.520446
O O13 0.230775 0.751635 0.543500
O O14 0.000000 0.500000 0.500000
O O15 0.070670 0.739183 0.325542
O O16 0.220336 0.010939 0.970412
O O17 0.074213 0.686746 0.039590
#
# Coordination Sequence:
#
# PCOD8039530 Si02
#       8
#     2   2   2   2   2   2   2   2
#     4  12  23  40  60  85 126 168 192 233 308 376
#     4  10  19  37  62  84 118 156 203 247 292 350
#     4  10  21  37  66  90 112 151 209 259 284 341
#     4  10  18  34  55  85 113 151 196 242 285 337
#     4  11  20  39  63  91 114 151 209 247 290 353
#     4  11  23  36  57  91 124 154 191 247 306 356
#     4  11  20  36  61  94 114 149 203 260 294 333
#     4  11  21  38  62  89 117 159 203 246 295 355
#
# _framework density 19.495466
#
# number of rings (size 3 to 8) (size 9 to 14) (size 15 to 20)
#    0.000    1.250    5.000    3.375    0.000    0.500 
#    0.000    1.875    0.000    2.250    0.000    0.000 
#    0.000    0.000    0.000    0.000    0.000    0.000 
#
# Total GULP energy -198219.880868 kJ/mol
# GULP energy per Si atom -12388.742554 kJ/mol
# Density = 1.945109 g / cm^3
# Si number density = 19.495466 Si / 1000 Ang^3
#
#
#
# Elastic Constant Matrix: (Units=GPa)
#
#
# Indices 1 2 3 4 5 6 
#
# 1 103.3418 30.9047 61.1614 -14.7937 6.0590 -22.9401
# 2 30.9047 90.7832 55.7995 -10.5589 -1.3282 -27.1920
# 3 61.1614 55.7995 134.1190 -16.7420 4.6570 -19.7752
# 4 -14.7937 -10.5589 -16.7420 34.5390 -6.5698 3.2963
# 5 6.0590 -1.3282 4.6570 -6.5698 31.6894 -1.0938
# 6 -22.9401 -27.1920 -19.7752 3.2963 -1.0938 36.9367
#
#
#
# Elastic Compliance Matrix: (Units=1/GPa)
#
#
# Indices 1 2 3 4 5 6 
#
# 1 0.014708 0.000688 -0.005654 0.002953 -0.001122 0.006317
# 2 0.000688 0.017842 -0.006027 0.002297 0.002330 0.010199
# 3 -0.005654 -0.006027 0.012590 0.001841 -0.000688 -0.001393
# 4 0.002953 0.002297 0.001841 0.032809 0.006124 0.001764
# 5 -0.001122 0.002330 -0.000688 0.006124 0.033277 0.001089
# 6 0.006317 0.010199 -0.001393 0.001764 0.001089 0.037634
#
#
# Mechanical properties :
#
#
# Convention : Reuss Voigt Hill
#
# Bulk Modulus (GPa) = 43.19092 69.33057 56.26074
# Shear Modulus (GPa) = 28.00100 32.65824 30.32962
#
# Velocity S-wave (km/s) = 3.79394 4.09733 3.94855
# Velocity P-wave (km/s) = 6.43385 7.61733 7.05047
#
# Compressibility (1/GPa) = 0.02315301
#
# Stress axis : x y z
#
# Youngs Moduli (GPa) = 67.98916 56.04820 79.42597
#
# Poissons Ratio (x) = -0.03853 0.44910
# Poissons Ratio (y) = -0.04674 0.47869
# Poissons Ratio (z) = 0.38444 0.33779
#
# Static dielectric constant tensor:
#      x y z
#    x 3.616320 -0.039740 0.401740 
#    y -0.039740 3.693430 0.063100 
#    z 0.401740 0.063100 4.686870 
# 
# 
# High freq. dielectric constant tensor:
#      x y z
#    x 1.737690 0.009350 0.029540 
#    y 0.009350 1.768210 -0.015390 
#    z 0.029540 -0.015390 1.755130 
# 
# From -- ./inp_files/568625.got.cif
#   From: 2010.06.25/outbox.cif.g09.slc.cpg/sg2_285_cif.got.tgz:568625.got - 2010.06.27 13:26:56.
