data_PCOD8039863
_publ_section_title
;
Structure prediction by ZEFSAII (Michael W. Deem and Ramdas Pophale) SiO2 
 PCOD8039863
Probable space group: P -1
;
_chemical_formula_sum "Si O2"
_cell_formula_units_Z 14
_cell_length_a 17.479083
_cell_length_b 11.964961
_cell_length_c 15.483614
_cell_angle_alpha 26.170016
_cell_angle_beta 33.582359
_cell_angle_gamma 31.184089
_cell_volume 708.625877
_symmetry_space_group_name_H-M "P -1"
_symmetry_group_IT_number 2
_symmetry_cell_setting 'triclinic'
loop_
_space_group_symop_operation_xyz
x,y,z
-x,-y,-z
loop_
_atom_site_type_symbol
_atom_site_label
_atom_site_fract_x
_atom_site_fract_y
_atom_site_fract_z
Si Si1 0.567413 0.081979 0.296359
Si Si2 0.154627 0.356407 0.761075
Si Si3 0.266359 0.802846 0.372690
Si Si4 0.301874 0.059842 0.991032
Si Si5 0.189582 0.359572 0.154377
Si Si6 0.588930 0.673043 0.169535
Si Si7 0.403456 0.360458 0.090283
O O1 0.437363 0.200088 0.261688
O O2 0.500000 0.000000 0.500000
O O3 0.714369 0.799361 0.324975
O O4 0.625147 0.317818 0.097483
O O5 0.162740 0.638762 0.590364
O O6 0.989988 0.425629 0.827699
O O7 0.181004 0.161037 0.956126
O O8 0.228747 0.957588 0.207882
O O9 0.450640 0.577716 0.366905
O O10 0.216132 0.042301 0.327577
O O11 0.457421 0.796802 0.997584
O O12 0.337060 0.321858 0.809644
O O13 0.249979 0.359717 0.194543
O O14 0.278167 0.479382 0.921219
O O15 0.500000 0.000000 0.000000
#
# Coordination Sequence:
#
# PCOD8039863 Si02
#       7
#     2   2   2   2   2   2   2
#     4  10  23  38  57  82  99 143 192 231 263 322
#     4  11  23  33  55  86 114 136 186 228 268 315
#     4  10  18  35  57  81 117 148 173 216 262 336
#     4   9  17  35  56  80 107 150 180 211 268 326
#     4  10  19  36  56  85 113 145 171 224 279 317
#     4   8  15  30  56  78 105 145 178 201 259 328
#     4  10  18  39  61  72 109 146 180 222 275 321
#
# _framework density 19.756546
#
# number of rings (size 3 to 8) (size 9 to 14) (size 15 to 20)
#    0.000    2.571    4.286    1.286    0.000    3.429 
#    0.000    2.143    0.000    0.000    0.000    0.000 
#    0.000    0.000    0.000    0.000    0.000    0.000 
#
# Total GULP energy -173523.811803 kJ/mol
# GULP energy per Si atom -12394.557986 kJ/mol
# Density = 1.971158 g / cm^3
# Si number density = 19.756546 Si / 1000 Ang^3
#
#
#
# Elastic Constant Matrix: (Units=GPa)
#
#
# Indices 1 2 3 4 5 6 
#
# 1 149.3951 59.6755 34.7378 7.0719 -2.2854 -10.8423
# 2 59.6755 75.2466 24.7345 4.1359 -1.5092 -10.3912
# 3 34.7378 24.7345 44.9398 1.7483 1.8271 -4.6996
# 4 7.0719 4.1359 1.7483 19.3088 3.4235 -5.1595
# 5 -2.2854 -1.5092 1.8271 3.4235 23.0964 8.2033
# 6 -10.8423 -10.3912 -4.6996 -5.1595 8.2033 34.2267
#
#
#
# Elastic Compliance Matrix: (Units=1/GPa)
#
#
# Indices 1 2 3 4 5 6 
#
# 1 0.010545 -0.006767 -0.004386 -0.002227 0.001262 0.000045
# 2 -0.006767 0.021135 -0.006034 -0.000632 0.000102 0.003325
# 3 -0.004386 -0.006034 0.029281 0.001507 -0.004080 0.002004
# 4 -0.002227 -0.000632 0.001507 0.057867 -0.012910 0.011127
# 5 0.001262 0.000102 -0.004080 -0.012910 0.050720 -0.014232
# 6 0.000045 0.003325 0.002004 0.011127 -0.014232 0.035604
#
#
# Mechanical properties :
#
#
# Convention : Reuss Voigt Hill
#
# Bulk Modulus (GPa) = 37.61338 56.43078 47.02208
# Shear Modulus (GPa) = 20.12982 25.35530 22.74256
#
# Velocity S-wave (km/s) = 3.19547 3.58633 3.39653
# Velocity P-wave (km/s) = 5.71791 6.76565 6.26373
#
# Compressibility (1/GPa) = 0.02658628
#
# Stress axis : x y z
#
# Youngs Moduli (GPa) = 94.83568 47.31382 34.15234
#
# Poissons Ratio (x) = 0.32016 0.14981
# Poissons Ratio (y) = 0.64172 0.20608
# Poissons Ratio (z) = 0.41599 0.28550
#
# Static dielectric constant tensor:
#      x y z
#    x 4.094890 0.006660 -0.155840 
#    y 0.006660 3.465430 0.082720 
#    z -0.155840 0.082720 3.428720 
# 
# 
# High freq. dielectric constant tensor:
#      x y z
#    x 1.781220 0.004610 0.003230 
#    y 0.004610 1.748470 0.003320 
#    z 0.003230 0.003320 1.740000 
# 
# From -- ./inp_files/538135.got.cif
#   From: 2010.06.25/outbox.cif.g09.slc.cpg/sg2_270_cif.got.tgz:538135.got - 2010.06.27 13:26:56.
