data_PCOD8039448
_publ_section_title
;
Structure prediction by ZEFSAII (Michael W. Deem and Ramdas Pophale) SiO2 
 PCOD8039448
Probable space group: P -1
;
_chemical_formula_sum "Si O2"
_cell_formula_units_Z 10
_cell_length_a 5.000272
_cell_length_b 17.692406
_cell_length_c 9.040545
_cell_angle_alpha 43.492655
_cell_angle_beta 79.225485
_cell_angle_gamma 55.984035
_cell_volume 421.345195
_symmetry_space_group_name_H-M "P -1"
_symmetry_group_IT_number 2
_symmetry_cell_setting 'triclinic'
loop_
_space_group_symop_operation_xyz
x,y,z
-x,-y,-z
loop_
_atom_site_type_symbol
_atom_site_label
_atom_site_fract_x
_atom_site_fract_y
_atom_site_fract_z
Si Si1 0.364167 0.914525 0.661934
Si Si2 0.687393 0.319404 0.447296
Si Si3 0.778394 0.409483 0.729285
Si Si4 0.763382 0.666102 0.760668
Si Si5 0.421699 0.754739 0.131448
O O1 0.646581 0.753760 0.800600
O O2 0.500000 0.000000 0.500000
O O3 0.333963 0.896028 0.868286
O O4 0.000000 0.000000 0.500000
O O5 0.373680 0.488362 0.258240
O O6 0.588106 0.274756 0.376664
O O7 0.744196 0.226301 0.717005
O O8 0.043226 0.293843 0.418605
O O9 0.500000 0.500000 0.500000
O O10 0.839628 0.638659 0.276190
O O11 0.756535 0.282505 0.920635
O O12 0.000000 0.500000 0.000000
#
# Coordination Sequence:
#
# PCOD8039448 Si02
#       5
#     2   2   2   2   2
#     4  12  27  48  67  93 135 184 221 263 334 407
#     4  11  21  38  64  98 129 166 218 275 324 380
#     4  10  18  33  61  99 133 163 208 270 330 385
#     4  12  25  43  68 101 134 167 214 280 334 379
#     4  11  22  40  64  93 131 180 222 264 322 401
#
# _framework density 23.733509000000002
#
# number of rings (size 3 to 8) (size 9 to 14) (size 15 to 20)
#    0.000    0.800    0.000   11.400    0.000    0.000 
#    0.000    6.000    0.000    0.000    0.000    0.000 
#    0.000    0.000    0.000    0.000    0.000    0.000 
#
# Total GULP energy -123943.566222 kJ/mol
# GULP energy per Si atom -12394.356622 kJ/mol
# Density = 2.367949 g / cm^3
# Si number density = 23.733509 Si / 1000 Ang^3
#
#
#
# Elastic Constant Matrix: (Units=GPa)
#
#
# Indices 1 2 3 4 5 6 
#
# 1 122.6079 16.9146 32.7395 9.1628 -18.5576 -0.3738
# 2 16.9146 63.7729 26.1189 2.1456 -9.9993 4.0648
# 3 32.7395 26.1189 168.5581 19.7189 -16.9165 -2.0631
# 4 9.1628 2.1456 19.7189 32.5989 -6.3982 -2.8877
# 5 -18.5576 -9.9993 -16.9165 -6.3982 38.9794 -1.0330
# 6 -0.3738 4.0648 -2.0631 -2.8877 -1.0330 40.0927
#
#
#
# Elastic Compliance Matrix: (Units=1/GPa)
#
#
# Indices 1 2 3 4 5 6 
#
# 1 0.009246 -0.001448 -0.001095 -0.001164 0.003369 0.000180
# 2 -0.001448 0.017539 -0.002286 0.001058 0.002945 -0.001757
# 3 -0.001095 -0.002286 0.007053 -0.003503 0.001388 0.000368
# 4 -0.001164 0.001058 -0.003503 0.034005 0.003838 0.002250
# 5 0.003369 0.002945 0.001388 0.003838 0.029268 0.000835
# 6 0.000180 -0.001757 0.000368 0.002250 0.000835 0.025324
#
#
# Mechanical properties :
#
#
# Convention : Reuss Voigt Hill
#
# Bulk Modulus (GPa) = 41.35674 56.27611 48.81642
# Shear Modulus (GPa) = 35.67501 40.94528 38.31014
#
# Velocity S-wave (km/s) = 3.88125 4.15807 4.02204
# Velocity P-wave (km/s) = 6.12771 6.84221 6.49479
#
# Compressibility (1/GPa) = 0.02417986
#
# Stress axis : x y z
#
# Youngs Moduli (GPa) = 108.15907 57.01516 141.77870
#
# Poissons Ratio (x) = 0.08255 0.15525
# Poissons Ratio (y) = 0.15660 0.32414
# Poissons Ratio (z) = 0.11843 0.13035
#
# Static dielectric constant tensor:
#      x y z
#    x 5.096000 0.567700 -0.744740 
#    y 0.567700 4.502090 -0.257620 
#    z -0.744740 -0.257620 4.528250 
# 
# 
# High freq. dielectric constant tensor:
#      x y z
#    x 1.967100 0.003990 -0.015480 
#    y 0.003990 1.909030 0.018950 
#    z -0.015480 0.018950 1.939920 
# 
# From -- ./inp_files/135975.got.cif
#   From: 2010.06.25/outbox.cif.g09.slc.cpg/sg2_68_cif.got.tgz:135975.got - 2010.06.27 13:26:56.
