data_PCOD8039694
_publ_section_title
;
Structure prediction by ZEFSAII (Michael W. Deem and Ramdas Pophale) SiO2 
 PCOD8039694
Probable space group: P -1
;
_chemical_formula_sum "Si O2"
_cell_formula_units_Z 16
_cell_length_a 11.983127
_cell_length_b 11.663821
_cell_length_c 9.363852
_cell_angle_alpha 107.734130
_cell_angle_beta 119.161930
_cell_angle_gamma 45.798359
_cell_volume 818.032284
_symmetry_space_group_name_H-M "P -1"
_symmetry_group_IT_number 2
_symmetry_cell_setting 'triclinic'
loop_
_space_group_symop_operation_xyz
x,y,z
-x,-y,-z
loop_
_atom_site_type_symbol
_atom_site_label
_atom_site_fract_x
_atom_site_fract_y
_atom_site_fract_z
Si Si1 0.001387 0.866067 0.507421
Si Si2 0.747040 0.210251 0.153780
Si Si3 0.532811 0.888418 0.311053
Si Si4 0.078191 0.154951 0.847262
Si Si5 0.900597 0.285751 0.066862
Si Si6 0.612816 0.653686 0.020825
Si Si7 0.625131 0.859964 0.916732
Si Si8 0.770187 0.909923 0.615200
O O1 0.997377 0.780532 0.335433
O O2 0.838587 0.946254 0.538687
O O3 0.175083 0.746679 0.662019
O O4 0.000000 0.000000 0.500000
O O5 0.813310 0.218845 0.047077
O O6 0.804897 0.036451 0.143428
O O7 0.544029 0.341445 0.087733
O O8 0.583742 0.759329 0.177053
O O9 0.700073 0.825774 0.478507
O O10 0.448005 0.063320 0.256415
O O11 0.387109 0.925145 0.339917
O O12 0.186506 0.205061 0.970452
O O13 0.925520 0.242396 0.898413
O O14 0.781987 0.474477 0.087567
O O15 0.079244 0.206582 0.222841
O O16 0.630083 0.715432 0.904927
O O17 0.500000 0.000000 0.000000
#
# Coordination Sequence:
#
# PCOD8039694 Si02
#       8
#     2   2   2   2   2   2   2   2
#     4   9  20  32  57  85 110 143 187 243 276 319
#     4  10  20  38  59  80 113 154 197 230 275 338
#     4  10  20  36  62  82 112 148 193 238 273 339
#     4  11  19  38  60  86 110 149 197 233 284 327
#     4  11  23  37  57  87 120 150 186 233 286 346
#     4  11  22  36  59  86 118 153 184 233 293 334
#     4  10  18  34  60  83 108 147 188 236 271 337
#     4  10  20  38  58  86 112 145 195 233 282 332
#
# _framework density 19.55913
#
# number of rings (size 3 to 8) (size 9 to 14) (size 15 to 20)
#    0.000    1.750    3.750    2.250    1.750    3.000 
#    0.000    0.625    5.500    0.000    0.000    0.000 
#    0.000    0.000    0.000    0.000    0.000    0.000 
#
# Total GULP energy -198319.405750 kJ/mol
# GULP energy per Si atom -12394.962859 kJ/mol
# Density = 1.951461 g / cm^3
# Si number density = 19.559130 Si / 1000 Ang^3
#
#
#
# Elastic Constant Matrix: (Units=GPa)
#
#
# Indices 1 2 3 4 5 6 
#
# 1 129.4657 22.0247 44.8950 -5.5334 -5.2177 -8.9674
# 2 22.0247 53.8408 21.1561 -3.6898 0.1220 -11.1505
# 3 44.8950 21.1561 81.8936 7.6950 -7.1006 -14.2161
# 4 -5.5334 -3.6898 7.6950 13.0515 -7.1267 -0.6276
# 5 -5.2177 0.1220 -7.1006 -7.1267 38.3167 1.5941
# 6 -8.9674 -11.1505 -14.2161 -0.6276 1.5941 18.3108
#
#
#
# Elastic Compliance Matrix: (Units=1/GPa)
#
#
# Indices 1 2 3 4 5 6 
#
# 1 0.010504 -0.001366 -0.006108 0.008711 0.001935 -0.000300
# 2 -0.001366 0.023702 -0.004381 0.009337 0.000220 0.010664
# 3 -0.006108 -0.004381 0.019670 -0.015193 -0.000378 0.009124
# 4 0.008711 0.009337 -0.015193 0.101296 0.017176 0.000133
# 5 0.001935 0.000220 -0.000378 0.017176 0.029535 -0.001195
# 6 -0.000300 0.010664 0.009124 0.000133 -0.001195 0.068152
#
#
# Mechanical properties :
#
#
# Convention : Reuss Voigt Hill
#
# Bulk Modulus (GPa) = 33.15171 49.03906 41.09538
# Shear Modulus (GPa) = 17.44438 25.74410 21.59424
#
# Velocity S-wave (km/s) = 2.98967 3.63191 3.32633
# Velocity P-wave (km/s) = 5.37623 6.53562 5.98407
#
# Compressibility (1/GPa) = 0.03016436
#
# Stress axis : x y z
#
# Youngs Moduli (GPa) = 95.19973 42.19133 50.83839
#
# Poissons Ratio (x) = 0.05765 0.31054
# Poissons Ratio (y) = 0.13007 0.22273
# Poissons Ratio (z) = 0.58151 0.18484
#
# Static dielectric constant tensor:
#      x y z
#    x 3.910500 0.049170 -0.167360 
#    y 0.049170 3.130510 -0.145770 
#    z -0.167360 -0.145770 4.218820 
# 
# 
# High freq. dielectric constant tensor:
#      x y z
#    x 1.788570 -0.005850 -0.003350 
#    y -0.005850 1.703760 -0.005070 
#    z -0.003350 -0.005070 1.770820 
# 
# From -- ./inp_files/252492.got.cif
#   From: 2010.06.25/outbox.cif.g09.slc.cpg/sg2_127_cif.got.tgz:252492.got - 2010.06.27 13:26:56.
