data_PCOD8039886
_publ_section_title
;
Structure prediction by ZEFSAII (Michael W. Deem and Ramdas Pophale) SiO2 
 PCOD8039886
Probable space group: P -1
;
_chemical_formula_sum "Si O2"
_cell_formula_units_Z 16
_cell_length_a 14.965044
_cell_length_b 10.477354
_cell_length_c 9.056360
_cell_angle_alpha 41.646580
_cell_angle_beta 87.233734
_cell_angle_gamma 65.588125
_cell_volume 775.517552
_symmetry_space_group_name_H-M "P -1"
_symmetry_group_IT_number 2
_symmetry_cell_setting 'triclinic'
loop_
_space_group_symop_operation_xyz
x,y,z
-x,-y,-z
loop_
_atom_site_type_symbol
_atom_site_label
_atom_site_fract_x
_atom_site_fract_y
_atom_site_fract_z
Si Si1 0.423376 0.913598 0.468099
Si Si2 0.752232 0.142224 0.424299
Si Si3 0.617002 0.383606 0.942146
Si Si4 0.980830 0.739105 0.649689
Si Si5 0.414116 0.016492 0.705584
Si Si6 0.876665 0.186210 0.622234
Si Si7 0.762317 0.474356 0.670237
Si Si8 0.034184 0.679605 0.018611
O O1 0.312662 0.942019 0.401906
O O2 0.510322 0.642166 0.736182
O O3 0.392613 0.063745 0.490963
O O4 0.470573 0.007072 0.261187
O O5 0.789160 0.258870 0.436142
O O6 0.852143 0.923804 0.518885
O O7 0.672321 0.325693 0.148559
O O8 0.697979 0.366738 0.826198
O O9 0.584036 0.206291 0.049254
O O10 0.005426 0.489554 0.826735
O O11 0.025434 0.800266 0.454415
O O12 0.042053 0.735051 0.797741
O O13 0.317667 0.248660 0.593812
O O14 0.818054 0.357499 0.613558
O O15 0.936759 0.916722 0.900621
O O16 0.850761 0.428198 0.822897
#
# Coordination Sequence:
#
# PCOD8039886 Si02
#       8
#     2   2   2   2   2   2   2   2
#     4   9  18  33  58  84 102 130 178 226 263 306
#     4  10  18  35  58  78 105 139 175 222 266 304
#     4  10  19  35  59  82 103 135 178 221 263 311
#     4  10  21  36  56  80 105 139 180 223 261 301
#     4   9  18  33  54  82 107 129 174 222 260 311
#     4  11  23  36  51  78 113 144 175 213 262 315
#     4  11  22  34  54  80 110 145 173 210 263 319
#     4  10  20  36  55  77 105 140 183 220 255 307
#
# _framework density 20.631384000000001
#
# number of rings (size 3 to 8) (size 9 to 14) (size 15 to 20)
#    0.000    2.000    0.000    6.375    0.000    1.500 
#    0.000    8.750    0.000    3.750    0.000    0.000 
#    0.000    0.000    0.000    0.000    0.000    0.000 
#
# Total GULP energy -198347.299994 kJ/mol
# GULP energy per Si atom -12396.706250 kJ/mol
# Density = 2.058443 g / cm^3
# Si number density = 20.631384 Si / 1000 Ang^3
#
#
#
# Elastic Constant Matrix: (Units=GPa)
#
#
# Indices 1 2 3 4 5 6 
#
# 1 118.2536 49.2366 32.6840 2.9293 -9.0499 -19.4313
# 2 49.2366 135.4226 28.3842 -12.7639 -8.5600 -12.3273
# 3 32.6840 28.3842 42.4228 -2.4875 -13.5729 -0.2455
# 4 2.9293 -12.7639 -2.4875 19.0629 4.7353 -3.9453
# 5 -9.0499 -8.5600 -13.5729 4.7353 19.8909 -7.5901
# 6 -19.4313 -12.3273 -0.2455 -3.9453 -7.5901 21.6544
#
#
#
# Elastic Compliance Matrix: (Units=1/GPa)
#
#
# Indices 1 2 3 4 5 6 
#
# 1 0.014169 -0.002372 -0.007552 -0.003605 0.005984 0.012718
# 2 -0.002372 0.010443 -0.004498 0.007744 0.000550 0.005369
# 3 -0.007552 -0.004498 0.038985 -0.002399 0.021057 -0.001952
# 4 -0.003605 0.007744 -0.002399 0.062518 -0.011595 0.008473
# 5 0.005984 0.000550 0.021057 -0.011595 0.082904 0.032868
# 6 0.012718 0.005369 -0.001952 0.008473 0.032868 0.073692
#
#
# Mechanical properties :
#
#
# Convention : Reuss Voigt Hill
#
# Bulk Modulus (GPa) = 28.77555 57.41207 43.09381
# Shear Modulus (GPa) = 15.47317 24.50792 19.99055
#
# Velocity S-wave (km/s) = 2.74155 3.45032 3.11615
# Velocity P-wave (km/s) = 4.89890 6.61520 5.82066
#
# Compressibility (1/GPa) = 0.03475173
#
# Stress axis : x y z
#
# Youngs Moduli (GPa) = 70.57870 95.75705 25.65069
#
# Poissons Ratio (x) = 0.22717 0.19372
# Poissons Ratio (y) = 0.16744 0.11538
# Poissons Ratio (z) = 0.53302 0.43074
#
# Static dielectric constant tensor:
#      x y z
#    x 4.128890 -0.087000 -0.184520 
#    y -0.087000 3.587280 -0.231610 
#    z -0.184520 -0.231610 3.505280 
# 
# 
# High freq. dielectric constant tensor:
#      x y z
#    x 1.825320 -0.009460 -0.015290 
#    y -0.009460 1.796960 -0.028110 
#    z -0.015290 -0.028110 1.776980 
# 
# From -- ./inp_files/306242.got.cif
#   From: 2010.06.25/outbox.cif.g09.slc.cpg/sg2_154_cif.got.tgz:306242.got - 2010.06.27 13:26:56.
