data_PCOD8039503
_publ_section_title
;
Structure prediction by ZEFSAII (Michael W. Deem and Ramdas Pophale) SiO2 
 PCOD8039503
Probable space group: P -1
;
_chemical_formula_sum "Si O2"
_cell_formula_units_Z 16
_cell_length_a 13.787324
_cell_length_b 7.866986
_cell_length_c 8.490908
_cell_angle_alpha 107.694618
_cell_angle_beta 96.865205
_cell_angle_gamma 60.218000
_cell_volume 760.957682
_symmetry_space_group_name_H-M "P -1"
_symmetry_group_IT_number 2
_symmetry_cell_setting 'triclinic'
loop_
_space_group_symop_operation_xyz
x,y,z
-x,-y,-z
loop_
_atom_site_type_symbol
_atom_site_label
_atom_site_fract_x
_atom_site_fract_y
_atom_site_fract_z
Si Si1 0.613054 0.044093 0.681170
Si Si2 0.061997 0.189323 0.017819
Si Si3 0.128102 0.766714 0.198018
Si Si4 0.177554 0.040953 0.499958
Si Si5 0.658654 0.292207 0.339580
Si Si6 0.012830 0.401415 0.761171
Si Si7 0.542484 0.722552 0.562240
Si Si8 0.285966 0.789298 0.023784
O O1 0.727383 0.946668 0.578215
O O2 0.593452 0.858670 0.681395
O O3 0.510531 0.200030 0.598400
O O4 0.618492 0.171459 0.868539
O O5 0.012959 0.364838 0.194846
O O6 0.174862 0.006259 0.050672
O O7 0.087315 0.298133 0.904072
O O8 0.969084 0.126554 0.925481
O O9 0.249655 0.662091 0.102649
O O10 0.104756 0.606223 0.247038
O O11 0.115347 0.945044 0.361456
O O12 0.085355 0.270509 0.590456
O O13 0.231420 0.903077 0.627853
O O14 0.640570 0.489661 0.491640
O O15 0.549310 0.265613 0.328765
O O16 0.673830 0.322229 0.166269
#
# Coordination Sequence:
#
# PCOD8039503 Si02
#       8
#     2   2   2   2   2   2   2   2
#     4   9  21  37  55  74 107 128 168 215 261 307
#     4   9  19  33  49  74 109 139 167 209 243 292
#     4   9  19  32  50  73 109 136 169 207 247 289
#     4  10  18  34  54  77  99 143 174 201 247 304
#     4  10  20  34  59  75 102 129 175 209 254 315
#     4   9  18  33  50  71 107 145 165 205 245 292
#     4   9  20  41  53  76 100 134 162 217 269 302
#     4  11  20  34  53  81 101 135 172 211 249 301
#
# _framework density 21.026138
#
# number of rings (size 3 to 8) (size 9 to 14) (size 15 to 20)
#    0.750    1.750    1.250    0.750    0.000    3.000 
#    0.000    2.500    0.000    0.000    0.000    0.875 
#    0.000    0.000    0.000    0.000    0.000    0.000 
#
# Total GULP energy -198287.127467 kJ/mol
# GULP energy per Si atom -12392.945467 kJ/mol
# Density = 2.097828 g / cm^3
# Si number density = 21.026138 Si / 1000 Ang^3
#
#
#
# Elastic Constant Matrix: (Units=GPa)
#
#
# Indices 1 2 3 4 5 6 
#
# 1 76.2829 18.4952 29.7366 11.0387 10.2676 5.7426
# 2 18.4952 34.4174 5.5300 17.4773 -1.5857 -6.2875
# 3 29.7366 5.5300 89.9614 18.8519 -4.1219 -2.0688
# 4 11.0387 17.4773 18.8519 23.7253 0.6717 -2.8909
# 5 10.2676 -1.5857 -4.1219 0.6717 35.5377 0.6466
# 6 5.7426 -6.2875 -2.0688 -2.8909 0.6466 14.3288
#
#
#
# Elastic Compliance Matrix: (Units=1/GPa)
#
#
# Indices 1 2 3 4 5 6 
#
# 1 0.021799 -0.017587 -0.008500 0.007875 -0.007931 -0.015735
# 2 -0.017587 0.066196 0.012826 -0.047655 0.009916 0.027885
# 3 -0.008500 0.012826 0.017447 -0.018584 0.005265 0.007567
# 4 0.007875 -0.047655 -0.018584 0.087521 -0.008052 -0.008729
# 5 -0.007931 0.009916 0.005265 -0.008052 0.031541 0.005242
# 6 -0.015735 0.027885 0.007567 -0.008729 0.005242 0.087426
#
#
# Mechanical properties :
#
#
# Convention : Reuss Voigt Hill
#
# Bulk Modulus (GPa) = 12.67111 34.24280 23.45696
# Shear Modulus (GPa) = 13.70769 24.51171 19.10970
#
# Velocity S-wave (km/s) = 2.55607 3.41805 3.01799
# Velocity P-wave (km/s) = 3.84068 5.64788 4.82956
#
# Compressibility (1/GPa) = 0.07891967
#
# Stress axis : x y z
#
# Youngs Moduli (GPa) = 45.87299 15.10670 57.31740
#
# Poissons Ratio (x) = 0.26569 0.48720
# Poissons Ratio (y) = 0.80679 -0.73517
# Poissons Ratio (z) = 0.38992 -0.19376
#
# Static dielectric constant tensor:
#      x y z
#    x 3.844410 0.181720 0.063160 
#    y 0.181720 3.561120 -0.011090 
#    z 0.063160 -0.011090 3.705850 
# 
# 
# High freq. dielectric constant tensor:
#      x y z
#    x 1.816590 0.009610 0.005740 
#    y 0.009610 1.799110 0.002500 
#    z 0.005740 0.002500 1.819440 
# 
# From -- ./inp_files/293018.got.cif
#   From: 2010.06.25/outbox.cif.g09.slc.cpg/sg2_147_cif.got.tgz:293018.got - 2010.06.27 13:26:56.
