data_PCOD8039602
_publ_section_title
;
Structure prediction by ZEFSAII (Michael W. Deem and Ramdas Pophale) SiO2 
 PCOD8039602
Probable space group: P -1
;
_chemical_formula_sum "Si O2"
_cell_formula_units_Z 16
_cell_length_a 9.070272
_cell_length_b 16.835180
_cell_length_c 11.492625
_cell_angle_alpha 33.594612
_cell_angle_beta 124.280673
_cell_angle_gamma 112.202687
_cell_volume 786.187146
_symmetry_space_group_name_H-M "P -1"
_symmetry_group_IT_number 2
_symmetry_cell_setting 'triclinic'
loop_
_space_group_symop_operation_xyz
x,y,z
-x,-y,-z
loop_
_atom_site_type_symbol
_atom_site_label
_atom_site_fract_x
_atom_site_fract_y
_atom_site_fract_z
Si Si1 0.666602 0.610238 0.975931
Si Si2 0.213392 0.482247 0.115156
Si Si3 0.093189 0.937888 0.339451
Si Si4 0.636789 0.874174 0.779872
Si Si5 0.467247 0.205972 0.632721
Si Si6 0.289066 0.937607 0.884948
Si Si7 0.691792 0.302127 0.410491
Si Si8 0.700166 0.206010 0.172677
O O1 0.734752 0.570538 0.926523
O O2 0.743094 0.743839 0.902372
O O3 0.447542 0.671724 0.794484
O O4 0.719761 0.465334 0.258240
O O5 0.312481 0.352184 0.402219
O O6 0.279166 0.627489 0.006125
O O7 0.000000 0.500000 0.000000
O O8 0.123684 0.797988 0.436523
O O9 0.174267 0.896554 0.553870
O O10 0.200321 0.054494 0.183359
O O11 0.881003 0.004367 0.176155
O O12 0.514743 0.804079 0.903333
O O13 0.500000 0.000000 0.500000
O O14 0.616079 0.225476 0.578618
O O15 0.372939 0.073696 0.710430
O O16 0.562413 0.172591 0.840001
O O17 0.230170 0.850958 0.854691
#
# Coordination Sequence:
#
# PCOD8039602 Si02
#       8
#     2   2   2   2   2   2   2   2
#     4  10  18  34  57  88 118 144 192 248 299 343
#     4  11  23  37  65  93 118 152 202 252 302 352
#     4  11  21  35  60  93 117 153 201 251 298 341
#     4  10  19  32  57  89 117 152 187 244 304 345
#     4  10  24  42  60  84 119 170 195 239 305 358
#     4  11  25  40  57  85 129 161 199 242 294 367
#     4  10  18  36  61  82 116 153 199 244 290 353
#     4  11  21  38  59  92 119 156 198 250 301 348
#
# _framework density 20.351386999999999
#
# number of rings (size 3 to 8) (size 9 to 14) (size 15 to 20)
#    0.000    1.500    3.750    3.375    7.000    1.000 
#    0.000    0.000    0.000    1.500    0.000    0.000 
#    0.000    0.000    0.000    0.000    0.000    0.000 
#
# Total GULP energy -198329.584086 kJ/mol
# GULP energy per Si atom -12395.599005 kJ/mol
# Density = 2.030507 g / cm^3
# Si number density = 20.351387 Si / 1000 Ang^3
#
#
#
# Elastic Constant Matrix: (Units=GPa)
#
#
# Indices 1 2 3 4 5 6 
#
# 1 93.1893 29.0107 52.7049 -13.8116 8.0868 -1.8749
# 2 29.0107 71.8542 44.7114 -28.7416 2.8939 -6.6418
# 3 52.7049 44.7114 111.6779 -24.5942 0.6734 7.6052
# 4 -13.8116 -28.7416 -24.5942 33.8166 1.3205 2.7495
# 5 8.0868 2.8939 0.6734 1.3205 29.9986 -7.8018
# 6 -1.8749 -6.6418 7.6052 2.7495 -7.8018 24.0769
#
#
#
# Elastic Compliance Matrix: (Units=1/GPa)
#
#
# Indices 1 2 3 4 5 6 
#
# 1 0.015365 -0.001820 -0.006644 -0.000111 -0.003366 0.001715
# 2 -0.001820 0.025635 -0.006372 0.015880 -0.000747 0.006887
# 3 -0.006644 -0.006372 0.016115 0.004243 -0.000201 -0.007915
# 4 -0.000111 0.015880 0.004243 0.046598 -0.004634 -0.003791
# 5 -0.003366 -0.000747 -0.000201 -0.004634 0.037735 0.012352
# 6 0.001715 0.006887 -0.007915 -0.003791 0.012352 0.050503
#
#
# Mechanical properties :
#
#
# Convention : Reuss Voigt Hill
#
# Bulk Modulus (GPa) = 36.43650 58.84171 47.63910
# Shear Modulus (GPa) = 21.66652 27.59804 24.63228
#
# Velocity S-wave (km/s) = 3.26639 3.68649 3.48278
# Velocity P-wave (km/s) = 5.67171 6.86265 6.29540
#
# Compressibility (1/GPa) = 0.02744501
#
# Stress axis : x y z
#
# Youngs Moduli (GPa) = 65.08309 39.00849 62.05254
#
# Poissons Ratio (x) = 0.07099 0.41226
# Poissons Ratio (y) = 0.11844 0.39539
# Poissons Ratio (z) = 0.43239 0.24856
#
# Static dielectric constant tensor:
#      x y z
#    x 3.243150 0.226700 -0.507750 
#    y 0.226700 3.551400 -0.384120 
#    z -0.507750 -0.384120 3.502270 
# 
# 
# High freq. dielectric constant tensor:
#      x y z
#    x 1.798990 -0.005990 -0.003640 
#    y -0.005990 1.772210 -0.038480 
#    z -0.003640 -0.038480 1.785370 
# 
# From -- ./inp_files/259964.got.cif
#   From: 2010.06.25/outbox.cif.g09.slc.cpg/sg2_130_cif.got.tgz:259964.got - 2010.06.27 13:26:56.
