data_PCOD8039111
_publ_section_title
;
Structure prediction by ZEFSAII (Michael W. Deem and Ramdas Pophale) SiO2 
 PCOD8039111
Probable space group: P -1
;
_chemical_formula_sum "Si O2"
_cell_formula_units_Z 10
_cell_length_a 12.713223
_cell_length_b 15.154139
_cell_length_c 11.880511
_cell_angle_alpha 137.190358
_cell_angle_beta 137.708740
_cell_angle_gamma 18.797291
_cell_volume 490.378609
_symmetry_space_group_name_H-M "P -1"
_symmetry_group_IT_number 2
_symmetry_cell_setting 'triclinic'
loop_
_space_group_symop_operation_xyz
x,y,z
-x,-y,-z
loop_
_atom_site_type_symbol
_atom_site_label
_atom_site_fract_x
_atom_site_fract_y
_atom_site_fract_z
Si Si1 0.722784 0.463254 0.636447
Si Si2 0.823837 0.356489 0.364483
Si Si3 0.280047 0.034279 0.858171
Si Si4 0.277650 0.595425 0.061780
Si Si5 0.572062 0.254413 0.774869
O O1 0.500000 0.500000 0.500000
O O2 0.833529 0.409572 0.545837
O O3 0.057098 0.193036 0.718567
O O4 0.518173 0.735249 0.775162
O O5 0.565911 0.422827 0.219002
O O6 0.701823 0.554622 0.363780
O O7 0.190797 0.043421 0.323816
O O8 0.054355 0.202968 0.948688
O O9 0.500000 0.000000 0.000000
O O10 0.213024 0.769291 0.093392
O O11 0.395163 0.389283 0.883140
#
# Coordination Sequence:
#
# PCOD8039111 Si02
#       5
#     2   2   2   2   2
#     4  12  22  40  64  87 118 159 206 250 283 346
#     4  10  18  32  56  88 108 138 199 251 284 323
#     4  12  26  40  58  90 128 161 189 240 312 363
#     4   9  20  32  58  82 119 146 195 242 289 343
#     4   9  18  31  55  91 108 143 194 258 279 326
#
# _framework density 20.392406000000001
#
# number of rings (size 3 to 8) (size 9 to 14) (size 15 to 20)
#    1.200    0.400    2.000    4.200    0.000    0.000 
#    0.000    0.000    0.000    7.200    0.000    0.000 
#    0.000    0.000    0.000    0.000    0.000    0.000 
#
# Total GULP energy -123967.052868 kJ/mol
# GULP energy per Si atom -12396.705287 kJ/mol
# Density = 2.034599 g / cm^3
# Si number density = 20.392406 Si / 1000 Ang^3
#
#
#
# Elastic Constant Matrix: (Units=GPa)
#
#
# Indices 1 2 3 4 5 6 
#
# 1 56.8499 10.7149 26.3397 9.8530 -11.6909 -18.9461
# 2 10.7149 88.5433 10.4510 21.6162 4.3203 0.3072
# 3 26.3397 10.4510 59.6576 6.5011 -1.5949 -15.2509
# 4 9.8530 21.6162 6.5011 39.0404 -3.0115 -13.0987
# 5 -11.6909 4.3203 -1.5949 -3.0115 35.4600 13.0199
# 6 -18.9461 0.3072 -15.2509 -13.0987 13.0199 31.7031
#
#
#
# Elastic Compliance Matrix: (Units=1/GPa)
#
#
# Indices 1 2 3 4 5 6 
#
# 1 0.026242 -0.002350 -0.008617 -0.000369 0.005100 0.009313
# 2 -0.002350 0.014044 -0.001925 -0.008839 -0.001268 -0.005597
# 3 -0.008617 -0.001925 0.022736 0.001947 -0.004529 0.008471
# 4 -0.000369 -0.008839 0.001947 0.035597 -0.001918 0.016297
# 5 0.005100 -0.001268 -0.004529 -0.001918 0.034900 -0.014244
# 6 0.009313 -0.005597 0.008471 0.016297 -0.014244 0.053820
#
#
# Mechanical properties :
#
#
# Convention : Reuss Voigt Hill
#
# Bulk Modulus (GPa) = 26.85293 33.34024 30.09658
# Shear Modulus (GPa) = 22.16938 31.74370 26.95654
#
# Velocity S-wave (km/s) = 3.30076 3.94971 3.63973
# Velocity P-wave (km/s) = 5.26530 6.09796 5.69686
#
# Compressibility (1/GPa) = 0.03723989
#
# Stress axis : x y z
#
# Youngs Moduli (GPa) = 38.10697 71.20246 43.98252
#
# Poissons Ratio (x) = 0.16730 0.37901
# Poissons Ratio (y) = 0.08954 0.08465
# Poissons Ratio (z) = 0.32838 0.13704
#
# Static dielectric constant tensor:
#      x y z
#    x 3.460590 0.068670 -0.510080 
#    y 0.068670 3.634970 0.010750 
#    z -0.510080 0.010750 4.061050 
# 
# 
# High freq. dielectric constant tensor:
#      x y z
#    x 1.775390 0.005970 -0.039410 
#    y 0.005970 1.804340 0.012850 
#    z -0.039410 0.012850 1.774300 
# 
# From -- ./inp_files/18251.got.cif
#   From: 2010.06.25/outbox.cif.g09.slc.cpg/sg2_10_cif.got.tgz:18251.got - 2010.06.27 13:26:56.
