data_PCOD8039806
_publ_section_title
;
Structure prediction by ZEFSAII (Michael W. Deem and Ramdas Pophale) SiO2 
 PCOD8039806
Probable space group: P -1
;
_chemical_formula_sum "Si O2"
_cell_formula_units_Z 14
_cell_length_a 12.120209
_cell_length_b 23.551098
_cell_length_c 9.285627
_cell_angle_alpha 144.184182
_cell_angle_beta 131.855306
_cell_angle_gamma 28.127681
_cell_volume 720.121399
_symmetry_space_group_name_H-M "P -1"
_symmetry_group_IT_number 2
_symmetry_cell_setting 'triclinic'
loop_
_space_group_symop_operation_xyz
x,y,z
-x,-y,-z
loop_
_atom_site_type_symbol
_atom_site_label
_atom_site_fract_x
_atom_site_fract_y
_atom_site_fract_z
Si Si1 0.456494 0.324229 0.061210
Si Si2 0.744880 0.444776 0.861388
Si Si3 0.146675 0.992960 0.781047
Si Si4 0.743491 0.942049 0.735030
Si Si5 0.234202 0.253404 0.819153
Si Si6 0.159925 0.815895 0.656578
Si Si7 0.642737 0.223521 0.720654
O O1 0.331638 0.487166 0.230541
O O2 0.641395 0.251046 0.196741
O O3 0.249389 0.357483 0.999936
O O4 0.586132 0.206876 0.794613
O O5 0.745802 0.328736 0.639379
O O6 0.007283 0.354782 0.934187
O O7 0.554428 0.591843 0.107531
O O8 0.116749 0.918718 0.711394
O O9 0.354357 0.860110 0.573352
O O10 0.904702 0.137529 0.779945
O O11 0.208952 0.059000 0.057860
O O12 0.796021 0.802637 0.460633
O O13 0.912155 0.923628 0.744786
O O14 0.470334 0.105516 0.806363
#
# Coordination Sequence:
#
# PCOD8039806 Si02
#       7
#     2   2   2   2   2   2   2
#     4  10  18  35  54  81 102 139 177 222 260 305
#     4   9  21  35  51  82 110 136 175 221 260 317
#     4  11  19  36  55  82 106 141 173 224 262 313
#     4  10  19  32  54  86 102 134 181 225 251 315
#     4  10  19  32  55  80 109 136 175 220 266 302
#     4  11  19  33  62  79 102 136 187 221 260 301
#     4   9  22  34  55  77 115 134 176 217 271 307
#
# _framework density 19.441165999999999
#
# number of rings (size 3 to 8) (size 9 to 14) (size 15 to 20)
#    0.857    1.143    2.857    2.143    0.000    0.571 
#    0.000    1.429    0.000    0.000    0.000    0.000 
#    0.000    0.000    0.000    0.000    0.000    0.000 
#
# Total GULP energy -173468.357417 kJ/mol
# GULP energy per Si atom -12390.596958 kJ/mol
# Density = 1.939692 g / cm^3
# Si number density = 19.441166 Si / 1000 Ang^3
#
#
#
# Elastic Constant Matrix: (Units=GPa)
#
#
# Indices 1 2 3 4 5 6 
#
# 1 37.1938 12.7181 12.1121 -3.6876 6.8815 -15.5636
# 2 12.7181 87.3205 27.7815 8.1044 -1.7414 -25.4026
# 3 12.1121 27.7815 87.5508 0.8244 -8.6080 -25.9106
# 4 -3.6876 8.1044 0.8244 32.6369 -2.5570 -1.3562
# 5 6.8815 -1.7414 -8.6080 -2.5570 29.5526 3.3552
# 6 -15.5636 -25.4026 -25.9106 -1.3562 3.3552 23.9404
#
#
#
# Elastic Compliance Matrix: (Units=1/GPa)
#
#
# Indices 1 2 3 4 5 6 
#
# 1 0.042731 0.002550 0.002374 0.004599 -0.012695 0.035094
# 2 0.002550 0.017157 -0.000096 -0.003313 -0.002154 0.019873
# 3 0.002374 -0.000096 0.017194 0.000858 0.002278 0.019779
# 4 0.004599 -0.003313 0.000858 0.032165 0.001539 0.002010
# 5 -0.012695 -0.002154 0.002278 0.001539 0.038991 -0.013450
# 6 0.035094 0.019873 0.019779 0.002010 -0.013450 0.109077
#
#
# Mechanical properties :
#
#
# Convention : Reuss Voigt Hill
#
# Bulk Modulus (GPa) = 11.52905 35.25428 23.39167
# Shear Modulus (GPa) = 18.07855 27.85620 22.96737
#
# Velocity S-wave (km/s) = 3.05275 3.78940 3.44085
# Velocity P-wave (km/s) = 4.28589 6.10895 5.27675
#
# Compressibility (1/GPa) = 0.08673743
#
# Stress axis : x y z
#
# Youngs Moduli (GPa) = 23.40229 58.28520 58.16127
#
# Poissons Ratio (x) = -0.14865 -0.13806
# Poissons Ratio (y) = -0.05969 0.00560
# Poissons Ratio (z) = -0.05555 0.00561
#
# Static dielectric constant tensor:
#      x y z
#    x 3.271410 -0.195710 0.070640 
#    y -0.195710 3.592600 0.082160 
#    z 0.070640 0.082160 3.669320 
# 
# 
# High freq. dielectric constant tensor:
#      x y z
#    x 1.718510 -0.015840 0.005650 
#    y -0.015840 1.764570 0.011230 
#    z 0.005650 0.011230 1.750730 
# 
# From -- ./inp_files/167731.got.cif
#   From: 2010.06.25/outbox.cif.g09.slc.cpg/sg2_84_cif.got.tgz:167731.got - 2010.06.27 13:26:56.
