data_PCOD8039099
_publ_section_title
;
Structure prediction by ZEFSAII (Michael W. Deem and Ramdas Pophale) SiO2 
 PCOD8039099
Probable space group: P -1
;
_chemical_formula_sum "Si O2"
_cell_formula_units_Z 14
_cell_length_a 11.039326
_cell_length_b 7.024499
_cell_length_c 15.528260
_cell_angle_alpha 44.860656
_cell_angle_beta 55.816811
_cell_angle_gamma 69.043937
_cell_volume 700.951317
_symmetry_space_group_name_H-M "P -1"
_symmetry_group_IT_number 2
_symmetry_cell_setting 'triclinic'
loop_
_space_group_symop_operation_xyz
x,y,z
-x,-y,-z
loop_
_atom_site_type_symbol
_atom_site_label
_atom_site_fract_x
_atom_site_fract_y
_atom_site_fract_z
Si Si1 0.264338 0.652755 0.700219
Si Si2 0.865417 0.346938 0.421632
Si Si3 0.600640 0.778181 0.121914
Si Si4 0.906909 0.945012 0.283222
Si Si5 0.079296 0.170389 0.988226
Si Si6 0.415524 0.261335 0.058048
Si Si7 0.113155 0.079970 0.310992
O O1 0.265964 0.688722 0.584877
O O2 0.403022 0.496496 0.729555
O O3 0.248227 0.940729 0.661250
O O4 0.110487 0.477192 0.842753
O O5 0.021874 0.281632 0.339545
O O6 0.875174 0.652494 0.350728
O O7 0.822783 0.147260 0.581049
O O8 0.761592 0.938760 0.014677
O O9 0.481171 0.972043 0.143143
O O10 0.568837 0.680474 0.068511
O O11 0.012131 0.925341 0.329599
O O12 0.976973 0.153806 0.117781
O O13 0.000000 0.000000 0.000000
O O14 0.247232 0.251394 0.157542
O O15 0.500000 0.500000 0.000000
#
# Coordination Sequence:
#
# PCOD8039099 Si02
#       7
#     2   2   2   2   2   2   2
#     4   9  20  33  52  82 114 138 184 232 280 330
#     4  10  21  35  57  85 113 146 184 239 282 333
#     4   9  22  38  52  85 115 140 192 234 272 338
#     4  11  18  33  57  82 112 150 175 236 296 325
#     4  10  18  32  56  83 116 140 174 242 287 322
#     4  11  23  38  60  79 112 160 186 227 279 335
#     4  10  22  37  54  83 115 146 195 229 274 339
#
# _framework density 19.972857999999999
#
# number of rings (size 3 to 8) (size 9 to 14) (size 15 to 20)
#    0.857    1.143    2.857    0.857    2.000    2.286 
#    0.000    0.714    0.000    1.714    0.000    0.000 
#    0.000    0.000    0.000    0.000    0.000    0.000 
#
# Total GULP energy -173515.872015 kJ/mol
# GULP energy per Si atom -12393.990858 kJ/mol
# Density = 1.992740 g / cm^3
# Si number density = 19.972858 Si / 1000 Ang^3
#
#
#
# Elastic Constant Matrix: (Units=GPa)
#
#
# Indices 1 2 3 4 5 6 
#
# 1 82.2331 27.9574 -1.1857 5.2225 22.6001 1.4443
# 2 27.9574 110.2001 9.5044 0.7010 5.8706 9.2234
# 3 -1.1857 9.5044 34.5627 3.5215 21.1695 1.4806
# 4 5.2225 0.7010 3.5215 19.8863 3.6785 5.2121
# 5 22.6001 5.8706 21.1695 3.6785 39.3171 1.5725
# 6 1.4443 9.2234 1.4806 5.2121 1.5725 26.4149
#
#
#
# Elastic Compliance Matrix: (Units=1/GPa)
#
#
# Indices 1 2 3 4 5 6 
#
# 1 0.018857 -0.005118 0.012516 -0.004442 -0.016475 0.001911
# 2 -0.005118 0.010965 -0.005993 0.002216 0.004481 -0.003917
# 3 0.012516 -0.005993 0.052412 -0.006539 -0.033979 0.001784
# 4 -0.004442 0.002216 -0.006539 0.055261 0.001018 -0.011129
# 5 -0.016475 0.004481 -0.033979 0.001018 0.052519 -0.002086
# 6 0.001911 -0.003917 0.001784 -0.011129 -0.002086 0.041341
#
#
# Mechanical properties :
#
#
# Convention : Reuss Voigt Hill
#
# Bulk Modulus (GPa) = 11.75855 33.28313 22.52084
# Shear Modulus (GPa) = 19.46337 29.83831 24.65084
#
# Velocity S-wave (km/s) = 3.12507 3.86935 3.51695
# Velocity P-wave (km/s) = 4.34988 6.05498 5.27183
#
# Compressibility (1/GPa) = 0.08504452
#
# Stress axis : x y z
#
# Youngs Moduli (GPa) = 53.03014 91.20237 19.07942
#
# Poissons Ratio (x) = 0.46673 -0.23879
# Poissons Ratio (y) = 0.27138 0.11435
# Poissons Ratio (z) = -0.66371 0.54659
#
# Static dielectric constant tensor:
#      x y z
#    x 3.624970 0.000050 0.426590 
#    y 0.000050 3.677940 0.052950 
#    z 0.426590 0.052950 3.498510 
# 
# 
# High freq. dielectric constant tensor:
#      x y z
#    x 1.772080 0.005550 0.034170 
#    y 0.005550 1.788470 0.004660 
#    z 0.034170 0.004660 1.751110 
# 
# From -- ./inp_files/510116.got.cif
#   From: 2010.06.25/outbox.cif.g09.slc.cpg/sg2_256_cif.got.tgz:510116.got - 2010.06.27 13:26:56.
