data_PCOD8039813
_publ_section_title
;
Structure prediction by ZEFSAII (Michael W. Deem and Ramdas Pophale) SiO2 
 PCOD8039813
Probable space group: P -1
;
_chemical_formula_sum "Si O2"
_cell_formula_units_Z 16
_cell_length_a 8.883958
_cell_length_b 9.482574
_cell_length_c 15.013278
_cell_angle_alpha 64.895544
_cell_angle_beta 67.631637
_cell_angle_gamma 47.657763
_cell_volume 837.988303
_symmetry_space_group_name_H-M "P -1"
_symmetry_group_IT_number 2
_symmetry_cell_setting 'triclinic'
loop_
_space_group_symop_operation_xyz
x,y,z
-x,-y,-z
loop_
_atom_site_type_symbol
_atom_site_label
_atom_site_fract_x
_atom_site_fract_y
_atom_site_fract_z
Si Si1 0.771927 0.608819 0.429846
Si Si2 0.777385 0.970068 0.917583
Si Si3 0.393512 0.088316 0.861248
Si Si4 0.365798 0.623819 0.205037
Si Si5 0.347930 0.443001 0.706288
Si Si6 0.622803 0.028422 0.294751
Si Si7 0.768459 0.603657 0.632037
Si Si8 0.794776 0.257902 0.205411
O O1 0.652597 0.568181 0.397544
O O2 0.706991 0.594654 0.546838
O O3 0.013777 0.437817 0.404356
O O4 0.724083 0.818325 0.371795
O O5 0.618616 0.984543 0.880700
O O6 0.742323 0.176941 0.879844
O O7 0.009419 0.804372 0.878415
O O8 0.755680 0.908028 0.035977
O O9 0.283439 0.313349 0.797310
O O10 0.415399 0.964936 0.803854
O O11 0.421036 0.654605 0.284440
O O12 0.219408 0.559953 0.266578
O O13 0.583132 0.446510 0.156503
O O14 0.192588 0.667511 0.719113
O O15 0.401819 0.180809 0.349223
O O16 0.777101 0.081733 0.266151
#
# Coordination Sequence:
#
# PCOD8039813 Si02
#       8
#     2   2   2   2   2   2   2   2
#     4  10  20  34  55  79  99 134 172 206 254 301
#     4  10  18  35  55  73 104 136 169 211 248 298
#     4   9  20  34  54  77 102 133 174 207 252 297
#     4   8  18  35  49  76 104 133 164 211 249 296
#     4   8  18  36  50  76 104 131 170 207 248 302
#     4  10  20  37  52  76 105 135 166 211 254 299
#     4  10  20  34  56  75 105 131 170 210 254 301
#     4   9  19  33  53  72 104 137 168 202 257 296
#
# _framework density 19.093346
#
# number of rings (size 3 to 8) (size 9 to 14) (size 15 to 20)
#    0.750    2.000    0.000    1.125    1.750    1.500 
#    0.000    2.500    0.000    2.250    0.000    0.000 
#    0.000    0.000    0.000    0.000    0.000    0.000 
#
# Total GULP energy -198271.103137 kJ/mol
# GULP energy per Si atom -12391.943946 kJ/mol
# Density = 1.904989 g / cm^3
# Si number density = 19.093346 Si / 1000 Ang^3
#
#
#
# Elastic Constant Matrix: (Units=GPa)
#
#
# Indices 1 2 3 4 5 6 
#
# 1 43.0133 25.4430 17.1260 11.7526 -4.4376 8.3029
# 2 25.4430 80.4951 30.4873 16.2355 -6.3272 7.3340
# 3 17.1260 30.4873 60.5894 8.2175 -0.4689 7.0638
# 4 11.7526 16.2355 8.2175 26.6787 -2.3979 -1.8726
# 5 -4.4376 -6.3272 -0.4689 -2.3979 18.2438 -1.5621
# 6 8.3029 7.3340 7.0638 -1.8726 -1.5621 18.2677
#
#
#
# Elastic Compliance Matrix: (Units=1/GPa)
#
#
# Indices 1 2 3 4 5 6 
#
# 1 0.033843 -0.005659 -0.003767 -0.010848 0.003681 -0.012451
# 2 -0.005659 0.018557 -0.006488 -0.006653 0.003785 -0.002728
# 3 -0.003767 -0.006488 0.021550 -0.001631 -0.003209 -0.004458
# 4 -0.010848 -0.006653 -0.001631 0.047972 0.002461 0.013360
# 5 0.003681 0.003785 -0.003209 0.002461 0.057538 0.003221
# 6 -0.012451 -0.002728 -0.004458 0.013360 0.003221 0.064864
#
#
# Mechanical properties :
#
#
# Convention : Reuss Voigt Hill
#
# Bulk Modulus (GPa) = 23.74091 36.69004 30.21548
# Shear Modulus (GPa) = 17.22991 20.04082 18.63537
#
# Velocity S-wave (km/s) = 3.00726 3.24330 3.12751
# Velocity P-wave (km/s) = 4.95170 5.76916 5.37599
#
# Compressibility (1/GPa) = 0.04212139
#
# Stress axis : x y z
#
# Youngs Moduli (GPa) = 29.54839 53.88787 46.40309
#
# Poissons Ratio (x) = 0.30493 0.17482
# Poissons Ratio (y) = 0.16720 0.30108
# Poissons Ratio (z) = 0.11132 0.34965
#
# Static dielectric constant tensor:
#      x y z
#    x 3.339750 0.153600 -0.001360 
#    y 0.153600 3.436940 0.014270 
#    z -0.001360 0.014270 3.325940 
# 
# 
# High freq. dielectric constant tensor:
#      x y z
#    x 1.731350 0.009740 -0.007460 
#    y 0.009740 1.740140 0.001300 
#    z -0.007460 0.001300 1.725870 
# 
# From -- ./inp_files/223582.got.cif
#   From: 2010.06.25/outbox.cif.g09.slc.cpg/sg2_112_cif.got.tgz:223582.got - 2010.06.27 13:26:56.
