data_PCOD8039381
_publ_section_title
;
Structure prediction by ZEFSAII (Michael W. Deem and Ramdas Pophale) SiO2 
 PCOD8039381
Probable space group: P -1
;
_chemical_formula_sum "Si O2"
_cell_formula_units_Z 16
_cell_length_a 7.730854
_cell_length_b 19.249598
_cell_length_c 5.512982
_cell_angle_alpha 103.586320
_cell_angle_beta 66.210069
_cell_angle_gamma 126.247166
_cell_volume 605.419549
_symmetry_space_group_name_H-M "P -1"
_symmetry_group_IT_number 2
_symmetry_cell_setting 'triclinic'
loop_
_space_group_symop_operation_xyz
x,y,z
-x,-y,-z
loop_
_atom_site_type_symbol
_atom_site_label
_atom_site_fract_x
_atom_site_fract_y
_atom_site_fract_z
Si Si1 0.474716 0.150311 0.436775
Si Si2 0.370591 0.629520 0.155416
Si Si3 0.096253 0.426497 0.131079
Si Si4 0.897994 0.172503 0.411919
Si Si5 0.276748 0.968212 0.245528
Si Si6 0.040666 0.351668 0.602338
Si Si7 0.555942 0.314988 0.339670
Si Si8 0.891126 0.901300 0.054170
O O1 0.733756 0.175607 0.309003
O O2 0.473820 0.215727 0.304062
O O3 0.375121 0.151760 0.760430
O O4 0.285588 0.053452 0.379914
O O5 0.212143 0.527428 0.160644
O O6 0.524343 0.663833 0.343902
O O7 0.212802 0.667722 0.281444
O O8 0.526301 0.664719 0.849297
O O9 0.168645 0.398426 0.312525
O O10 0.828105 0.381215 0.237893
O O11 0.173125 0.404817 0.815832
O O12 0.712893 0.086039 0.587810
O O13 0.024348 0.261913 0.561682
O O14 0.089818 0.157029 0.204497
O O15 0.041752 0.902700 0.190444
O O16 0.500000 0.000000 0.000000
O O17 0.000000 0.000000 0.000000
#
# Coordination Sequence:
#
# PCOD8039381 Si02
#       8
#     2   2   2   2   2   2   2   2
#     4  12  24  45  66  99 135 179 230 292 338 411
#     4  10  18  33  58  93 138 170 222 276 342 416
#     4  10  18  34  56  97 134 173 219 280 339 417
#     4  12  25  45  65  98 135 178 230 288 338 410
#     4  12  26  42  72  94 134 183 226 284 349 408
#     4  10  20  32  59  91 134 167 225 277 334 400
#     4  10  20  33  57  95 130 173 222 279 336 400
#     4  12  27  47  66  96 132 185 238 277 351 411
#
# _framework density 26.427954
#
# number of rings (size 3 to 8) (size 9 to 14) (size 15 to 20)
#    0.000    1.000    5.000    5.250    5.250    1.000 
#    0.000    0.000    0.000    0.000    0.000    9.625 
#    0.000    0.000    0.000    0.000    0.000    0.000 
#
# Total GULP energy -198283.261243 kJ/mol
# GULP energy per Si atom -12392.703828 kJ/mol
# Density = 2.636780 g / cm^3
# Si number density = 26.427954 Si / 1000 Ang^3
#
#
#
# Elastic Constant Matrix: (Units=GPa)
#
#
# Indices 1 2 3 4 5 6 
#
# 1 45.0963 12.9394 30.3557 3.4269 -2.9803 -8.4322
# 2 12.9394 176.4855 62.3157 2.9114 4.5439 -22.1328
# 3 30.3557 62.3157 176.5091 0.3349 39.7164 -16.9086
# 4 3.4269 2.9114 0.3349 49.7268 -4.1647 -1.4098
# 5 -2.9803 4.5439 39.7164 -4.1647 41.0004 3.3818
# 6 -8.4322 -22.1328 -16.9086 -1.4098 3.3818 13.2351
#
#
#
# Elastic Compliance Matrix: (Units=1/GPa)
#
#
# Indices 1 2 3 4 5 6 
#
# 1 0.028190 0.001149 -0.005636 -0.001129 0.006365 0.010935
# 2 0.001149 0.007625 -0.001851 -0.000191 0.000098 0.011073
# 3 -0.005636 -0.001851 0.010868 -0.000260 -0.011595 0.010134
# 4 -0.001129 -0.000191 -0.000260 0.020395 0.002244 0.000228
# 5 0.006365 0.000098 -0.011595 0.002244 0.037956 -0.020053
# 6 0.010935 0.011073 0.010134 0.000228 -0.020053 0.119136
#
#
# Mechanical properties :
#
#
# Convention : Reuss Voigt Hill
#
# Bulk Modulus (GPa) = 29.40488 67.70140 48.55314
# Shear Modulus (GPa) = 20.14656 40.29111 30.21884
#
# Velocity S-wave (km/s) = 2.76401 3.90880 3.38515
# Velocity P-wave (km/s) = 4.61919 6.78562 5.80437
#
# Compressibility (1/GPa) = 0.03400796
#
# Stress axis : x y z
#
# Youngs Moduli (GPa) = 35.47347 131.15430 92.00976
#
# Poissons Ratio (x) = -0.15075 0.51861
# Poissons Ratio (y) = -0.04077 0.17027
# Poissons Ratio (z) = 0.19994 0.24271
#
# Static dielectric constant tensor:
#      x y z
#    x 4.908780 -0.140400 0.267690 
#    y -0.140400 2.931310 -1.166560 
#    z 0.267690 -1.166560 4.974000 
# 
# 
# High freq. dielectric constant tensor:
#      x y z
#    x 2.026490 -0.005460 0.014320 
#    y -0.005460 2.076760 0.001480 
#    z 0.014320 0.001480 2.066810 
# 
# From -- ./inp_files/48145.got.cif
#   From: 2010.06.25/outbox.cif.g09.slc.cpg/sg2_25_cif.got.tgz:48145.got - 2010.06.27 13:26:56.
