data_PCOD8039399
_publ_section_title
;
Structure prediction by ZEFSAII (Michael W. Deem and Ramdas Pophale) SiO2 
 PCOD8039399
Probable space group: P -1
;
_chemical_formula_sum "Si O2"
_cell_formula_units_Z 16
_cell_length_a 8.961723
_cell_length_b 14.507021
_cell_length_c 15.558250
_cell_angle_alpha 39.731989
_cell_angle_beta 119.613695
_cell_angle_gamma 139.421089
_cell_volume 821.111299
_symmetry_space_group_name_H-M "P -1"
_symmetry_group_IT_number 2
_symmetry_cell_setting 'triclinic'
loop_
_space_group_symop_operation_xyz
x,y,z
-x,-y,-z
loop_
_atom_site_type_symbol
_atom_site_label
_atom_site_fract_x
_atom_site_fract_y
_atom_site_fract_z
Si Si1 0.187091 0.539350 0.462167
Si Si2 0.526978 0.758991 0.034069
Si Si3 0.562249 0.824791 0.634918
Si Si4 0.162421 0.789679 0.171413
Si Si5 0.073989 0.588369 0.120520
Si Si6 0.572434 0.382338 0.081566
Si Si7 0.888190 0.255515 0.434443
Si Si8 0.358873 0.483459 0.706896
O O1 0.298888 0.739492 0.298112
O O2 0.371057 0.555463 0.561698
O O3 0.000000 0.500000 0.500000
O O4 0.070960 0.360024 0.490549
O O5 0.272326 0.674785 0.044464
O O6 0.582857 0.652172 0.185263
O O7 0.543625 0.727194 0.962391
O O8 0.724424 0.991211 0.939623
O O9 0.532351 0.782454 0.758060
O O10 0.344451 0.796157 0.560165
O O11 0.557444 0.675334 0.684731
O O12 0.811217 0.049812 0.532121
O O13 0.170548 0.758180 0.095520
O O14 0.891966 0.635688 0.234181
O O15 0.853856 0.531209 0.049369
O O16 0.001892 0.397690 0.282519
O O17 0.500000 0.500000 0.000000
#
# Coordination Sequence:
#
# PCOD8039399 Si02
#       8
#     2   2   2   2   2   2   2   2
#     4   9  17  32  56  81 112 139 191 244 274 327
#     4  12  24  35  60  86 120 157 185 233 299 346
#     4  10  18  33  59  83 108 146 191 242 285 327
#     4  10  20  39  59  83 114 156 197 233 278 344
#     4  10  21  42  57  83 119 152 188 235 289 352
#     4  11  21  38  59  83 115 148 194 241 280 334
#     4   9  18  34  59  81 107 149 191 236 290 335
#     4  11  20  37  55  90 117 144 195 247 279 332
#
# _framework density 19.485787999999999
#
# number of rings (size 3 to 8) (size 9 to 14) (size 15 to 20)
#    0.000    1.750    6.250    1.125    3.500    1.000 
#    0.000    3.125    2.750    0.000    0.000    0.000 
#    0.000    0.000    0.000    0.000    0.000    0.000 
#
# Total GULP energy -198378.879399 kJ/mol
# GULP energy per Si atom -12398.679962 kJ/mol
# Density = 1.944144 g / cm^3
# Si number density = 19.485788 Si / 1000 Ang^3
#
#
#
# Elastic Constant Matrix: (Units=GPa)
#
#
# Indices 1 2 3 4 5 6 
#
# 1 56.1088 29.9639 24.0896 -8.5926 10.3455 -7.6156
# 2 29.9639 101.3826 53.6958 -16.8211 15.6792 -26.2512
# 3 24.0896 53.6958 72.7577 -6.4863 25.8722 -14.7249
# 4 -8.5926 -16.8211 -6.4863 39.4189 -1.8178 11.1113
# 5 10.3455 15.6792 25.8722 -1.8178 26.5413 -2.4967
# 6 -7.6156 -26.2512 -14.7249 11.1113 -2.4967 22.9896
#
#
#
# Elastic Compliance Matrix: (Units=1/GPa)
#
#
# Indices 1 2 3 4 5 6 
#
# 1 0.022278 -0.004334 -0.003101 0.002691 -0.003028 -0.001184
# 2 -0.004334 0.021163 -0.011912 0.002206 0.002293 0.014283
# 3 -0.003101 -0.011912 0.032615 -0.002915 -0.023263 0.005144
# 4 0.002691 0.002206 -0.002915 0.030104 0.001342 -0.012861
# 5 -0.003028 0.002293 -0.023263 0.001342 0.059569 -0.007464
# 6 -0.001184 0.014283 0.005144 -0.012861 -0.007464 0.068116
#
#
# Mechanical properties :
#
#
# Convention : Reuss Voigt Hill
#
# Bulk Modulus (GPa) = 26.76405 49.52752 38.14579
# Shear Modulus (GPa) = 17.54433 25.95660 21.75046
#
# Velocity S-wave (km/s) = 3.00386 3.65372 3.34462
# Velocity P-wave (km/s) = 5.07897 6.57815 5.87656
#
# Compressibility (1/GPa) = 0.03736355
#
# Stress axis : x y z
#
# Youngs Moduli (GPa) = 44.88763 47.25182 30.66048
#
# Poissons Ratio (x) = 0.20479 0.09506
# Poissons Ratio (y) = 0.19454 0.36522
# Poissons Ratio (z) = 0.13918 0.56286
#
# Static dielectric constant tensor:
#      x y z
#    x 3.248180 -0.144290 0.198790 
#    y -0.144290 3.770700 0.245640 
#    z 0.198790 0.245640 4.038580 
# 
# 
# High freq. dielectric constant tensor:
#      x y z
#    x 1.724100 -0.019380 0.009520 
#    y -0.019380 1.759970 0.005220 
#    z 0.009520 0.005220 1.761920 
# 
# From -- ./inp_files/205954.got.cif
#   From: 2010.06.25/outbox.cif.g09.slc.cpg/sg2_103_cif.got.tgz:205954.got - 2010.06.27 13:26:56.
