data_PCOD8039867
_publ_section_title
;
Structure prediction by ZEFSAII (Michael W. Deem and Ramdas Pophale) SiO2 
 PCOD8039867
Probable space group: P -1
;
_chemical_formula_sum "Si O2"
_cell_formula_units_Z 16
_cell_length_a 23.326666
_cell_length_b 9.497834
_cell_length_c 9.615249
_cell_angle_alpha 109.284267
_cell_angle_beta 49.757111
_cell_angle_gamma 68.176064
_cell_volume 895.591533
_symmetry_space_group_name_H-M "P -1"
_symmetry_group_IT_number 2
_symmetry_cell_setting 'triclinic'
loop_
_space_group_symop_operation_xyz
x,y,z
-x,-y,-z
loop_
_atom_site_type_symbol
_atom_site_label
_atom_site_fract_x
_atom_site_fract_y
_atom_site_fract_z
Si Si1 0.988782 0.421025 0.355791
Si Si2 0.077420 0.965413 0.171517
Si Si3 0.539266 0.905842 0.624637
Si Si4 0.350362 0.387070 0.923777
Si Si5 0.135513 0.926515 0.376933
Si Si6 0.035814 0.543285 0.084610
Si Si7 0.239100 0.447531 0.630891
Si Si8 0.265244 0.300482 0.230931
O O1 0.840076 0.659282 0.611622
O O2 0.000000 0.500000 0.500000
O O3 0.074729 0.369960 0.091933
O O4 0.039026 0.171385 0.208213
O O5 0.139216 0.924475 0.203812
O O6 0.182591 0.702570 0.833407
O O7 0.955271 0.060026 0.424116
O O8 0.626822 0.692162 0.298738
O O9 0.619940 0.799121 0.603068
O O10 0.482026 0.157368 0.734210
O O11 0.414688 0.002486 0.890222
O O12 0.281211 0.660300 0.118737
O O13 0.245623 0.444965 0.178280
O O14 0.089982 0.157891 0.581207
O O15 0.154754 0.457170 0.839455
O O16 0.000000 0.500000 0.000000
O O17 0.244508 0.418413 0.448109
#
# Coordination Sequence:
#
# PCOD8039867 Si02
#       8
#     2   2   2   2   2   2   2   2
#     4  12  23  37  56  84 119 152 185 228 295 345
#     4  10  20  32  57  84 111 147 193 233 278 340
#     4   9  19  34  59  87 110 146 197 241 272 325
#     4   9  18  33  58  85 109 140 192 242 271 320
#     4  10  18  35  57  82 113 147 191 237 278 330
#     4  11  24  37  56  87 118 152 180 233 296 349
#     4  11  21  36  61  85 116 149 189 237 286 334
#     4  10  21  35  55  87 114 147 189 238 275 333
#
# _framework density 17.865288
#
# number of rings (size 3 to 8) (size 9 to 14) (size 15 to 20)
#    0.750    1.000    5.000    0.375    1.750    1.500 
#    0.000    0.000    0.000    5.250    0.000    0.000 
#    0.000    0.000    0.000    0.000    0.000    0.000 
#
# Total GULP energy -198215.481488 kJ/mol
# GULP energy per Si atom -12388.467593 kJ/mol
# Density = 1.782463 g / cm^3
# Si number density = 17.865288 Si / 1000 Ang^3
#
#
#
# Elastic Constant Matrix: (Units=GPa)
#
#
# Indices 1 2 3 4 5 6 
#
# 1 98.3090 28.7138 45.7686 9.0266 11.1605 -8.2545
# 2 28.7138 89.3113 45.8312 7.8583 4.2555 8.3126
# 3 45.7686 45.8312 94.8678 -3.9421 11.7732 -7.5564
# 4 9.0266 7.8583 -3.9421 32.2408 -7.0497 -3.3969
# 5 11.1605 4.2555 11.7732 -7.0497 31.0117 0.4746
# 6 -8.2545 8.3126 -7.5564 -3.3969 0.4746 23.2911
#
#
#
# Elastic Compliance Matrix: (Units=1/GPa)
#
#
# Indices 1 2 3 4 5 6 
#
# 1 0.014418 -0.001325 -0.005783 -0.004970 -0.003988 0.003063
# 2 -0.001325 0.017822 -0.009109 -0.006157 0.000253 -0.010689
# 3 -0.005783 -0.009109 0.018981 0.006488 -0.002528 0.008357
# 4 -0.004970 -0.006157 0.006488 0.037396 0.008552 0.007821
# 5 -0.003988 0.000253 -0.002528 0.008552 0.036578 -0.001822
# 6 0.003063 -0.010689 0.008357 0.007821 -0.001822 0.051724
#
#
# Mechanical properties :
#
#
# Convention : Reuss Voigt Hill
#
# Bulk Modulus (GPa) = 53.23405 58.12394 55.67900
# Shear Modulus (GPa) = 23.18940 28.12035 25.65487
#
# Velocity S-wave (km/s) = 3.60671 3.97170 3.79359
# Velocity P-wave (km/s) = 6.87071 7.32378 7.10086
#
# Compressibility (1/GPa) = 0.01878497
#
# Stress axis : x y z
#
# Youngs Moduli (GPa) = 69.35892 56.11049 52.68524
#
# Poissons Ratio (x) = 0.07437 0.30468
# Poissons Ratio (y) = 0.09193 0.47992
# Poissons Ratio (z) = 0.40111 0.51112
#
# Static dielectric constant tensor:
#      x y z
#    x 3.207700 -0.044330 0.001580 
#    y -0.044330 3.320750 -0.016200 
#    z 0.001580 -0.016200 3.410840 
# 
# 
# High freq. dielectric constant tensor:
#      x y z
#    x 1.665120 -0.021890 0.006730 
#    y -0.021890 1.689770 -0.003770 
#    z 0.006730 -0.003770 1.696120 
# 
# From -- ./inp_files/226349.got.cif
#   From: 2010.06.25/outbox.cif.g09.slc.cpg/sg2_114_cif.got.tgz:226349.got - 2010.06.27 13:26:56.
