data_PCOD8039300
_publ_section_title
;
Structure prediction by ZEFSAII (Michael W. Deem and Ramdas Pophale) SiO2 
 PCOD8039300
Probable space group: P -1
;
_chemical_formula_sum "Si O2"
_cell_formula_units_Z 16
_cell_length_a 11.684270
_cell_length_b 8.807044
_cell_length_c 11.803609
_cell_angle_alpha 97.709921
_cell_angle_beta 64.055717
_cell_angle_gamma 128.338447
_cell_volume 840.328069
_symmetry_space_group_name_H-M "P -1"
_symmetry_group_IT_number 2
_symmetry_cell_setting 'triclinic'
loop_
_space_group_symop_operation_xyz
x,y,z
-x,-y,-z
loop_
_atom_site_type_symbol
_atom_site_label
_atom_site_fract_x
_atom_site_fract_y
_atom_site_fract_z
Si Si1 0.113423 0.728170 0.068787
Si Si2 0.149302 0.338126 0.264681
Si Si3 0.372158 0.751491 0.313096
Si Si4 0.622363 0.968771 0.395063
Si Si5 0.545030 0.109583 0.107169
Si Si6 0.832217 0.123311 0.521220
Si Si7 0.938903 0.303944 0.158164
Si Si8 0.752378 0.930264 0.772731
O O1 0.978888 0.516773 0.164023
O O2 0.168073 0.898859 0.149997
O O3 0.259337 0.723842 0.961518
O O4 0.049634 0.754383 0.981178
O O5 0.301796 0.565837 0.245397
O O6 0.074505 0.316033 0.172486
O O7 0.216251 0.217831 0.219987
O O8 0.018530 0.263569 0.413241
O O9 0.223439 0.741332 0.427495
O O10 0.496565 0.769077 0.354422
O O11 0.487152 0.955418 0.216567
O O12 0.713938 0.953821 0.459258
O O13 0.760126 0.149589 0.273966
O O14 0.500000 0.000000 0.500000
O O15 0.444035 0.192599 0.166174
O O16 0.500000 0.000000 0.000000
O O17 0.832882 0.027765 0.626520
#
# Coordination Sequence:
#
# PCOD8039300 Si02
#       8
#     2   2   2   2   2   2   2   2
#     4  10  20  37  60  81 110 148 191 233 265 332
#     4  11  21  34  55  85 116 146 182 229 283 335
#     4  10  18  33  56  82 108 142 190 226 273 326
#     4   9  18  33  58  86 107 139 184 241 271 315
#     4   9  17  33  55  76 104 142 183 226 265 316
#     4   9  19  35  56  78 110 148 191 229 274 326
#     4  10  20  36  60  84 110 143 191 230 276 324
#     4  10  21  35  55  82 116 148 182 228 287 329
#
# _framework density 19.040182999999999
#
# number of rings (size 3 to 8) (size 9 to 14) (size 15 to 20)
#    0.000    2.250    1.250    3.000    0.000    2.500 
#    0.000    6.250   11.000    0.000    0.000    0.000 
#    0.000    0.000    0.000    0.000    0.000    0.000 
#
# Total GULP energy -198222.997142 kJ/mol
# GULP energy per Si atom -12388.937321 kJ/mol
# Density = 1.899685 g / cm^3
# Si number density = 19.040183 Si / 1000 Ang^3
#
#
#
# Elastic Constant Matrix: (Units=GPa)
#
#
# Indices 1 2 3 4 5 6 
#
# 1 110.4109 65.2409 47.6969 7.5094 20.3160 5.6660
# 2 65.2409 69.8039 23.3330 5.5855 -1.4184 8.0824
# 3 47.6969 23.3330 82.5492 -1.1964 11.4706 -0.3858
# 4 7.5094 5.5855 -1.1964 19.0176 7.2512 0.7605
# 5 20.3160 -1.4184 11.4706 7.2512 29.9044 2.1505
# 6 5.6660 8.0824 -0.3858 0.7605 2.1505 28.2417
#
#
#
# Elastic Compliance Matrix: (Units=1/GPa)
#
#
# Indices 1 2 3 4 5 6 
#
# 1 0.034366 -0.030590 -0.007972 0.003481 -0.022828 0.003396
# 2 -0.030590 0.044808 0.001271 -0.010407 0.025543 -0.008334
# 3 -0.007972 0.001271 0.016735 0.004593 -0.002165 0.001505
# 4 0.003481 -0.010407 0.004593 0.062022 -0.019816 0.002181
# 5 -0.022828 0.025543 -0.002165 -0.019816 0.056264 -0.006510
# 6 0.003396 -0.008334 0.001505 0.002181 -0.006510 0.037570
#
#
# Mechanical properties :
#
#
# Convention : Reuss Voigt Hill
#
# Bulk Modulus (GPa) = 46.88877 59.47840 53.18358
# Shear Modulus (GPa) = 14.99443 23.86563 19.43003
#
# Velocity S-wave (km/s) = 2.80931 3.54423 3.19795
# Velocity P-wave (km/s) = 5.93318 6.93217 6.45204
#
# Compressibility (1/GPa) = 0.02132707
#
# Stress axis : x y z
#
# Youngs Moduli (GPa) = 29.09874 22.31722 59.75410
#
# Poissons Ratio (x) = 0.68269 0.47633
# Poissons Ratio (y) = 0.89014 -0.07593
# Poissons Ratio (z) = 0.23196 -0.02836
#
# Static dielectric constant tensor:
#      x y z
#    x 4.186200 0.694090 -0.131510 
#    y 0.694090 3.382150 -0.145980 
#    z -0.131510 -0.145980 3.926180 
# 
# 
# High freq. dielectric constant tensor:
#      x y z
#    x 1.741280 0.037190 0.016580 
#    y 0.037190 1.705590 -0.005150 
#    z 0.016580 -0.005150 1.754060 
# 
# From -- ./inp_files/243611.got.cif
#   From: 2010.06.25/outbox.cif.g09.slc.cpg/sg2_122_cif.got.tgz:243611.got - 2010.06.27 13:26:56.
