data_PCOD8039110
_publ_section_title
;
Structure prediction by ZEFSAII (Michael W. Deem and Ramdas Pophale) SiO2 
 PCOD8039110
Probable space group: P -1
;
_chemical_formula_sum "Si O2"
_cell_formula_units_Z 16
_cell_length_a 11.690795
_cell_length_b 8.901132
_cell_length_c 9.303155
_cell_angle_alpha 74.883606
_cell_angle_beta 85.362196
_cell_angle_gamma 62.296383
_cell_volume 826.537892
_symmetry_space_group_name_H-M "P -1"
_symmetry_group_IT_number 2
_symmetry_cell_setting 'triclinic'
loop_
_space_group_symop_operation_xyz
x,y,z
-x,-y,-z
loop_
_atom_site_type_symbol
_atom_site_label
_atom_site_fract_x
_atom_site_fract_y
_atom_site_fract_z
Si Si1 0.585786 0.597834 0.812553
Si Si2 0.180924 0.364742 0.148057
Si Si3 0.286829 0.966949 0.257722
Si Si4 0.200867 0.994753 0.776842
Si Si5 0.075413 0.324610 0.900705
Si Si6 0.023225 0.062111 0.136378
Si Si7 0.402089 0.763794 0.033332
Si Si8 0.419397 0.891420 0.551548
O O1 0.735253 0.547583 0.818520
O O2 0.574992 0.420212 0.857055
O O3 0.516356 0.700658 0.649846
O O4 0.521710 0.724643 0.925791
O O5 0.037361 0.492660 0.192067
O O6 0.240737 0.168630 0.253058
O O7 0.180090 0.359044 0.973654
O O8 0.388994 0.895714 0.132059
O O9 0.363664 0.858623 0.416074
O O10 0.161900 0.940446 0.230398
O O11 0.088270 0.944000 0.748361
O O12 0.295077 0.990425 0.642317
O O13 0.140425 0.191839 0.797145
O O14 0.272306 0.854465 0.929782
O O15 0.016484 0.250200 0.054332
O O16 0.000000 0.000000 0.000000
O O17 0.500000 0.000000 0.500000
#
# Coordination Sequence:
#
# PCOD8039110 Si02
#       8
#     2   2   2   2   2   2   2   2
#     4  10  22  36  60  82 116 155 192 245 281 343
#     4  10  18  32  56  87 115 146 190 236 294 336
#     4  11  21  36  59  86 119 153 191 236 293 348
#     4  10  19  36  61  88 116 152 189 241 296 337
#     4   9  18  31  57  93 113 140 191 250 290 336
#     4   9  16  32  58  88 109 143 186 245 287 333
#     4  10  20  37  59  90 109 146 205 241 286 334
#     4  11  24  40  55  82 125 161 193 229 288 352
#
# _framework density 19.357854
#
# number of rings (size 3 to 8) (size 9 to 14) (size 15 to 20)
#    0.000    2.000    5.000    0.750    1.750    2.500 
#    0.000    0.625    0.000    3.000    0.000    0.000 
#    0.000    0.000    0.000    0.000    0.000    0.000 
#
# Total GULP energy -198213.537422 kJ/mol
# GULP energy per Si atom -12388.346089 kJ/mol
# Density = 1.931379 g / cm^3
# Si number density = 19.357854 Si / 1000 Ang^3
#
#
#
# Elastic Constant Matrix: (Units=GPa)
#
#
# Indices 1 2 3 4 5 6 
#
# 1 85.0898 2.8931 42.6891 -0.1382 12.1309 -6.3502
# 2 2.8931 73.5305 25.6733 -8.2080 4.8598 -14.1353
# 3 42.6891 25.6733 102.4670 -5.7700 15.0466 -7.2309
# 4 -0.1382 -8.2080 -5.7700 25.0314 -4.4323 -1.1490
# 5 12.1309 4.8598 15.0466 -4.4323 34.2936 -0.6040
# 6 -6.3502 -14.1353 -7.2309 -1.1490 -0.6040 21.2304
#
#
#
# Elastic Compliance Matrix: (Units=1/GPa)
#
#
# Indices 1 2 3 4 5 6 
#
# 1 0.015651 0.002512 -0.006463 -0.000946 -0.003108 0.004013
# 2 0.002512 0.017836 -0.004318 0.005278 -0.000638 0.011423
# 3 -0.006463 -0.004318 0.014057 0.001236 -0.003110 -0.000042
# 4 -0.000946 0.005278 0.001236 0.043077 0.004720 0.006118
# 5 -0.003108 -0.000638 -0.003110 0.004720 0.032303 -0.001239
# 6 0.004013 0.011423 -0.000042 0.006118 -0.001239 0.056190
#
#
# Mechanical properties :
#
#
# Convention : Reuss Voigt Hill
#
# Bulk Modulus (GPa) = 32.25310 44.84425 38.54868
# Shear Modulus (GPa) = 24.27334 28.76655 26.51994
#
# Velocity S-wave (km/s) = 3.54492 3.85910 3.70534
# Velocity P-wave (km/s) = 5.78386 6.56301 6.18571
#
# Compressibility (1/GPa) = 0.03100477
#
# Stress axis : x y z
#
# Youngs Moduli (GPa) = 63.89564 56.06592 71.13736
#
# Poissons Ratio (x) = -0.14085 0.45979
# Poissons Ratio (y) = -0.16052 0.30720
# Poissons Ratio (z) = 0.41298 0.24212
#
# Static dielectric constant tensor:
#      x y z
#    x 4.019690 -0.123130 0.056700 
#    y -0.123130 3.537330 -0.028490 
#    z 0.056700 -0.028490 3.341770 
# 
# 
# High freq. dielectric constant tensor:
#      x y z
#    x 1.754720 -0.010210 0.019760 
#    y -0.010210 1.752810 -0.006170 
#    z 0.019760 -0.006170 1.720600 
# 
# From -- ./inp_files/238439.got.cif
#   From: 2010.06.25/outbox.cif.g09.slc.cpg/sg2_120_cif.got.tgz:238439.got - 2010.06.27 13:26:56.
