data_PCOD8039527
_publ_section_title
;
Structure prediction by ZEFSAII (Michael W. Deem and Ramdas Pophale) SiO2 
 PCOD8039527
Probable space group: P -1
;
_chemical_formula_sum "Si O2"
_cell_formula_units_Z 16
_cell_length_a 18.937225
_cell_length_b 11.008109
_cell_length_c 17.069163
_cell_angle_alpha 145.974520
_cell_angle_beta 148.959152
_cell_angle_gamma 56.012242
_cell_volume 874.684468
_symmetry_space_group_name_H-M "P -1"
_symmetry_group_IT_number 2
_symmetry_cell_setting 'triclinic'
loop_
_space_group_symop_operation_xyz
x,y,z
-x,-y,-z
loop_
_atom_site_type_symbol
_atom_site_label
_atom_site_fract_x
_atom_site_fract_y
_atom_site_fract_z
Si Si1 0.947112 0.776683 0.127938
Si Si2 0.453816 0.197089 0.091902
Si Si3 0.135891 0.957710 0.933851
Si Si4 0.780107 0.602621 0.636793
Si Si5 0.608761 0.031800 0.929783
Si Si6 0.113330 0.533271 0.485271
Si Si7 0.760644 0.271530 0.587750
Si Si8 0.120947 0.007948 0.679687
O O1 0.125134 0.843652 0.357779
O O2 0.966309 0.977602 0.187626
O O3 0.858855 0.800963 0.131180
O O4 0.824636 0.489047 0.830525
O O5 0.598084 0.483447 0.368209
O O6 0.409962 0.163213 0.124645
O O7 0.500000 0.000000 0.000000
O O8 0.289849 0.132227 0.858901
O O9 0.027419 0.662765 0.696114
O O10 0.301396 0.005310 0.078470
O O11 0.168787 0.127860 0.133472
O O12 0.882610 0.626666 0.670518
O O13 0.780498 0.401188 0.590802
O O14 0.425558 0.953385 0.691936
O O15 0.719077 0.316381 0.224924
O O16 0.065880 0.731814 0.515382
O O17 0.000000 0.000000 0.500000
#
# Coordination Sequence:
#
# PCOD8039527 Si02
#       8
#     2   2   2   2   2   2   2   2
#     4  10  20  36  53  86 109 146 178 229 274 333
#     4  10  18  34  55  84 111 134 183 232 275 310
#     4  11  22  36  58  80 112 152 188 213 271 335
#     4  10  20  34  60  83 107 149 181 230 271 321
#     4  10  20  34  58  80 109 146 180 231 269 317
#     4  11  21  38  55  83 114 144 186 228 264 330
#     4   9  21  35  57  82 117 135 182 231 286 310
#     4  11  22  33  59  82 107 141 183 231 281 318
#
# _framework density 18.292310000000001
#
# number of rings (size 3 to 8) (size 9 to 14) (size 15 to 20)
#    0.000    1.750    5.000    1.500    3.500    1.500 
#    0.000    0.625    2.750    0.750    0.000    0.000 
#    0.000    0.000    0.000    0.000    0.000    0.000 
#
# Total GULP energy -198243.336861 kJ/mol
# GULP energy per Si atom -12390.208554 kJ/mol
# Density = 1.825068 g / cm^3
# Si number density = 18.292310 Si / 1000 Ang^3
#
#
#
# Elastic Constant Matrix: (Units=GPa)
#
#
# Indices 1 2 3 4 5 6 
#
# 1 96.3449 26.3168 36.8418 -2.2710 -2.7734 -22.8581
# 2 26.3168 82.7087 52.0758 -19.1339 10.7586 -11.8040
# 3 36.8418 52.0758 109.7833 -19.4162 7.5461 -4.9409
# 4 -2.2710 -19.1339 -19.4162 30.1681 -5.4643 5.5479
# 5 -2.7734 10.7586 7.5461 -5.4643 36.2634 4.3517
# 6 -22.8581 -11.8040 -4.9409 5.5479 4.3517 24.4282
#
#
#
# Elastic Compliance Matrix: (Units=1/GPa)
#
#
# Indices 1 2 3 4 5 6 
#
# 1 0.015993 -0.000981 -0.005209 -0.005467 0.000013 0.014677
# 2 -0.000981 0.020005 -0.007544 0.005733 -0.004381 0.006701
# 3 -0.005209 -0.007544 0.015143 0.005906 0.000403 -0.006870
# 4 -0.005467 0.005733 0.005906 0.043165 0.004568 -0.011768
# 5 0.000013 -0.004381 0.000403 0.004568 0.030501 -0.008494
# 6 0.014677 0.006701 -0.006870 -0.011768 -0.008494 0.060704
#
#
# Mechanical properties :
#
#
# Convention : Reuss Voigt Hill
#
# Bulk Modulus (GPa) = 42.24075 57.70063 49.97069
# Shear Modulus (GPa) = 22.63791 29.74542 26.19167
#
# Velocity S-wave (km/s) = 3.52172 4.03689 3.78807
# Velocity P-wave (km/s) = 6.29912 7.30348 6.81981
#
# Compressibility (1/GPa) = 0.02367382
#
# Stress axis : x y z
#
# Youngs Moduli (GPa) = 62.52811 49.98778 66.03780
#
# Poissons Ratio (x) = 0.04903 0.34399
# Poissons Ratio (y) = 0.06133 0.49816
# Poissons Ratio (z) = 0.32571 0.37708
#
# Static dielectric constant tensor:
#      x y z
#    x 3.333470 -0.239240 0.229310 
#    y -0.239240 3.258810 -0.204620 
#    z 0.229310 -0.204620 3.388900 
# 
# 
# High freq. dielectric constant tensor:
#      x y z
#    x 1.719050 -0.021800 -0.012100 
#    y -0.021800 1.672430 -0.010750 
#    z -0.012100 -0.010750 1.716200 
# 
# From -- ./inp_files/271088.got.cif
#   From: 2010.06.25/outbox.cif.g09.slc.cpg/sg2_136_cif.got.tgz:271088.got - 2010.06.27 13:26:56.
