data_PCOD8039906
_publ_section_title
;
Structure prediction by ZEFSAII (Michael W. Deem and Ramdas Pophale) SiO2 
 PCOD8039906
Probable space group: P -1
;
_chemical_formula_sum "Si O2"
_cell_formula_units_Z 16
_cell_length_a 30.920172
_cell_length_b 8.557076
_cell_length_c 21.101782
_cell_angle_alpha 147.409496
_cell_angle_beta 163.391171
_cell_angle_gamma 39.798195
_cell_volume 831.435077
_symmetry_space_group_name_H-M "P -1"
_symmetry_group_IT_number 2
_symmetry_cell_setting 'triclinic'
loop_
_space_group_symop_operation_xyz
x,y,z
-x,-y,-z
loop_
_atom_site_type_symbol
_atom_site_label
_atom_site_fract_x
_atom_site_fract_y
_atom_site_fract_z
Si Si1 0.516737 0.824174 0.306118
Si Si2 0.675475 0.826538 0.769652
Si Si3 0.255289 0.033061 0.221862
Si Si4 0.910547 0.928801 0.706082
Si Si5 0.256476 0.779721 0.330411
Si Si6 0.066601 0.534744 0.861188
Si Si7 0.805708 0.598286 0.320465
Si Si8 0.037653 0.904744 0.652655
O O1 0.630662 0.743304 0.492373
O O2 0.451820 0.095539 0.336123
O O3 0.616432 0.934907 0.421131
O O4 0.378219 0.539044 0.996018
O O5 0.659315 0.958997 0.722643
O O6 0.650571 0.470468 0.609672
O O7 0.848212 0.980083 0.089184
O O8 0.214086 0.689832 0.075234
O O9 0.090002 0.126003 0.014181
O O10 0.827062 0.822363 0.485983
O O11 0.916034 0.644617 0.662661
O O12 0.811487 0.131457 0.669306
O O13 0.111933 0.657968 0.037821
O O14 0.030487 0.173253 0.685915
O O15 0.900220 0.347243 0.384051
O O16 0.869600 0.764443 0.400981
#
# Coordination Sequence:
#
# PCOD8039906 Si02
#       8
#     2   2   2   2   2   2   2   2
#     4  10  21  35  55  78 114 142 170 222 276 316
#     4  10  18  35  58  84 103 138 185 227 261 309
#     4   9  19  35  56  84 106 134 179 229 265 310
#     4  10  20  36  55  83 106 143 180 219 263 317
#     4  10  20  35  57  81 107 141 182 223 264 313
#     4   8  18  33  55  81 100 139 178 227 257 303
#     4  10  20  34  54  80 109 147 172 217 268 322
#     4   9  17  35  55  77 110 139 181 215 264 318
#
# _framework density 19.243836000000002
#
# number of rings (size 3 to 8) (size 9 to 14) (size 15 to 20)
#    0.750    1.750    1.250    1.125    0.000    2.500 
#    0.000    1.250    0.000    1.500    0.000    0.000 
#    0.000    0.000    0.000    0.000    0.000    0.000 
#
# Total GULP energy -198297.281837 kJ/mol
# GULP energy per Si atom -12393.580115 kJ/mol
# Density = 1.920004 g / cm^3
# Si number density = 19.243836 Si / 1000 Ang^3
#
#
#
# Elastic Constant Matrix: (Units=GPa)
#
#
# Indices 1 2 3 4 5 6 
#
# 1 69.3745 11.5032 16.1035 -5.0074 -8.6078 -8.0211
# 2 11.5032 29.6103 10.5563 -3.9636 -7.0849 -0.4338
# 3 16.1035 10.5563 91.7174 -16.3171 -1.7571 -6.3974
# 4 -5.0074 -3.9636 -16.3171 17.3284 0.2476 5.0844
# 5 -8.6078 -7.0849 -1.7571 0.2476 24.1680 1.9522
# 6 -8.0211 -0.4338 -6.3974 5.0844 1.9522 27.5995
#
#
#
# Elastic Compliance Matrix: (Units=1/GPa)
#
#
# Indices 1 2 3 4 5 6 
#
# 1 0.016640 -0.004646 -0.001903 0.000753 0.004104 0.003893
# 2 -0.004646 0.039685 -0.002721 0.005957 0.009975 -0.003160
# 3 -0.001903 -0.002721 0.013622 0.011521 -0.000642 0.000485
# 4 0.000753 0.005957 0.011521 0.073241 0.002968 -0.010719
# 5 0.004104 0.009975 -0.000642 0.002968 0.045895 -0.002592
# 6 0.003893 -0.003160 0.000485 -0.010719 -0.002592 0.039585
#
#
# Mechanical properties :
#
#
# Convention : Reuss Voigt Hill
#
# Bulk Modulus (GPa) = 19.45289 29.66980 24.56135
# Shear Modulus (GPa) = 18.91475 23.98846 21.45160
#
# Velocity S-wave (km/s) = 3.13852 3.53449 3.34237
# Velocity P-wave (km/s) = 4.82331 5.66640 5.26177
#
# Compressibility (1/GPa) = 0.05140624
#
# Stress axis : x y z
#
# Youngs Moduli (GPa) = 60.09508 25.19828 73.41312
#
# Poissons Ratio (x) = 0.11708 0.13968
# Poissons Ratio (y) = 0.27922 0.19978
# Poissons Ratio (z) = 0.11434 0.06857
#
# Static dielectric constant tensor:
#      x y z
#    x 3.337990 0.102730 0.053330 
#    y 0.102730 3.283750 -0.005750 
#    z 0.053330 -0.005750 3.425130 
# 
# 
# High freq. dielectric constant tensor:
#      x y z
#    x 1.746770 0.007620 0.004630 
#    y 0.007620 1.715540 -0.003560 
#    z 0.004630 -0.003560 1.735840 
# 
# From -- ./inp_files/254195.got.cif
#   From: 2010.06.25/outbox.cif.g09.slc.cpg/sg2_128_cif.got.tgz:254195.got - 2010.06.27 13:26:56.
