data_PCOD8039502
_publ_section_title
;
Structure prediction by ZEFSAII (Michael W. Deem and Ramdas Pophale) SiO2 
 PCOD8039502
Probable space group: P -1
;
_chemical_formula_sum "Si O2"
_cell_formula_units_Z 10
_cell_length_a 7.981923
_cell_length_b 13.251786
_cell_length_c 9.357563
_cell_angle_alpha 105.696341
_cell_angle_beta 130.899226
_cell_angle_gamma 44.714244
_cell_volume 489.818187
_symmetry_space_group_name_H-M "P -1"
_symmetry_group_IT_number 2
_symmetry_cell_setting 'triclinic'
loop_
_space_group_symop_operation_xyz
x,y,z
-x,-y,-z
loop_
_atom_site_type_symbol
_atom_site_label
_atom_site_fract_x
_atom_site_fract_y
_atom_site_fract_z
Si Si1 0.266837 0.002592 0.960631
Si Si2 0.915999 0.187953 0.584465
Si Si3 0.777094 0.651460 0.774599
Si Si4 0.457756 0.059108 0.342981
Si Si5 0.846121 0.674260 0.139421
O O1 0.227002 0.060588 0.121361
O O2 0.456314 0.825179 0.006642
O O3 0.940250 0.116608 0.725211
O O4 0.500000 0.000000 0.000000
O O5 0.563827 0.289166 0.360842
O O6 0.190394 0.048141 0.576301
O O7 0.955647 0.299124 0.668255
O O8 0.030696 0.478865 0.783583
O O9 0.724681 0.765781 0.680514
O O10 0.918434 0.647711 0.000150
O O11 0.500000 0.000000 0.500000
#
# Coordination Sequence:
#
# PCOD8039502 Si02
#       5
#     2   2   2   2   2
#     4   8  15  33  49  69 102 130 158 209 237 288
#     4  10  18  34  54  76  99 130 176 203 240 299
#     4  11  18  30  57  79  93 135 172 204 246 298
#     4  10  19  33  52  76 105 133 163 208 254 294
#     4   9  18  31  51  80 103 120 171 217 243 280
#
# _framework density 20.415737
#
# number of rings (size 3 to 8) (size 9 to 14) (size 15 to 20)
#    0.000    2.800    6.000    1.200    0.000    0.000 
#    0.000    5.000    0.000    4.800    0.000    0.000 
#    0.000    0.000    0.000    0.000    0.000    0.000 
#
# Total GULP energy -123891.899099 kJ/mol
# GULP energy per Si atom -12389.189910 kJ/mol
# Density = 2.036927 g / cm^3
# Si number density = 20.415737 Si / 1000 Ang^3
#
#
#
# Elastic Constant Matrix: (Units=GPa)
#
#
# Indices 1 2 3 4 5 6 
#
# 1 21.5613 18.7765 27.0631 -5.9870 -16.5231 2.6413
# 2 18.7765 191.1494 39.0736 -24.9551 -17.0804 15.6812
# 3 27.0631 39.0736 86.5713 -5.4846 -23.0381 2.3709
# 4 -5.9870 -24.9551 -5.4846 29.3122 1.7860 -4.6820
# 5 -16.5231 -17.0804 -23.0381 1.7860 32.4518 -6.2720
# 6 2.6413 15.6812 2.3709 -4.6820 -6.2720 15.5987
#
#
#
# Elastic Compliance Matrix: (Units=1/GPa)
#
#
# Indices 1 2 3 4 5 6 
#
# 1 0.109310 -0.001116 -0.022290 0.015860 0.039669 0.006711
# 2 -0.001116 0.006788 -0.002247 0.004334 0.000223 -0.004903
# 3 -0.022290 -0.002247 0.019926 -0.002363 0.002372 0.003249
# 4 0.015860 0.004334 -0.002363 0.041554 0.008144 0.009064
# 5 0.039669 0.000223 0.002372 0.008144 0.055760 0.017562
# 6 0.006711 -0.004903 0.003249 0.009064 0.017562 0.077189
#
#
# Mechanical properties :
#
#
# Convention : Reuss Voigt Hill
#
# Bulk Modulus (GPa) = 11.80381 52.12315 31.96348
# Shear Modulus (GPa) = 12.81809 29.76380 21.29094
#
# Velocity S-wave (km/s) = 2.50842 3.82237 3.23285
# Velocity P-wave (km/s) = 3.76614 6.71319 5.44292
#
# Compressibility (1/GPa) = 0.08471839
#
# Stress axis : x y z
#
# Youngs Moduli (GPa) = 9.14827 147.30904 50.18606
#
# Poissons Ratio (x) = 0.16446 1.11865
# Poissons Ratio (y) = 0.01021 0.11275
# Poissons Ratio (z) = 0.20392 0.33094
#
# Static dielectric constant tensor:
#      x y z
#    x 2.858900 0.008130 0.074320 
#    y 0.008130 4.245200 -0.183220 
#    z 0.074320 -0.183220 4.328510 
# 
# 
# High freq. dielectric constant tensor:
#      x y z
#    x 1.703900 0.008490 0.005430 
#    y 0.008490 1.819690 0.000530 
#    z 0.005430 0.000530 1.813060 
# 
# From -- ./inp_files/144345.got.cif
#   From: 2010.06.25/outbox.cif.g09.slc.cpg/sg2_73_cif.got.tgz:144345.got - 2010.06.27 13:26:56.
