data_PCOD8039539
_publ_section_title
;
Structure prediction by ZEFSAII (Michael W. Deem and Ramdas Pophale) SiO2 
 PCOD8039539
Probable space group: P -1
;
_chemical_formula_sum "Si O2"
_cell_formula_units_Z 16
_cell_length_a 9.593729
_cell_length_b 12.629829
_cell_length_c 20.601511
_cell_angle_alpha 27.227351
_cell_angle_beta 48.870270
_cell_angle_gamma 40.649038
_cell_volume 742.783591
_symmetry_space_group_name_H-M "P -1"
_symmetry_group_IT_number 2
_symmetry_cell_setting 'triclinic'
loop_
_space_group_symop_operation_xyz
x,y,z
-x,-y,-z
loop_
_atom_site_type_symbol
_atom_site_label
_atom_site_fract_x
_atom_site_fract_y
_atom_site_fract_z
Si Si1 0.745744 0.927001 0.883305
Si Si2 0.297312 0.145379 0.698471
Si Si3 0.948019 0.997893 0.386462
Si Si4 0.652931 0.673112 0.927348
Si Si5 0.203513 0.855772 0.778623
Si Si6 0.899452 0.534528 0.156947
Si Si7 0.601562 0.403272 0.596853
Si Si8 0.853536 0.506347 0.332456
O O1 0.664066 0.831720 0.899117
O O2 0.997638 0.818297 0.857981
O O3 0.608094 0.255651 0.744684
O O4 0.721055 0.793170 0.030035
O O5 0.388042 0.328324 0.540291
O O6 0.127669 0.307922 0.719389
O O7 0.474321 0.867205 0.826144
O O8 0.177060 0.087046 0.709447
O O9 0.190970 0.839656 0.370229
O O10 0.948676 0.796927 0.551266
O O11 0.775958 0.057475 0.348636
O O12 0.880034 0.274469 0.292000
O O13 0.865662 0.528994 0.897639
O O14 0.607433 0.438879 0.095599
O O15 0.858008 0.613640 0.202009
O O16 0.377813 0.475277 0.590471
#
# Coordination Sequence:
#
# PCOD8039539 Si02
#       8
#     2   2   2   2   2   2   2   2
#     4  10  19  35  61  80 107 141 190 226 262 317
#     4  11  22  36  57  83 115 141 182 227 275 323
#     4  10  18  34  56  78 107 145 187 221 264 316
#     4  11  18  38  61  81 106 145 191 226 260 323
#     4  10  20  34  60  87 102 142 193 227 261 320
#     4  11  19  34  57  85 108 141 186 230 267 319
#     4  10  20  35  54  80 111 145 182 224 264 321
#     4  11  22  32  54  86 115 142 179 225 281 325
#
# _framework density 21.540595
#
# number of rings (size 3 to 8) (size 9 to 14) (size 15 to 20)
#    0.000    1.500    5.000    3.750    0.000    5.000 
#    0.000    2.500    0.000    6.000    0.000    0.000 
#    0.000    0.000    0.000    0.000    0.000    0.000 
#
# Total GULP energy -198213.718672 kJ/mol
# GULP energy per Si atom -12388.357417 kJ/mol
# Density = 2.149157 g / cm^3
# Si number density = 21.540595 Si / 1000 Ang^3
#
#
#
# Elastic Constant Matrix: (Units=GPa)
#
#
# Indices 1 2 3 4 5 6 
#
# 1 58.5957 17.0285 28.2191 -1.4387 10.9820 21.9963
# 2 17.0285 36.6083 22.7646 1.5745 8.8428 16.8466
# 3 28.2191 22.7646 135.3061 -17.3296 34.2425 9.7101
# 4 -1.4387 1.5745 -17.3296 31.0907 1.5026 7.5976
# 5 10.9820 8.8428 34.2425 1.5026 28.2115 -0.7555
# 6 21.9963 16.8466 9.7101 7.5976 -0.7555 24.7236
#
#
#
# Elastic Compliance Matrix: (Units=1/GPa)
#
#
# Indices 1 2 3 4 5 6 
#
# 1 0.032315 0.004678 0.000667 0.011261 -0.016424 -0.036162
# 2 0.004678 0.047438 -0.000824 0.007729 -0.017148 -0.039061
# 3 0.000667 -0.000824 0.013999 0.011052 -0.017836 -0.009472
# 4 0.011261 0.007729 0.011052 0.048193 -0.023729 -0.035161
# 5 -0.016424 -0.017148 -0.017836 -0.023729 0.071272 0.042771
# 6 -0.036162 -0.039061 -0.009472 -0.035161 0.042771 0.115068
#
#
# Mechanical properties :
#
#
# Convention : Reuss Voigt Hill
#
# Bulk Modulus (GPa) = 9.72822 40.72607 25.22714
# Shear Modulus (GPa) = 14.14395 27.63835 20.89115
#
# Velocity S-wave (km/s) = 2.56524 3.58590 3.11762
# Velocity P-wave (km/s) = 3.64691 6.00771 4.96953
#
# Compressibility (1/GPa) = 0.10279377
#
# Stress axis : x y z
#
# Youngs Moduli (GPa) = 30.94548 21.08024 71.43336
#
# Poissons Ratio (x) = -0.09861 -0.04767
# Poissons Ratio (y) = -0.14476 0.05887
# Poissons Ratio (z) = -0.02065 0.01737
#
# Static dielectric constant tensor:
#      x y z
#    x 3.763320 0.149790 0.672490 
#    y 0.149790 3.366370 -0.072450 
#    z 0.672490 -0.072450 4.962630 
# 
# 
# High freq. dielectric constant tensor:
#      x y z
#    x 1.823230 0.022240 0.041010 
#    y 0.022240 1.797040 -0.014070 
#    z 0.041010 -0.014070 1.881000 
# 
# From -- ./inp_files/282920.got.cif
#   From: 2010.06.25/outbox.cif.g09.slc.cpg/sg2_142_cif.got.tgz:282920.got - 2010.06.27 13:26:56.
