data_PCOD8039186
_publ_section_title
;
Structure prediction by ZEFSAII (Michael W. Deem and Ramdas Pophale) SiO2 
 PCOD8039186
Probable space group: P -1
;
_chemical_formula_sum "Si O2"
_cell_formula_units_Z 14
_cell_length_a 9.851023
_cell_length_b 8.716121
_cell_length_c 15.872543
_cell_angle_alpha 105.290698
_cell_angle_beta 32.734385
_cell_angle_gamma 112.027559
_cell_volume 679.510855
_symmetry_space_group_name_H-M "P -1"
_symmetry_group_IT_number 2
_symmetry_cell_setting 'triclinic'
loop_
_space_group_symop_operation_xyz
x,y,z
-x,-y,-z
loop_
_atom_site_type_symbol
_atom_site_label
_atom_site_fract_x
_atom_site_fract_y
_atom_site_fract_z
Si Si1 0.969142 0.364120 0.586942
Si Si2 0.163100 0.909076 0.246788
Si Si3 0.383560 0.421885 0.136301
Si Si4 0.902309 0.904076 0.123262
Si Si5 0.650690 0.198793 0.036369
Si Si6 0.902467 0.110947 0.312708
Si Si7 0.338131 0.699768 0.418806
O O1 0.970312 0.224921 0.632989
O O2 0.743599 0.452407 0.733344
O O3 0.888880 0.279941 0.524800
O O4 0.255863 0.503074 0.458433
O O5 0.395850 0.059777 0.186592
O O6 0.295018 0.831023 0.093495
O O7 0.919939 0.964022 0.345011
O O8 0.591432 0.378111 0.087269
O O9 0.179993 0.249191 0.190417
O O10 0.500000 0.500000 0.000000
O O11 0.625396 0.761230 0.236295
O O12 0.859248 0.041474 0.230497
O O13 0.105032 0.805662 0.033628
O O14 0.000000 0.000000 0.000000
O O15 0.673259 0.187639 0.475922
#
# Coordination Sequence:
#
# PCOD8039186 Si02
#       7
#     2   2   2   2   2   2   2
#     4  10  20  35  59  83 112 152 189 232 287 326
#     4   9  16  32  58  83 111 140 191 239 275 330
#     4  10  18  32  62  85 113 143 184 237 282 327
#     4  11  22  37  61  81 116 153 190 232 282 334
#     4   9  18  32  53  90 113 141 190 236 277 335
#     4   9  21  37  57  86 109 150 192 232 278 337
#     4  10  22  38  55  82 117 151 188 231 280 344
#
# _framework density 20.603055000000001
#
# number of rings (size 3 to 8) (size 9 to 14) (size 15 to 20)
#    0.000    2.286    1.429    2.143    2.000    0.571 
#    0.000    6.429    3.143    0.000    0.000    0.000 
#    0.000    0.000    0.000    0.000    0.000    0.000 
#
# Total GULP energy -173507.452674 kJ/mol
# GULP energy per Si atom -12393.389477 kJ/mol
# Density = 2.055616 g / cm^3
# Si number density = 20.603055 Si / 1000 Ang^3
#
#
#
# Elastic Constant Matrix: (Units=GPa)
#
#
# Indices 1 2 3 4 5 6 
#
# 1 88.4359 42.4242 41.2864 -15.3830 9.7853 -13.6261
# 2 42.4242 83.7104 39.7828 -19.2053 11.2618 -17.2336
# 3 41.2864 39.7828 98.2622 -31.6343 3.7476 -8.7735
# 4 -15.3830 -19.2053 -31.6343 37.2002 -6.7174 11.4060
# 5 9.7853 11.2618 3.7476 -6.7174 34.3840 -4.1844
# 6 -13.6261 -17.2336 -8.7735 11.4060 -4.1844 33.9950
#
#
#
# Elastic Compliance Matrix: (Units=1/GPa)
#
#
# Indices 1 2 3 4 5 6 
#
# 1 0.016704 -0.005584 -0.004867 -0.001390 -0.002326 0.002788
# 2 -0.005584 0.018570 -0.004048 0.001688 -0.003091 0.005184
# 3 -0.004867 -0.004048 0.017387 0.012188 0.002800 -0.003260
# 4 -0.001390 0.001688 0.012188 0.041536 0.005433 -0.009823
# 5 -0.002326 -0.003091 0.002800 0.005433 0.031549 0.000283
# 6 0.002788 0.005184 -0.003260 -0.009823 0.000283 0.035651
#
#
# Mechanical properties :
#
#
# Convention : Reuss Voigt Hill
#
# Bulk Modulus (GPa) = 42.26162 57.48837 49.87499
# Shear Modulus (GPa) = 25.21654 30.91020 28.06337
#
# Velocity S-wave (km/s) = 3.50226 3.87754 3.69466
# Velocity P-wave (km/s) = 6.07546 6.92896 6.51620
#
# Compressibility (1/GPa) = 0.02366213
#
# Stress axis : x y z
#
# Youngs Moduli (GPa) = 59.86554 53.84986 57.51538
#
# Poissons Ratio (x) = 0.30071 0.27995
# Poissons Ratio (y) = 0.33430 0.23281
# Poissons Ratio (z) = 0.29138 0.21798
#
# Static dielectric constant tensor:
#      x y z
#    x 3.561140 -0.056620 0.089870 
#    y -0.056620 3.902800 0.043650 
#    z 0.089870 0.043650 3.860430 
# 
# 
# High freq. dielectric constant tensor:
#      x y z
#    x 1.781620 -0.006610 0.008820 
#    y -0.006610 1.802430 -0.006030 
#    z 0.008820 -0.006030 1.809610 
# 
# From -- ./inp_files/158160.got.cif
#   From: 2010.06.25/outbox.cif.g09.slc.cpg/sg2_80_cif.got.tgz:158160.got - 2010.06.27 13:26:56.
