data_PCOD8039930
_publ_section_title
;
Structure prediction by ZEFSAII (Michael W. Deem and Ramdas Pophale) SiO2 
 PCOD8039930
Probable space group: P -1
;
_chemical_formula_sum "Si O2"
_cell_formula_units_Z 14
_cell_length_a 12.976111
_cell_length_b 11.346781
_cell_length_c 12.374417
_cell_angle_alpha 88.476877
_cell_angle_beta 60.144956
_cell_angle_gamma 36.445586
_cell_volume 645.903105
_symmetry_space_group_name_H-M "P -1"
_symmetry_group_IT_number 2
_symmetry_cell_setting 'triclinic'
loop_
_space_group_symop_operation_xyz
x,y,z
-x,-y,-z
loop_
_atom_site_type_symbol
_atom_site_label
_atom_site_fract_x
_atom_site_fract_y
_atom_site_fract_z
Si Si1 0.641899 0.839035 0.612970
Si Si2 0.798536 0.940170 0.448640
Si Si3 0.855034 0.917875 0.991980
Si Si4 0.047359 0.264842 0.843740
Si Si5 0.242149 0.513655 0.400947
Si Si6 0.325660 0.538215 0.596557
Si Si7 0.334559 0.161072 0.972677
O O1 0.743386 0.847972 0.478150
O O2 0.863670 0.529349 0.532685
O O3 0.384513 0.993075 0.692240
O O4 0.551808 0.988522 0.765106
O O5 0.986725 0.784331 0.244403
O O6 0.987014 0.808932 0.457735
O O7 0.504467 0.281471 0.581442
O O8 0.842233 0.797782 0.954207
O O9 0.026991 0.835351 0.811953
O O10 0.046664 0.733460 0.006653
O O11 0.537865 0.257929 0.180432
O O12 0.876095 0.539362 0.918286
O O13 0.262739 0.553318 0.507007
O O14 0.500000 0.500000 0.500000
O O15 0.500000 0.000000 0.000000
#
# Coordination Sequence:
#
# PCOD8039930 Si02
#       7
#     2   2   2   2   2   2   2
#     4  10  20  35  60  96 132 169 200 257 327 396
#     4  12  22  40  68  96 135 169 211 269 322 383
#     4  10  22  43  63  90 134 166 210 269 318 385
#     4  10  18  35  58  91 131 170 205 247 329 391
#     4  10  24  44  64 103 129 163 218 263 329 392
#     4  12  27  47  69  90 124 179 227 272 317 368
#     4  10  19  30  54  96 132 167 204 247 324 398
#
# _framework density 21.675077999999999
#
# number of rings (size 3 to 8) (size 9 to 14) (size 15 to 20)
#    0.000    1.714    2.857    6.000    4.000    1.143 
#    2.571    0.714    0.000    0.000    0.000    0.000 
#    0.000    0.000    0.000    0.000    0.000    0.000 
#
# Total GULP energy -173482.250225 kJ/mol
# GULP energy per Si atom -12391.589302 kJ/mol
# Density = 2.162574 g / cm^3
# Si number density = 21.675078 Si / 1000 Ang^3
#
#
#
# Elastic Constant Matrix: (Units=GPa)
#
#
# Indices 1 2 3 4 5 6 
#
# 1 55.9206 25.8701 33.0511 -19.6381 8.5687 -9.6977
# 2 25.8701 99.7965 25.0015 -10.4013 8.9895 -33.1746
# 3 33.0511 25.0015 122.0382 -20.6319 2.9377 -9.6768
# 4 -19.6381 -10.4013 -20.6319 23.8123 -6.0236 5.1125
# 5 8.5687 8.9895 2.9377 -6.0236 22.7286 -10.2678
# 6 -9.6977 -33.1746 -9.6768 5.1125 -10.2678 28.4750
#
#
#
# Elastic Compliance Matrix: (Units=1/GPa)
#
#
# Indices 1 2 3 4 5 6 
#
# 1 0.029067 -0.004996 -0.003920 0.017647 -0.004766 -0.002140
# 2 -0.004996 0.017904 -0.000864 -0.000410 0.004014 0.020385
# 3 -0.003920 -0.000864 0.010445 0.005843 0.002497 0.001058
# 4 0.017647 -0.000410 0.005843 0.063942 0.009450 -0.000554
# 5 -0.004766 0.004014 0.002497 0.009450 0.056605 0.022617
# 6 -0.002140 0.020385 0.001058 -0.000554 0.022617 0.066754
#
#
# Mechanical properties :
#
#
# Convention : Reuss Voigt Hill
#
# Bulk Modulus (GPa) = 26.41672 49.51121 37.96397
# Shear Modulus (GPa) = 18.05735 27.92536 22.99136
#
# Velocity S-wave (km/s) = 2.88947 3.59327 3.26041
# Velocity P-wave (km/s) = 4.83178 6.33305 5.63265
#
# Compressibility (1/GPa) = 0.03785481
#
# Stress axis : x y z
#
# Youngs Moduli (GPa) = 34.40344 55.85318 95.74277
#
# Poissons Ratio (x) = 0.27903 0.37533
# Poissons Ratio (y) = 0.17187 0.08277
# Poissons Ratio (z) = 0.13487 0.04828
#
# Static dielectric constant tensor:
#      x y z
#    x 3.437360 -0.437000 0.215400 
#    y -0.437000 3.908430 -0.134170 
#    z 0.215400 -0.134170 4.020820 
# 
# 
# High freq. dielectric constant tensor:
#      x y z
#    x 1.813930 -0.023430 0.019420 
#    y -0.023430 1.860480 -0.008200 
#    z 0.019420 -0.008200 1.854180 
# 
# From -- ./inp_files/426161.got.cif
#   From: 2010.06.25/outbox.cif.g09.slc.cpg/sg2_214_cif.got.tgz:426161.got - 2010.06.27 13:26:56.
