data_PCOD8039679
_publ_section_title
;
Structure prediction by ZEFSAII (Michael W. Deem and Ramdas Pophale) SiO2 
 PCOD8039679
Probable space group: P -1
;
_chemical_formula_sum "Si O2"
_cell_formula_units_Z 14
_cell_length_a 17.572795
_cell_length_b 11.647154
_cell_length_c 9.167621
_cell_angle_alpha 49.523566
_cell_angle_beta 36.880393
_cell_angle_gamma 28.387966
_cell_volume 525.508064
_symmetry_space_group_name_H-M "P -1"
_symmetry_group_IT_number 2
_symmetry_cell_setting 'triclinic'
loop_
_space_group_symop_operation_xyz
x,y,z
-x,-y,-z
loop_
_atom_site_type_symbol
_atom_site_label
_atom_site_fract_x
_atom_site_fract_y
_atom_site_fract_z
Si Si1 0.012012 0.984745 0.746588
Si Si2 0.807166 0.735510 0.283819
Si Si3 0.620043 0.211278 0.069799
Si Si4 0.583255 0.794547 0.837889
Si Si5 0.573124 0.486730 0.606673
Si Si6 0.810973 0.342533 0.999627
Si Si7 0.268887 0.339599 0.840474
O O1 0.226979 0.810067 0.475978
O O2 0.032220 0.832073 0.964280
O O3 0.840579 0.086317 0.811680
O O4 0.932707 0.208277 0.769134
O O5 0.744244 0.718368 0.544862
O O6 0.766013 0.657967 0.279457
O O7 0.657629 0.018866 0.256364
O O8 0.046781 0.552000 0.082688
O O9 0.517239 0.265569 0.027610
O O10 0.466538 0.457945 0.202834
O O11 0.407823 0.078302 0.918839
O O12 0.710725 0.606402 0.936080
O O13 0.368510 0.615143 0.737862
O O14 0.624348 0.597519 0.357142
#
# Coordination Sequence:
#
# PCOD8039679 Si02
#       7
#     2   2   2   2   2   2   2
#     4  10  22  42  61  79 115 164 200 227 284 358
#     4  10  18  34  59  88 125 150 184 235 296 351
#     4  10  19  35  64  89 112 152 194 235 290 345
#     4  11  21  38  59  94 122 143 187 252 292 334
#     4  11  19  37  64  85 110 156 203 232 280 352
#     4  10  25  41  59  83 120 157 194 238 294 340
#     4  10  19  33  62  90 115 153 194 231 292 347
#
# _framework density 26.640885999999998
#
# number of rings (size 3 to 8) (size 9 to 14) (size 15 to 20)
#    0.000    1.714    4.286    1.286    0.000    3.429 
#    0.000    2.857    0.000    0.000    0.000    0.000 
#    0.000    0.000    0.000    0.000    0.000    0.000 
#
# Total GULP energy -173634.087623 kJ/mol
# GULP energy per Si atom -12402.434830 kJ/mol
# Density = 2.658025 g / cm^3
# Si number density = 26.640886 Si / 1000 Ang^3
#
#
#
# Elastic Constant Matrix: (Units=GPa)
#
#
# Indices 1 2 3 4 5 6 
#
# 1 38.4358 15.9031 2.3635 8.2286 -18.2913 7.1289
# 2 15.9031 130.5379 23.0684 23.3151 0.9551 0.8345
# 3 2.3635 23.0684 83.5136 40.4743 -3.9377 0.6016
# 4 8.2286 23.3151 40.4743 48.6903 -2.6619 13.6945
# 5 -18.2913 0.9551 -3.9377 -2.6619 24.0362 -1.5374
# 6 7.1289 0.8345 0.6016 13.6945 -1.5374 47.0208
#
#
#
# Elastic Compliance Matrix: (Units=1/GPa)
#
#
# Indices 1 2 3 4 5 6 
#
# 1 0.047442 -0.005785 0.005044 -0.006298 0.036197 -0.004137
# 2 -0.005785 0.009158 -0.001052 -0.003240 -0.005201 0.001502
# 3 0.005044 -0.001052 0.021826 -0.019550 0.005601 0.004852
# 4 -0.006298 -0.003240 -0.019550 0.042341 -0.003894 -0.011196
# 5 0.036197 -0.005201 0.005601 -0.003894 0.069711 -0.002054
# 6 -0.004137 0.001502 0.004852 -0.011196 -0.002054 0.024999
#
#
# Mechanical properties :
#
#
# Convention : Reuss Voigt Hill
#
# Bulk Modulus (GPa) = 13.36148 37.23971 25.30059
# Shear Modulus (GPa) = 20.49092 38.02629 29.25860
#
# Velocity S-wave (km/s) = 2.77637 3.78215 3.31759
# Velocity P-wave (km/s) = 3.91202 5.75166 4.91861
#
# Compressibility (1/GPa) = 0.07484203
#
# Stress axis : x y z
#
# Youngs Moduli (GPa) = 21.07819 109.18953 45.81733
#
# Poissons Ratio (x) = 0.63162 -0.23111
# Poissons Ratio (y) = 0.12193 0.04819
# Poissons Ratio (z) = -0.10632 0.11484
#
# Static dielectric constant tensor:
#      x y z
#    x 4.735810 0.272670 -0.023080 
#    y 0.272670 5.018130 0.321290 
#    z -0.023080 0.321290 4.583170 
# 
# 
# High freq. dielectric constant tensor:
#      x y z
#    x 2.067270 0.004540 0.000210 
#    y 0.004540 2.086690 0.013780 
#    z 0.000210 0.013780 2.062230 
# 
# From -- ./inp_files/255413.got.cif
#   From: 2010.06.25/outbox.cif.g09.slc.cpg/sg2_128_cif.got.tgz:255413.got - 2010.06.27 13:26:56.
