data_PCOD8039306
_publ_section_title
;
Structure prediction by ZEFSAII (Michael W. Deem and Ramdas Pophale) SiO2 
 PCOD8039306
Probable space group: P -1
;
_chemical_formula_sum "Si O2"
_cell_formula_units_Z 16
_cell_length_a 12.938194
_cell_length_b 8.263440
_cell_length_c 12.351793
_cell_angle_alpha 111.913564
_cell_angle_beta 99.775441
_cell_angle_gamma 32.868010
_cell_volume 637.256844
_symmetry_space_group_name_H-M "P -1"
_symmetry_group_IT_number 2
_symmetry_cell_setting 'triclinic'
loop_
_space_group_symop_operation_xyz
x,y,z
-x,-y,-z
loop_
_atom_site_type_symbol
_atom_site_label
_atom_site_fract_x
_atom_site_fract_y
_atom_site_fract_z
Si Si1 0.029592 0.191795 0.843613
Si Si2 0.390501 0.902178 0.072104
Si Si3 0.369788 0.628221 0.408445
Si Si4 0.282341 0.376128 0.280297
Si Si5 0.050072 0.621374 0.502710
Si Si6 0.389356 0.628531 0.174032
Si Si7 0.079203 0.492735 0.884100
Si Si8 0.082053 0.740168 0.757155
O O1 0.898473 0.308457 0.749646
O O2 0.164631 0.170661 0.825327
O O3 0.887967 0.452066 0.983429
O O4 0.153358 0.842228 0.813921
O O5 0.475056 0.659201 0.121272
O O6 0.431145 0.042263 0.154826
O O7 0.155883 0.205433 0.095890
O O8 0.502418 0.703301 0.929494
O O9 0.500000 0.500000 0.500000
O O10 0.396359 0.383486 0.343487
O O11 0.445354 0.599761 0.300328
O O12 0.142166 0.004306 0.482643
O O13 0.203658 0.383342 0.372768
O O14 0.152756 0.576247 0.610618
O O15 0.000000 0.500000 0.500000
O O16 0.155613 0.929803 0.196204
O O17 0.168050 0.485508 0.800538
#
# Coordination Sequence:
#
# PCOD8039306 Si02
#       8
#     2   2   2   2   2   2   2   2
#     4  10  18  33  56  83 117 151 195 252 309 372
#     4   9  19  36  63  82 118 156 203 258 308 379
#     4  11  24  41  63  91 129 165 210 265 311 378
#     4  11  21  39  64  90 120 167 213 255 321 377
#     4  11  22  41  67  90 121 168 215 263 316 383
#     4   9  18  38  58  86 114 163 200 246 320 371
#     4   9  19  32  53  89 116 150 193 254 312 369
#     4  10  19  36  58  82 122 159 200 253 316 380
#
# _framework density 25.107617999999999
#
# number of rings (size 3 to 8) (size 9 to 14) (size 15 to 20)
#    0.000    2.000    2.500    3.750    0.000    1.500 
#    0.000    3.750    5.500    0.000    0.000    0.000 
#    0.000    0.000    0.000    0.000    0.000    0.000 
#
# Total GULP energy -198305.831632 kJ/mol
# GULP energy per Si atom -12394.114477 kJ/mol
# Density = 2.505047 g / cm^3
# Si number density = 25.107618 Si / 1000 Ang^3
#
#
#
# Elastic Constant Matrix: (Units=GPa)
#
#
# Indices 1 2 3 4 5 6 
#
# 1 71.5892 33.5997 24.2987 -14.2988 28.9070 38.1189
# 2 33.5997 51.0213 31.1097 -13.9457 3.6259 28.8583
# 3 24.2987 31.1097 138.6148 -20.8035 18.9017 9.0843
# 4 -14.2988 -13.9457 -20.8035 44.9454 10.2192 -0.6098
# 5 28.9070 3.6259 18.9017 10.2192 42.4485 8.6027
# 6 38.1189 28.8583 9.0843 -0.6098 8.6027 39.6724
#
#
#
# Elastic Compliance Matrix: (Units=1/GPa)
#
#
# Indices 1 2 3 4 5 6 
#
# 1 0.064113 -0.005877 0.003299 0.028933 -0.041746 -0.048586
# 2 -0.005877 0.043763 -0.007093 0.006449 0.007142 -0.026012
# 3 0.003299 -0.007093 0.009954 0.005208 -0.007619 0.001442
# 4 0.028933 0.006449 0.005208 0.041658 -0.027096 -0.027168
# 5 -0.041746 0.007142 -0.007619 -0.027096 0.056427 0.024009
# 6 -0.048586 -0.026012 0.001442 -0.027168 0.024009 0.084857
#
#
# Mechanical properties :
#
#
# Convention : Reuss Voigt Hill
#
# Bulk Modulus (GPa) = 10.15349 48.80461 29.47905
# Shear Modulus (GPa) = 14.16661 36.89441 25.53051
#
# Velocity S-wave (km/s) = 2.37794 3.83750 3.19226
# Velocity P-wave (km/s) = 3.40474 6.25424 5.03527
#
# Compressibility (1/GPa) = 0.09848829
#
# Stress axis : x y z
#
# Youngs Moduli (GPa) = 15.59741 22.85045 100.46392
#
# Poissons Ratio (x) = 0.13430 -0.33146
# Poissons Ratio (y) = 0.09167 0.71256
# Poissons Ratio (z) = -0.05146 0.16207
#
# Static dielectric constant tensor:
#      x y z
#    x 4.312150 0.623590 0.067600 
#    y 0.623590 4.653280 -0.041570 
#    z 0.067600 -0.041570 4.963630 
# 
# 
# High freq. dielectric constant tensor:
#      x y z
#    x 1.978360 0.036520 0.011430 
#    y 0.036520 1.988080 -0.012280 
#    z 0.011430 -0.012280 2.012930 
# 
# From -- ./inp_files/446331.got.cif
#   From: 2010.06.25/outbox.cif.g09.slc.cpg/sg2_224_cif.got.tgz:446331.got - 2010.06.27 13:26:56.
