data_PCOD8039029
_publ_section_title
;
Structure prediction by ZEFSAII (Michael W. Deem and Ramdas Pophale) SiO2 
 PCOD8039029
Probable space group: P -1
;
_chemical_formula_sum "Si O2"
_cell_formula_units_Z 16
_cell_length_a 13.903806
_cell_length_b 9.271166
_cell_length_c 18.201427
_cell_angle_alpha 131.444382
_cell_angle_beta 136.546164
_cell_angle_gamma 84.396851
_cell_volume 810.116104
_symmetry_space_group_name_H-M "P -1"
_symmetry_group_IT_number 2
_symmetry_cell_setting 'triclinic'
loop_
_space_group_symop_operation_xyz
x,y,z
-x,-y,-z
loop_
_atom_site_type_symbol
_atom_site_label
_atom_site_fract_x
_atom_site_fract_y
_atom_site_fract_z
Si Si1 0.015229 0.991635 0.400120
Si Si2 0.734243 0.782344 0.524887
Si Si3 0.686567 0.355412 0.963999
Si Si4 0.325701 0.503157 0.157934
Si Si5 0.077958 0.778967 0.968172
Si Si6 0.932827 0.914624 0.818947
Si Si7 0.810844 0.302580 0.771292
Si Si8 0.678742 0.810686 0.239458
O O1 0.870360 0.023702 0.358779
O O2 0.093521 0.116153 0.403363
O O3 0.219955 0.175985 0.626251
O O4 0.870332 0.650911 0.211411
O O5 0.500968 0.519516 0.275440
O O6 0.747951 0.023465 0.626621
O O7 0.755240 0.691541 0.583682
O O8 0.688964 0.467387 0.925663
O O9 0.732220 0.175457 0.922789
O O10 0.451526 0.129152 0.791956
O O11 0.370881 0.750487 0.310742
O O12 0.110338 0.199410 0.965896
O O13 0.154721 0.031404 0.148543
O O14 0.880720 0.466893 0.787944
O O15 0.008528 0.793476 0.855977
O O16 0.000000 0.500000 0.000000
O O17 0.500000 0.500000 0.000000
#
# Coordination Sequence:
#
# PCOD8039029 Si02
#       8
#     2   2   2   2   2   2   2   2
#     4  10  18  32  53  82 107 133 167 223 279 312
#     4  12  19  32  56  77 105 143 178 218 265 314
#     4  11  17  33  55  82 104 134 181 220 263 307
#     4  11  20  31  52  81 105 141 181 215 257 312
#     4  10  19  34  57  72 111 155 173 217 261 302
#     4  10  21  37  48  75 117 149 181 210 255 310
#     4  11  17  33  52  77 107 138 177 222 261 302
#     4   9  20  32  51  84 110 126 164 228 279 322
#
# _framework density 19.750254000000002
#
# number of rings (size 3 to 8) (size 9 to 14) (size 15 to 20)
#    0.000    1.500    7.500    0.375    0.000    0.000 
#    0.000    8.125    0.000    0.750    0.000    5.250 
#    0.000    0.000    0.000    0.000    0.000    0.000 
#
# Total GULP energy -198239.480105 kJ/mol
# GULP energy per Si atom -12389.967507 kJ/mol
# Density = 1.970530 g / cm^3
# Si number density = 19.750254 Si / 1000 Ang^3
#
#
#
# Elastic Constant Matrix: (Units=GPa)
#
#
# Indices 1 2 3 4 5 6 
#
# 1 129.9224 33.6566 37.5738 -23.5556 27.8659 0.0121
# 2 33.6566 88.0756 29.2744 -37.1285 2.1676 2.8541
# 3 37.5738 29.2744 78.5264 -33.2436 6.0569 -1.4337
# 4 -23.5556 -37.1285 -33.2436 30.4915 -2.0626 -1.8916
# 5 27.8659 2.1676 6.0569 -2.0626 33.0308 -10.6802
# 6 0.0121 2.8541 -1.4337 -1.8916 -10.6802 17.3871
#
#
#
# Elastic Compliance Matrix: (Units=1/GPa)
#
#
# Indices 1 2 3 4 5 6 
#
# 1 0.012039 -0.002325 -0.003532 0.001421 -0.011468 -0.006808
# 2 -0.002325 0.025524 0.007389 0.037562 0.001798 0.001612
# 3 -0.003532 0.007389 0.026942 0.036135 0.001758 0.006022
# 4 0.001421 0.037562 0.036135 0.119686 0.000454 0.010113
# 5 -0.011468 0.001798 0.001758 0.000454 0.049300 0.030190
# 6 -0.006808 0.001612 0.006022 0.010113 0.030190 0.077395
#
#
# Mechanical properties :
#
#
# Convention : Reuss Voigt Hill
#
# Bulk Modulus (GPa) = 14.79956 55.28156 35.04056
# Shear Modulus (GPa) = 15.13579 29.24984 22.19282
#
# Velocity S-wave (km/s) = 2.77132 3.85253 3.35576
# Velocity P-wave (km/s) = 4.21307 6.91668 5.72671
#
# Compressibility (1/GPa) = 0.06756957
#
# Stress axis : x y z
#
# Youngs Moduli (GPa) = 83.06670 39.17897 37.11698
#
# Poissons Ratio (x) = 0.09108 0.13110
# Poissons Ratio (y) = 0.19310 -0.27427
# Poissons Ratio (z) = 0.29339 -0.28951
#
# Static dielectric constant tensor:
#      x y z
#    x 4.228000 0.075500 0.202910 
#    y 0.075500 3.299350 -0.366910 
#    z 0.202910 -0.366910 3.965350 
# 
# 
# High freq. dielectric constant tensor:
#      x y z
#    x 1.783590 0.012820 0.010460 
#    y 0.012820 1.716610 -0.032770 
#    z 0.010460 -0.032770 1.769890 
# 
# From -- ./inp_files/514501.got.cif
#   From: 2010.06.25/outbox.cif.g09.slc.cpg/sg2_258_cif.got.tgz:514501.got - 2010.06.27 13:26:56.
