data_PCOD8039411
_publ_section_title
;
Structure prediction by ZEFSAII (Michael W. Deem and Ramdas Pophale) SiO2 
 PCOD8039411
Probable space group: P -1
;
_chemical_formula_sum "Si O2"
_cell_formula_units_Z 12
_cell_length_a 12.972997
_cell_length_b 9.229444
_cell_length_c 11.888961
_cell_angle_alpha 82.349845
_cell_angle_beta 122.365334
_cell_angle_gamma 50.645532
_cell_volume 641.736671
_symmetry_space_group_name_H-M "P -1"
_symmetry_group_IT_number 2
_symmetry_cell_setting 'triclinic'
loop_
_space_group_symop_operation_xyz
x,y,z
-x,-y,-z
loop_
_atom_site_type_symbol
_atom_site_label
_atom_site_fract_x
_atom_site_fract_y
_atom_site_fract_z
Si Si1 0.638162 0.303610 0.206205
Si Si2 0.043393 0.287980 0.288580
Si Si3 0.518853 0.808048 0.529758
Si Si4 0.095909 0.704951 0.564314
Si Si5 0.283114 0.290892 0.550903
Si Si6 0.634041 0.679331 0.845800
O O1 0.707553 0.370920 0.318674
O O2 0.478835 0.354284 0.173863
O O3 0.500000 0.500000 0.000000
O O4 0.870928 0.986707 0.338508
O O5 0.961609 0.261560 0.341152
O O6 0.086910 0.403664 0.356288
O O7 0.860008 0.489701 0.063259
O O8 0.270169 0.992515 0.392571
O O9 0.616049 0.679601 0.474383
O O10 0.687581 0.595536 0.753147
O O11 0.500000 0.000000 0.500000
O O12 0.181462 0.469142 0.583061
O O13 0.465856 0.987030 0.730008
#
# Coordination Sequence:
#
# PCOD8039411 Si02
#       6
#     2   2   2   2   2   2
#     4  11  22  37  56  81 109 147 182 221 271 327
#     4  10  18  33  60  81 107 145 178 220 269 320
#     4   8  18  35  53  80 112 144 176 220 268 321
#     4  11  22  37  57  81 112 141 182 228 272 317
#     4  10  22  36  55  86 113 137 178 233 272 310
#     4  10  19  35  60  81 108 144 187 216 266 327
#
# _framework density 18.699259000000001
#
# number of rings (size 3 to 8) (size 9 to 14) (size 15 to 20)
#    0.000    2.333    5.000    0.500    0.000    8.000 
#    0.000    0.833    0.000    2.000    0.000    0.000 
#    0.000    0.000    0.000    0.000    0.000    0.000 
#
# Total GULP energy -148674.513085 kJ/mol
# GULP energy per Si atom -12389.542757 kJ/mol
# Density = 1.865670 g / cm^3
# Si number density = 18.699259 Si / 1000 Ang^3
#
#
#
# Elastic Constant Matrix: (Units=GPa)
#
#
# Indices 1 2 3 4 5 6 
#
# 1 92.0990 32.7115 48.5156 8.0975 -10.2919 -6.6789
# 2 32.7115 31.4582 18.7651 1.0287 0.0965 5.6586
# 3 48.5156 18.7651 161.3605 8.5549 -6.7256 -1.0912
# 4 8.0975 1.0287 8.5549 14.6514 5.7928 -0.6580
# 5 -10.2919 0.0965 -6.7256 5.7928 34.9722 4.5984
# 6 -6.6789 5.6586 -1.0912 -0.6580 4.5984 18.5844
#
#
#
# Elastic Compliance Matrix: (Units=1/GPa)
#
#
# Indices 1 2 3 4 5 6 
#
# 1 0.024686 -0.025872 -0.003406 -0.011855 0.006743 0.014461
# 2 -0.025872 0.063534 -0.000665 0.011523 -0.006313 -0.026712
# 3 -0.003406 -0.000665 0.007490 -0.002899 0.001044 -0.000943
# 4 -0.011855 0.011523 -0.002899 0.082652 -0.017685 -0.000637
# 5 0.006743 -0.006313 0.001044 -0.017685 0.034346 -0.004717
# 6 0.014461 -0.026712 -0.000943 -0.000637 -0.004717 0.068228
#
#
# Mechanical properties :
#
#
# Convention : Reuss Voigt Hill
#
# Bulk Modulus (GPa) = 27.91345 53.87801 40.89573
# Shear Modulus (GPa) = 14.17385 25.96997 20.07191
#
# Velocity S-wave (km/s) = 2.75615 3.73074 3.27984
# Velocity P-wave (km/s) = 5.00884 6.88718 6.02170
#
# Compressibility (1/GPa) = 0.03582502
#
# Stress axis : x y z
#
# Youngs Moduli (GPa) = 40.50927 15.73952 133.51983
#
# Poissons Ratio (x) = 0.40721 0.45478
# Poissons Ratio (y) = 1.04804 0.08873
# Poissons Ratio (z) = 0.13798 0.01046
#
# Static dielectric constant tensor:
#      x y z
#    x 4.452790 -0.484430 -0.242390 
#    y -0.484430 3.309470 0.123120 
#    z -0.242390 0.123120 3.725170 
# 
# 
# High freq. dielectric constant tensor:
#      x y z
#    x 1.746530 -0.001810 -0.004630 
#    y -0.001810 1.676420 0.008110 
#    z -0.004630 0.008110 1.731650 
# 
# From -- ./inp_files/249116.got.cif
#   From: 2010.06.25/outbox.cif.g09.slc.cpg/sg2_125_cif.got.tgz:249116.got - 2010.06.27 13:26:56.
