data_PCOD8039064
_publ_section_title
;
Structure prediction by ZEFSAII (Michael W. Deem and Ramdas Pophale) SiO2 
 PCOD8039064
Probable space group: P -1
;
_chemical_formula_sum "Si O2"
_cell_formula_units_Z 16
_cell_length_a 11.473378
_cell_length_b 8.538005
_cell_length_c 12.546632
_cell_angle_alpha 63.226925
_cell_angle_beta 59.771821
_cell_angle_gamma 53.757751
_cell_volume 835.636385
_symmetry_space_group_name_H-M "P -1"
_symmetry_group_IT_number 2
_symmetry_cell_setting 'triclinic'
loop_
_space_group_symop_operation_xyz
x,y,z
-x,-y,-z
loop_
_atom_site_type_symbol
_atom_site_label
_atom_site_fract_x
_atom_site_fract_y
_atom_site_fract_z
Si Si1 0.106801 0.564530 0.498219
Si Si2 0.677056 0.565259 0.871023
Si Si3 0.682242 0.870501 0.456931
Si Si4 0.850088 0.112908 0.913023
Si Si5 0.450965 0.506067 0.845941
Si Si6 0.200224 0.919840 0.820776
Si Si7 0.809520 0.838117 0.641997
Si Si8 0.732496 0.193289 0.722217
O O1 0.259399 0.363850 0.523895
O O2 0.161951 0.698240 0.365260
O O3 0.000000 0.500000 0.500000
O O4 0.994839 0.700943 0.602315
O O5 0.817333 0.341228 0.870799
O O6 0.552155 0.592657 0.831463
O O7 0.733867 0.724881 0.774057
O O8 0.601172 0.608419 0.009686
O O9 0.746434 0.894549 0.533737
O O10 0.500000 0.000000 0.500000
O O11 0.753637 0.937246 0.308050
O O12 0.765974 0.086939 0.855376
O O13 0.784161 0.055868 0.066157
O O14 0.028416 0.968208 0.859824
O O15 0.306751 0.692857 0.802912
O O16 0.551930 0.353627 0.753440
O O17 0.767765 0.043600 0.655758
#
# Coordination Sequence:
#
# PCOD8039064 Si02
#       8
#     2   2   2   2   2   2   2   2
#     4  10  20  36  57  77 104 143 184 218 250 312
#     4   9  17  34  55  79 100 138 185 216 255 304
#     4  11  21  35  56  79 106 139 178 217 258 318
#     4   9  18  33  58  78 101 134 177 225 256 310
#     4   9  18  33  56  76 106 138 175 222 256 315
#     4  10  18  32  55  81 101 133 180 218 259 303
#     4  11  22  35  56  80 109 140 176 222 265 314
#     4  11  21  36  54  81 109 138 177 221 273 307
#
# _framework density 19.147082999999999
#
# number of rings (size 3 to 8) (size 9 to 14) (size 15 to 20)
#    0.000    2.000    0.000    7.875    0.000    0.500 
#    0.000    3.750    0.000   12.000    0.000    0.000 
#    0.000    0.000    0.000    0.000    0.000    0.000 
#
# Total GULP energy -198323.293730 kJ/mol
# GULP energy per Si atom -12395.205858 kJ/mol
# Density = 1.910350 g / cm^3
# Si number density = 19.147083 Si / 1000 Ang^3
#
#
#
# Elastic Constant Matrix: (Units=GPa)
#
#
# Indices 1 2 3 4 5 6 
#
# 1 52.9164 52.9965 37.5773 3.5858 -0.9548 -12.3841
# 2 52.9965 152.8804 51.7291 22.8177 -1.9458 -18.7305
# 3 37.5773 51.7291 114.9790 3.3069 -10.1995 10.4480
# 4 3.5858 22.8177 3.3069 33.3916 -5.6692 -5.5512
# 5 -0.9548 -1.9458 -10.1995 -5.6692 22.5540 4.0588
# 6 -12.3841 -18.7305 10.4480 -5.5512 4.0588 31.4901
#
#
#
# Elastic Compliance Matrix: (Units=1/GPa)
#
#
# Indices 1 2 3 4 5 6 
#
# 1 0.037978 -0.008486 -0.010555 0.004304 -0.005489 0.014856
# 2 -0.008486 0.011997 -0.003072 -0.006851 -0.003159 0.004017
# 3 -0.010555 -0.003072 0.015354 0.001195 0.008688 -0.011982
# 4 0.004304 -0.006851 0.001195 0.035934 0.008727 0.002431
# 5 -0.005489 -0.003159 0.008688 0.008727 0.052134 -0.012101
# 6 0.014856 0.004017 -0.011982 0.002431 -0.012101 0.045951
#
#
# Mechanical properties :
#
#
# Convention : Reuss Voigt Hill
#
# Bulk Modulus (GPa) = 47.38683 67.26465 57.32574
# Shear Modulus (GPa) = 19.95155 29.38534 24.66844
#
# Velocity S-wave (km/s) = 3.23153 3.92180 3.59327
# Velocity P-wave (km/s) = 6.22304 7.46419 6.87169
#
# Compressibility (1/GPa) = 0.02110291
#
# Stress axis : x y z
#
# Youngs Moduli (GPa) = 26.33127 83.35651 65.12979
#
# Poissons Ratio (x) = 0.70735 0.68742
# Poissons Ratio (y) = 0.22344 0.20009
# Poissons Ratio (z) = 0.27792 0.25609
#
# Static dielectric constant tensor:
#      x y z
#    x 3.189800 -0.436200 -0.138080 
#    y -0.436200 3.880370 0.134460 
#    z -0.138080 0.134460 3.718790 
# 
# 
# High freq. dielectric constant tensor:
#      x y z
#    x 1.700450 -0.034270 -0.016450 
#    y -0.034270 1.751920 0.007920 
#    z -0.016450 0.007920 1.759600 
# 
# From -- ./inp_files/251601.got.cif
#   From: 2010.06.25/outbox.cif.g09.slc.cpg/sg2_126_cif.got.tgz:251601.got - 2010.06.27 13:26:56.
