data_PCOD8039581
_publ_section_title
;
Structure prediction by ZEFSAII (Michael W. Deem and Ramdas Pophale) SiO2 
 PCOD8039581
Probable space group: P -1
;
_chemical_formula_sum "Si O2"
_cell_formula_units_Z 16
_cell_length_a 11.493732
_cell_length_b 9.381325
_cell_length_c 11.022093
_cell_angle_alpha 124.157684
_cell_angle_beta 53.026831
_cell_angle_gamma 116.725170
_cell_volume 774.338736
_symmetry_space_group_name_H-M "P -1"
_symmetry_group_IT_number 2
_symmetry_cell_setting 'triclinic'
loop_
_space_group_symop_operation_xyz
x,y,z
-x,-y,-z
loop_
_atom_site_type_symbol
_atom_site_label
_atom_site_fract_x
_atom_site_fract_y
_atom_site_fract_z
Si Si1 0.386107 0.353227 0.437248
Si Si2 0.192593 0.782744 0.178301
Si Si3 0.622664 0.883027 0.155108
Si Si4 0.507848 0.798593 0.937237
Si Si5 0.115692 0.437339 0.759421
Si Si6 0.858248 0.155183 0.020988
Si Si7 0.823937 0.830185 0.204631
Si Si8 0.680315 0.008282 0.576312
O O1 0.500000 0.500000 0.500000
O O2 0.427988 0.318343 0.257085
O O3 0.223600 0.407093 0.566684
O O4 0.394366 0.182091 0.426539
O O5 0.175120 0.900996 0.126168
O O6 0.209480 0.902196 0.345317
O O7 0.051808 0.630591 0.210307
O O8 0.341972 0.702705 0.027025
O O9 0.700837 0.773192 0.150578
O O10 0.460436 0.897550 0.315758
O O11 0.607091 0.789080 0.989658
O O12 0.732898 0.067779 0.151295
O O13 0.500000 0.000000 0.000000
O O14 0.162363 0.334042 0.797499
O O15 0.134748 0.637209 0.879846
O O16 0.017770 0.104182 0.927591
O O17 0.775903 0.992046 0.387701
#
# Coordination Sequence:
#
# PCOD8039581 Si02
#       8
#     2   2   2   2   2   2   2   2
#     4  11  20  34  58  89 114 146 195 239 284 336
#     4  10  18  34  57  82 111 144 195 237 276 328
#     4  11  20  36  60  83 115 146 191 237 282 346
#     4  11  19  36  59  89 109 151 194 241 281 333
#     4  10  23  36  58  85 116 151 190 239 289 333
#     4  11  20  37  58  82 113 152 193 236 284 336
#     4  10  22  34  54  86 114 149 186 234 290 341
#     4  10  20  35  55  84 114 148 187 239 285 335
#
# _framework density 20.662792
#
# number of rings (size 3 to 8) (size 9 to 14) (size 15 to 20)
#    0.000    1.500    3.750    3.750    0.000    6.500 
#    0.000    0.000    0.000   34.500    0.000    0.000 
#    0.000    0.000    0.000    0.000    0.000    0.000 
#
# Total GULP energy -198304.701739 kJ/mol
# GULP energy per Si atom -12394.043859 kJ/mol
# Density = 2.061576 g / cm^3
# Si number density = 20.662792 Si / 1000 Ang^3
#
#
#
# Elastic Constant Matrix: (Units=GPa)
#
#
# Indices 1 2 3 4 5 6 
#
# 1 152.8721 37.1599 66.6799 2.1546 2.1755 10.8497
# 2 37.1599 65.0420 28.4557 -0.1799 -0.6001 19.8743
# 3 66.6799 28.4557 157.1171 -11.1661 -1.5637 9.6778
# 4 2.1546 -0.1799 -11.1661 19.5593 8.1746 -1.8095
# 5 2.1755 -0.6001 -1.5637 8.1746 33.2090 -6.3443
# 6 10.8497 19.8743 9.6778 -1.8095 -6.3443 23.4800
#
#
#
# Elastic Compliance Matrix: (Units=1/GPa)
#
#
# Indices 1 2 3 4 5 6 
#
# 1 0.008924 -0.003689 -0.003332 -0.002876 -0.000075 0.000130
# 2 -0.003689 0.023893 -0.001708 -0.000928 -0.002737 -0.018627
# 3 -0.003332 -0.001708 0.008491 0.005517 -0.000831 -0.000314
# 4 -0.002876 -0.000928 0.005517 0.060652 -0.014378 0.000629
# 5 -0.000075 -0.002737 -0.000831 -0.014378 0.035715 0.011236
# 6 0.000130 -0.018627 -0.000314 0.000629 0.011236 0.061509
#
#
# Mechanical properties :
#
#
# Convention : Reuss Voigt Hill
#
# Bulk Modulus (GPa) = 41.92785 71.06913 56.49849
# Shear Modulus (GPa) = 22.26257 31.43204 26.84730
#
# Velocity S-wave (km/s) = 3.28597 3.90448 3.60850
# Velocity P-wave (km/s) = 5.89342 7.40243 6.69060
#
# Compressibility (1/GPa) = 0.02385049
#
# Stress axis : x y z
#
# Youngs Moduli (GPa) = 112.05733 41.85306 117.76711
#
# Poissons Ratio (x) = 0.15440 0.39244
# Poissons Ratio (y) = 0.41339 0.20109
# Poissons Ratio (z) = 0.37341 0.07147
#
# Static dielectric constant tensor:
#      x y z
#    x 3.906520 0.335360 -0.087510 
#    y 0.335360 3.501490 -0.105340 
#    z -0.087510 -0.105340 5.414190 
# 
# 
# High freq. dielectric constant tensor:
#      x y z
#    x 1.811650 0.027160 -0.005200 
#    y 0.027160 1.771800 -0.016650 
#    z -0.005200 -0.016650 1.818900 
# 
# From -- ./inp_files/419913.got.cif
#   From: 2010.06.25/outbox.cif.g09.slc.cpg/sg2_210_cif.got.tgz:419913.got - 2010.06.27 13:26:56.
