data_PCOD8039803
_publ_section_title
;
Structure prediction by ZEFSAII (Michael W. Deem and Ramdas Pophale) SiO2 
 PCOD8039803
Probable space group: P -1
;
_chemical_formula_sum "Si O2"
_cell_formula_units_Z 14
_cell_length_a 13.906581
_cell_length_b 13.555248
_cell_length_c 12.393702
_cell_angle_alpha 130.901371
_cell_angle_beta 139.030233
_cell_angle_gamma 29.795072
_cell_volume 761.160016
_symmetry_space_group_name_H-M "P -1"
_symmetry_group_IT_number 2
_symmetry_cell_setting 'triclinic'
loop_
_space_group_symop_operation_xyz
x,y,z
-x,-y,-z
loop_
_atom_site_type_symbol
_atom_site_label
_atom_site_fract_x
_atom_site_fract_y
_atom_site_fract_z
Si Si1 0.154522 0.035601 0.032167
Si Si2 0.720574 0.205233 0.844600
Si Si3 0.275349 0.660262 0.491643
Si Si4 0.404984 0.112390 0.386634
Si Si5 0.923254 0.004001 0.293336
Si Si6 0.153544 0.076398 0.424000
Si Si7 0.741025 0.506147 0.442243
O O1 0.253454 0.109684 0.195703
O O2 0.281972 0.832518 0.058215
O O3 0.188632 0.986044 0.898679
O O4 0.890922 0.209098 0.964959
O O5 0.476371 0.406268 0.739854
O O6 0.814731 0.010450 0.728241
O O7 0.500000 0.500000 0.500000
O O8 0.256525 0.547259 0.471558
O O9 0.061188 0.803088 0.332685
O O10 0.269294 0.798645 0.656176
O O11 0.254662 0.340681 0.443635
O O12 0.500000 0.000000 0.500000
O O13 0.613769 0.007836 0.410224
O O14 0.100988 0.998832 0.410206
O O15 0.955645 0.314327 0.420449
#
# Coordination Sequence:
#
# PCOD8039803 Si02
#       7
#     2   2   2   2   2   2   2
#     4  10  18  35  54  78 114 142 175 218 274 313
#     4   9  18  35  54  76 111 142 174 227 265 307
#     4  10  18  35  60  80 100 135 185 227 269 313
#     4  11  20  35  53  77 115 154 172 211 265 322
#     4   9  20  35  57  80 105 138 177 231 267 306
#     4   9  18  35  54  79 109 142 184 213 260 324
#     4  10  20  35  57  81 105 144 185 216 265 323
#
# _framework density 18.392979
#
# number of rings (size 3 to 8) (size 9 to 14) (size 15 to 20)
#    0.000    2.286    2.857    2.571    0.000    0.571 
#    0.000   19.286    0.000   12.000    0.000    0.000 
#    0.000    0.000    0.000    0.000    0.000    0.000 
#
# Total GULP energy -173542.066087 kJ/mol
# GULP energy per Si atom -12395.861863 kJ/mol
# Density = 1.835112 g / cm^3
# Si number density = 18.392979 Si / 1000 Ang^3
#
#
#
# Elastic Constant Matrix: (Units=GPa)
#
#
# Indices 1 2 3 4 5 6 
#
# 1 51.4703 28.5968 40.4299 -3.1126 0.6911 5.3104
# 2 28.5968 114.3027 37.3207 -2.5754 -1.5104 -0.4257
# 3 40.4299 37.3207 124.6642 -5.0515 6.7497 2.9754
# 4 -3.1126 -2.5754 -5.0515 18.5166 1.9397 -3.8416
# 5 0.6911 -1.5104 6.7497 1.9397 46.3377 -6.3420
# 6 5.3104 -0.4257 2.9754 -3.8416 -6.3420 35.6924
#
#
#
# Elastic Compliance Matrix: (Units=1/GPa)
#
#
# Indices 1 2 3 4 5 6 
#
# 1 0.028490 -0.004587 -0.007731 0.001313 0.000017 -0.003505
# 2 -0.004587 0.010476 -0.001704 0.000372 0.000797 0.001131
# 3 -0.007731 -0.001704 0.011194 0.001707 -0.001630 0.000091
# 4 0.001313 0.000372 0.001707 0.056053 -0.001868 0.005368
# 5 0.000017 0.000797 -0.001630 -0.001868 0.022460 0.003933
# 6 -0.003505 0.001131 0.000091 0.005368 0.003933 0.029821
#
#
# Mechanical properties :
#
#
# Convention : Reuss Voigt Hill
#
# Bulk Modulus (GPa) = 45.21273 55.90354 50.55813
# Shear Modulus (GPa) = 25.78527 32.38200 29.08364
#
# Velocity S-wave (km/s) = 3.74827 4.20046 3.98079
# Velocity P-wave (km/s) = 6.58541 7.34745 6.97684
#
# Compressibility (1/GPa) = 0.02211766
#
# Stress axis : x y z
#
# Youngs Moduli (GPa) = 35.09958 95.45936 89.33457
#
# Poissons Ratio (x) = 0.43787 0.69061
# Poissons Ratio (y) = 0.16100 0.15219
# Poissons Ratio (z) = 0.27134 0.16262
#
# Static dielectric constant tensor:
#      x y z
#    x 3.601490 -0.082070 0.008400 
#    y -0.082070 3.404590 -0.077530 
#    z 0.008400 -0.077530 3.381090 
# 
# 
# High freq. dielectric constant tensor:
#      x y z
#    x 1.710040 -0.000610 -0.011330 
#    y -0.000610 1.709870 -0.007440 
#    z -0.011330 -0.007440 1.695300 
# 
# From -- ./inp_files/349617.got.cif
#   From: 2010.06.25/outbox.cif.g09.slc.cpg/sg2_175_cif.got.tgz:349617.got - 2010.06.27 13:26:56.
