data_PCOD8039595
_publ_section_title
;
Structure prediction by ZEFSAII (Michael W. Deem and Ramdas Pophale) SiO2 
 PCOD8039595
Probable space group: P -1
;
_chemical_formula_sum "Si O2"
_cell_formula_units_Z 16
_cell_length_a 11.087362
_cell_length_b 16.693027
_cell_length_c 9.467850
_cell_angle_alpha 143.947080
_cell_angle_beta 109.566670
_cell_angle_gamma 49.906904
_cell_volume 718.645873
_symmetry_space_group_name_H-M "P -1"
_symmetry_group_IT_number 2
_symmetry_cell_setting 'triclinic'
loop_
_space_group_symop_operation_xyz
x,y,z
-x,-y,-z
loop_
_atom_site_type_symbol
_atom_site_label
_atom_site_fract_x
_atom_site_fract_y
_atom_site_fract_z
Si Si1 0.603572 0.576687 0.788607
Si Si2 0.682545 0.834549 0.675658
Si Si3 0.776881 0.210230 0.053147
Si Si4 0.201677 0.876043 0.368937
Si Si5 0.076385 0.113277 0.160473
Si Si6 0.511513 0.133822 0.612407
Si Si7 0.410768 0.261195 0.247646
Si Si8 0.690437 0.235856 0.441298
O O1 0.414772 0.664415 0.778447
O O2 0.688191 0.607477 0.740926
O O3 0.722577 0.362545 0.567824
O O4 0.574017 0.687178 0.073356
O O5 0.865872 0.773393 0.624770
O O6 0.609390 0.787892 0.460981
O O7 0.716505 0.726552 0.678929
O O8 0.551861 0.053330 0.952230
O O9 0.875448 0.264622 0.247049
O O10 0.766467 0.238320 0.920611
O O11 0.890167 0.995471 0.837049
O O12 0.289349 0.963052 0.489545
O O13 0.299662 0.753733 0.371229
O O14 0.000000 0.000000 0.500000
O O15 0.173834 0.969629 0.861354
O O16 0.500000 0.000000 0.500000
O O17 0.496994 0.323113 0.456809
#
# Coordination Sequence:
#
# PCOD8039595 Si02
#       8
#     2   2   2   2   2   2   2   2
#     4  11  22  36  59  90 115 154 192 243 297 344
#     4  10  18  34  57  85 113 149 197 240 279 342
#     4  10  20  35  55  89 117 146 197 239 291 335
#     4  11  22  37  59  90 117 157 195 245 297 346
#     4  10  20  36  60  90 112 151 193 245 290 343
#     4  11  21  37  57  90 120 152 197 246 288 351
#     4  10  19  33  55  86 114 145 193 240 280 338
#     4  11  21  37  57  88 120 150 192 242 298 351
#
# _framework density 22.264092999999999
#
# number of rings (size 3 to 8) (size 9 to 14) (size 15 to 20)
#    0.000    1.500    6.250    1.125    0.000    2.000 
#    0.000    0.000    0.000    1.500    9.750    0.000 
#    0.000    0.000    0.000    0.000    0.000    0.000 
#
# Total GULP energy -198209.347769 kJ/mol
# GULP energy per Si atom -12388.084236 kJ/mol
# Density = 2.221342 g / cm^3
# Si number density = 22.264093 Si / 1000 Ang^3
#
#
#
# Elastic Constant Matrix: (Units=GPa)
#
#
# Indices 1 2 3 4 5 6 
#
# 1 132.4969 39.7556 23.8936 -16.7706 26.5205 6.9224
# 2 39.7556 112.3701 36.2451 -32.9479 8.8287 24.6249
# 3 23.8936 36.2451 62.1031 -12.1615 11.2802 -1.9773
# 4 -16.7706 -32.9479 -12.1615 31.0321 3.4750 6.8229
# 5 26.5205 8.8287 11.2802 3.4750 25.7510 -6.3704
# 6 6.9224 24.6249 -1.9773 6.8229 -6.3704 40.3852
#
#
#
# Elastic Compliance Matrix: (Units=1/GPa)
#
#
# Indices 1 2 3 4 5 6 
#
# 1 0.012630 0.003792 -0.001231 0.014574 -0.018176 -0.009867
# 2 0.003792 0.030640 -0.007964 0.040826 -0.023951 -0.030398
# 3 -0.001231 -0.007964 0.021859 -0.001373 -0.003971 0.005743
# 4 0.014574 0.040826 -0.001373 0.100781 -0.055163 -0.053187
# 5 -0.018176 -0.023951 -0.003971 -0.055163 0.084902 0.040238
# 6 -0.009867 -0.030398 0.005743 -0.053187 0.040238 0.060602
#
#
# Mechanical properties :
#
#
# Convention : Reuss Voigt Hill
#
# Bulk Modulus (GPa) = 18.40833 56.30653 37.35743
# Shear Modulus (GPa) = 14.69172 33.23871 23.96521
#
# Velocity S-wave (km/s) = 2.57161 3.86804 3.28442
# Velocity P-wave (km/s) = 4.13566 6.73009 5.58560
#
# Compressibility (1/GPa) = 0.05432325
#
# Stress axis : x y z
#
# Youngs Moduli (GPa) = 79.17826 32.63698 45.74693
#
# Poissons Ratio (x) = -0.12377 0.05633
# Poissons Ratio (y) = -0.30028 0.36433
# Poissons Ratio (z) = 0.09749 0.25992
#
# Static dielectric constant tensor:
#      x y z
#    x 4.504560 0.110300 0.239540 
#    y 0.110300 4.098640 -0.427170 
#    z 0.239540 -0.427170 3.748350 
# 
# 
# High freq. dielectric constant tensor:
#      x y z
#    x 1.882780 0.016590 0.010330 
#    y 0.016590 1.873770 -0.032920 
#    z 0.010330 -0.032920 1.844510 
# 
# From -- ./inp_files/274713.got.cif
#   From: 2010.06.25/outbox.cif.g09.slc.cpg/sg2_138_cif.got.tgz:274713.got - 2010.06.27 13:26:56.
