data_PCOD8039608
_publ_section_title
;
Structure prediction by ZEFSAII (Michael W. Deem and Ramdas Pophale) SiO2 
 PCOD8039608
Probable space group: P -1
;
_chemical_formula_sum "Si O2"
_cell_formula_units_Z 16
_cell_length_a 9.159580
_cell_length_b 14.477489
_cell_length_c 13.345485
_cell_angle_alpha 40.821101
_cell_angle_beta 101.767064
_cell_angle_gamma 131.876498
_cell_volume 676.616659
_symmetry_space_group_name_H-M "P -1"
_symmetry_group_IT_number 2
_symmetry_cell_setting 'triclinic'
loop_
_space_group_symop_operation_xyz
x,y,z
-x,-y,-z
loop_
_atom_site_type_symbol
_atom_site_label
_atom_site_fract_x
_atom_site_fract_y
_atom_site_fract_z
Si Si1 0.518735 0.649012 0.606501
Si Si2 0.388052 0.849494 0.917816
Si Si3 0.368623 0.594187 0.842253
Si Si4 0.244309 0.011669 0.279257
Si Si5 0.902886 0.182499 0.241494
Si Si6 0.727839 0.356223 0.595071
Si Si7 0.904859 0.340690 0.311281
Si Si8 0.699608 0.589248 0.528309
O O1 0.395528 0.527359 0.797450
O O2 0.331758 0.588442 0.554269
O O3 0.600236 0.556305 0.652143
O O4 0.765875 0.929399 0.426594
O O5 0.259067 0.812581 0.830017
O O6 0.582498 0.877621 0.885119
O O7 0.525695 0.078783 0.808792
O O8 0.169043 0.617886 0.146080
O O9 0.306517 0.708858 0.710235
O O10 0.622809 0.788041 0.783925
O O11 0.156763 0.357293 0.071233
O O12 0.189483 0.812323 0.478535
O O13 0.975761 0.870139 0.323648
O O14 0.960496 0.267414 0.293645
O O15 0.715242 0.434525 0.633238
O O16 0.000000 0.500000 0.500000
O O17 0.500000 0.500000 0.500000
#
# Coordination Sequence:
#
# PCOD8039608 Si02
#       8
#     2   2   2   2   2   2   2   2
#     4  10  22  39  60  85 128 163 190 246 304 354
#     4  10  19  33  58  93 122 152 189 253 302 343
#     4  11  20  33  61  96 127 154 190 240 311 368
#     4  12  20  34  64  87 121 161 195 237 305 363
#     4  10  18  34  57  91 132 155 184 240 307 368
#     4  10  19  37  68  86 107 161 214 247 293 340
#     4  11  19  32  57  99 130 146 189 250 306 359
#     4  10  24  43  61  83 119 166 210 248 290 348
#
# _framework density 23.647068000000001
#
# number of rings (size 3 to 8) (size 9 to 14) (size 15 to 20)
#    0.000    1.500    5.000    2.625    0.000    0.500 
#    0.000    2.500    5.500   13.500    0.000    0.000 
#    0.000    0.000    0.000    0.000    0.000    0.000 
#
# Total GULP energy -198356.878722 kJ/mol
# GULP energy per Si atom -12397.304920 kJ/mol
# Density = 2.359325 g / cm^3
# Si number density = 23.647068 Si / 1000 Ang^3
#
#
#
# Elastic Constant Matrix: (Units=GPa)
#
#
# Indices 1 2 3 4 5 6 
#
# 1 120.9365 63.5226 18.1664 -13.7605 -25.9530 -25.0044
# 2 63.5226 95.6081 16.2102 -32.2592 -13.9548 -6.5705
# 3 18.1664 16.2102 53.9999 -16.6570 -18.8998 4.6160
# 4 -13.7605 -32.2592 -16.6570 33.2322 5.6333 -6.8593
# 5 -25.9530 -13.9548 -18.8998 5.6333 28.3014 -4.5948
# 6 -25.0044 -6.5705 4.6160 -6.8593 -4.5948 50.1358
#
#
#
# Elastic Compliance Matrix: (Units=1/GPa)
#
#
# Indices 1 2 3 4 5 6 
#
# 1 0.018055 -0.010595 0.000051 -0.003322 0.013389 0.008384
# 2 -0.010595 0.023860 0.002504 0.020140 -0.000232 0.000346
# 3 0.000051 0.002504 0.027999 0.013790 0.017440 0.001261
# 4 -0.003322 0.020140 0.013790 0.055746 0.006282 0.007916
# 5 0.013389 -0.000232 0.017440 0.006282 0.059741 0.011376
# 6 0.008384 0.000346 0.001261 0.007916 0.011376 0.026182
#
#
# Mechanical properties :
#
#
# Convention : Reuss Voigt Hill
#
# Bulk Modulus (GPa) = 18.57575 51.81588 35.19581
# Shear Modulus (GPa) = 20.35762 33.84357 27.10059
#
# Velocity S-wave (km/s) = 2.93728 3.78722 3.38900
# Velocity P-wave (km/s) = 4.40181 6.40966 5.49817
#
# Compressibility (1/GPa) = 0.05383363
#
# Stress axis : x y z
#
# Youngs Moduli (GPa) = 55.38636 41.91184 35.71508
#
# Poissons Ratio (x) = 0.44406 -0.00183
# Poissons Ratio (y) = 0.58682 -0.08941
# Poissons Ratio (z) = -0.00284 -0.10493
#
# Static dielectric constant tensor:
#      x y z
#    x 4.546290 -0.274850 -0.111310 
#    y -0.274850 4.595890 -0.456790 
#    z -0.111310 -0.456790 4.292220 
# 
# 
# High freq. dielectric constant tensor:
#      x y z
#    x 1.931790 -0.005950 -0.020990 
#    y -0.005950 1.942890 -0.020790 
#    z -0.020990 -0.020790 1.914500 
# 
# From -- ./inp_files/315896.got.cif
#   From: 2010.06.25/outbox.cif.g09.slc.cpg/sg2_158_cif.got.tgz:315896.got - 2010.06.27 13:26:56.
