data_PCOD8039140
_publ_section_title
;
Structure prediction by ZEFSAII (Michael W. Deem and Ramdas Pophale) SiO2 
 PCOD8039140
Probable space group: P -1
;
_chemical_formula_sum "Si O2"
_cell_formula_units_Z 16
_cell_length_a 9.411118
_cell_length_b 9.284050
_cell_length_c 10.931985
_cell_angle_alpha 89.482914
_cell_angle_beta 107.835185
_cell_angle_gamma 66.006439
_cell_volume 820.836195
_symmetry_space_group_name_H-M "P -1"
_symmetry_group_IT_number 2
_symmetry_cell_setting 'triclinic'
loop_
_space_group_symop_operation_xyz
x,y,z
-x,-y,-z
loop_
_atom_site_type_symbol
_atom_site_label
_atom_site_fract_x
_atom_site_fract_y
_atom_site_fract_z
Si Si1 0.829079 0.187613 0.040232
Si Si2 0.523184 0.240577 0.518020
Si Si3 0.408014 0.495070 0.097824
Si Si4 0.858597 0.587557 0.059153
Si Si5 0.293803 0.109502 0.327435
Si Si6 0.815137 0.898402 0.960828
Si Si7 0.644376 0.439262 0.384113
Si Si8 0.078752 0.668975 0.724042
O O1 0.815882 0.255181 0.173766
O O2 0.020540 0.111383 0.059512
O O3 0.733605 0.326656 0.916597
O O4 0.743813 0.065464 0.013645
O O5 0.407731 0.195121 0.398182
O O6 0.639116 0.310104 0.480124
O O7 0.408505 0.382977 0.577674
O O8 0.640174 0.076806 0.618066
O O9 0.522197 0.440595 0.245171
O O10 0.500000 0.500000 0.000000
O O11 0.316368 0.383492 0.047073
O O12 0.902798 0.491131 0.198406
O O13 0.845113 0.764725 0.072752
O O14 0.000000 0.500000 0.000000
O O15 0.295798 0.113734 0.180213
O O16 0.113149 0.208459 0.340260
O O17 0.832367 0.379414 0.384123
#
# Coordination Sequence:
#
# PCOD8039140 Si02
#       8
#     2   2   2   2   2   2   2   2
#     4   9  18  32  52  88 112 151 172 230 289 351
#     4  10  24  39  62  80 111 158 209 231 285 333
#     4  11  19  34  59  82 119 149 176 232 298 340
#     4  11  18  34  56  91 110 155 184 226 291 362
#     4  10  20  41  58  84 109 158 192 251 278 328
#     4  10  18  32  58  82 119 141 192 225 283 352
#     4  11  22  40  58  87 114 155 195 241 281 347
#     4  10  21  37  61  83 123 147 191 242 292 340
#
# _framework density 19.492317
#
# number of rings (size 3 to 8) (size 9 to 14) (size 15 to 20)
#    0.000    1.750    6.250    1.500    0.000    1.000 
#    0.000    3.125    0.000    0.000    0.000    0.000 
#    0.000    0.000    0.000    0.000    0.000    0.000 
#
# Total GULP energy -198247.034082 kJ/mol
# GULP energy per Si atom -12390.439630 kJ/mol
# Density = 1.944795 g / cm^3
# Si number density = 19.492317 Si / 1000 Ang^3
#
#
#
# Elastic Constant Matrix: (Units=GPa)
#
#
# Indices 1 2 3 4 5 6 
#
# 1 76.0069 36.0840 23.6058 1.6960 -11.5941 5.4426
# 2 36.0840 134.6950 34.6323 -6.7212 -9.1139 18.7601
# 3 23.6058 34.6323 49.2525 -4.8288 -4.2053 1.7815
# 4 1.6960 -6.7212 -4.8288 25.2621 -1.6955 1.9148
# 5 -11.5941 -9.1139 -4.2053 -1.6955 30.5926 -1.3276
# 6 5.4426 18.7601 1.7815 1.9148 -1.3276 26.5325
#
#
#
# Elastic Compliance Matrix: (Units=1/GPa)
#
#
# Indices 1 2 3 4 5 6 
#
# 1 0.017194 -0.002737 -0.006153 -0.002688 0.004673 -0.000750
# 2 -0.002737 0.010771 -0.005658 0.002566 0.001241 -0.006798
# 3 -0.006153 -0.005658 0.027514 0.003937 0.000119 0.003137
# 4 -0.002688 0.002566 0.003937 0.041697 0.002406 -0.004416
# 5 0.004673 0.001241 0.000119 0.002406 0.034966 -0.000268
# 6 -0.000750 -0.006798 0.003137 -0.004416 -0.000268 0.042744
#
#
# Mechanical properties :
#
#
# Convention : Reuss Voigt Hill
#
# Bulk Modulus (GPa) = 37.90611 49.84427 43.87519
# Shear Modulus (GPa) = 23.49857 27.51961 25.50909
#
# Velocity S-wave (km/s) = 3.47584 3.76149 3.62148
# Velocity P-wave (km/s) = 5.96637 6.67022 6.32809
#
# Compressibility (1/GPa) = 0.02638097
#
# Stress axis : x y z
#
# Youngs Moduli (GPa) = 58.16008 92.84042 36.34511
#
# Poissons Ratio (x) = 0.25415 0.22364
# Poissons Ratio (y) = 0.15921 0.20565
# Poissons Ratio (z) = 0.35787 0.52532
#
# Static dielectric constant tensor:
#      x y z
#    x 3.664550 0.103320 0.156650 
#    y 0.103320 4.364190 -0.000670 
#    z 0.156650 -0.000670 3.650310 
# 
# 
# High freq. dielectric constant tensor:
#      x y z
#    x 1.751870 0.005090 0.009840 
#    y 0.005090 1.771970 -0.003460 
#    z 0.009840 -0.003460 1.738680 
# 
# From -- ./inp_files/332289.got.cif
#   From: 2010.06.25/outbox.cif.g09.slc.cpg/sg2_167_cif.got.tgz:332289.got - 2010.06.27 13:26:56.
