data_PCOD8039147
_publ_section_title
;
Structure prediction by ZEFSAII (Michael W. Deem and Ramdas Pophale) SiO2 
 PCOD8039147
Probable space group: P -1
;
_chemical_formula_sum "Si O2"
_cell_formula_units_Z 16
_cell_length_a 17.927063
_cell_length_b 11.329347
_cell_length_c 17.309869
_cell_angle_alpha 150.521107
_cell_angle_beta 149.094516
_cell_angle_gamma 42.638840
_cell_volume 887.716583
_symmetry_space_group_name_H-M "P -1"
_symmetry_group_IT_number 2
_symmetry_cell_setting 'triclinic'
loop_
_space_group_symop_operation_xyz
x,y,z
-x,-y,-z
loop_
_atom_site_type_symbol
_atom_site_label
_atom_site_fract_x
_atom_site_fract_y
_atom_site_fract_z
Si Si1 0.687515 0.870327 0.849846
Si Si2 0.818346 0.766598 0.348245
Si Si3 0.335008 0.667547 0.755326
Si Si4 0.890534 0.942322 0.206613
Si Si5 0.044795 0.275892 0.710865
Si Si6 0.262175 0.527997 0.455008
Si Si7 0.341307 0.581566 0.883455
Si Si8 0.433161 0.959834 0.778601
O O1 0.688106 0.684595 0.675301
O O2 0.548315 0.813139 0.748103
O O3 0.831648 0.844982 0.016246
O O4 0.674930 0.135779 0.955067
O O5 0.847962 0.651748 0.223855
O O6 0.787459 0.551225 0.258289
O O7 0.675490 0.919601 0.308188
O O8 0.946823 0.945361 0.595356
O O9 0.318821 0.473853 0.561348
O O10 0.316848 0.526199 0.739354
O O11 0.204517 0.843978 0.725573
O O12 0.485912 0.827516 0.978680
O O13 0.882927 0.723884 0.138853
O O14 0.910978 0.451189 0.692143
O O15 0.000000 0.000000 0.500000
O O16 0.341802 0.781934 0.650826
O O17 0.500000 0.500000 0.000000
#
# Coordination Sequence:
#
# PCOD8039147 Si02
#       8
#     2   2   2   2   2   2   2   2
#     4  10  24  36  56  86 118 147 183 233 286 327
#     4  11  17  35  67  79 105 146 202 227 265 326
#     4  10  20  34  59  88 105 150 195 228 268 330
#     4   9  18  37  56  88 107 147 192 219 279 335
#     4  10  18  32  58  86 111 143 184 228 275 327
#     4  12  20  37  56  87 124 140 178 242 287 325
#     4  10  20  40  60  79 110 147 200 229 266 337
#     4  10  19  35  61  84 108 150 187 229 277 340
#
# _framework density 18.023772000000001
#
# number of rings (size 3 to 8) (size 9 to 14) (size 15 to 20)
#    0.000    2.000    7.500    0.750    0.000    3.500 
#    0.000    1.250    0.000    0.000    0.000    0.000 
#    0.000    0.000    0.000    0.000    0.000    0.000 
#
# Total GULP energy -198302.555700 kJ/mol
# GULP energy per Si atom -12393.909731 kJ/mol
# Density = 1.798275 g / cm^3
# Si number density = 18.023772 Si / 1000 Ang^3
#
#
#
# Elastic Constant Matrix: (Units=GPa)
#
#
# Indices 1 2 3 4 5 6 
#
# 1 114.6392 42.2424 48.0250 -3.7400 -10.7533 20.4161
# 2 42.2424 79.1507 38.0838 -22.3679 -8.1320 10.5660
# 3 48.0250 38.0838 77.9442 -18.4161 -18.8251 2.7948
# 4 -3.7400 -22.3679 -18.4161 25.0514 -0.0312 4.2608
# 5 -10.7533 -8.1320 -18.8251 -0.0312 29.8994 2.6257
# 6 20.4161 10.5660 2.7948 4.2608 2.6257 34.4517
#
#
#
# Elastic Compliance Matrix: (Units=1/GPa)
#
#
# Indices 1 2 3 4 5 6 
#
# 1 0.014889 -0.005547 -0.008393 -0.007986 -0.000974 -0.005379
# 2 -0.005547 0.023439 -0.002376 0.019443 0.003465 -0.006378
# 3 -0.008393 -0.002376 0.025830 0.015505 0.012550 0.000733
# 4 -0.007986 0.019443 0.015505 0.069560 0.013314 -0.012106
# 5 -0.000974 0.003465 0.012550 0.013314 0.042514 -0.006390
# 6 -0.005379 -0.006378 0.000733 -0.012106 -0.006390 0.036095
#
#
# Mechanical properties :
#
#
# Convention : Reuss Voigt Hill
#
# Bulk Modulus (GPa) = 31.71783 58.71516 45.21650
# Shear Modulus (GPa) = 19.57204 27.43937 23.50570
#
# Velocity S-wave (km/s) = 3.29888 3.90603 3.61522
# Velocity P-wave (km/s) = 5.66975 7.27942 6.52442
#
# Compressibility (1/GPa) = 0.03152800
#
# Stress axis : x y z
#
# Youngs Moduli (GPa) = 67.16410 42.66338 38.71480
#
# Poissons Ratio (x) = 0.23664 0.32492
# Poissons Ratio (y) = 0.37253 0.09197
# Poissons Ratio (z) = 0.56369 0.10135
#
# Static dielectric constant tensor:
#      x y z
#    x 3.562130 0.205260 0.026090 
#    y 0.205260 3.365060 -0.367480 
#    z 0.026090 -0.367480 3.286730 
# 
# 
# High freq. dielectric constant tensor:
#      x y z
#    x 1.702250 0.006270 0.004300 
#    y 0.006270 1.690290 -0.032050 
#    z 0.004300 -0.032050 1.673620 
# 
# From -- ./inp_files/189395.got.cif
#   From: 2010.06.25/outbox.cif.g09.slc.cpg/sg2_95_cif.got.tgz:189395.got - 2010.06.27 13:26:56.
