data_PCOD8039276
_publ_section_title
;
Structure prediction by ZEFSAII (Michael W. Deem and Ramdas Pophale) SiO2 
 PCOD8039276
Probable space group: P -1
;
_chemical_formula_sum "Si O2"
_cell_formula_units_Z 16
_cell_length_a 10.768091
_cell_length_b 13.276208
_cell_length_c 9.126007
_cell_angle_alpha 56.933852
_cell_angle_beta 75.796867
_cell_angle_gamma 50.208544
_cell_volume 829.114545
_symmetry_space_group_name_H-M "P -1"
_symmetry_group_IT_number 2
_symmetry_cell_setting 'triclinic'
loop_
_space_group_symop_operation_xyz
x,y,z
-x,-y,-z
loop_
_atom_site_type_symbol
_atom_site_label
_atom_site_fract_x
_atom_site_fract_y
_atom_site_fract_z
Si Si1 0.833220 0.225697 0.777308
Si Si2 0.216602 0.802406 0.519554
Si Si3 0.440024 0.441526 0.444620
Si Si4 0.614390 0.796576 0.286463
Si Si5 0.278886 0.093177 0.061463
Si Si6 0.326748 0.085679 0.559077
Si Si7 0.200653 0.991102 0.890551
Si Si8 0.904961 0.864053 0.652543
O O1 0.791335 0.190009 0.661096
O O2 0.721099 0.407188 0.703906
O O3 0.022839 0.152689 0.779017
O O4 0.805819 0.148969 0.981084
O O5 0.404631 0.667022 0.623109
O O6 0.098984 0.765549 0.644930
O O7 0.171795 0.957783 0.474364
O O8 0.500000 0.500000 0.500000
O O9 0.391784 0.342935 0.609214
O O10 0.706107 0.787215 0.415622
O O11 0.437537 0.965327 0.213180
O O12 0.705916 0.786592 0.118952
O O13 0.122539 0.182114 0.144464
O O14 0.267001 0.998337 0.018932
O O15 0.321235 0.961937 0.748098
O O16 0.180205 0.171258 0.415413
O O17 0.500000 0.000000 0.500000
#
# Coordination Sequence:
#
# PCOD8039276 Si02
#       8
#     2   2   2   2   2   2   2   2
#     4  10  19  34  58  83 113 146 185 239 273 331
#     4  10  19  32  56  86 113 145 190 227 277 336
#     4  10  19  36  58  82 112 148 189 230 284 329
#     4  10  20  34  56  86 111 143 192 230 272 336
#     4  10  18  33  55  83 112 143 185 234 268 326
#     4  11  20  33  55  85 117 143 180 237 278 329
#     4  10  20  34  55  88 112 135 197 232 276 323
#     4  11  19  33  57  86 116 148 182 234 279 321
#
# _framework density 19.297694
#
# number of rings (size 3 to 8) (size 9 to 14) (size 15 to 20)
#    0.000    1.750    5.000    0.750    0.000    0.000 
#    0.000    2.500    0.000   11.250    0.000    0.000 
#    0.000    0.000    0.000    0.000    0.000    0.000 
#
# Total GULP energy -198302.514972 kJ/mol
# GULP energy per Si atom -12393.907186 kJ/mol
# Density = 1.925377 g / cm^3
# Si number density = 19.297694 Si / 1000 Ang^3
#
#
#
# Elastic Constant Matrix: (Units=GPa)
#
#
# Indices 1 2 3 4 5 6 
#
# 1 101.3521 35.5667 50.1081 -2.8541 -23.3901 -8.8479
# 2 35.5667 68.6671 47.7220 -10.0932 -14.7783 -16.2237
# 3 50.1081 47.7220 105.4499 10.2762 -33.9246 -17.0284
# 4 -2.8541 -10.0932 10.2762 31.9131 -1.9676 -1.3863
# 5 -23.3901 -14.7783 -33.9246 -1.9676 39.6527 6.4322
# 6 -8.8479 -16.2237 -17.0284 -1.3863 6.4322 35.8950
#
#
#
# Elastic Compliance Matrix: (Units=1/GPa)
#
#
# Indices 1 2 3 4 5 6 
#
# 1 0.013967 -0.003460 -0.004206 0.001698 0.003546 -0.000687
# 2 -0.003460 0.027283 -0.011490 0.012182 -0.002217 0.006895
# 3 -0.004206 -0.011490 0.021398 -0.010166 0.010780 0.001597
# 4 0.001698 0.012182 -0.010166 0.038634 -0.001709 0.002900
# 5 0.003546 -0.002217 0.010780 -0.001709 0.035867 -0.001507
# 6 -0.000687 0.006895 0.001597 0.002900 -0.001507 0.031946
#
#
# Mechanical properties :
#
#
# Convention : Reuss Voigt Hill
#
# Bulk Modulus (GPa) = 41.09218 60.25140 50.67179
# Shear Modulus (GPa) = 23.19973 30.96367 27.08170
#
# Velocity S-wave (km/s) = 3.47104 4.01000 3.75021
# Velocity P-wave (km/s) = 6.11590 7.26154 6.71320
#
# Compressibility (1/GPa) = 0.02433553
#
# Stress axis : x y z
#
# Youngs Moduli (GPa) = 71.59884 36.65288 46.73226
#
# Poissons Ratio (x) = 0.12683 0.19657
# Poissons Ratio (y) = 0.24776 0.53694
# Poissons Ratio (z) = 0.30117 0.42113
#
# Static dielectric constant tensor:
#      x y z
#    x 3.888520 -0.263570 -0.134300 
#    y -0.263570 3.469560 0.104010 
#    z -0.134300 0.104010 3.553660 
# 
# 
# High freq. dielectric constant tensor:
#      x y z
#    x 1.773100 -0.008500 -0.013570 
#    y -0.008500 1.706940 0.022160 
#    z -0.013570 0.022160 1.734470 
# 
# From -- ./inp_files/266708.got.cif
#   From: 2010.06.25/outbox.cif.g09.slc.cpg/sg2_134_cif.got.tgz:266708.got - 2010.06.27 13:26:56.
