data_PCOD8039043
_publ_section_title
;
Structure prediction by ZEFSAII (Michael W. Deem and Ramdas Pophale) SiO2 
 PCOD8039043
Probable space group: P -1
;
_chemical_formula_sum "Si O2"
_cell_formula_units_Z 16
_cell_length_a 11.233914
_cell_length_b 8.747183
_cell_length_c 12.569994
_cell_angle_alpha 56.402572
_cell_angle_beta 76.286392
_cell_angle_gamma 52.102207
_cell_volume 801.874637
_symmetry_space_group_name_H-M "P -1"
_symmetry_group_IT_number 2
_symmetry_cell_setting 'triclinic'
loop_
_space_group_symop_operation_xyz
x,y,z
-x,-y,-z
loop_
_atom_site_type_symbol
_atom_site_label
_atom_site_fract_x
_atom_site_fract_y
_atom_site_fract_z
Si Si1 0.750899 0.284212 0.489321
Si Si2 0.731082 0.020307 0.897031
Si Si3 0.947069 0.145631 0.133701
Si Si4 0.830059 0.622526 0.872801
Si Si5 0.697571 0.155328 0.075440
Si Si6 0.556865 0.484452 0.655229
Si Si7 0.990800 0.224860 0.318606
Si Si8 0.581834 0.632671 0.811819
O O1 0.677265 0.425928 0.559125
O O2 0.616143 0.354400 0.410037
O O3 0.865731 0.335666 0.396747
O O4 0.849525 0.012826 0.591457
O O5 0.762886 0.802563 0.914552
O O6 0.871873 0.039362 0.850688
O O7 0.587358 0.252486 0.784669
O O8 0.706955 0.001925 0.035020
O O9 0.861066 0.048883 0.137428
O O10 0.913466 0.184939 0.251634
O O11 0.900210 0.378109 0.000490
O O12 0.965651 0.607223 0.788480
O O13 0.694248 0.699362 0.790129
O O14 0.585637 0.172247 0.181315
O O15 0.637812 0.397968 0.946021
O O16 0.574755 0.620194 0.691142
#
# Coordination Sequence:
#
# PCOD8039043 Si02
#       8
#     2   2   2   2   2   2   2   2
#     4  10  20  34  60  80 101 139 191 227 251 308
#     4  10  18  32  54  81 109 137 180 217 265 325
#     4  10  18  33  55  79 113 140 170 219 276 318
#     4  10  20  35  54  79 114 143 166 216 283 322
#     4   9  18  31  52  79 105 141 181 213 261 320
#     4  10  19  36  57  80 103 141 184 226 263 300
#     4  10  19  35  56  83 105 139 184 219 263 316
#     4   9  19  34  51  76 110 142 172 219 269 320
#
# _framework density 19.953243000000001
#
# number of rings (size 3 to 8) (size 9 to 14) (size 15 to 20)
#    0.000    2.250    2.500    2.625    0.000    1.500 
#    0.000    2.500    0.000    0.000    0.000    0.000 
#    0.000    0.000    0.000    0.000    0.000    0.000 
#
# Total GULP energy -198357.069431 kJ/mol
# GULP energy per Si atom -12397.316839 kJ/mol
# Density = 1.990783 g / cm^3
# Si number density = 19.953243 Si / 1000 Ang^3
#
#
#
# Elastic Constant Matrix: (Units=GPa)
#
#
# Indices 1 2 3 4 5 6 
#
# 1 105.1434 50.1879 48.2748 20.4854 20.6277 -3.1394
# 2 50.1879 80.4598 37.3763 31.0798 1.1006 -7.8239
# 3 48.2748 37.3763 82.6679 17.0121 16.1254 -5.1902
# 4 20.4854 31.0798 17.0121 38.3066 -1.6952 2.2371
# 5 20.6277 1.1006 16.1254 -1.6952 30.1517 2.7667
# 6 -3.1394 -7.8239 -5.1902 2.2371 2.7667 29.9660
#
#
#
# Elastic Compliance Matrix: (Units=1/GPa)
#
#
# Indices 1 2 3 4 5 6 
#
# 1 0.017604 -0.008409 -0.004445 -0.001023 -0.009401 -0.000177
# 2 -0.008409 0.025894 -0.004614 -0.014528 0.005943 0.005616
# 3 -0.004445 -0.004614 0.018923 -0.002752 -0.007294 0.002486
# 4 -0.001023 -0.014528 -0.002752 0.040376 0.005698 -0.007917
# 5 -0.009401 0.005943 -0.007294 0.005698 0.044078 -0.005191
# 6 -0.000177 0.005616 0.002486 -0.007917 -0.005191 0.036320
#
#
# Mechanical properties :
#
#
# Convention : Reuss Voigt Hill
#
# Bulk Modulus (GPa) = 36.38283 59.99436 48.18859
# Shear Modulus (GPa) = 21.99819 28.51367 25.25593
#
# Velocity S-wave (km/s) = 3.32397 3.78434 3.56161
# Velocity P-wave (km/s) = 5.74503 7.01625 6.41222
#
# Compressibility (1/GPa) = 0.02748549
#
# Stress axis : x y z
#
# Youngs Moduli (GPa) = 56.80553 38.61934 52.84514
#
# Poissons Ratio (x) = 0.32477 0.23488
# Poissons Ratio (y) = 0.47770 0.24380
# Poissons Ratio (z) = 0.25249 0.17817
#
# Static dielectric constant tensor:
#      x y z
#    x 3.726110 -0.201520 0.289550 
#    y -0.201520 3.579520 0.273050 
#    z 0.289550 0.273050 3.668280 
# 
# 
# High freq. dielectric constant tensor:
#      x y z
#    x 1.769190 -0.019950 0.025010 
#    y -0.019950 1.768200 0.020570 
#    z 0.025010 0.020570 1.769140 
# 
# From -- ./inp_files/277584.got.cif
#   From: 2010.06.25/outbox.cif.g09.slc.cpg/sg2_139_cif.got.tgz:277584.got - 2010.06.27 13:26:56.
