data_PCOD8039645
_publ_section_title
;
Structure prediction by ZEFSAII (Michael W. Deem and Ramdas Pophale) SiO2 
 PCOD8039645
Probable space group: P -1
;
_chemical_formula_sum "Si O2"
_cell_formula_units_Z 14
_cell_length_a 9.781027
_cell_length_b 19.772195
_cell_length_c 14.184512
_cell_angle_alpha 30.209305
_cell_angle_beta 150.592812
_cell_angle_gamma 138.341247
_cell_volume 677.542330
_symmetry_space_group_name_H-M "P -1"
_symmetry_group_IT_number 2
_symmetry_cell_setting 'triclinic'
loop_
_space_group_symop_operation_xyz
x,y,z
-x,-y,-z
loop_
_atom_site_type_symbol
_atom_site_label
_atom_site_fract_x
_atom_site_fract_y
_atom_site_fract_z
Si Si1 0.603218 0.048054 0.632527
Si Si2 0.308951 0.678154 0.728002
Si Si3 0.856137 0.522319 0.284406
Si Si4 0.847396 0.054526 0.971247
Si Si5 0.217357 0.746162 0.147211
Si Si6 0.791365 0.804239 0.359187
Si Si7 0.020697 0.004415 0.396358
O O1 0.541201 0.184369 0.373983
O O2 0.327586 0.967210 0.586246
O O3 0.751394 0.089189 0.768010
O O4 0.813424 0.953642 0.811016
O O5 0.184226 0.614035 0.634478
O O6 0.053145 0.705345 0.613867
O O7 0.546000 0.587939 0.031483
O O8 0.000000 0.500000 0.500000
O O9 0.053204 0.610887 0.229544
O O10 0.734141 0.910012 0.111847
O O11 0.739338 0.177420 0.820603
O O12 0.521620 0.713655 0.323733
O O13 0.050691 0.842865 0.858915
O O14 0.825441 0.894510 0.365130
O O15 0.000000 0.000000 0.500000
#
# Coordination Sequence:
#
# PCOD8039645 Si02
#       7
#     2   2   2   2   2   2   2
#     4  10  18  34  58  90 119 155 195 245 294 364
#     4  10  23  43  61  90 119 157 210 254 291 355
#     4  11  24  43  67  85 115 160 212 256 298 345
#     4   9  19  32  59  88 124 153 192 237 305 365
#     4  11  21  38  59  85 120 159 192 246 301 354
#     4  10  22  38  58  88 127 154 194 246 301 367
#     4  11  21  34  59  91 126 156 190 236 307 367
#
# _framework density 20.662915000000002
#
# number of rings (size 3 to 8) (size 9 to 14) (size 15 to 20)
#    0.000    1.714    1.429    4.286    2.000    2.286 
#    2.571    0.714    0.000    0.000    0.000    0.000 
#    0.000    0.000    0.000    0.000    0.000    0.000 
#
# Total GULP energy -173564.399951 kJ/mol
# GULP energy per Si atom -12397.457139 kJ/mol
# Density = 2.061589 g / cm^3
# Si number density = 20.662915 Si / 1000 Ang^3
#
#
#
# Elastic Constant Matrix: (Units=GPa)
#
#
# Indices 1 2 3 4 5 6 
#
# 1 105.8397 21.5403 38.5640 9.9800 3.2392 8.5978
# 2 21.5403 56.1722 18.4525 15.3078 5.2585 17.5269
# 3 38.5640 18.4525 80.8301 12.2012 0.5343 -1.8746
# 4 9.9800 15.3078 12.2012 18.7399 3.0348 3.6972
# 5 3.2392 5.2585 0.5343 3.0348 38.2018 14.9505
# 6 8.5978 17.5269 -1.8746 3.6972 14.9505 38.9756
#
#
#
# Elastic Compliance Matrix: (Units=1/GPa)
#
#
# Indices 1 2 3 4 5 6 
#
# 1 0.011987 -0.002039 -0.005147 -0.001011 0.000179 -0.001947
# 2 -0.002039 0.027721 -0.002952 -0.017764 0.002245 -0.011334
# 3 -0.005147 -0.002952 0.016556 -0.006349 -0.000465 0.004040
# 4 -0.001011 -0.017764 -0.006349 0.072706 -0.004178 0.002612
# 5 0.000179 0.002245 -0.000465 -0.004178 0.031128 -0.012615
# 6 -0.001947 -0.011334 0.004040 0.002612 -0.012615 0.035969
#
#
# Mechanical properties :
#
#
# Convention : Reuss Voigt Hill
#
# Bulk Modulus (GPa) = 27.78672 44.43950 36.11311
# Shear Modulus (GPa) = 21.89713 30.13580 26.01647
#
# Velocity S-wave (km/s) = 3.25888 3.82311 3.55222
# Velocity P-wave (km/s) = 5.25711 6.40639 5.85999
#
# Compressibility (1/GPa) = 0.03598841
#
# Stress axis : x y z
#
# Youngs Moduli (GPa) = 83.42557 36.07317 60.40022
#
# Poissons Ratio (x) = 0.07356 0.31088
# Poissons Ratio (y) = 0.17013 0.17829
# Poissons Ratio (z) = 0.42939 0.10648
#
# Static dielectric constant tensor:
#      x y z
#    x 3.852590 0.156850 0.119810 
#    y 0.156850 3.634130 0.186480 
#    z 0.119810 0.186480 3.770400 
# 
# 
# High freq. dielectric constant tensor:
#      x y z
#    x 1.816980 0.006180 0.007540 
#    y 0.006180 1.794940 0.020620 
#    z 0.007540 0.020620 1.801780 
# 
# From -- ./inp_files/214647.got.cif
#   From: 2010.06.25/outbox.cif.g09.slc.cpg/sg2_108_cif.got.tgz:214647.got - 2010.06.27 13:26:56.
