data_PCOD8039045
_publ_section_title
;
Structure prediction by ZEFSAII (Michael W. Deem and Ramdas Pophale) SiO2 
 PCOD8039045
Probable space group: P -1
;
_chemical_formula_sum "Si O2"
_cell_formula_units_Z 14
_cell_length_a 10.646526
_cell_length_b 7.245940
_cell_length_c 11.815808
_cell_angle_alpha 101.799663
_cell_angle_beta 50.031638
_cell_angle_gamma 120.614922
_cell_volume 590.726430
_symmetry_space_group_name_H-M "P -1"
_symmetry_group_IT_number 2
_symmetry_cell_setting 'triclinic'
loop_
_space_group_symop_operation_xyz
x,y,z
-x,-y,-z
loop_
_atom_site_type_symbol
_atom_site_label
_atom_site_fract_x
_atom_site_fract_y
_atom_site_fract_z
Si Si1 0.335546 0.279658 0.204504
Si Si2 0.200143 0.095000 0.035787
Si Si3 0.662347 0.217913 0.040407
Si Si4 0.951192 0.397984 0.692011
Si Si5 0.935696 0.174244 0.452616
Si Si6 0.664443 0.593271 0.189581
Si Si7 0.820289 0.772755 0.343830
O O1 0.305846 0.299190 0.089341
O O2 0.126209 0.159461 0.367077
O O3 0.462692 0.505685 0.228561
O O4 0.438851 0.133154 0.132257
O O5 0.321778 0.974827 0.935312
O O6 0.185111 0.185484 0.934190
O O7 0.996580 0.922868 0.179768
O O8 0.786300 0.314822 0.868134
O O9 0.733465 0.416783 0.114977
O O10 0.018598 0.645489 0.648674
O O11 0.863875 0.237780 0.613744
O O12 0.133792 0.388085 0.631393
O O13 0.778560 0.931615 0.467567
O O14 0.647325 0.634616 0.338148
#
# Coordination Sequence:
#
# PCOD8039045 Si02
#       7
#     2   2   2   2   2   2   2
#     4   9  20  36  55  85 112 140 181 228 273 318
#     4  10  18  32  54  81 114 142 181 221 270 323
#     4   9  20  33  56  86 109 135 184 227 271 315
#     4  10  21  36  60  82 106 144 189 230 260 321
#     4  10  21  39  59  80 106 147 189 223 268 321
#     4  10  21  33  54  86 117 141 171 231 281 320
#     4  10  21  36  54  83 114 144 181 223 275 327
#
# _framework density 23.699634
#
# number of rings (size 3 to 8) (size 9 to 14) (size 15 to 20)
#    0.857    1.429    0.000    3.429    2.000    3.429 
#    0.000    0.714    0.000    3.429    0.000    0.000 
#    0.000    0.000    0.000    0.000    0.000    0.000 
#
# Total GULP energy -173441.286120 kJ/mol
# GULP energy per Si atom -12388.663294 kJ/mol
# Density = 2.364569 g / cm^3
# Si number density = 23.699634 Si / 1000 Ang^3
#
#
#
# Elastic Constant Matrix: (Units=GPa)
#
#
# Indices 1 2 3 4 5 6 
#
# 1 58.5981 25.0114 13.7235 17.4122 20.5933 -2.5690
# 2 25.0114 72.3177 22.0311 29.6822 11.8740 -3.6832
# 3 13.7235 22.0311 68.1477 26.9500 12.7510 6.6441
# 4 17.4122 29.6822 26.9500 33.5276 7.3040 3.5592
# 5 20.5933 11.8740 12.7510 7.3040 30.3571 10.9942
# 6 -2.5690 -3.6832 6.6441 3.5592 10.9942 22.2889
#
#
#
# Elastic Compliance Matrix: (Units=1/GPa)
#
#
# Indices 1 2 3 4 5 6 
#
# 1 0.029828 -0.000930 0.002302 -0.013111 -0.023598 0.016332
# 2 -0.000930 0.024603 0.001290 -0.021700 -0.008356 0.011161
# 3 0.002302 0.001290 0.022604 -0.018991 -0.007089 0.000270
# 4 -0.013111 -0.021700 -0.018991 0.069734 0.015108 -0.018024
# 5 -0.023598 -0.008356 -0.007089 0.015108 0.064714 -0.036321
# 6 0.016332 0.011161 0.000270 -0.018024 -0.036321 0.069305
#
#
# Mechanical properties :
#
#
# Convention : Reuss Voigt Hill
#
# Bulk Modulus (GPa) = 12.14182 35.62173 23.88177
# Shear Modulus (GPa) = 16.50614 26.45456 21.48035
#
# Velocity S-wave (km/s) = 2.64194 3.34465 3.01384
# Velocity P-wave (km/s) = 3.80010 5.47528 4.71272
#
# Compressibility (1/GPa) = 0.08235998
#
# Stress axis : x y z
#
# Youngs Moduli (GPa) = 33.52546 40.64467 44.24039
#
# Poissons Ratio (x) = 0.03779 -0.10183
# Poissons Ratio (y) = 0.03117 -0.05709
# Poissons Ratio (z) = -0.07717 -0.05245
#
# Static dielectric constant tensor:
#      x y z
#    x 4.136800 -0.055150 0.165500 
#    y -0.055150 4.306550 0.355370 
#    z 0.165500 0.355370 4.113730 
# 
# 
# High freq. dielectric constant tensor:
#      x y z
#    x 1.913580 -0.008690 0.014700 
#    y -0.008690 1.934940 0.015520 
#    z 0.014700 0.015520 1.931020 
# 
# From -- ./inp_files/330826.got.cif
#   From: 2010.06.25/outbox.cif.g09.slc.cpg/sg2_166_cif.got.tgz:330826.got - 2010.06.27 13:26:56.
