data_PCOD8039072
_publ_section_title
;
Structure prediction by ZEFSAII (Michael W. Deem and Ramdas Pophale) SiO2 
 PCOD8039072
Probable space group: P -1
;
_chemical_formula_sum "Si O2"
_cell_formula_units_Z 14
_cell_length_a 8.191298
_cell_length_b 5.116424
_cell_length_c 21.311542
_cell_angle_alpha 92.717923
_cell_angle_beta 46.891394
_cell_angle_gamma 93.696329
_cell_volume 650.703975
_symmetry_space_group_name_H-M "P -1"
_symmetry_group_IT_number 2
_symmetry_cell_setting 'triclinic'
loop_
_space_group_symop_operation_xyz
x,y,z
-x,-y,-z
loop_
_atom_site_type_symbol
_atom_site_label
_atom_site_fract_x
_atom_site_fract_y
_atom_site_fract_z
Si Si1 0.834687 0.942428 0.484066
Si Si2 0.735630 0.446998 0.557131
Si Si3 0.908034 0.107332 0.216291
Si Si4 0.353183 0.414291 0.750932
Si Si5 0.389204 0.416449 0.202129
Si Si6 0.893593 0.075475 0.710128
Si Si7 0.399836 0.251271 0.059345
O O1 0.655299 0.708215 0.547130
O O2 0.957881 0.854704 0.388288
O O3 0.698249 0.205725 0.515149
O O4 0.000000 0.000000 0.500000
O O5 0.598043 0.376320 0.655706
O O6 0.000000 0.500000 0.500000
O O7 0.788333 0.859124 0.210651
O O8 0.953205 0.014153 0.273860
O O9 0.760757 0.362648 0.257107
O O10 0.133344 0.204332 0.122245
O O11 0.392675 0.498977 0.813670
O O12 0.236369 0.665906 0.233285
O O13 0.467548 0.294863 0.114551
O O14 0.265372 0.176180 0.269466
O O15 0.500000 0.500000 0.000000
O O16 0.500000 0.000000 0.000000
#
# Coordination Sequence:
#
# PCOD8039072 Si02
#       7
#     2   2   2   2   2   2   2
#     4  10  18  32  55  84 113 157 216 267 290 333
#     4  10  20  34  56  85 121 167 211 259 303 348
#     4  11  25  42  64  94 132 166 200 268 332 371
#     4  12  23  42  63  96 132 166 214 266 315 369
#     4  11  22  39  68  95 121 170 215 248 307 394
#     4  11  21  40  63  91 125 173 221 254 308 392
#     4  11  23  45  70  95 124 163 207 252 314 399
#
# _framework density 21.515160999999999
#
# number of rings (size 3 to 8) (size 9 to 14) (size 15 to 20)
#    0.000    1.143    0.000   10.286    0.000    0.000 
#    0.000    8.571    0.000    0.000    0.000    0.000 
#    0.000    0.000    0.000    0.000    0.000    0.000 
#
# Total GULP energy -173515.231847 kJ/mol
# GULP energy per Si atom -12393.945132 kJ/mol
# Density = 2.146619 g / cm^3
# Si number density = 21.515161 Si / 1000 Ang^3
#
#
#
# Elastic Constant Matrix: (Units=GPa)
#
#
# Indices 1 2 3 4 5 6 
#
# 1 69.1197 22.1776 40.9510 -0.4229 -1.7891 12.0474
# 2 22.1776 186.0499 52.7966 -4.5144 -2.6420 6.1379
# 3 40.9510 52.7966 125.2898 -3.9396 4.9590 12.1433
# 4 -0.4229 -4.5144 -3.9396 48.3915 2.5438 -6.5330
# 5 -1.7891 -2.6420 4.9590 2.5438 24.2757 0.4584
# 6 12.0474 6.1379 12.1433 -6.5330 0.4584 39.4729
#
#
#
# Elastic Compliance Matrix: (Units=1/GPa)
#
#
# Indices 1 2 3 4 5 6 
#
# 1 0.018760 -0.000479 -0.005670 -0.001038 0.002675 -0.004110
# 2 -0.000479 0.006157 -0.002471 0.000309 0.001107 -0.000013
# 3 -0.005670 -0.002471 0.011128 0.000626 -0.003003 -0.001170
# 4 -0.001038 0.000309 0.000626 0.021357 -0.002477 0.003640
# 5 0.002675 0.001107 -0.003003 -0.002477 0.042403 -0.000967
# 6 -0.004110 -0.000013 -0.001170 0.003640 -0.000967 0.027564
#
#
# Mechanical properties :
#
#
# Convention : Reuss Voigt Hill
#
# Bulk Modulus (GPa) = 53.17699 68.03442 60.60571
# Shear Modulus (GPa) = 33.13988 40.06364 36.60176
#
# Velocity S-wave (km/s) = 3.92893 4.31990 4.12904
# Velocity P-wave (km/s) = 6.73437 7.52146 7.13877
#
# Compressibility (1/GPa) = 0.01880513
#
# Stress axis : x y z
#
# Youngs Moduli (GPa) = 53.30548 162.42241 89.86403
#
# Poissons Ratio (x) = 0.07777 0.50954
# Poissons Ratio (y) = 0.02552 0.22204
# Poissons Ratio (z) = 0.30225 0.40132
#
# Static dielectric constant tensor:
#      x y z
#    x 3.525400 0.572090 -0.002710 
#    y 0.572090 2.505880 -0.148690 
#    z -0.002710 -0.148690 3.883690 
# 
# 
# High freq. dielectric constant tensor:
#      x y z
#    x 1.817080 -0.000640 0.007230 
#    y -0.000640 1.888100 -0.000560 
#    z 0.007230 -0.000560 1.832640 
# 
# From -- ./inp_files/581967.got.cif
#   From: 2010.06.25/outbox.cif.g09.slc.cpg/sg2_291_cif.got.tgz:581967.got - 2010.06.27 13:26:56.
