data_PCOD8039783
_publ_section_title
;
Structure prediction by ZEFSAII (Michael W. Deem and Ramdas Pophale) SiO2 
 PCOD8039783
Probable space group: P -1
;
_chemical_formula_sum "Si O2"
_cell_formula_units_Z 14
_cell_length_a 15.673791
_cell_length_b 7.217707
_cell_length_c 10.870765
_cell_angle_alpha 95.429207
_cell_angle_beta 149.478646
_cell_angle_gamma 90.897060
_cell_volume 610.172464
_symmetry_space_group_name_H-M "P -1"
_symmetry_group_IT_number 2
_symmetry_cell_setting 'triclinic'
loop_
_space_group_symop_operation_xyz
x,y,z
-x,-y,-z
loop_
_atom_site_type_symbol
_atom_site_label
_atom_site_fract_x
_atom_site_fract_y
_atom_site_fract_z
Si Si1 0.111853 0.871813 0.262867
Si Si2 0.356261 0.613541 0.584571
Si Si3 0.784239 0.138045 0.171920
Si Si4 0.768258 0.782114 0.709747
Si Si5 0.869008 0.875996 0.474977
Si Si6 0.419138 0.110508 0.303090
Si Si7 0.495903 0.779757 0.012695
O O1 0.183853 0.695193 0.395149
O O2 0.257760 0.027700 0.384205
O O3 0.045952 0.974308 0.305693
O O4 0.971006 0.792253 0.979996
O O5 0.316520 0.394105 0.489009
O O6 0.451743 0.731534 0.598779
O O7 0.461521 0.641795 0.843887
O O8 0.979523 0.241401 0.379527
O O9 0.812499 0.973981 0.289574
O O10 0.661868 0.274117 0.087797
O O11 0.686623 0.045335 0.926119
O O12 0.697522 0.768804 0.759216
O O13 0.687089 0.754685 0.293998
O O14 0.500000 0.000000 0.500000
O O15 0.500000 0.000000 0.000000
#
# Coordination Sequence:
#
# PCOD8039783 Si02
#       7
#     2   2   2   2   2   2   2
#     4  11  21  43  63  90 129 167 213 263 324 381
#     4  12  22  42  64  91 129 166 215 264 321 384
#     4  10  19  34  61  96 120 167 219 255 323 381
#     4  11  26  38  63  97 126 169 211 264 322 390
#     4  10  18  34  65  90 120 168 214 259 317 382
#     4  12  22  39  64  90 132 170 208 266 322 383
#     4  10  18  35  64  88 119 170 210 259 317 377
#
# _framework density 22.944334999999999
#
# number of rings (size 3 to 8) (size 9 to 14) (size 15 to 20)
#    0.000    1.143    8.571    0.857    0.000    0.000 
#    0.000    0.714    0.000    0.857    0.000    0.000 
#    0.000    0.000    0.000    0.000    0.000    0.000 
#
# Total GULP energy -173442.099877 kJ/mol
# GULP energy per Si atom -12388.721420 kJ/mol
# Density = 2.289211 g / cm^3
# Si number density = 22.944335 Si / 1000 Ang^3
#
#
#
# Elastic Constant Matrix: (Units=GPa)
#
#
# Indices 1 2 3 4 5 6 
#
# 1 150.0130 28.5834 49.7873 17.0523 10.2072 -13.1140
# 2 28.5834 61.3009 28.9043 24.7001 -2.4881 -13.3914
# 3 49.7873 28.9043 112.0576 26.6943 -1.1251 -2.2277
# 4 17.0523 24.7001 26.6943 25.4727 -6.0610 -9.3976
# 5 10.2072 -2.4881 -1.1251 -6.0610 59.0823 6.1221
# 6 -13.1140 -13.3914 -2.2277 -9.3976 6.1221 19.8431
#
#
#
# Elastic Compliance Matrix: (Units=1/GPa)
#
#
# Indices 1 2 3 4 5 6 
#
# 1 0.008664 -0.001707 -0.003581 0.001077 -0.002078 0.005323
# 2 -0.001707 0.028419 -0.000953 -0.023025 -0.001671 0.007554
# 3 -0.003581 -0.000953 0.014026 -0.014393 0.000231 -0.008323
# 4 0.001077 -0.023025 -0.014393 0.085429 0.005005 0.022471
# 5 -0.002078 -0.001671 0.000231 0.005005 0.018329 -0.005760
# 6 0.005323 0.007554 -0.008323 0.022471 -0.005760 0.070496
#
#
# Mechanical properties :
#
#
# Convention : Reuss Voigt Hill
#
# Bulk Modulus (GPa) = 25.88879 59.76905 42.82892
# Shear Modulus (GPa) = 19.94251 35.28607 27.61429
#
# Velocity S-wave (km/s) = 2.95137 3.92586 3.47296
# Velocity P-wave (km/s) = 4.78768 6.83052 5.89821
#
# Compressibility (1/GPa) = 0.03862675
#
# Stress axis : x y z
#
# Youngs Moduli (GPa) = 115.41954 35.18826 71.29403
#
# Poissons Ratio (x) = 0.06006 0.25529
# Poissons Ratio (y) = 0.19702 0.06797
# Poissons Ratio (z) = 0.41329 0.03355
#
# Static dielectric constant tensor:
#      x y z
#    x 5.273460 -0.187610 0.490730 
#    y -0.187610 3.731840 -0.020890 
#    z 0.490730 -0.020890 4.423480 
# 
# 
# High freq. dielectric constant tensor:
#      x y z
#    x 1.929330 -0.005440 -0.001990 
#    y -0.005440 1.846400 0.003880 
#    z -0.001990 0.003880 1.922590 
# 
# From -- ./inp_files/333216.got.cif
#   From: 2010.06.25/outbox.cif.g09.slc.cpg/sg2_167_cif.got.tgz:333216.got - 2010.06.27 13:26:56.
