data_PCOD8039360
_publ_section_title
;
Structure prediction by ZEFSAII (Michael W. Deem and Ramdas Pophale) SiO2 
 PCOD8039360
Probable space group: P -1
;
_chemical_formula_sum "Si O2"
_cell_formula_units_Z 12
_cell_length_a 27.547703
_cell_length_b 13.858994
_cell_length_c 22.168735
_cell_angle_alpha 158.621966
_cell_angle_beta 10.682931
_cell_angle_gamma 158.937782
_cell_volume 550.929772
_symmetry_space_group_name_H-M "P -1"
_symmetry_group_IT_number 2
_symmetry_cell_setting 'triclinic'
loop_
_space_group_symop_operation_xyz
x,y,z
-x,-y,-z
loop_
_atom_site_type_symbol
_atom_site_label
_atom_site_fract_x
_atom_site_fract_y
_atom_site_fract_z
Si Si1 0.776998 0.371246 0.646997
Si Si2 0.256814 0.225230 0.631271
Si Si3 0.213473 0.478515 0.408947
Si Si4 0.575843 0.767549 0.694163
Si Si5 0.819372 0.906993 0.597365
Si Si6 0.981180 0.548489 0.847703
O O1 0.893339 0.434915 0.473912
O O2 0.000000 0.500000 0.500000
O O3 0.662260 0.042719 0.600178
O O4 0.531951 0.508356 0.035052
O O5 0.500000 0.500000 0.500000
O O6 0.197783 0.178031 0.604203
O O7 0.995191 0.257132 0.008650
O O8 0.170664 0.672647 0.631013
O O9 0.034276 0.174612 0.465524
O O10 0.718785 0.711700 0.548444
O O11 0.329395 0.503000 0.825362
O O12 0.446960 0.028345 0.010212
O O13 0.960121 0.744118 0.377387
#
# Coordination Sequence:
#
# PCOD8039360 Si02
#       6
#     2   2   2   2   2   2
#     4  11  23  40  60  81 112 150 191 234 276 333
#     4  10  20  37  59  84 115 148 183 230 284 331
#     4  10  21  36  57  82 110 151 192 227 278 334
#     4   9  18  32  55  85 112 146 187 226 274 327
#     4  10  18  33  58  85 113 147 190 232 272 330
#     4  10  20  34  55  84 117 147 182 232 282 331
#
# _framework density 21.781362999999999
#
# number of rings (size 3 to 8) (size 9 to 14) (size 15 to 20)
#    0.000    2.000    0.000    6.000    0.000    4.000 
#    0.000    7.500    0.000    0.000    0.000    0.000 
#    0.000    0.000    0.000    0.000    0.000    0.000 
#
# Total GULP energy -148663.966370 kJ/mol
# GULP energy per Si atom -12388.663864 kJ/mol
# Density = 2.173179 g / cm^3
# Si number density = 21.781363 Si / 1000 Ang^3
#
#
#
# Elastic Constant Matrix: (Units=GPa)
#
#
# Indices 1 2 3 4 5 6 
#
# 1 173.8501 42.9358 59.5262 -9.9000 37.1587 -6.7783
# 2 42.9358 60.4602 13.5829 3.5051 0.6040 -6.6156
# 3 59.5262 13.5829 74.7137 -4.6951 34.1598 4.7836
# 4 -9.9000 3.5051 -4.6951 19.3806 6.1764 2.3246
# 5 37.1587 0.6040 34.1598 6.1764 57.7194 -1.2192
# 6 -6.7783 -6.6156 4.7836 2.3246 -1.2192 25.7436
#
#
#
# Elastic Compliance Matrix: (Units=1/GPa)
#
#
# Indices 1 2 3 4 5 6 
#
# 1 0.010340 -0.006524 -0.004628 0.006656 -0.004538 0.001090
# 2 -0.006524 0.023256 -0.003553 -0.011523 0.007426 0.006311
# 3 -0.004628 -0.003553 0.024646 0.009286 -0.012735 -0.008153
# 4 0.006656 -0.011523 0.009286 0.065884 -0.016915 -0.009684
# 5 -0.004538 0.007426 -0.012735 -0.016915 0.029643 0.006011
# 6 0.001090 0.006311 -0.008153 -0.009684 0.006011 0.043427
#
#
# Mechanical properties :
#
#
# Convention : Reuss Voigt Hill
#
# Bulk Modulus (GPa) = 34.68651 60.12376 47.40514
# Shear Modulus (GPa) = 21.16695 33.43400 27.30047
#
# Velocity S-wave (km/s) = 3.12074 3.92214 3.54416
# Velocity P-wave (km/s) = 5.38004 6.94076 6.20962
#
# Compressibility (1/GPa) = 0.02882965
#
# Stress axis : x y z
#
# Youngs Moduli (GPa) = 96.71544 43.00035 40.57433
#
# Poissons Ratio (x) = 0.28054 0.18779
# Poissons Ratio (y) = 0.63099 0.14418
# Poissons Ratio (z) = 0.44763 0.15280
#
# Static dielectric constant tensor:
#      x y z
#    x 4.757290 0.101380 0.633960 
#    y 0.101380 3.468730 0.122320 
#    z 0.633960 0.122320 4.101050 
# 
# 
# High freq. dielectric constant tensor:
#      x y z
#    x 1.890180 0.003040 0.028490 
#    y 0.003040 1.805690 0.001700 
#    z 0.028490 0.001700 1.840890 
# 
# From -- ./inp_files/259731.got.cif
#   From: 2010.06.25/outbox.cif.g09.slc.cpg/sg2_130_cif.got.tgz:259731.got - 2010.06.27 13:26:56.
