data_PCOD8039672
_publ_section_title
;
Structure prediction by ZEFSAII (Michael W. Deem and Ramdas Pophale) SiO2 
 PCOD8039672
Probable space group: P -1
;
_chemical_formula_sum "Si O2"
_cell_formula_units_Z 16
_cell_length_a 10.058796
_cell_length_b 18.190433
_cell_length_c 11.064617
_cell_angle_alpha 129.698839
_cell_angle_beta 43.851715
_cell_angle_gamma 95.777591
_cell_volume 795.943059
_symmetry_space_group_name_H-M "P -1"
_symmetry_group_IT_number 2
_symmetry_cell_setting 'triclinic'
loop_
_space_group_symop_operation_xyz
x,y,z
-x,-y,-z
loop_
_atom_site_type_symbol
_atom_site_label
_atom_site_fract_x
_atom_site_fract_y
_atom_site_fract_z
Si Si1 0.278182 0.313122 0.339157
Si Si2 0.551742 0.359248 0.743072
Si Si3 0.134631 0.012729 0.604653
Si Si4 0.083237 0.423535 0.242049
Si Si5 0.170052 0.647292 0.230407
Si Si6 0.831796 0.182616 0.772310
Si Si7 0.723910 0.816626 0.030326
Si Si8 0.059689 0.883427 0.906213
O O1 0.132684 0.465595 0.593958
O O2 0.121628 0.301912 0.529716
O O3 0.583345 0.233146 0.070826
O O4 0.255565 0.259675 0.176651
O O5 0.789755 0.317743 0.626944
O O6 0.658538 0.250271 0.458290
O O7 0.366583 0.367945 0.966620
O O8 0.401806 0.491856 0.906077
O O9 0.068241 0.105292 0.632386
O O10 0.104194 0.913948 0.477025
O O11 0.422780 0.935584 0.385146
O O12 0.937593 0.099122 0.934058
O O13 0.000000 0.500000 0.500000
O O14 0.113479 0.297877 0.093939
O O15 0.201745 0.704977 0.154121
O O16 0.846186 0.878508 0.999120
O O17 0.000000 0.000000 0.000000
#
# Coordination Sequence:
#
# PCOD8039672 Si02
#       8
#     2   2   2   2   2   2   2   2
#     4   9  18  32  59  92 111 145 189 242 297 342
#     4  10  20  32  56  92 118 140 192 247 294 342
#     4  10  23  40  55  82 115 162 199 231 289 354
#     4   9  17  31  57  88 117 142 180 246 297 338
#     4  10  18  34  59  87 115 146 191 246 295 336
#     4  10  21  40  60  81 120 157 201 239 281 356
#     4  10  19  35  57  83 114 150 194 237 294 347
#     4  12  23  36  56  86 121 152 191 247 295 343
#
# _framework density 20.101942000000001
#
# number of rings (size 3 to 8) (size 9 to 14) (size 15 to 20)
#    0.000    2.000    1.250    4.125    3.500    0.000 
#    2.250    2.500    0.000    1.500    0.000    0.000 
#    0.000    0.000    0.000    0.000    0.000    0.000 
#
# Total GULP energy -198232.561287 kJ/mol
# GULP energy per Si atom -12389.535080 kJ/mol
# Density = 2.005619 g / cm^3
# Si number density = 20.101942 Si / 1000 Ang^3
#
#
#
# Elastic Constant Matrix: (Units=GPa)
#
#
# Indices 1 2 3 4 5 6 
#
# 1 36.3894 31.3667 34.2459 3.7205 0.9298 -0.5505
# 2 31.3667 149.9186 54.0512 12.5663 0.8266 2.9233
# 3 34.2459 54.0512 140.0501 -3.6227 5.4324 -0.5961
# 4 3.7205 12.5663 -3.6227 32.9583 1.2352 -2.1826
# 5 0.9298 0.8266 5.4324 1.2352 17.6246 -1.9855
# 6 -0.5505 2.9233 -0.5961 -2.1826 -1.9855 21.2377
#
#
#
# Elastic Compliance Matrix: (Units=1/GPa)
#
#
# Indices 1 2 3 4 5 6 
#
# 1 0.039664 -0.005245 -0.007790 -0.003284 0.000929 0.001281
# 2 -0.005245 0.008877 -0.002255 -0.003174 0.000587 -0.001692
# 3 -0.007790 -0.002255 0.010102 0.002982 -0.002756 0.000441
# 4 -0.003284 -0.003174 0.002982 0.032578 -0.002480 0.003552
# 5 0.000929 0.000587 -0.002756 -0.002480 0.058255 0.005057
# 6 0.001281 -0.001692 0.000441 0.003552 0.005057 0.048202
#
#
# Mechanical properties :
#
#
# Convention : Reuss Voigt Hill
#
# Bulk Modulus (GPa) = 35.63624 62.85398 49.24511
# Shear Modulus (GPa) = 21.04255 28.14375 24.59315
#
# Velocity S-wave (km/s) = 3.23893 3.74578 3.50154
# Velocity P-wave (km/s) = 5.63505 7.07413 6.39520
#
# Compressibility (1/GPa) = 0.02806132
#
# Stress axis : x y z
#
# Youngs Moduli (GPa) = 25.21158 112.65470 98.99388
#
# Poissons Ratio (x) = 0.59087 0.77119
# Poissons Ratio (y) = 0.13223 0.22328
# Poissons Ratio (z) = 0.19640 0.25409
#
# Static dielectric constant tensor:
#      x y z
#    x 3.214020 0.113080 -0.147630 
#    y 0.113080 4.075930 0.262050 
#    z -0.147630 0.262050 4.048820 
# 
# 
# High freq. dielectric constant tensor:
#      x y z
#    x 1.725720 0.007190 -0.012380 
#    y 0.007190 1.790910 0.005120 
#    z -0.012380 0.005120 1.800760 
# 
# From -- ./inp_files/436858.got.cif
#   From: 2010.06.25/outbox.cif.g09.slc.cpg/sg2_219_cif.got.tgz:436858.got - 2010.06.27 13:26:56.
