data_PCOD8039657
_publ_section_title
;
Structure prediction by ZEFSAII (Michael W. Deem and Ramdas Pophale) SiO2 
 PCOD8039657
Probable space group: P -1
;
_chemical_formula_sum "Si O2"
_cell_formula_units_Z 14
_cell_length_a 11.638186
_cell_length_b 6.303579
_cell_length_c 8.640212
_cell_angle_alpha 77.078932
_cell_angle_beta 92.461781
_cell_angle_gamma 96.114675
_cell_volume 614.180415
_symmetry_space_group_name_H-M "P -1"
_symmetry_group_IT_number 2
_symmetry_cell_setting 'triclinic'
loop_
_space_group_symop_operation_xyz
x,y,z
-x,-y,-z
loop_
_atom_site_type_symbol
_atom_site_label
_atom_site_fract_x
_atom_site_fract_y
_atom_site_fract_z
Si Si1 0.488631 0.965984 0.323072
Si Si2 0.000157 0.830741 0.887603
Si Si3 0.825954 0.451807 0.898963
Si Si4 0.744575 0.251793 0.622417
Si Si5 0.831250 0.032022 0.371705
Si Si6 0.671090 0.631495 0.366677
Si Si7 0.660975 0.315254 0.152373
O O1 0.352320 0.926256 0.280266
O O2 0.557059 0.756090 0.328818
O O3 0.500000 0.000000 0.500000
O O4 0.533394 0.185737 0.190672
O O5 0.871565 0.710712 0.865614
O O6 0.042476 0.939102 0.706849
O O7 0.087862 0.657172 0.964810
O O8 0.000000 0.000000 0.000000
O O9 0.830171 0.360207 0.740326
O O10 0.694763 0.393621 0.966241
O O11 0.827719 0.143052 0.522862
O O12 0.663442 0.423106 0.514223
O O13 0.741809 0.134537 0.238784
O O14 0.785556 0.776318 0.411848
O O15 0.686244 0.539805 0.211117
#
# Coordination Sequence:
#
# PCOD8039657 Si02
#       7
#     2   2   2   2   2   2   2
#     4  11  19  35  58  86 113 154 188 221 273 332
#     4  10  21  42  64  78 108 153 190 228 291 340
#     4  10  23  40  57  84 115 145 185 241 284 327
#     4  11  22  35  56  88 119 143 186 237 276 324
#     4   9  19  35  58  85 108 146 191 231 274 335
#     4  10  18  34  59  81 113 150 189 223 270 333
#     4   9  19  35  57  80 112 152 190 222 275 334
#
# _framework density 22.794604
#
# number of rings (size 3 to 8) (size 9 to 14) (size 15 to 20)
#    0.000    2.000    4.286    1.286    0.000    3.429 
#    0.000    2.143    0.000    0.000    0.000    0.000 
#    0.000    0.000    0.000    0.000    0.000    0.000 
#
# Total GULP energy -173461.547785 kJ/mol
# GULP energy per Si atom -12390.110556 kJ/mol
# Density = 2.274272 g / cm^3
# Si number density = 22.794604 Si / 1000 Ang^3
#
#
#
# Elastic Constant Matrix: (Units=GPa)
#
#
# Indices 1 2 3 4 5 6 
#
# 1 69.0116 38.8645 41.0119 -4.0562 -30.6321 30.2458
# 2 38.8645 122.8721 48.8158 25.4717 -28.6841 30.0844
# 3 41.0119 48.8158 105.2921 24.5024 -37.8717 24.1230
# 4 -4.0562 25.4717 24.5024 29.8485 3.9266 2.0433
# 5 -30.6321 -28.6841 -37.8717 3.9266 41.3072 -8.3858
# 6 30.2458 30.0844 24.1230 2.0433 -8.3858 37.3474
#
#
#
# Elastic Compliance Matrix: (Units=1/GPa)
#
#
# Indices 1 2 3 4 5 6 
#
# 1 0.034847 -0.003284 -0.005303 0.011451 0.013607 -0.019722
# 2 -0.003284 0.017362 0.006145 -0.021563 0.015129 -0.010718
# 3 -0.005303 0.006145 0.028684 -0.032347 0.027422 -0.011255
# 4 0.011451 -0.021563 -0.032347 0.084381 -0.041085 0.015148
# 5 0.013607 0.015129 0.027422 -0.041085 0.069154 -0.023143
# 6 -0.019722 -0.010718 -0.011255 0.015148 -0.023143 0.052626
#
#
# Mechanical properties :
#
#
# Convention : Reuss Voigt Hill
#
# Bulk Modulus (GPa) = 13.15633 61.61781 37.38707
# Shear Modulus (GPa) = 15.75922 32.93288 24.34605
#
# Velocity S-wave (km/s) = 2.63222 3.80513 3.27167
# Velocity P-wave (km/s) = 3.87586 6.81145 5.54158
#
# Compressibility (1/GPa) = 0.07600903
#
# Stress axis : x y z
#
# Youngs Moduli (GPa) = 28.69650 57.59638 34.86323
#
# Poissons Ratio (x) = 0.18915 0.18487
# Poissons Ratio (y) = 0.09424 -0.21422
# Poissons Ratio (z) = 0.15217 -0.35391
#
# Static dielectric constant tensor:
#      x y z
#    x 4.522390 0.352130 -0.718420 
#    y 0.352130 4.468510 -0.127570 
#    z -0.718420 -0.127570 4.063840 
# 
# 
# High freq. dielectric constant tensor:
#      x y z
#    x 1.875780 0.018210 -0.029690 
#    y 0.018210 1.910840 0.007960 
#    z -0.029690 0.007960 1.884430 
# 
# From -- ./inp_files/27021.got.cif
#   From: 2010.06.25/outbox.cif.g09.slc.cpg/sg2_14_cif.got.tgz:27021.got - 2010.06.27 13:26:56.
