data_PCOD8039768
_publ_section_title
;
Structure prediction by ZEFSAII (Michael W. Deem and Ramdas Pophale) SiO2 
 PCOD8039768
Probable space group: P -1
;
_chemical_formula_sum "Si O2"
_cell_formula_units_Z 16
_cell_length_a 5.326492
_cell_length_b 17.968132
_cell_length_c 20.803298
_cell_angle_alpha 18.421198
_cell_angle_beta 87.961826
_cell_angle_gamma 83.352772
_cell_volume 607.192367
_symmetry_space_group_name_H-M "P -1"
_symmetry_group_IT_number 2
_symmetry_cell_setting 'triclinic'
loop_
_space_group_symop_operation_xyz
x,y,z
-x,-y,-z
loop_
_atom_site_type_symbol
_atom_site_label
_atom_site_fract_x
_atom_site_fract_y
_atom_site_fract_z
Si Si1 0.483911 0.534708 0.120731
Si Si2 0.240387 0.119859 0.823554
Si Si3 0.572817 0.286814 0.522611
Si Si4 0.286694 0.874003 0.631127
Si Si5 0.922106 0.074632 0.134395
Si Si6 0.301217 0.148767 0.523721
Si Si7 0.319600 0.695990 0.273958
Si Si8 0.818615 0.552789 0.211359
O O1 0.608847 0.416651 0.148587
O O2 0.436907 0.312366 0.345046
O O3 0.701571 0.629237 0.078968
O O4 0.222313 0.760226 0.938474
O O5 0.441069 0.286220 0.696241
O O6 0.942299 0.276598 0.705269
O O7 0.281304 0.021953 0.828904
O O8 0.291991 0.899488 0.053327
O O9 0.448140 0.108918 0.624516
O O10 0.375612 0.421143 0.469436
O O11 0.606735 0.529581 0.284960
O O12 0.850744 0.142643 0.663993
O O13 0.500000 0.000000 0.500000
O O14 0.293137 0.903467 0.685017
O O15 0.000000 0.000000 0.500000
O O16 0.032178 0.239981 0.945597
O O17 0.004750 0.281684 0.430458
#
# Coordination Sequence:
#
# PCOD8039768 Si02
#       8
#     2   2   2   2   2   2   2   2
#     4   9  19  36  61  94 126 170 218 270 320 391
#     4  10  23  42  68  95 129 172 220 276 333 391
#     4  11  25  41  63  97 132 172 220 268 329 400
#     4  10  18  34  63  99 129 170 226 271 325 390
#     4  11  25  41  63  97 132 172 220 268 329 400
#     4   9  19  36  61  94 126 170 218 270 320 391
#     4  10  23  42  68  95 129 172 220 276 333 391
#     4  10  20  39  66  86 128 172 218 266 330 375
#
# _framework density 26.350791000000001
#
# number of rings (size 3 to 8) (size 9 to 14) (size 15 to 20)
#    0.000    2.000    1.250    2.250    8.750    2.000 
#    0.000    0.625    0.000    1.500    0.000    0.000 
#    0.000    0.000    0.000    0.000    0.000    0.000 
#
# Total GULP energy -198267.806443 kJ/mol
# GULP energy per Si atom -12391.737903 kJ/mol
# Density = 2.629082 g / cm^3
# Si number density = 26.350791 Si / 1000 Ang^3
#
#
#
# Elastic Constant Matrix: (Units=GPa)
#
#
# Indices 1 2 3 4 5 6 
#
# 1 108.7300 33.4949 36.9298 -17.5099 28.0225 24.6165
# 2 33.4949 171.8757 51.2686 -42.5974 22.1937 24.1768
# 3 36.9298 51.2686 86.6005 -26.7855 18.1057 6.1015
# 4 -17.5099 -42.5974 -26.7855 33.4320 -2.4566 3.0819
# 5 28.0225 22.1937 18.1057 -2.4566 35.0330 5.2476
# 6 24.6165 24.1768 6.1015 3.0819 5.2476 34.1239
#
#
#
# Elastic Compliance Matrix: (Units=1/GPa)
#
#
# Indices 1 2 3 4 5 6 
#
# 1 0.017025 0.004002 -0.002216 0.012648 -0.012022 -0.014014
# 2 0.004002 0.012329 -0.001269 0.017336 -0.007368 -0.011827
# 3 -0.002216 -0.001269 0.018017 0.011308 -0.005814 -0.000851
# 4 0.012648 0.017336 0.011308 0.068832 -0.018094 -0.026863
# 5 -0.012022 -0.007368 -0.005814 -0.018094 0.043075 0.009942
# 6 -0.014014 -0.011827 -0.000851 -0.026863 0.009942 0.048844
#
#
# Mechanical properties :
#
#
# Convention : Reuss Voigt Hill
#
# Bulk Modulus (GPa) = 20.65993 67.84363 44.25178
# Shear Modulus (GPa) = 22.39906 36.88530 29.64218
#
# Velocity S-wave (km/s) = 2.91870 3.74542 3.35760
# Velocity P-wave (km/s) = 4.38358 6.67132 5.64456
#
# Compressibility (1/GPa) = 0.04840286
#
# Stress axis : x y z
#
# Youngs Moduli (GPa) = 58.73662 81.11222 55.50314
#
# Poissons Ratio (x) = -0.32458 0.12301
# Poissons Ratio (y) = -0.23504 0.07045
# Poissons Ratio (z) = 0.13018 0.10296
#
# Static dielectric constant tensor:
#      x y z
#    x 4.815150 0.130570 0.138710 
#    y 0.130570 5.343560 -0.516530 
#    z 0.138710 -0.516530 4.589720 
# 
# 
# High freq. dielectric constant tensor:
#      x y z
#    x 2.064350 0.003580 0.006560 
#    y 0.003580 2.055580 -0.013420 
#    z 0.006560 -0.013420 2.051720 
# 
# From -- ./inp_files/54018.got.cif
#   From: 2010.06.25/outbox.cif.g09.slc.cpg/sg2_28_cif.got.tgz:54018.got - 2010.06.27 13:26:56.
