data_PCOD8039923
_publ_section_title
;
Structure prediction by ZEFSAII (Michael W. Deem and Ramdas Pophale) SiO2 
 PCOD8039923
Probable space group: P -1
;
_chemical_formula_sum "Si O2"
_cell_formula_units_Z 16
_cell_length_a 13.925821
_cell_length_b 13.868880
_cell_length_c 6.847876
_cell_angle_alpha 61.917979
_cell_angle_beta 104.543654
_cell_angle_gamma 137.798254
_cell_volume 773.135090
_symmetry_space_group_name_H-M "P -1"
_symmetry_group_IT_number 2
_symmetry_cell_setting 'triclinic'
loop_
_space_group_symop_operation_xyz
x,y,z
-x,-y,-z
loop_
_atom_site_type_symbol
_atom_site_label
_atom_site_fract_x
_atom_site_fract_y
_atom_site_fract_z
Si Si1 0.709971 0.317254 0.084202
Si Si2 0.349701 0.324477 0.282676
Si Si3 0.133929 0.668789 0.502651
Si Si4 0.243519 0.834585 0.004039
Si Si5 0.016042 0.340095 0.228534
Si Si6 0.489039 0.333815 0.989154
Si Si7 0.258960 0.092131 0.803116
Si Si8 0.043735 0.134646 0.264557
O O1 0.767618 0.331870 0.314222
O O2 0.657335 0.170233 0.067656
O O3 0.578343 0.294027 0.066908
O O4 0.836088 0.473367 0.871061
O O5 0.459513 0.343739 0.187593
O O6 0.307056 0.215844 0.545606
O O7 0.205679 0.244026 0.159895
O O8 0.426310 0.497652 0.231479
O O9 0.000000 0.500000 0.500000
O O10 0.069990 0.714934 0.559598
O O11 0.237724 0.801804 0.261957
O O12 0.081152 0.693621 0.967915
O O13 0.305750 0.007157 0.843679
O O14 0.051594 0.242373 0.313679
O O15 0.334882 0.188411 0.948739
O O16 0.083098 0.951077 0.880816
O O17 0.000000 0.000000 0.500000
#
# Coordination Sequence:
#
# PCOD8039923 Si02
#       8
#     2   2   2   2   2   2   2   2
#     4  11  21  36  59  88 122 159 197 246 303 352
#     4  10  22  44  64  88 121 161 209 247 296 357
#     4  11  19  34  60  92 119 154 204 249 294 357
#     4  10  21  37  59  90 122 156 198 252 301 356
#     4  10  18  35  58  88 123 151 196 252 298 349
#     4  11  24  40  64  90 123 163 202 247 298 368
#     4  10  23  41  63  89 124 157 200 251 308 357
#     4   9  19  38  64  87 117 158 197 251 302 345
#
# _framework density 20.694960999999999
#
# number of rings (size 3 to 8) (size 9 to 14) (size 15 to 20)
#    0.000    1.750    3.750    1.125    0.000    6.000 
#    0.000    7.500    0.000    0.000    0.000    0.000 
#    0.000    0.000    0.000    0.000    0.000    0.000 
#
# Total GULP energy -198334.498860 kJ/mol
# GULP energy per Si atom -12395.906179 kJ/mol
# Density = 2.064786 g / cm^3
# Si number density = 20.694961 Si / 1000 Ang^3
#
#
#
# Elastic Constant Matrix: (Units=GPa)
#
#
# Indices 1 2 3 4 5 6 
#
# 1 131.1796 28.5413 31.1057 1.2236 8.6802 -9.7989
# 2 28.5413 89.7860 13.1735 5.5075 10.8117 -4.9917
# 3 31.1057 13.1735 74.9977 11.5634 4.4293 -5.6629
# 4 1.2236 5.5075 11.5634 24.4401 -4.6066 3.9056
# 5 8.6802 10.8117 4.4293 -4.6066 23.3972 -6.0497
# 6 -9.7989 -4.9917 -5.6629 3.9056 -6.0497 26.3173
#
#
#
# Elastic Compliance Matrix: (Units=1/GPa)
#
#
# Indices 1 2 3 4 5 6 
#
# 1 0.009102 -0.002249 -0.003361 0.001160 -0.000998 0.001838
# 2 -0.002249 0.012853 -0.000349 -0.003799 -0.005578 0.000807
# 3 -0.003361 -0.000349 0.016474 -0.008506 -0.002640 0.002883
# 4 0.001160 -0.003799 -0.008506 0.048872 0.010775 -0.006895
# 5 -0.000998 -0.005578 -0.002640 0.010775 0.050373 0.007983
# 6 0.001838 0.000807 0.002883 -0.006895 0.007983 0.042314
#
#
# Mechanical properties :
#
#
# Convention : Reuss Voigt Hill
#
# Bulk Modulus (GPa) = 37.71944 49.06715 43.39330
# Shear Modulus (GPa) = 24.90747 29.70711 27.30729
#
# Velocity S-wave (km/s) = 3.47299 3.79288 3.63645
# Velocity P-wave (km/s) = 5.86073 6.55305 6.21653
#
# Compressibility (1/GPa) = 0.02651153
#
# Stress axis : x y z
#
# Youngs Moduli (GPa) = 109.86662 77.80093 60.70140
#
# Poissons Ratio (x) = 0.17498 0.20403
# Poissons Ratio (y) = 0.24709 0.02117
# Poissons Ratio (z) = 0.36928 0.02713
#
# Static dielectric constant tensor:
#      x y z
#    x 3.847860 0.156850 0.215820 
#    y 0.156850 4.026310 0.021550 
#    z 0.215820 0.021550 3.521010 
# 
# 
# High freq. dielectric constant tensor:
#      x y z
#    x 1.815270 -0.011890 0.014050 
#    y -0.011890 1.815880 -0.005580 
#    z 0.014050 -0.005580 1.785020 
# 
# From -- ./inp_files/97591.got.cif
#   From: 2010.06.25/outbox.cif.g09.slc.cpg/sg2_49_cif.got.tgz:97591.got - 2010.06.27 13:26:56.
