data_PCOD8039755
_publ_section_title
;
Structure prediction by ZEFSAII (Michael W. Deem and Ramdas Pophale) SiO2 
 PCOD8039755
Probable space group: P -1
;
_chemical_formula_sum "Si O2"
_cell_formula_units_Z 16
_cell_length_a 8.737166
_cell_length_b 12.614428
_cell_length_c 11.764564
_cell_angle_alpha 47.206840
_cell_angle_beta 60.967609
_cell_angle_gamma 80.023668
_cell_volume 806.807374
_symmetry_space_group_name_H-M "P -1"
_symmetry_group_IT_number 2
_symmetry_cell_setting 'triclinic'
loop_
_space_group_symop_operation_xyz
x,y,z
-x,-y,-z
loop_
_atom_site_type_symbol
_atom_site_label
_atom_site_fract_x
_atom_site_fract_y
_atom_site_fract_z
Si Si1 0.123889 0.493236 0.069898
Si Si2 0.365100 0.340563 0.975457
Si Si3 0.951110 0.246441 0.958545
Si Si4 0.650623 0.632818 0.295844
Si Si5 0.977447 0.916181 0.730568
Si Si6 0.577962 0.150886 0.743353
Si Si7 0.356495 0.825262 0.046814
Si Si8 0.900707 0.194100 0.450040
O O1 0.032513 0.357257 0.284189
O O2 0.320639 0.467823 0.981021
O O3 0.150883 0.645567 0.017623
O O4 0.000000 0.500000 0.000000
O O5 0.350370 0.401504 0.811087
O O6 0.561485 0.305714 0.943667
O O7 0.214335 0.188009 0.161309
O O8 0.978007 0.118934 0.130033
O O9 0.822437 0.165441 0.962997
O O10 0.138307 0.340659 0.764555
O O11 0.500000 0.500000 0.500000
O O12 0.599069 0.785404 0.236638
O O13 0.120846 0.879356 0.614975
O O14 0.970624 0.088129 0.593451
O O15 0.689519 0.201068 0.783880
O O16 0.707431 0.215934 0.544349
O O17 0.514417 0.975117 0.876144
#
# Coordination Sequence:
#
# PCOD8039755 Si02
#       8
#     2   2   2   2   2   2   2   2
#     4  11  19  35  64  88 112 157 194 242 300 355
#     4   9  18  36  57  83 116 153 196 231 301 354
#     4  11  22  38  60  90 120 149 203 248 289 341
#     4  10  20  35  58  87 115 154 197 242 285 354
#     4   9  18  34  62  86 113 150 192 251 287 343
#     4  10  21  37  61  81 113 170 192 228 306 350
#     4  10  22  39  58  84 121 156 197 245 288 352
#     4  10  18  34  63  86 111 150 203 232 292 363
#
# _framework density 19.831250000000001
#
# number of rings (size 3 to 8) (size 9 to 14) (size 15 to 20)
#    0.000    2.000    5.000    0.750    1.750    1.000 
#    0.000    6.250    0.000    0.000    0.000    0.000 
#    0.000    0.000    0.000    0.000    0.000    0.000 
#
# Total GULP energy -198269.972801 kJ/mol
# GULP energy per Si atom -12391.873300 kJ/mol
# Density = 1.978611 g / cm^3
# Si number density = 19.831250 Si / 1000 Ang^3
#
#
#
# Elastic Constant Matrix: (Units=GPa)
#
#
# Indices 1 2 3 4 5 6 
#
# 1 94.3768 30.3774 23.7375 5.7311 -4.6304 4.5365
# 2 30.3774 76.1675 25.2110 11.9864 -6.9165 -14.6777
# 3 23.7375 25.2110 100.2910 15.6118 4.1226 -4.5018
# 4 5.7311 11.9864 15.6118 30.5216 -16.6046 -2.9714
# 5 -4.6304 -6.9165 4.1226 -16.6046 20.3862 -0.1339
# 6 4.5365 -14.6777 -4.5018 -2.9714 -0.1339 25.5857
#
#
#
# Elastic Compliance Matrix: (Units=1/GPa)
#
#
# Indices 1 2 3 4 5 6 
#
# 1 0.013353 -0.005659 -0.002501 0.002322 0.003472 -0.005766
# 2 -0.005659 0.019207 -0.003013 -0.001100 0.005019 0.011390
# 3 -0.002501 -0.003013 0.014236 -0.014574 -0.016343 -0.000558
# 4 0.002322 -0.001100 -0.014574 0.076255 0.065248 0.005590
# 5 0.003472 0.005019 -0.016343 0.065248 0.108043 0.007531
# 6 -0.005766 0.011390 -0.000558 0.005590 0.007531 0.047231
#
#
# Mechanical properties :
#
#
# Convention : Reuss Voigt Hill
#
# Bulk Modulus (GPa) = 40.89877 47.72077 44.30977
# Shear Modulus (GPa) = 16.19068 28.06602 22.12835
#
# Velocity S-wave (km/s) = 2.86041 3.76605 3.34403
# Velocity P-wave (km/s) = 5.61938 6.55946 6.10753
#
# Compressibility (1/GPa) = 0.02445061
#
# Stress axis : x y z
#
# Youngs Moduli (GPa) = 74.89069 52.06487 70.24594
#
# Poissons Ratio (x) = 0.29463 0.17567
# Poissons Ratio (y) = 0.42380 0.21163
# Poissons Ratio (z) = 0.18729 0.15685
#
# Static dielectric constant tensor:
#      x y z
#    x 3.451280 -0.445240 0.028160 
#    y -0.445240 3.751050 0.273800 
#    z 0.028160 0.273800 3.761140 
# 
# 
# High freq. dielectric constant tensor:
#      x y z
#    x 1.741100 -0.037690 0.010610 
#    y -0.037690 1.773040 0.016790 
#    z 0.010610 0.016790 1.770920 
# 
# From -- ./inp_files/274593.got.cif
#   From: 2010.06.25/outbox.cif.g09.slc.cpg/sg2_138_cif.got.tgz:274593.got - 2010.06.27 13:26:56.
