data_PCOD8039582
_publ_section_title
;
Structure prediction by ZEFSAII (Michael W. Deem and Ramdas Pophale) SiO2 
 PCOD8039582
Probable space group: P -1
;
_chemical_formula_sum "Si O2"
_cell_formula_units_Z 16
_cell_length_a 23.080038
_cell_length_b 11.497238
_cell_length_c 11.996909
_cell_angle_alpha 36.482171
_cell_angle_beta 30.399598
_cell_angle_gamma 32.010404
_cell_volume 821.971073
_symmetry_space_group_name_H-M "P -1"
_symmetry_group_IT_number 2
_symmetry_cell_setting 'triclinic'
loop_
_space_group_symop_operation_xyz
x,y,z
-x,-y,-z
loop_
_atom_site_type_symbol
_atom_site_label
_atom_site_fract_x
_atom_site_fract_y
_atom_site_fract_z
Si Si1 0.629437 0.617381 0.511878
Si Si2 0.423513 0.767189 0.909157
Si Si3 0.554462 0.169582 0.757012
Si Si4 0.801823 0.078902 0.005122
Si Si5 0.715635 0.105088 0.750410
Si Si6 0.985743 0.163758 0.496864
Si Si7 0.418802 0.685807 0.631094
Si Si8 0.126104 0.400726 0.789883
O O1 0.526721 0.794131 0.639476
O O2 0.702375 0.345577 0.620639
O O3 0.545354 0.673077 0.494112
O O4 0.747883 0.672401 0.279204
O O5 0.283297 0.846555 0.023350
O O6 0.500000 0.500000 0.000000
O O7 0.387840 0.904804 0.980548
O O8 0.674886 0.096128 0.699260
O O9 0.444269 0.435950 0.751635
O O10 0.609452 0.152034 0.553906
O O11 0.500000 0.000000 0.000000
O O12 0.714736 0.213157 0.152546
O O13 0.859649 0.813235 0.135415
O O14 0.921634 0.125870 0.744476
O O15 0.865493 0.893879 0.675693
O O16 0.891940 0.422806 0.412495
O O17 0.000000 0.000000 0.500000
O O18 0.000000 0.500000 0.000000
#
# Coordination Sequence:
#
# PCOD8039582 Si02
#       8
#     2   2   2   2   2   2   2   2
#     4   9  18  32  54  82 117 146 179 234 293 347
#     4   9  16  30  53  83 112 143 177 225 292 353
#     4  10  22  40  63  83 109 150 198 247 290 337
#     4  11  22  36  57  86 121 153 188 237 286 350
#     4  10  18  34  57  82 113 149 191 233 288 340
#     4  12  20  37  56  81 122 158 185 228 285 345
#     4   9  22  41  58  85 115 147 194 245 294 334
#     4  12  22  33  54  87 122 157 192 222 283 360
#
# _framework density 19.465403999999999
#
# number of rings (size 3 to 8) (size 9 to 14) (size 15 to 20)
#    0.000    1.750    3.750    1.500    0.000    6.000 
#    0.000    1.875    0.000    1.500    0.000    0.000 
#    0.000    0.000    0.000    0.000    0.000    0.000 
#
# Total GULP energy -198252.822604 kJ/mol
# GULP energy per Si atom -12390.801413 kJ/mol
# Density = 1.942110 g / cm^3
# Si number density = 19.465404 Si / 1000 Ang^3
#
#
#
# Elastic Constant Matrix: (Units=GPa)
#
#
# Indices 1 2 3 4 5 6 
#
# 1 88.3418 28.5108 58.3493 7.7860 15.3631 -11.6414
# 2 28.5108 83.4257 47.1484 -4.4728 4.9016 -3.4940
# 3 58.3493 47.1484 123.2534 10.5805 7.7914 6.6809
# 4 7.7860 -4.4728 10.5805 40.4114 -1.3421 -2.5352
# 5 15.3631 4.9016 7.7914 -1.3421 32.3454 1.7054
# 6 -11.6414 -3.4940 6.6809 -2.5352 1.7054 22.0539
#
#
#
# Elastic Compliance Matrix: (Units=1/GPa)
#
#
# Indices 1 2 3 4 5 6 
#
# 1 0.021943 -0.000533 -0.010382 -0.000902 -0.008680 0.015211
# 2 -0.000533 0.016316 -0.006537 0.003896 -0.000736 0.004789
# 3 -0.010382 -0.006537 0.016343 -0.003678 0.002469 -0.012081
# 4 -0.000902 0.003896 -0.003678 0.026630 0.001608 0.004192
# 5 -0.008680 -0.000736 0.002469 0.001608 0.035043 -0.007971
# 6 0.015211 0.004789 -0.012081 0.004192 -0.007971 0.058890
#
#
# Mechanical properties :
#
#
# Convention : Reuss Voigt Hill
#
# Bulk Modulus (GPa) = 50.76560 62.55974 56.66267
# Shear Modulus (GPa) = 23.08053 29.69632 26.38843
#
# Velocity S-wave (km/s) = 3.44717 3.91012 3.68592
# Velocity P-wave (km/s) = 6.47923 7.25218 6.87658
#
# Compressibility (1/GPa) = 0.01969838
#
# Stress axis : x y z
#
# Youngs Moduli (GPa) = 45.57356 61.29125 61.18664
#
# Poissons Ratio (x) = 0.03264 0.63527
# Poissons Ratio (y) = 0.02427 0.39995
# Poissons Ratio (z) = 0.47317 0.40064
#
# Static dielectric constant tensor:
#      x y z
#    x 3.462950 -0.131860 0.206210 
#    y -0.131860 3.929500 0.058180 
#    z 0.206210 0.058180 3.976740 
# 
# 
# High freq. dielectric constant tensor:
#      x y z
#    x 1.726800 -0.013470 0.009070 
#    y -0.013470 1.765470 0.000640 
#    z 0.009070 0.000640 1.761110 
# 
# From -- ./inp_files/455752.got.cif
#   From: 2010.06.25/outbox.cif.g09.slc.cpg/sg2_228_cif.got.tgz:455752.got - 2010.06.27 13:26:56.
