data_PCOD8039462
_publ_section_title
;
Structure prediction by ZEFSAII (Michael W. Deem and Ramdas Pophale) SiO2 
 PCOD8039462
Probable space group: P -1
;
_chemical_formula_sum "Si O2"
_cell_formula_units_Z 16
_cell_length_a 23.647001
_cell_length_b 11.308550
_cell_length_c 7.897721
_cell_angle_alpha 40.306004
_cell_angle_beta 37.832968
_cell_angle_gamma 38.595888
_cell_volume 747.548024
_symmetry_space_group_name_H-M "P -1"
_symmetry_group_IT_number 2
_symmetry_cell_setting 'triclinic'
loop_
_space_group_symop_operation_xyz
x,y,z
-x,-y,-z
loop_
_atom_site_type_symbol
_atom_site_label
_atom_site_fract_x
_atom_site_fract_y
_atom_site_fract_z
Si Si1 0.008891 0.684956 0.868708
Si Si2 0.339962 0.922205 0.687008
Si Si3 0.839304 0.128298 0.713762
Si Si4 0.256606 0.064973 0.378964
Si Si5 0.862960 0.527542 0.917674
Si Si6 0.675629 0.813639 0.235219
Si Si7 0.452165 0.392581 0.350365
Si Si8 0.240106 0.722723 0.625197
O O1 0.100926 0.737835 0.525540
O O2 0.026458 0.613914 0.103955
O O3 0.903474 0.889998 0.874365
O O4 0.000000 0.500000 0.000000
O O5 0.458549 0.754161 0.572273
O O6 0.308770 0.059954 0.441042
O O7 0.324789 0.068643 0.722960
O O8 0.269089 0.802680 0.006797
O O9 0.814417 0.141712 0.558828
O O10 0.231118 0.873646 0.634542
O O11 0.148828 0.277336 0.378839
O O12 0.335413 0.047613 0.058401
O O13 0.784429 0.607267 0.180676
O O14 0.825565 0.394386 0.032730
O O15 0.583606 0.747790 0.526326
O O16 0.358980 0.560116 0.495031
O O17 0.500000 0.500000 0.000000
#
# Coordination Sequence:
#
# PCOD8039462 Si02
#       8
#     2   2   2   2   2   2   2   2
#     4  10  18  33  64  87 109 157 193 233 303 353
#     4  12  22  37  60  91 116 157 201 239 295 342
#     4  10  20  35  58  89 117 145 199 245 285 357
#     4  10  21  38  61  82 125 158 190 243 289 343
#     4   8  19  37  59  82 114 157 189 235 294 346
#     4   9  20  40  59  82 123 159 188 246 290 340
#     4  11  21  36  61  88 119 159 202 242 286 344
#     4  10  18  39  57  80 122 156 191 240 294 336
#
# _framework density 21.403307999999999
#
# number of rings (size 3 to 8) (size 9 to 14) (size 15 to 20)
#    0.750    1.250    2.500    1.875    0.000    1.000 
#    2.250    0.625    0.000   10.500    0.000    0.000 
#    0.000    0.000    0.000    0.000    0.000    0.000 
#
# Total GULP energy -198221.635493 kJ/mol
# GULP energy per Si atom -12388.852218 kJ/mol
# Density = 2.135459 g / cm^3
# Si number density = 21.403308 Si / 1000 Ang^3
#
#
#
# Elastic Constant Matrix: (Units=GPa)
#
#
# Indices 1 2 3 4 5 6 
#
# 1 113.3230 43.6011 50.2794 -11.0052 3.2825 -3.9229
# 2 43.6011 78.6930 26.5076 -26.5631 -6.0970 -14.2122
# 3 50.2794 26.5076 65.5386 -15.3733 -18.2548 15.7009
# 4 -11.0052 -26.5631 -15.3733 31.0409 -1.0276 -4.1531
# 5 3.2825 -6.0970 -18.2548 -1.0276 41.0896 -6.5082
# 6 -3.9229 -14.2122 15.7009 -4.1531 -6.5082 37.1409
#
#
#
# Elastic Compliance Matrix: (Units=1/GPa)
#
#
# Indices 1 2 3 4 5 6 
#
# 1 0.018837 -0.007550 -0.016845 -0.007962 -0.009734 0.003626
# 2 -0.007550 0.028464 -0.001956 0.022904 0.006856 0.014684
# 3 -0.016845 -0.001956 0.039699 0.010524 0.016543 -0.015234
# 4 -0.007962 0.022904 0.010524 0.056189 0.011994 0.011859
# 5 -0.009734 0.006856 0.016543 0.011994 0.034085 0.001916
# 6 0.003626 0.014684 -0.015234 0.011859 0.001916 0.041028
#
#
# Mechanical properties :
#
#
# Convention : Reuss Voigt Hill
#
# Bulk Modulus (GPa) = 29.15645 55.37008 42.26326
# Shear Modulus (GPa) = 17.70303 30.99870 24.35086
#
# Velocity S-wave (km/s) = 2.87908 3.80980 3.37666
# Velocity P-wave (km/s) = 4.97033 6.72895 5.91536
#
# Compressibility (1/GPa) = 0.03429773
#
# Stress axis : x y z
#
# Youngs Moduli (GPa) = 53.08601 35.13185 25.18975
#
# Poissons Ratio (x) = 0.26524 0.42433
# Poissons Ratio (y) = 0.40078 0.04927
# Poissons Ratio (z) = 0.89426 0.06872
#
# Static dielectric constant tensor:
#      x y z
#    x 3.891040 -0.409040 -0.259090 
#    y -0.409040 3.989750 -0.278930 
#    z -0.259090 -0.278930 3.807620 
# 
# 
# High freq. dielectric constant tensor:
#      x y z
#    x 1.834190 -0.021250 -0.019300 
#    y -0.021250 1.829010 -0.028690 
#    z -0.019300 -0.028690 1.828280 
# 
# From -- ./inp_files/352873.got.cif
#   From: 2010.06.25/outbox.cif.g09.slc.cpg/sg2_177_cif.got.tgz:352873.got - 2010.06.27 13:26:56.
