data_PCOD8039469
_publ_section_title
;
Structure prediction by ZEFSAII (Michael W. Deem and Ramdas Pophale) SiO2 
 PCOD8039469
Probable space group: P -1
;
_chemical_formula_sum "Si O2"
_cell_formula_units_Z 14
_cell_length_a 9.867929
_cell_length_b 15.363694
_cell_length_c 7.900963
_cell_angle_alpha 92.235702
_cell_angle_beta 62.922324
_cell_angle_gamma 136.176994
_cell_volume 652.095619
_symmetry_space_group_name_H-M "P -1"
_symmetry_group_IT_number 2
_symmetry_cell_setting 'triclinic'
loop_
_space_group_symop_operation_xyz
x,y,z
-x,-y,-z
loop_
_atom_site_type_symbol
_atom_site_label
_atom_site_fract_x
_atom_site_fract_y
_atom_site_fract_z
Si Si1 0.645731 0.797567 0.945674
Si Si2 0.031356 0.711978 0.037521
Si Si3 0.257714 0.429405 0.473832
Si Si4 0.772053 0.763962 0.211536
Si Si5 0.901610 0.834641 0.497432
Si Si6 0.551638 0.933950 0.874404
Si Si7 0.704005 0.514631 0.898250
O O1 0.843777 0.874061 0.686325
O O2 0.565137 0.861412 0.997556
O O3 0.750095 0.820005 0.072634
O O4 0.418007 0.633595 0.011588
O O5 0.913819 0.622706 0.273808
O O6 0.007499 0.806322 0.053262
O O7 0.901097 0.614141 0.940703
O O8 0.319103 0.813004 0.871188
O O9 0.538655 0.591969 0.355759
O O10 0.263446 0.328354 0.423040
O O11 0.154243 0.426195 0.359296
O O12 0.835580 0.848263 0.351794
O O13 0.191311 0.941696 0.363863
O O14 0.500000 0.000000 0.000000
O O15 0.500000 0.500000 0.000000
#
# Coordination Sequence:
#
# PCOD8039469 Si02
#       7
#     2   2   2   2   2   2   2
#     4  11  23  41  67  95 121 161 218 261 296 375
#     4  11  20  39  62  91 129 163 196 258 320 363
#     4  10  18  33  66  95 117 156 205 258 307 362
#     4  10  19  36  68  96 116 158 218 256 307 366
#     4  11  20  40  65  89 124 169 214 246 302 379
#     4  12  26  43  60  89 136 174 199 252 321 366
#     4  11  19  36  66 100 118 151 212 264 310 361
#
# _framework density 21.469245000000001
#
# number of rings (size 3 to 8) (size 9 to 14) (size 15 to 20)
#    0.000    1.143    7.143    3.000    0.000    1.143 
#    0.000    8.571    0.000    0.000    0.000    0.000 
#    0.000    0.000    0.000    0.000    0.000    0.000 
#
# Total GULP energy -173516.006553 kJ/mol
# GULP energy per Si atom -12394.000468 kJ/mol
# Density = 2.142038 g / cm^3
# Si number density = 21.469245 Si / 1000 Ang^3
#
#
#
# Elastic Constant Matrix: (Units=GPa)
#
#
# Indices 1 2 3 4 5 6 
#
# 1 139.1230 66.0324 73.7950 -5.1996 7.7091 10.1518
# 2 66.0324 93.1408 59.0132 11.7474 2.7107 14.4032
# 3 73.7950 59.0132 86.2553 13.3826 8.5367 23.8311
# 4 -5.1996 11.7474 13.3826 22.3927 3.0419 7.9862
# 5 7.7091 2.7107 8.5367 3.0419 21.4696 1.7166
# 6 10.1518 14.4032 23.8311 7.9862 1.7166 47.1490
#
#
#
# Elastic Compliance Matrix: (Units=1/GPa)
#
#
# Indices 1 2 3 4 5 6 
#
# 1 0.018138 -0.006147 -0.014168 0.015302 -0.002482 0.002632
# 2 -0.006147 0.021420 -0.008633 -0.008194 0.004066 0.000383
# 3 -0.014168 -0.008633 0.035088 -0.015799 -0.004801 -0.009197
# 4 0.015302 -0.008194 -0.015799 0.064117 -0.006990 -0.003412
# 5 -0.002482 0.004066 -0.004801 -0.006990 0.049767 0.001091
# 6 0.002632 0.000383 -0.009197 -0.003412 0.001091 0.025712
#
#
# Mechanical properties :
#
#
# Convention : Reuss Voigt Hill
#
# Bulk Modulus (GPa) = 59.69897 79.57780 69.63838
# Shear Modulus (GPa) = 18.00370 26.18085 22.09228
#
# Velocity S-wave (km/s) = 2.89897 3.49586 3.21131
# Velocity P-wave (km/s) = 6.25080 7.31035 6.80124
#
# Compressibility (1/GPa) = 0.01675071
#
# Stress axis : x y z
#
# Youngs Moduli (GPa) = 55.13349 46.68554 28.49984
#
# Poissons Ratio (x) = 0.28698 0.40378
# Poissons Ratio (y) = 0.33891 0.24603
# Poissons Ratio (z) = 0.78111 0.40302
#
# Static dielectric constant tensor:
#      x y z
#    x 3.974310 0.258580 0.164710 
#    y 0.258580 4.052590 -0.026620 
#    z 0.164710 -0.026620 4.131820 
# 
# 
# High freq. dielectric constant tensor:
#      x y z
#    x 1.819080 0.014550 0.022690 
#    y 0.014550 1.857370 -0.006910 
#    z 0.022690 -0.006910 1.833830 
# 
# From -- ./inp_files/206843.got.cif
#   From: 2010.06.25/outbox.cif.g09.slc.cpg/sg2_104_cif.got.tgz:206843.got - 2010.06.27 13:26:56.
