data_PCOD8039225
_publ_section_title
;
Structure prediction by ZEFSAII (Michael W. Deem and Ramdas Pophale) SiO2 
 PCOD8039225
Probable space group: P -1
;
_chemical_formula_sum "Si O2"
_cell_formula_units_Z 16
_cell_length_a 11.569458
_cell_length_b 20.360572
_cell_length_c 17.837322
_cell_angle_alpha 158.631998
_cell_angle_beta 38.259486
_cell_angle_gamma 140.541184
_cell_volume 932.334705
_symmetry_space_group_name_H-M "P -1"
_symmetry_group_IT_number 2
_symmetry_cell_setting 'triclinic'
loop_
_space_group_symop_operation_xyz
x,y,z
-x,-y,-z
loop_
_atom_site_type_symbol
_atom_site_label
_atom_site_fract_x
_atom_site_fract_y
_atom_site_fract_z
Si Si1 0.590046 0.127462 0.158289
Si Si2 0.910506 0.141320 0.910014
Si Si3 0.615669 0.314364 0.816770
Si Si4 0.593631 0.537095 0.411205
Si Si5 0.323345 0.272054 0.793633
Si Si6 0.715467 0.096433 0.660641
Si Si7 0.381569 0.840101 0.054061
Si Si8 0.006573 0.243175 0.557928
O O1 0.485740 0.296788 0.409958
O O2 0.561157 0.999754 0.111243
O O3 0.806954 0.204901 0.104815
O O4 0.500000 0.000000 0.000000
O O5 0.789799 0.157713 0.914076
O O6 0.116320 0.265047 0.928052
O O7 0.924098 0.931511 0.698469
O O8 0.463344 0.229578 0.742541
O O9 0.572374 0.198847 0.793589
O O10 0.826779 0.294376 0.658461
O O11 0.606438 0.527233 0.063628
O O12 0.500000 0.500000 0.500000
O O13 0.822501 0.585129 0.349752
O O14 0.545656 0.353400 0.190937
O O15 0.321174 0.120485 0.569233
O O16 0.692823 0.125091 0.789556
O O17 0.931455 0.187258 0.621983
#
# Coordination Sequence:
#
# PCOD8039225 Si02
#       8
#     2   2   2   2   2   2   2   2
#     4  10  19  33  48  75 103 136 182 203 246 307
#     4  10  18  33  53  77 105 138 171 213 255 302
#     4   9  20  36  53  82  99 131 182 210 256 311
#     4  12  19  32  54  73 107 142 172 216 245 303
#     4  10  19  36  59  74 103 134 172 223 256 298
#     4   9  22  34  51  77 111 137 166 208 268 315
#     4  11  21  34  50  77 113 141 165 207 266 312
#     4   9  19  33  49  80 105 130 175 208 254 311
#
# _framework density 17.16122
#
# number of rings (size 3 to 8) (size 9 to 14) (size 15 to 20)
#    0.750    1.250    5.000    1.125    0.000    3.500 
#    0.000    0.000    0.000    0.750    0.000    2.625 
#    0.000    0.000    0.000    0.000    0.000    0.000 
#
# Total GULP energy -198250.903453 kJ/mol
# GULP energy per Si atom -12390.681466 kJ/mol
# Density = 1.712216 g / cm^3
# Si number density = 17.161220 Si / 1000 Ang^3
#
#
#
# Elastic Constant Matrix: (Units=GPa)
#
#
# Indices 1 2 3 4 5 6 
#
# 1 60.6521 36.2856 36.9442 -10.9570 -8.5885 2.1551
# 2 36.2856 89.7377 39.6961 -14.5514 12.8850 -2.5879
# 3 36.9442 39.6961 100.7512 0.9929 -5.9779 2.3102
# 4 -10.9570 -14.5514 0.9929 29.2523 -3.0512 -4.1490
# 5 -8.5885 12.8850 -5.9779 -3.0512 21.6439 1.9234
# 6 2.1551 -2.5879 2.3102 -4.1490 1.9234 13.8713
#
#
#
# Elastic Compliance Matrix: (Units=1/GPa)
#
#
# Indices 1 2 3 4 5 6 
#
# 1 0.031425 -0.012218 -0.005442 0.006965 0.019837 -0.006923
# 2 -0.012218 0.023242 -0.006241 0.006779 -0.020533 0.012148
# 3 -0.005442 -0.006241 0.014874 -0.005843 0.005309 -0.005280
# 4 0.006965 0.006779 -0.005843 0.042492 0.001896 0.013602
# 5 0.019837 -0.020533 0.005309 0.001896 0.069531 -0.016871
# 6 -0.006923 0.012148 -0.005280 0.013602 -0.016871 0.082721
#
#
# Mechanical properties :
#
#
# Convention : Reuss Voigt Hill
#
# Bulk Modulus (GPa) = 46.00052 52.99920 49.49986
# Shear Modulus (GPa) = 15.65765 22.16782 18.91274
#
# Velocity S-wave (km/s) = 3.02385 3.59798 3.32333
# Velocity P-wave (km/s) = 6.24937 6.94340 6.60551
#
# Compressibility (1/GPa) = 0.02173889
#
# Stress axis : x y z
#
# Youngs Moduli (GPa) = 31.82156 43.02487 67.23302
#
# Poissons Ratio (x) = 0.52568 0.36590
# Poissons Ratio (y) = 0.38880 0.41960
# Poissons Ratio (z) = 0.17318 0.26852
#
# Static dielectric constant tensor:
#      x y z
#    x 2.865990 0.061420 -0.322280 
#    y 0.061420 3.462760 0.070370 
#    z -0.322280 0.070370 3.353140 
# 
# 
# High freq. dielectric constant tensor:
#      x y z
#    x 1.613570 0.001410 -0.029210 
#    y 0.001410 1.666630 0.011960 
#    z -0.029210 0.011960 1.671250 
# 
# From -- ./inp_files/570644.got.cif
#   From: 2010.06.25/outbox.cif.g09.slc.cpg/sg2_286_cif.got.tgz:570644.got - 2010.06.27 13:26:56.
