data_PCOD8039466
_publ_section_title
;
Structure prediction by ZEFSAII (Michael W. Deem and Ramdas Pophale) SiO2 
 PCOD8039466
Probable space group: P -1
;
_chemical_formula_sum "Si O2"
_cell_formula_units_Z 16
_cell_length_a 29.684727
_cell_length_b 17.556707
_cell_length_c 24.482422
_cell_angle_alpha 19.365179
_cell_angle_beta 11.119220
_cell_angle_gamma 18.811839
_cell_volume 771.258099
_symmetry_space_group_name_H-M "P -1"
_symmetry_group_IT_number 2
_symmetry_cell_setting 'triclinic'
loop_
_space_group_symop_operation_xyz
x,y,z
-x,-y,-z
loop_
_atom_site_type_symbol
_atom_site_label
_atom_site_fract_x
_atom_site_fract_y
_atom_site_fract_z
Si Si1 0.318859 0.239634 0.663992
Si Si2 0.401533 0.998463 0.406190
Si Si3 0.514911 0.242668 0.636125
Si Si4 0.114920 0.842246 0.133113
Si Si5 0.120748 0.251299 0.422443
Si Si6 0.168808 0.839104 0.267451
Si Si7 0.513121 0.466060 0.182055
Si Si8 0.986777 0.347565 0.172742
O O1 0.529458 0.064463 0.570712
O O2 0.451287 0.298538 0.414120
O O3 0.196790 0.485426 0.677748
O O4 0.127291 0.101525 0.966681
O O5 0.436553 0.768391 0.479728
O O6 0.107807 0.139011 0.657399
O O7 0.580806 0.137160 0.073795
O O8 0.500000 0.500000 0.500000
O O9 0.717308 0.031097 0.570722
O O10 0.245393 0.227412 0.977710
O O11 0.072141 0.680277 0.343875
O O12 0.371748 0.703100 0.892410
O O13 0.962302 0.296574 0.525389
O O14 0.293449 0.416628 0.102601
O O15 0.259431 0.670322 0.326927
O O16 0.948944 0.094903 0.369754
O O17 0.000000 0.500000 0.000000
#
# Coordination Sequence:
#
# PCOD8039466 Si02
#       8
#     2   2   2   2   2   2   2   2
#     4  12  25  42  67  99 129 171 214 268 330 376
#     4  10  21  39  67  97 121 162 228 254 308 393
#     4  10  18  33  64  96 121 158 216 262 299 375
#     4  11  23  44  69  91 128 176 222 262 316 387
#     4  11  22  41  65  96 124 170 219 259 319 381
#     4  11  22  41  66  99 125 169 217 263 322 384
#     4  12  27  43  61  99 138 163 215 279 322 372
#     4  11  18  38  67  92 125 165 215 261 305 396
#
# _framework density 20.745325999999999
#
# number of rings (size 3 to 8) (size 9 to 14) (size 15 to 20)
#    0.000    1.000    7.500    3.000    0.000    3.500 
#    0.000    0.625    0.000    0.000    0.000    0.000 
#    0.000    0.000    0.000    0.000    0.000    0.000 
#
# Total GULP energy -198257.249940 kJ/mol
# GULP energy per Si atom -12391.078121 kJ/mol
# Density = 2.069811 g / cm^3
# Si number density = 20.745326 Si / 1000 Ang^3
#
#
#
# Elastic Constant Matrix: (Units=GPa)
#
#
# Indices 1 2 3 4 5 6 
#
# 1 96.7622 12.2332 31.7874 -9.1579 -25.1952 -10.6355
# 2 12.2332 51.0501 5.5038 0.3124 -7.3587 5.9249
# 3 31.7874 5.5038 67.6269 -10.2176 -11.9298 -4.5373
# 4 -9.1579 0.3124 -10.2176 27.9032 0.2071 6.8197
# 5 -25.1952 -7.3587 -11.9298 0.2071 29.1251 0.3741
# 6 -10.6355 5.9249 -4.5373 6.8197 0.3741 25.1548
#
#
#
# Elastic Compliance Matrix: (Units=1/GPa)
#
#
# Indices 1 2 3 4 5 6 
#
# 1 0.015878 -0.002375 -0.004605 0.002072 0.011161 0.005714
# 2 -0.002375 0.021397 -0.000420 0.000332 0.003257 -0.006258
# 3 -0.004605 -0.000420 0.018370 0.005193 0.003398 0.000007
# 4 0.002072 0.000332 0.005193 0.040673 0.003835 -0.009349
# 5 0.011161 0.003257 0.003398 0.003835 0.046141 0.002839
# 6 0.005714 -0.006258 0.000007 -0.009349 0.002839 0.046138
#
#
# Mechanical properties :
#
#
# Convention : Reuss Voigt Hill
#
# Bulk Modulus (GPa) = 24.48278 34.94314 29.71296
# Shear Modulus (GPa) = 23.04027 27.49761 25.26894
#
# Velocity S-wave (km/s) = 3.33622 3.64467 3.49385
# Velocity P-wave (km/s) = 5.16408 5.88149 5.53442
#
# Compressibility (1/GPa) = 0.04084503
#
# Stress axis : x y z
#
# Youngs Moduli (GPa) = 62.98031 46.73567 54.43631
#
# Poissons Ratio (x) = 0.11102 0.25066
# Poissons Ratio (y) = 0.14961 0.02286
# Poissons Ratio (z) = 0.29000 0.01962
#
# Static dielectric constant tensor:
#      x y z
#    x 3.794680 -0.052900 -0.240500 
#    y -0.052900 3.792240 0.211340 
#    z -0.240500 0.211340 3.581770 
# 
# 
# High freq. dielectric constant tensor:
#      x y z
#    x 1.814560 0.008590 -0.025840 
#    y 0.008590 1.814870 0.007350 
#    z -0.025840 0.007350 1.785560 
# 
# From -- ./inp_files/432359.got.cif
#   From: 2010.06.25/outbox.cif.g09.slc.cpg/sg2_217_cif.got.tgz:432359.got - 2010.06.27 13:26:56.
