data_PCOD8039333
_publ_section_title
;
Structure prediction by ZEFSAII (Michael W. Deem and Ramdas Pophale) SiO2 
 PCOD8039333
Probable space group: P -1
;
_chemical_formula_sum "Si O2"
_cell_formula_units_Z 16
_cell_length_a 16.354233
_cell_length_b 8.302747
_cell_length_c 20.224728
_cell_angle_alpha 28.291109
_cell_angle_beta 147.653010
_cell_angle_gamma 137.320912
_cell_volume 695.986330
_symmetry_space_group_name_H-M "P -1"
_symmetry_group_IT_number 2
_symmetry_cell_setting 'triclinic'
loop_
_space_group_symop_operation_xyz
x,y,z
-x,-y,-z
loop_
_atom_site_type_symbol
_atom_site_label
_atom_site_fract_x
_atom_site_fract_y
_atom_site_fract_z
Si Si1 0.043535 0.125040 0.144141
Si Si2 0.757987 0.877467 0.162384
Si Si3 0.217558 0.172209 0.009732
Si Si4 0.427258 0.306170 0.780167
Si Si5 0.723037 0.644128 0.870337
Si Si6 0.501332 0.097506 0.151793
Si Si7 0.199358 0.676756 0.711496
Si Si8 0.091807 0.476556 0.493302
O O1 0.214521 0.119592 0.231269
O O2 0.036499 0.866214 0.296116
O O3 0.927573 0.027533 0.042127
O O4 0.000000 0.500000 0.000000
O O5 0.604951 0.875664 0.105010
O O6 0.738221 0.691284 0.145729
O O7 0.889946 0.627769 0.378337
O O8 0.803397 0.268682 0.048911
O O9 0.200725 0.566303 0.829610
O O10 0.220800 0.187841 0.084712
O O11 0.375742 0.980261 0.161104
O O12 0.537692 0.625182 0.751131
O O13 0.260498 0.422312 0.595316
O O14 0.520093 0.077749 0.871381
O O15 0.679214 0.025059 0.325456
O O16 0.500000 0.500000 0.000000
O O17 0.028921 0.776032 0.532750
#
# Coordination Sequence:
#
# PCOD8039333 Si02
#       8
#     2   2   2   2   2   2   2   2
#     4  11  23  43  66  85 116 161 201 244 298 359
#     4  10  20  36  61  93 119 153 198 248 297 348
#     4  10  22  37  57  91 118 151 206 245 288 352
#     4  10  22  36  59  90 125 152 201 244 302 344
#     4  12  21  38  65  88 117 164 199 240 294 360
#     4  10  18  33  57  86 119 157 194 243 292 350
#     4  10  18  35  57  85 125 154 192 243 300 346
#     4   9  23  38  59  91 125 151 199 248 300 347
#
# _framework density 22.988958
#
# number of rings (size 3 to 8) (size 9 to 14) (size 15 to 20)
#    0.750    1.000    0.000    7.125    0.000    1.000 
#    2.250    0.000    2.750    1.500    0.000    0.000 
#    0.000    0.000    0.000    0.000    0.000    0.000 
#
# Total GULP energy -198216.627565 kJ/mol
# GULP energy per Si atom -12388.539223 kJ/mol
# Density = 2.293663 g / cm^3
# Si number density = 22.988958 Si / 1000 Ang^3
#
#
#
# Elastic Constant Matrix: (Units=GPa)
#
#
# Indices 1 2 3 4 5 6 
#
# 1 85.0611 35.5375 12.1806 3.2894 -18.9597 6.4875
# 2 35.5375 111.8331 16.8406 19.7478 -5.0745 9.1369
# 3 12.1806 16.8406 59.6775 10.5844 -0.6366 2.3665
# 4 3.2894 19.7478 10.5844 33.4700 2.7425 10.1043
# 5 -18.9597 -5.0745 -0.6366 2.7425 27.8207 3.3281
# 6 6.4875 9.1369 2.3665 10.1043 3.3281 45.9328
#
#
#
# Elastic Compliance Matrix: (Units=1/GPa)
#
#
# Indices 1 2 3 4 5 6 
#
# 1 0.016391 -0.004495 -0.002153 0.001597 0.010433 -0.002417
# 2 -0.004495 0.011613 -0.001309 -0.005879 -0.000361 -0.000288
# 3 -0.002153 -0.001309 0.018412 -0.005002 -0.000885 0.000780
# 4 0.001597 -0.005879 -0.005002 0.037045 -0.002945 -0.006734
# 5 0.010433 -0.000361 -0.000885 -0.002945 0.043722 -0.003876
# 6 -0.002417 -0.000288 0.000780 -0.006734 -0.003876 0.023892
#
#
# Mechanical properties :
#
#
# Convention : Reuss Voigt Hill
#
# Bulk Modulus (GPa) = 32.78628 42.85435 37.82031
# Shear Modulus (GPa) = 28.22349 34.24557 31.23453
#
# Velocity S-wave (km/s) = 3.50765 3.86379 3.69002
# Velocity P-wave (km/s) = 5.54054 6.21184 5.88576
#
# Compressibility (1/GPa) = 0.03050057
#
# Stress axis : x y z
#
# Youngs Moduli (GPa) = 61.01019 86.11095 54.31141
#
# Poissons Ratio (x) = 0.38711 0.11693
# Poissons Ratio (y) = 0.27427 0.07110
# Poissons Ratio (z) = 0.13136 0.11274
#
# Static dielectric constant tensor:
#      x y z
#    x 4.263420 0.350910 0.390850 
#    y 0.350910 4.411770 0.698110 
#    z 0.390850 0.698110 4.083150 
# 
# 
# High freq. dielectric constant tensor:
#      x y z
#    x 1.921930 0.003530 0.033330 
#    y 0.003530 1.910010 0.048550 
#    z 0.033330 0.048550 1.885320 
# 
# From -- ./inp_files/612804.got.cif
#   From: 2010.06.25/outbox.cif.g09.slc.cpg/sg2_307_cif.got.tgz:612804.got - 2010.06.27 13:26:56.
