data_PCOD8039173
_publ_section_title
;
Structure prediction by ZEFSAII (Michael W. Deem and Ramdas Pophale) SiO2 
 PCOD8039173
Probable space group: P -1
;
_chemical_formula_sum "Si O2"
_cell_formula_units_Z 16
_cell_length_a 14.481667
_cell_length_b 11.441919
_cell_length_c 12.081486
_cell_angle_alpha 60.654476
_cell_angle_beta 92.344609
_cell_angle_gamma 41.907468
_cell_volume 836.107207
_symmetry_space_group_name_H-M "P -1"
_symmetry_group_IT_number 2
_symmetry_cell_setting 'triclinic'
loop_
_space_group_symop_operation_xyz
x,y,z
-x,-y,-z
loop_
_atom_site_type_symbol
_atom_site_label
_atom_site_fract_x
_atom_site_fract_y
_atom_site_fract_z
Si Si1 0.891676 0.291301 0.735729
Si Si2 0.919770 0.891364 0.552022
Si Si3 0.085564 0.246065 0.605086
Si Si4 0.881781 0.273181 0.992760
Si Si5 0.512888 0.644256 0.933262
Si Si6 0.204669 0.975139 0.288552
Si Si7 0.289461 0.581164 0.736028
Si Si8 0.598255 0.564325 0.430996
O O1 0.694136 0.537766 0.540613
O O2 0.029797 0.224527 0.716494
O O3 0.846602 0.383435 0.818644
O O4 0.996153 0.016868 0.869230
O O5 0.991484 0.711952 0.535723
O O6 0.093411 0.755525 0.676550
O O7 0.842092 0.905552 0.646784
O O8 0.751672 0.206837 0.358567
O O9 0.000000 0.500000 0.500000
O O10 0.315021 0.962411 0.736899
O O11 0.676659 0.496482 0.930636
O O12 0.009065 0.218852 0.093228
O O13 0.500000 0.500000 0.000000
O O14 0.550897 0.649539 0.056544
O O15 0.367242 0.862110 0.294924
O O16 0.302078 0.706300 0.430192
O O17 0.363980 0.430034 0.693020
#
# Coordination Sequence:
#
# PCOD8039173 Si02
#       8
#     2   2   2   2   2   2   2   2
#     4  10  20  36  57  88 125 157 191 248 303 351
#     4  10  18  35  59  83 118 155 197 250 297 345
#     4  12  26  42  59  87 127 167 201 243 305 370
#     4  10  20  34  59  94 122 144 198 260 300 344
#     4  12  22  36  62  94 117 154 207 252 300 350
#     4   9  18  30  52  87 120 148 186 245 311 349
#     4  10  18  32  60  89 116 146 201 256 294 342
#     4   9  18  29  52  87 121 151 185 241 309 353
#
# _framework density 19.136302000000001
#
# number of rings (size 3 to 8) (size 9 to 14) (size 15 to 20)
#    0.000    1.750    5.000    0.000    3.500    1.000 
#    0.000    1.250    0.000    0.750    0.000    0.000 
#    0.000    0.000    0.000    0.000    0.000    0.000 
#
# Total GULP energy -198331.862242 kJ/mol
# GULP energy per Si atom -12395.741390 kJ/mol
# Density = 1.909275 g / cm^3
# Si number density = 19.136302 Si / 1000 Ang^3
#
#
#
# Elastic Constant Matrix: (Units=GPa)
#
#
# Indices 1 2 3 4 5 6 
#
# 1 48.9647 44.4046 30.0291 4.0914 19.4611 -15.8090
# 2 44.4046 117.6760 50.9329 25.4097 7.5635 -19.5689
# 3 30.0291 50.9329 72.7828 16.8583 23.5930 -0.1478
# 4 4.0914 25.4097 16.8583 38.5706 -2.2945 1.7823
# 5 19.4611 7.5635 23.5930 -2.2945 24.1364 -5.5840
# 6 -15.8090 -19.5689 -0.1478 1.7823 -5.5840 38.0627
#
#
#
# Elastic Compliance Matrix: (Units=1/GPa)
#
#
# Indices 1 2 3 4 5 6 
#
# 1 0.051190 -0.017303 0.002079 0.002595 -0.036026 0.006967
# 2 -0.017303 0.022331 -0.014397 -0.005616 0.022290 0.007771
# 3 0.002079 -0.014397 0.036709 -0.008426 -0.036474 -0.011352
# 4 0.002595 -0.005616 -0.008426 0.033755 0.010683 -0.001856
# 5 -0.036026 0.022290 -0.036474 0.010683 0.102689 0.010920
# 6 0.006967 0.007771 -0.011352 -0.001856 0.010920 0.034806
#
#
# Mechanical properties :
#
#
# Convention : Reuss Voigt Hill
#
# Bulk Modulus (GPa) = 19.61213 54.46185 37.03699
# Shear Modulus (GPa) = 13.97751 27.75772 20.86762
#
# Velocity S-wave (km/s) = 2.70556 3.81271 3.30581
# Velocity P-wave (km/s) = 4.47560 6.92128 5.82817
#
# Compressibility (1/GPa) = 0.05098885
#
# Stress axis : x y z
#
# Youngs Moduli (GPa) = 19.53497 44.78145 27.24160
#
# Poissons Ratio (x) = 0.77483 -0.05664
# Poissons Ratio (y) = 0.33800 0.39220
# Poissons Ratio (z) = -0.04062 0.64472
#
# Static dielectric constant tensor:
#      x y z
#    x 3.326640 -0.319360 0.353090 
#    y -0.319360 3.634630 0.292810 
#    z 0.353090 0.292810 3.433030 
# 
# 
# High freq. dielectric constant tensor:
#      x y z
#    x 1.717760 -0.029620 0.038140 
#    y -0.029620 1.741610 0.031090 
#    z 0.038140 0.031090 1.725230 
# 
# From -- ./inp_files/184317.got.cif
#   From: 2010.06.25/outbox.cif.g09.slc.cpg/sg2_93_cif.got.tgz:184317.got - 2010.06.27 13:26:56.
