data_PCOD8039161
_publ_section_title
;
Structure prediction by ZEFSAII (Michael W. Deem and Ramdas Pophale) SiO2 
 PCOD8039161
Probable space group: P -1
;
_chemical_formula_sum "Si O2"
_cell_formula_units_Z 16
_cell_length_a 9.386627
_cell_length_b 21.327959
_cell_length_c 13.375659
_cell_angle_alpha 21.215304
_cell_angle_beta 73.126009
_cell_angle_gamma 63.942294
_cell_volume 809.848221
_symmetry_space_group_name_H-M "P -1"
_symmetry_group_IT_number 2
_symmetry_cell_setting 'triclinic'
loop_
_space_group_symop_operation_xyz
x,y,z
-x,-y,-z
loop_
_atom_site_type_symbol
_atom_site_label
_atom_site_fract_x
_atom_site_fract_y
_atom_site_fract_z
Si Si1 0.385620 0.632333 0.738325
Si Si2 0.331097 0.962967 0.700863
Si Si3 0.974770 0.453157 0.229523
Si Si4 0.035945 0.747398 0.673276
Si Si5 0.387815 0.292385 0.118083
Si Si6 0.356179 0.714719 0.247731
Si Si7 0.616569 0.103844 0.817116
Si Si8 0.987600 0.833455 0.187826
O O1 0.195767 0.787780 0.586514
O O2 0.455175 0.750660 0.481148
O O3 0.500000 0.500000 0.000000
O O4 0.358669 0.483125 0.897791
O O5 0.445951 0.782777 0.871780
O O6 0.397376 0.124133 0.442395
O O7 0.353025 0.885319 0.924485
O O8 0.138406 0.051155 0.567758
O O9 0.992659 0.312486 0.342529
O O10 0.046859 0.316957 0.514437
O O11 0.781741 0.625553 0.036765
O O12 0.077151 0.570191 0.007631
O O13 0.500000 0.500000 0.500000
O O14 0.394185 0.767096 0.273661
O O15 0.172873 0.718589 0.266928
O O16 0.500000 0.000000 0.000000
O O17 0.815911 0.942572 0.993472
O O18 0.000000 0.000000 0.000000
#
# Coordination Sequence:
#
# PCOD8039161 Si02
#       8
#     2   2   2   2   2   2   2   2
#     4  11  23  37  56  74 113 151 191 218 274 335
#     4  10  18  32  59  83 111 135 181 238 283 321
#     4   9  16  29  52  77 108 132 181 231 273 317
#     4   9  17  30  52  79 100 139 185 229 265 323
#     4   9  19  34  54  86 111 138 181 235 275 325
#     4  11  21  36  63  86 115 151 194 233 291 345
#     4  11  25  39  57  87 122 150 189 241 289 343
#     4  10  19  33  56  79 114 148 190 231 282 339
#
# _framework density 19.756786999999999
#
# number of rings (size 3 to 8) (size 9 to 14) (size 15 to 20)
#    0.000    2.000    0.000    7.500    3.500    0.000 
#    0.000    1.250    0.000    0.000    0.000    0.000 
#    0.000    0.000    0.000    0.000    0.000    0.000 
#
# Total GULP energy -198209.130651 kJ/mol
# GULP energy per Si atom -12388.070666 kJ/mol
# Density = 1.971182 g / cm^3
# Si number density = 19.756787 Si / 1000 Ang^3
#
#
#
# Elastic Constant Matrix: (Units=GPa)
#
#
# Indices 1 2 3 4 5 6 
#
# 1 86.6484 33.7462 28.8486 3.4290 4.5427 -21.3074
# 2 33.7462 83.6899 42.6363 9.1992 9.8968 -24.6903
# 3 28.8486 42.6363 108.2523 32.2969 9.6173 -4.0865
# 4 3.4290 9.1992 32.2969 50.6211 -7.5089 5.6197
# 5 4.5427 9.8968 9.6173 -7.5089 25.7838 -1.8707
# 6 -21.3074 -24.6903 -4.0865 5.6197 -1.8707 23.9790
#
#
#
# Elastic Compliance Matrix: (Units=1/GPa)
#
#
# Indices 1 2 3 4 5 6 
#
# 1 0.016231 -0.000959 -0.003341 -0.000284 -0.000392 0.012902
# 2 -0.000959 0.023332 -0.006608 -0.003282 -0.005655 0.022374
# 3 -0.003341 -0.006608 0.015650 -0.008789 -0.005670 -0.005489
# 4 -0.000284 -0.003282 -0.008789 0.029012 0.012241 -0.010973
# 5 -0.000392 -0.005655 -0.005670 0.012241 0.046239 -0.006398
# 6 0.012902 0.022374 -0.005489 -0.010973 -0.006398 0.077343
#
#
# Mechanical properties :
#
#
# Convention : Reuss Voigt Hill
#
# Bulk Modulus (GPa) = 29.94288 54.33920 42.14104
# Shear Modulus (GPa) = 20.76795 31.63408 26.20101
#
# Velocity S-wave (km/s) = 3.24571 4.00581 3.64562
# Velocity P-wave (km/s) = 5.40692 6.99708 6.25276
#
# Compressibility (1/GPa) = 0.03339692
#
# Stress axis : x y z
#
# Youngs Moduli (GPa) = 61.60956 42.85907 63.89947
#
# Poissons Ratio (x) = 0.04109 0.21351
# Poissons Ratio (y) = 0.05906 0.42225
# Poissons Ratio (z) = 0.20586 0.28322
#
# Static dielectric constant tensor:
#      x y z
#    x 1.483460 -1.020080 -1.480700 
#    y -1.020080 3.639860 -0.336560 
#    z -1.480700 -0.336560 2.463700 
# 
# 
# High freq. dielectric constant tensor:
#      x y z
#    x 1.732570 -0.047800 0.010980 
#    y -0.047800 1.755500 0.011010 
#    z 0.010980 0.011010 1.791900 
# 
# From -- ./inp_files/503074.got.cif
#   From: 2010.06.25/outbox.cif.g09.slc.cpg/sg2_252_cif.got.tgz:503074.got - 2010.06.27 13:26:56.
