data_PCOD8039757
_publ_section_title
;
Structure prediction by ZEFSAII (Michael W. Deem and Ramdas Pophale) SiO2 
 PCOD8039757
Probable space group: P -1
;
_chemical_formula_sum "Si O2"
_cell_formula_units_Z 14
_cell_length_a 13.860433
_cell_length_b 9.640449
_cell_length_c 11.170757
_cell_angle_alpha 61.980535
_cell_angle_beta 129.463923
_cell_angle_gamma 141.862265
_cell_volume 710.220818
_symmetry_space_group_name_H-M "P -1"
_symmetry_group_IT_number 2
_symmetry_cell_setting 'triclinic'
loop_
_space_group_symop_operation_xyz
x,y,z
-x,-y,-z
loop_
_atom_site_type_symbol
_atom_site_label
_atom_site_fract_x
_atom_site_fract_y
_atom_site_fract_z
Si Si1 0.519445 0.805477 0.209405
Si Si2 0.207994 0.341388 0.266777
Si Si3 0.796114 0.774291 0.429714
Si Si4 0.893599 0.019347 0.818650
Si Si5 0.534539 0.160716 0.109689
Si Si6 0.778563 0.643059 0.209014
Si Si7 0.806831 0.013277 0.996657
O O1 0.353642 0.597756 0.240260
O O2 0.678022 0.824795 0.312546
O O3 0.596125 0.036451 0.233885
O O4 0.429892 0.764276 0.029241
O O5 0.245460 0.359264 0.429509
O O6 0.242797 0.206990 0.278269
O O7 0.004288 0.211268 0.129974
O O8 0.769671 0.644575 0.344522
O O9 0.000000 0.000000 0.500000
O O10 0.027281 0.229332 0.746877
O O11 0.798213 0.044045 0.832678
O O12 0.000000 0.000000 0.000000
O O13 0.641616 0.380809 0.183544
O O14 0.322799 0.979325 0.045925
O O15 0.728594 0.767338 0.061889
#
# Coordination Sequence:
#
# PCOD8039757 Si02
#       7
#     2   2   2   2   2   2   2
#     4  11  24  38  58  87 123 151 185 250 290 342
#     4  10  20  37  58  87 116 151 196 234 286 338
#     4  12  21  40  63  85 113 156 204 231 282 350
#     4   8  16  30  57  86 108 136 192 247 275 315
#     4  11  22  38  58  90 120 149 191 239 303 332
#     4  10  19  35  61  87 110 152 196 241 280 340
#     4  10  18  34  63  88 113 148 196 245 277 347
#
# _framework density 19.712178000000002
#
# number of rings (size 3 to 8) (size 9 to 14) (size 15 to 20)
#    0.000    2.000    4.286    3.429    2.000    0.571 
#    0.000    2.857    0.000    0.000    0.000    0.000 
#    0.000    0.000    0.000    0.000    0.000    0.000 
#
# Total GULP energy -173462.064055 kJ/mol
# GULP energy per Si atom -12390.147433 kJ/mol
# Density = 1.966731 g / cm^3
# Si number density = 19.712178 Si / 1000 Ang^3
#
#
#
# Elastic Constant Matrix: (Units=GPa)
#
#
# Indices 1 2 3 4 5 6 
#
# 1 92.1077 53.4560 55.0292 -8.0026 -28.1138 1.9808
# 2 53.4560 124.1250 56.8182 3.6846 1.3083 1.4776
# 3 55.0292 56.8182 79.7528 -0.3925 -29.2828 -1.1371
# 4 -8.0026 3.6846 -0.3925 18.4527 2.7581 -11.8930
# 5 -28.1138 1.3083 -29.2828 2.7581 35.9947 2.1005
# 6 1.9808 1.4776 -1.1371 -11.8930 2.1005 22.1680
#
#
#
# Elastic Compliance Matrix: (Units=1/GPa)
#
#
# Indices 1 2 3 4 5 6 
#
# 1 0.024205 -0.008356 -0.005709 0.012217 0.013431 0.003383
# 2 -0.008356 0.018568 -0.014144 -0.007081 -0.017972 -0.003313
# 3 -0.005709 -0.014144 0.035917 -0.003285 0.025579 -0.000891
# 4 0.012217 -0.007081 -0.003285 0.093143 -0.002896 0.049457
# 5 0.013431 -0.017972 0.025579 -0.002896 0.060304 -0.005958
# 6 0.003383 -0.003313 -0.000891 0.049457 -0.005958 0.072081
#
#
# Mechanical properties :
#
#
# Convention : Reuss Voigt Hill
#
# Bulk Modulus (GPa) = 44.89552 69.62138 57.25845
# Shear Modulus (GPa) = 13.58470 24.03522 18.80996
#
# Velocity S-wave (km/s) = 2.62802 3.49565 3.09241
# Velocity P-wave (km/s) = 5.65983 7.18946 6.47001
#
# Compressibility (1/GPa) = 0.02227394
#
# Stress axis : x y z
#
# Youngs Moduli (GPa) = 41.31357 53.85518 27.84175
#
# Poissons Ratio (x) = 0.44999 0.15894
# Poissons Ratio (y) = 0.34520 0.39380
# Poissons Ratio (z) = 0.23585 0.76173
#
# Static dielectric constant tensor:
#      x y z
#    x 4.341730 0.104000 -0.355160 
#    y 0.104000 3.420770 -0.022140 
#    z -0.355160 -0.022140 3.206390 
# 
# 
# High freq. dielectric constant tensor:
#      x y z
#    x 1.782430 0.014970 -0.031980 
#    y 0.014970 1.754720 0.010190 
#    z -0.031980 0.010190 1.736260 
# 
# From -- ./inp_files/444231.got.cif
#   From: 2010.06.25/outbox.cif.g09.slc.cpg/sg2_223_cif.got.tgz:444231.got - 2010.06.27 13:26:56.
