data_PCOD8039221
_publ_section_title
;
Structure prediction by ZEFSAII (Michael W. Deem and Ramdas Pophale) SiO2 
 PCOD8039221
Probable space group: P -1
;
_chemical_formula_sum "Si O2"
_cell_formula_units_Z 16
_cell_length_a 9.004643
_cell_length_b 14.425715
_cell_length_c 8.447138
_cell_angle_alpha 111.107326
_cell_angle_beta 80.695518
_cell_angle_gamma 124.690761
_cell_volume 840.342041
_symmetry_space_group_name_H-M "P -1"
_symmetry_group_IT_number 2
_symmetry_cell_setting 'triclinic'
loop_
_space_group_symop_operation_xyz
x,y,z
-x,-y,-z
loop_
_atom_site_type_symbol
_atom_site_label
_atom_site_fract_x
_atom_site_fract_y
_atom_site_fract_z
Si Si1 0.661808 0.212575 0.704583
Si Si2 0.736563 0.668189 0.995011
Si Si3 0.077918 0.825974 0.540434
Si Si4 0.025946 0.891360 0.925942
Si Si5 0.743565 0.729965 0.368153
Si Si6 0.655565 0.053865 0.875774
Si Si7 0.604732 0.414737 0.828478
Si Si8 0.307872 0.065157 0.483509
O O1 0.797198 0.222882 0.551002
O O2 0.681148 0.167069 0.844676
O O3 0.703199 0.345323 0.788603
O O4 0.455549 0.118181 0.630329
O O5 0.754203 0.556857 0.882290
O O6 0.829722 0.768382 0.905867
O O7 0.831220 0.730237 0.184487
O O8 0.522190 0.616281 0.012283
O O9 0.109015 0.878550 0.742730
O O10 0.865688 0.720990 0.476219
O O11 0.138186 0.934788 0.477513
O O12 0.154653 0.903277 0.051087
O O13 0.000000 0.000000 0.000000
O O14 0.526735 0.627205 0.332430
O O15 0.768759 0.854351 0.480911
O O16 0.602744 0.946063 0.698168
O O17 0.500000 0.000000 0.000000
#
# Coordination Sequence:
#
# PCOD8039221 Si02
#       8
#     2   2   2   2   2   2   2   2
#     4  10  20  36  56  78 108 149 183 219 278 330
#     4   9  18  38  62  80 106 137 197 223 268 315
#     4  11  20  32  50  81 113 142 179 225 273 325
#     4  12  24  35  55  84 117 146 176 232 273 321
#     4   9  17  33  55  77 100 141 187 221 261 321
#     4  11  22  34  51  84 117 144 179 223 277 329
#     4   8  19  37  65  76 102 146 191 228 262 325
#     4  10  18  33  53  75 108 150 179 216 269 335
#
# _framework density 19.039866
#
# number of rings (size 3 to 8) (size 9 to 14) (size 15 to 20)
#    0.750    1.250    0.000    6.375    1.750    0.000 
#    0.000    3.750    0.000    0.000    0.000    0.000 
#    0.000    0.000    0.000    0.000    0.000    0.000 
#
# Total GULP energy -198238.250815 kJ/mol
# GULP energy per Si atom -12389.890676 kJ/mol
# Density = 1.899653 g / cm^3
# Si number density = 19.039866 Si / 1000 Ang^3
#
#
#
# Elastic Constant Matrix: (Units=GPa)
#
#
# Indices 1 2 3 4 5 6 
#
# 1 94.1959 38.4974 28.9482 4.1908 -6.1892 -15.6184
# 2 38.4974 105.8629 42.1274 12.2955 -21.5826 -15.0217
# 3 28.9482 42.1274 91.3112 0.7574 -17.8334 -18.1725
# 4 4.1908 12.2955 0.7574 24.7022 -8.2058 -9.4903
# 5 -6.1892 -21.5826 -17.8334 -8.2058 32.5472 7.9158
# 6 -15.6184 -15.0217 -18.1725 -9.4903 7.9158 20.2522
#
#
#
# Elastic Compliance Matrix: (Units=1/GPa)
#
#
# Indices 1 2 3 4 5 6 
#
# 1 0.013809 -0.004021 -0.001311 0.002174 -0.002251 0.008389
# 2 -0.004021 0.014148 -0.004354 -0.004802 0.005216 -0.000803
# 3 -0.001311 -0.004354 0.016871 0.008527 0.005122 0.012892
# 4 0.002174 -0.004802 0.008527 0.056247 0.009138 0.028552
# 5 -0.002251 0.005216 0.005122 0.009138 0.039989 -0.004619
# 6 0.008389 -0.000803 0.012892 0.028552 -0.004619 0.082005
#
#
# Mechanical properties :
#
#
# Convention : Reuss Voigt Hill
#
# Bulk Modulus (GPa) = 39.28161 56.72398 48.00280
# Shear Modulus (GPa) = 19.92616 27.62010 23.77313
#
# Velocity S-wave (km/s) = 3.23855 3.81287 3.53738
# Velocity P-wave (km/s) = 5.88730 7.01718 6.47693
#
# Compressibility (1/GPa) = 0.02545720
#
# Stress axis : x y z
#
# Youngs Moduli (GPa) = 72.41810 70.67960 59.27263
#
# Poissons Ratio (x) = 0.28420 0.07768
# Poissons Ratio (y) = 0.29120 0.25807
# Poissons Ratio (z) = 0.09491 0.30773
#
# Static dielectric constant tensor:
#      x y z
#    x 3.489490 -0.037280 -0.168060 
#    y -0.037280 3.189370 0.180090 
#    z -0.168060 0.180090 3.537950 
# 
# 
# High freq. dielectric constant tensor:
#      x y z
#    x 1.740520 0.002700 -0.010180 
#    y 0.002700 1.706590 0.017250 
#    z -0.010180 0.017250 1.738200 
# 
# From -- ./inp_files/208296.got.cif
#   From: 2010.06.25/outbox.cif.g09.slc.cpg/sg2_105_cif.got.tgz:208296.got - 2010.06.27 13:26:56.
