data_PCOD8039070
_publ_section_title
;
Structure prediction by ZEFSAII (Michael W. Deem and Ramdas Pophale) SiO2 
 PCOD8039070
Probable space group: P -1
;
_chemical_formula_sum "Si O2"
_cell_formula_units_Z 14
_cell_length_a 9.246900
_cell_length_b 24.684608
_cell_length_c 5.696387
_cell_angle_alpha 115.098283
_cell_angle_beta 79.710981
_cell_angle_gamma 143.865731
_cell_volume 660.789346
_symmetry_space_group_name_H-M "P -1"
_symmetry_group_IT_number 2
_symmetry_cell_setting 'triclinic'
loop_
_space_group_symop_operation_xyz
x,y,z
-x,-y,-z
loop_
_atom_site_type_symbol
_atom_site_label
_atom_site_fract_x
_atom_site_fract_y
_atom_site_fract_z
Si Si1 0.096536 0.939286 0.307497
Si Si2 0.835297 0.276495 0.778499
Si Si3 0.471164 0.879896 0.800500
Si Si4 0.347739 0.510960 0.064292
Si Si5 0.534405 0.582547 0.641193
Si Si6 0.294184 0.108508 0.868251
Si Si7 0.945992 0.208655 0.941081
O O1 0.030428 0.851752 0.266226
O O2 0.861796 0.882123 0.101586
O O3 0.367574 0.025269 0.249244
O O4 0.129022 0.997929 0.611231
O O5 0.758560 0.234689 0.459983
O O6 0.579028 0.211277 0.867712
O O7 0.972812 0.263087 0.817665
O O8 0.039755 0.398346 0.945064
O O9 0.668429 0.896356 0.879762
O O10 0.339829 0.878596 0.028119
O O11 0.413959 0.566935 0.398078
O O12 0.500000 0.500000 0.000000
O O13 0.415844 0.567782 0.900126
O O14 0.500000 0.500000 0.500000
O O15 0.832591 0.702148 0.769708
#
# Coordination Sequence:
#
# PCOD8039070 Si02
#       7
#     2   2   2   2   2   2   2
#     4  10  21  38  54  77 112 147 186 229 281 339
#     4  10  20  33  56  84 109 142 187 229 284 338
#     4  10  20  34  55  82 108 144 186 231 282 336
#     4  10  18  32  55  83 116 148 184 235 286 344
#     4  10  19  33  54  84 118 147 184 232 294 341
#     4   9  21  38  55  75 109 151 188 223 277 348
#     4  11  21  32  55  86 111 140 184 240 284 330
#
# _framework density 21.186781
#
# number of rings (size 3 to 8) (size 9 to 14) (size 15 to 20)
#    0.000    2.000    2.857    2.571    2.000    6.286 
#    0.000    0.000    0.000    1.714    0.000    0.000 
#    0.000    0.000    0.000    0.000    0.000    0.000 
#
# Total GULP energy -173462.072875 kJ/mol
# GULP energy per Si atom -12390.148062 kJ/mol
# Density = 2.113856 g / cm^3
# Si number density = 21.186781 Si / 1000 Ang^3
#
#
#
# Elastic Constant Matrix: (Units=GPa)
#
#
# Indices 1 2 3 4 5 6 
#
# 1 58.4166 14.7005 27.4759 9.7324 10.3579 -0.7521
# 2 14.7005 67.3930 24.3143 -0.3118 6.6762 8.6731
# 3 27.4759 24.3143 116.7538 -11.6671 31.9659 -0.5833
# 4 9.7324 -0.3118 -11.6671 38.4930 4.8396 9.1632
# 5 10.3579 6.6762 31.9659 4.8396 23.8388 0.8250
# 6 -0.7521 8.6731 -0.5833 9.1632 0.8250 14.9253
#
#
#
# Elastic Compliance Matrix: (Units=1/GPa)
#
#
# Indices 1 2 3 4 5 6 
#
# 1 0.022359 -0.004194 -0.005373 -0.009540 0.000284 0.009195
# 2 -0.004194 0.018389 -0.002457 0.003651 -0.000317 -0.013217
# 3 -0.005373 -0.002457 0.017467 0.010203 -0.022360 -0.003188
# 4 -0.009540 0.003651 0.010203 0.039863 -0.017762 -0.025695
# 5 0.000284 -0.000317 -0.022360 -0.017762 0.075292 0.006067
# 6 0.009195 -0.013217 -0.003188 -0.025695 0.006067 0.090459
#
#
# Mechanical properties :
#
#
# Convention : Reuss Voigt Hill
#
# Bulk Modulus (GPa) = 29.26950 41.72720 35.49835
# Shear Modulus (GPa) = 16.70757 27.18960 21.94859
#
# Velocity S-wave (km/s) = 2.81122 3.58624 3.22212
# Velocity P-wave (km/s) = 4.93784 6.07337 5.53480
#
# Compressibility (1/GPa) = 0.03416526
#
# Stress axis : x y z
#
# Youngs Moduli (GPa) = 44.72522 54.38071 57.25182
#
# Poissons Ratio (x) = 0.22808 0.30763
# Poissons Ratio (y) = 0.18758 0.14067
# Poissons Ratio (z) = 0.24032 0.13361
#
# Static dielectric constant tensor:
#      x y z
#    x 3.469440 0.180840 0.416080 
#    y 0.180840 3.921790 -0.219320 
#    z 0.416080 -0.219320 4.329430 
# 
# 
# High freq. dielectric constant tensor:
#      x y z
#    x 1.778480 0.023190 0.030980 
#    y 0.023190 1.831140 -0.001650 
#    z 0.030980 -0.001650 1.835110 
# 
# From -- ./inp_files/36557.got.cif
#   From: 2010.06.25/outbox.cif.g09.slc.cpg/sg2_19_cif.got.tgz:36557.got - 2010.06.27 13:26:56.
