data_PCOD8039332
_publ_section_title
;
Structure prediction by ZEFSAII (Michael W. Deem and Ramdas Pophale) SiO2 
 PCOD8039332
Probable space group: P -1
;
_chemical_formula_sum "Si O2"
_cell_formula_units_Z 16
_cell_length_a 12.640198
_cell_length_b 14.505788
_cell_length_c 7.930247
_cell_angle_alpha 106.262087
_cell_angle_beta 39.988783
_cell_angle_gamma 121.258855
_cell_volume 780.284861
_symmetry_space_group_name_H-M "P -1"
_symmetry_group_IT_number 2
_symmetry_cell_setting 'triclinic'
loop_
_space_group_symop_operation_xyz
x,y,z
-x,-y,-z
loop_
_atom_site_type_symbol
_atom_site_label
_atom_site_fract_x
_atom_site_fract_y
_atom_site_fract_z
Si Si1 0.736104 0.013394 0.856692
Si Si2 0.384714 0.818588 0.011024
Si Si3 0.080240 0.658279 0.560547
Si Si4 0.151410 0.237508 0.048260
Si Si5 0.325020 0.228731 0.514280
Si Si6 0.994178 0.010867 0.259797
Si Si7 0.741655 0.473129 0.684577
Si Si8 0.330251 0.349141 0.243515
O O1 0.681193 0.109796 0.984514
O O2 0.819021 0.997396 0.922937
O O3 0.909061 0.050792 0.535193
O O4 0.551282 0.897662 0.976614
O O5 0.207488 0.725707 0.280248
O O6 0.468439 0.759931 0.755544
O O7 0.192857 0.611954 0.514583
O O8 0.891354 0.551022 0.678202
O O9 0.014398 0.733586 0.781934
O O10 0.314903 0.289126 0.729916
O O11 0.234523 0.283084 0.155236
O O12 0.057524 0.105162 0.089484
O O13 0.259990 0.271602 0.452807
O O14 0.170158 0.102551 0.668130
O O15 0.714364 0.550019 0.620051
O O16 0.553002 0.399439 0.983097
#
# Coordination Sequence:
#
# PCOD8039332 Si02
#       8
#     2   2   2   2   2   2   2   2
#     4   9  18  31  57  87 109 159 193 226 279 342
#     4  10  18  33  57  86 118 147 194 233 283 342
#     4  10  19  36  61  85 114 151 189 240 293 335
#     4  11  22  38  61  87 117 154 189 231 286 346
#     4  11  23  37  60  88 118 153 190 232 283 344
#     4  10  19  34  55  85 120 152 190 227 277 346
#     4   9  20  36  62  84 108 153 195 241 290 334
#     4  10  20  40  62  83 114 152 194 237 288 339
#
# _framework density 20.505333
#
# number of rings (size 3 to 8) (size 9 to 14) (size 15 to 20)
#    0.000    2.000    2.500    2.625    1.750    0.000 
#    0.000    8.125    0.000    0.000    0.000    0.000 
#    0.000    0.000    0.000    0.000    0.000    0.000 
#
# Total GULP energy -198259.785925 kJ/mol
# GULP energy per Si atom -12391.236620 kJ/mol
# Density = 2.045866 g / cm^3
# Si number density = 20.505333 Si / 1000 Ang^3
#
#
#
# Elastic Constant Matrix: (Units=GPa)
#
#
# Indices 1 2 3 4 5 6 
#
# 1 55.1261 29.5131 41.1061 16.7019 -7.8778 -20.5029
# 2 29.5131 87.6742 47.1202 2.0318 -3.4418 -27.6240
# 3 41.1061 47.1202 119.6592 15.7813 -4.7294 -16.1086
# 4 16.7019 2.0318 15.7813 31.4564 -2.9812 -20.3450
# 5 -7.8778 -3.4418 -4.7294 -2.9812 38.6891 3.9434
# 6 -20.5029 -27.6240 -16.1086 -20.3450 3.9434 30.6545
#
#
#
# Elastic Compliance Matrix: (Units=1/GPa)
#
#
# Indices 1 2 3 4 5 6 
#
# 1 0.031243 -0.003476 -0.007119 -0.006447 0.003741 0.009263
# 2 -0.003476 0.028682 -0.008816 0.029124 -0.000897 0.038333
# 3 -0.007119 -0.008816 0.014011 -0.010752 -0.000079 -0.012470
# 4 -0.006447 0.029124 -0.010752 0.086284 -0.000896 0.073663
# 5 0.003741 -0.000897 -0.000079 -0.000896 0.026693 -0.002375
# 6 0.009263 0.038333 -0.012470 0.073663 -0.002375 0.116002
#
#
# Mechanical properties :
#
#
# Convention : Reuss Voigt Hill
#
# Bulk Modulus (GPa) = 28.47998 55.32646 41.90322
# Shear Modulus (GPa) = 14.14662 29.80802 21.97732
#
# Velocity S-wave (km/s) = 2.62944 3.81684 3.27737
# Velocity P-wave (km/s) = 4.81018 6.81648 5.89925
#
# Compressibility (1/GPa) = 0.03511239
#
# Stress axis : x y z
#
# Youngs Moduli (GPa) = 32.00762 34.86498 71.37465
#
# Poissons Ratio (x) = 0.12120 0.50809
# Poissons Ratio (y) = 0.11127 0.62927
# Poissons Ratio (z) = 0.22785 0.30739
#
# Static dielectric constant tensor:
#      x y z
#    x 3.578610 -0.458090 -0.416050 
#    y -0.458090 4.036320 0.183820 
#    z -0.416050 0.183820 3.878010 
# 
# 
# High freq. dielectric constant tensor:
#      x y z
#    x 1.771240 -0.029520 -0.034000 
#    y -0.029520 1.812410 -0.006510 
#    z -0.034000 -0.006510 1.794340 
# 
# From -- ./inp_files/179415.got.cif
#   From: 2010.06.25/outbox.cif.g09.slc.cpg/sg2_90_cif.got.tgz:179415.got - 2010.06.27 13:26:56.
