data_PCOD8039989
_publ_section_title
;
Structure prediction by ZEFSAII (Michael W. Deem and Ramdas Pophale) SiO2 
 PCOD8039989
Probable space group: P -1
;
_chemical_formula_sum "Si O2"
_cell_formula_units_Z 14
_cell_length_a 8.092402
_cell_length_b 9.022769
_cell_length_c 20.115180
_cell_angle_alpha 57.724633
_cell_angle_beta 46.158134
_cell_angle_gamma 33.322588
_cell_volume 578.211276
_symmetry_space_group_name_H-M "P -1"
_symmetry_group_IT_number 2
_symmetry_cell_setting 'triclinic'
loop_
_space_group_symop_operation_xyz
x,y,z
-x,-y,-z
loop_
_atom_site_type_symbol
_atom_site_label
_atom_site_fract_x
_atom_site_fract_y
_atom_site_fract_z
Si Si1 0.680181 0.412083 0.756962
Si Si2 0.608176 0.852941 0.852867
Si Si3 0.860766 0.584192 0.092714
Si Si4 0.002350 0.854955 0.400175
Si Si5 0.871716 0.873500 0.569768
Si Si6 0.322713 0.971413 0.764953
Si Si7 0.244783 0.626691 0.649451
O O1 0.371093 0.453412 0.819562
O O2 0.965853 0.254636 0.654163
O O3 0.500690 0.705023 0.741776
O O4 0.902906 0.229417 0.804582
O O5 0.366798 0.916046 0.845343
O O6 0.804495 0.596433 0.906524
O O7 0.915738 0.784763 0.750547
O O8 0.374563 0.106910 0.906039
O O9 0.000000 0.500000 0.000000
O O10 0.405305 0.678063 0.350763
O O11 0.876670 0.799112 0.509568
O O12 0.727777 0.177457 0.398990
O O13 0.497009 0.049341 0.668346
O O14 0.164653 0.610272 0.599768
O O15 0.000000 0.000000 0.500000
#
# Coordination Sequence:
#
# PCOD8039989 Si02
#       7
#     2   2   2   2   2   2   2
#     4  12  24  43  64  98 137 171 215 280 339 378
#     4  11  21  44  68  97 128 176 217 256 330 407
#     4  12  25  45  74 101 124 167 225 272 327 407
#     4  11  20  35  61  87 130 172 214 260 318 362
#     4   9  22  38  62  95 130 176 228 267 302 384
#     4  11  26  42  67  98 139 177 215 266 335 385
#     4  10  18  35  60  91 119 168 222 256 306 378
#
# _framework density 24.212603999999999
#
# number of rings (size 3 to 8) (size 9 to 14) (size 15 to 20)
#    0.000    1.143    2.857    3.429    0.000    9.143 
#    0.000    4.286    0.000    0.000    0.000    0.000 
#    0.000    0.000    0.000    0.000    0.000    0.000 
#
# Total GULP energy -173446.478100 kJ/mol
# GULP energy per Si atom -12389.034150 kJ/mol
# Density = 2.415750 g / cm^3
# Si number density = 24.212604 Si / 1000 Ang^3
#
#
#
# Elastic Constant Matrix: (Units=GPa)
#
#
# Indices 1 2 3 4 5 6 
#
# 1 70.5016 3.4507 12.3537 -12.0593 17.7515 -19.1583
# 2 3.4507 79.0281 4.5012 -3.7348 -3.3198 -10.3718
# 3 12.3537 4.5012 85.9844 8.9021 34.3891 -0.7955
# 4 -12.0593 -3.7348 8.9021 26.3608 -1.7126 11.0270
# 5 17.7515 -3.3198 34.3891 -1.7126 31.9738 -6.3818
# 6 -19.1583 -10.3718 -0.7955 11.0270 -6.3818 45.2445
#
#
#
# Elastic Compliance Matrix: (Units=1/GPa)
#
#
# Indices 1 2 3 4 5 6 
#
# 1 0.018958 -0.000357 0.000813 0.005520 -0.010105 0.005189
# 2 -0.000357 0.013599 -0.003091 0.001807 0.005685 0.003273
# 3 0.000813 -0.003091 0.023187 -0.008989 -0.026493 -0.001503
# 4 0.005520 0.001807 -0.008989 0.047562 0.007761 -0.007903
# 5 -0.010105 0.005685 -0.026493 0.007761 0.067214 0.004148
# 6 0.005189 0.003273 -0.001503 -0.007903 0.004148 0.027535
#
#
# Mechanical properties :
#
#
# Convention : Reuss Voigt Hill
#
# Bulk Modulus (GPa) = 19.81188 30.68060 25.24624
# Shear Modulus (GPa) = 22.71179 35.06307 28.88743
#
# Velocity S-wave (km/s) = 3.06603 3.80956 3.45784
# Velocity P-wave (km/s) = 4.55349 5.66120 5.13729
#
# Compressibility (1/GPa) = 0.05047477
#
# Stress axis : x y z
#
# Youngs Moduli (GPa) = 52.74860 73.53379 43.12674
#
# Poissons Ratio (x) = 0.02623 -0.03506
# Poissons Ratio (y) = 0.01881 0.13331
# Poissons Ratio (z) = -0.04288 0.22730
#
# Static dielectric constant tensor:
#      x y z
#    x 4.612240 -0.375870 0.535410 
#    y -0.375870 4.305780 -0.015520 
#    z 0.535410 -0.015520 4.516720 
# 
# 
# High freq. dielectric constant tensor:
#      x y z
#    x 1.952740 -0.022730 0.036200 
#    y -0.022730 1.959160 0.006120 
#    z 0.036200 0.006120 1.947240 
# 
# From -- ./inp_files/117394.got.cif
#   From: 2010.06.25/outbox.cif.g09.slc.cpg/sg2_59_cif.got.tgz:117394.got - 2010.06.27 13:26:56.
