data_PCOD8039677
_publ_section_title
;
Structure prediction by ZEFSAII (Michael W. Deem and Ramdas Pophale) SiO2 
 PCOD8039677
Probable space group: P -1
;
_chemical_formula_sum "Si O2"
_cell_formula_units_Z 16
_cell_length_a 14.499531
_cell_length_b 12.778383
_cell_length_c 9.382744
_cell_angle_alpha 55.493619
_cell_angle_beta 73.848822
_cell_angle_gamma 119.600366
_cell_volume 781.407354
_symmetry_space_group_name_H-M "P -1"
_symmetry_group_IT_number 2
_symmetry_cell_setting 'triclinic'
loop_
_space_group_symop_operation_xyz
x,y,z
-x,-y,-z
loop_
_atom_site_type_symbol
_atom_site_label
_atom_site_fract_x
_atom_site_fract_y
_atom_site_fract_z
Si Si1 0.632229 0.926938 0.409178
Si Si2 0.930645 0.282637 0.522202
Si Si3 0.034043 0.878403 0.925914
Si Si4 0.087378 0.221115 0.629543
Si Si5 0.324638 0.622480 0.614861
Si Si6 0.609582 0.302535 0.789303
Si Si7 0.676119 0.082104 0.577799
Si Si8 0.779568 0.241554 0.866142
O O1 0.443709 0.672344 0.638356
O O2 0.791145 0.005426 0.269040
O O3 0.617089 0.960420 0.548894
O O4 0.651715 0.065269 0.183103
O O5 0.854986 0.218157 0.446367
O O6 0.799708 0.149029 0.815128
O O7 0.020570 0.243551 0.518304
O O8 0.048558 0.534432 0.299254
O O9 0.057416 0.045650 0.725891
O O10 0.010610 0.855303 0.123006
O O11 0.867314 0.639560 0.105860
O O12 0.287632 0.463099 0.378068
O O13 0.423907 0.717561 0.348578
O O14 0.311795 0.754269 0.567033
O O15 0.723710 0.302161 0.753591
O O16 0.442131 0.099914 0.106079
#
# Coordination Sequence:
#
# PCOD8039677 Si02
#       8
#     2   2   2   2   2   2   2   2
#     4  12  24  38  58  90 127 160 187 244 303 356
#     4  10  19  34  61  88 114 154 200 244 295 344
#     4  10  22  42  62  89 118 154 206 245 291 350
#     4   9  20  41  64  86 113 156 204 253 284 339
#     4  11  22  39  64  89 121 156 194 249 295 349
#     4  10  20  37  61  88 121 149 197 249 290 350
#     4  12  23  36  56  95 123 154 193 240 306 359
#     4  10  18  34  59  88 118 152 193 245 300 350
#
# _framework density 20.475874999999998
#
# number of rings (size 3 to 8) (size 9 to 14) (size 15 to 20)
#    0.000    1.500    3.750    2.250    0.000    2.000 
#    4.500    3.125    0.000    0.000    0.000    0.000 
#    0.000    0.000    0.000    0.000    0.000    0.000 
#
# Total GULP energy -198286.742842 kJ/mol
# GULP energy per Si atom -12392.921428 kJ/mol
# Density = 2.042927 g / cm^3
# Si number density = 20.475875 Si / 1000 Ang^3
#
#
#
# Elastic Constant Matrix: (Units=GPa)
#
#
# Indices 1 2 3 4 5 6 
#
# 1 100.4952 70.4468 34.8176 -17.2460 -12.0263 13.5101
# 2 70.4468 121.3439 31.7063 -14.1314 -6.3102 19.4304
# 3 34.8176 31.7063 29.6730 -16.5823 -5.7573 -5.2467
# 4 -17.2460 -14.1314 -16.5823 18.0031 2.4561 2.9664
# 5 -12.0263 -6.3102 -5.7573 2.4561 26.4722 -6.7771
# 6 13.5101 19.4304 -5.2467 2.9664 -6.7771 37.3879
#
#
#
# Elastic Compliance Matrix: (Units=1/GPa)
#
#
# Indices 1 2 3 4 5 6 
#
# 1 0.023214 -0.006547 -0.022756 -0.002950 0.002387 -0.007513
# 2 -0.006547 0.016653 -0.015541 -0.005505 -0.004122 -0.008780
# 3 -0.022756 -0.015541 0.128477 0.077261 0.014629 0.030851
# 4 -0.002950 -0.005505 0.077261 0.117867 0.004826 0.006292
# 5 0.002387 -0.004122 0.014629 0.004826 0.043379 0.010813
# 6 -0.007513 -0.008780 0.030851 0.006292 0.010813 0.039814
#
#
# Mechanical properties :
#
#
# Convention : Reuss Voigt Hill
#
# Bulk Modulus (GPa) = 12.71361 58.38372 35.54867
# Shear Modulus (GPa) = 10.30265 24.00876 17.15570
#
# Velocity S-wave (km/s) = 2.24556 3.42795 2.89770
# Velocity P-wave (km/s) = 3.59804 6.65155 5.34738
#
# Compressibility (1/GPa) = 0.07865586
#
# Stress axis : x y z
#
# Youngs Moduli (GPa) = 43.07772 60.04867 7.78347
#
# Poissons Ratio (x) = 0.39316 0.17712
# Poissons Ratio (y) = 0.28204 0.12096
# Poissons Ratio (z) = 0.98029 0.93319
#
# Static dielectric constant tensor:
#      x y z
#    x 3.711600 0.246490 -0.097280 
#    y 0.246490 3.678200 -0.277220 
#    z -0.097280 -0.277220 3.703130 
# 
# 
# High freq. dielectric constant tensor:
#      x y z
#    x 1.793360 0.024470 -0.013800 
#    y 0.024470 1.789240 -0.014180 
#    z -0.013800 -0.014180 1.788360 
# 
# From -- ./inp_files/179197.got.cif
#   From: 2010.06.25/outbox.cif.g09.slc.cpg/sg2_90_cif.got.tgz:179197.got - 2010.06.27 13:26:56.
