data_PCOD8039762
_publ_section_title
;
Structure prediction by ZEFSAII (Michael W. Deem and Ramdas Pophale) SiO2 
 PCOD8039762
Probable space group: P -1
;
_chemical_formula_sum "Si O2"
_cell_formula_units_Z 16
_cell_length_a 11.962040
_cell_length_b 11.510012
_cell_length_c 8.762616
_cell_angle_alpha 41.271589
_cell_angle_beta 89.843380
_cell_angle_gamma 88.165039
_cell_volume 794.994925
_symmetry_space_group_name_H-M "P -1"
_symmetry_group_IT_number 2
_symmetry_cell_setting 'triclinic'
loop_
_space_group_symop_operation_xyz
x,y,z
-x,-y,-z
loop_
_atom_site_type_symbol
_atom_site_label
_atom_site_fract_x
_atom_site_fract_y
_atom_site_fract_z
Si Si1 0.522753 0.454859 0.219902
Si Si2 0.156518 0.193427 0.472236
Si Si3 0.202096 0.129364 0.189109
Si Si4 0.791203 0.195504 0.174205
Si Si5 0.597916 0.093663 0.488470
Si Si6 0.095822 0.775226 0.547295
Si Si7 0.711735 0.509871 0.670433
Si Si8 0.747483 0.529832 0.295198
O O1 0.545614 0.245146 0.448990
O O2 0.417379 0.513898 0.265161
O O3 0.631911 0.551572 0.180417
O O4 0.500000 0.500000 0.000000
O O5 0.171669 0.210583 0.274078
O O6 0.246785 0.307958 0.442757
O O7 0.032112 0.262263 0.452566
O O8 0.177494 0.990387 0.724217
O O9 0.328867 0.045761 0.274059
O O10 0.120428 0.974387 0.296824
O O11 0.190351 0.287403 0.911259
O O12 0.672910 0.186024 0.269951
O O13 0.885034 0.238945 0.256413
O O14 0.787199 0.347799 0.898454
O O15 0.500000 0.000000 0.500000
O O16 0.176057 0.635331 0.598158
O O17 0.723529 0.503872 0.496692
#
# Coordination Sequence:
#
# PCOD8039762 Si02
#       8
#     2   2   2   2   2   2   2   2
#     4  12  20  42  66  88 124 160 213 258 296 361
#     4  10  22  41  67  94 118 159 217 266 303 356
#     4  10  21  39  64  91 121 156 213 261 302 358
#     4  10  20  40  63  92 120 156 211 263 303 356
#     4  10  18  34  63  91 114 151 208 255 301 344
#     4  10  21  43  67  91 119 161 218 264 303 357
#     4  12  26  39  59  95 133 165 202 247 319 384
#     4  12  25  41  59  94 133 168 197 249 319 381
#
# _framework density 20.125914999999999
#
# number of rings (size 3 to 8) (size 9 to 14) (size 15 to 20)
#    0.000    1.500    3.750    5.625    0.000    4.500 
#    0.000    1.875    0.000    0.000    0.000    0.000 
#    0.000    0.000    0.000    0.000    0.000    0.000 
#
# Total GULP energy -198427.394417 kJ/mol
# GULP energy per Si atom -12401.712151 kJ/mol
# Density = 2.008011 g / cm^3
# Si number density = 20.125915 Si / 1000 Ang^3
#
#
#
# Elastic Constant Matrix: (Units=GPa)
#
#
# Indices 1 2 3 4 5 6 
#
# 1 87.1031 20.8512 17.1068 -5.7924 4.6726 -9.6091
# 2 20.8512 77.5502 61.8181 -7.6241 4.6186 -18.5870
# 3 17.1068 61.8181 111.3796 0.7625 0.9419 -11.4874
# 4 -5.7924 -7.6241 0.7625 24.3730 -0.2316 -0.8157
# 5 4.6726 4.6186 0.9419 -0.2316 12.6221 -5.1853
# 6 -9.6091 -18.5870 -11.4874 -0.8157 -5.1853 22.5705
#
#
#
# Elastic Compliance Matrix: (Units=1/GPa)
#
#
# Indices 1 2 3 4 5 6 
#
# 1 0.012683 -0.001715 -0.000669 0.002578 -0.002688 0.003122
# 2 -0.001715 0.030330 -0.014921 0.010075 -0.002401 0.016465
# 3 -0.000669 -0.014921 0.017021 -0.005446 0.002927 -0.003434
# 4 0.002578 0.010075 -0.005446 0.045240 -0.000013 0.008254
# 5 -0.002688 -0.002401 0.002927 -0.000013 0.088569 0.018716
# 6 0.003122 0.016465 -0.003434 0.008254 0.018716 0.062045
#
#
# Mechanical properties :
#
#
# Convention : Reuss Voigt Hill
#
# Bulk Modulus (GPa) = 39.33324 52.84279 46.08802
# Shear Modulus (GPa) = 16.72409 23.66359 20.19384
#
# Velocity S-wave (km/s) = 2.88579 3.43268 3.17105
# Velocity P-wave (km/s) = 5.53983 6.48260 6.02967
#
# Compressibility (1/GPa) = 0.02542379
#
# Stress axis : x y z
#
# Youngs Moduli (GPa) = 78.84815 32.97116 58.75193
#
# Poissons Ratio (x) = 0.05654 0.03930
# Poissons Ratio (y) = 0.13522 0.87662
# Poissons Ratio (z) = 0.05275 0.49195
#
# Static dielectric constant tensor:
#      x y z
#    x 3.758590 -0.061350 0.044300 
#    y -0.061350 3.597080 -0.282450 
#    z 0.044300 -0.282450 3.558770 
# 
# 
# High freq. dielectric constant tensor:
#      x y z
#    x 1.794950 -0.004400 0.002830 
#    y -0.004400 1.774850 -0.027780 
#    z 0.002830 -0.027780 1.773060 
# 
# From -- ./inp_files/255925.got.cif
#   From: 2010.06.25/outbox.cif.g09.slc.cpg/sg2_128_cif.got.tgz:255925.got - 2010.06.27 13:26:56.
