data_PCOD8039551
_publ_section_title
;
Structure prediction by ZEFSAII (Michael W. Deem and Ramdas Pophale) SiO2 
 PCOD8039551
Probable space group: P -1
;
_chemical_formula_sum "Si O2"
_cell_formula_units_Z 16
_cell_length_a 9.522969
_cell_length_b 11.451852
_cell_length_c 11.648268
_cell_angle_alpha 101.938255
_cell_angle_beta 114.587686
_cell_angle_gamma 125.513487
_cell_volume 747.918576
_symmetry_space_group_name_H-M "P -1"
_symmetry_group_IT_number 2
_symmetry_cell_setting 'triclinic'
loop_
_space_group_symop_operation_xyz
x,y,z
-x,-y,-z
loop_
_atom_site_type_symbol
_atom_site_label
_atom_site_fract_x
_atom_site_fract_y
_atom_site_fract_z
Si Si1 0.319424 0.586473 0.683226
Si Si2 0.944517 0.064962 0.806389
Si Si3 0.416859 0.215389 0.976307
Si Si4 0.252046 0.812780 0.339953
Si Si5 0.680863 0.680307 0.670763
Si Si6 0.809207 0.251252 0.445421
Si Si7 0.142978 0.879737 0.968477
Si Si8 0.420869 0.841766 0.174592
O O1 0.537763 0.639166 0.723971
O O2 0.328415 0.724755 0.661879
O O3 0.074031 0.385821 0.519087
O O4 0.357975 0.611057 0.838978
O O5 0.889887 0.150848 0.733327
O O6 0.216075 0.198680 0.898798
O O7 0.787660 0.858149 0.675938
O O8 0.893418 0.054855 0.921565
O O9 0.509088 0.238977 0.883534
O O10 0.314849 0.038827 0.967251
O O11 0.152017 0.691115 0.394747
O O12 0.276151 0.736912 0.223014
O O13 0.500000 0.000000 0.500000
O O14 0.500000 0.500000 0.500000
O O15 0.890656 0.715330 0.789898
O O16 0.661740 0.047365 0.331561
O O17 0.253151 0.817736 0.027461
#
# Coordination Sequence:
#
# PCOD8039551 Si02
#       8
#     2   2   2   2   2   2   2   2
#     4  11  21  36  57  89 121 142 185 248 302 330
#     4  10  19  37  61  82 116 159 191 229 284 349
#     4  11  19  33  57  91 117 141 195 241 288 333
#     4   9  19  40  61  79 113 157 201 225 278 353
#     4  11  21  32  55  88 120 149 185 239 293 336
#     4  10  22  37  60  84 116 153 186 242 292 338
#     4  10  18  34  56  82 119 151 192 228 283 346
#     4  10  20  34  61  86 107 153 200 233 274 344
#
# _framework density 21.392703999999998
#
# number of rings (size 3 to 8) (size 9 to 14) (size 15 to 20)
#    0.000    1.750    3.750    2.625    3.500    1.000 
#    0.000    3.750    2.750    0.000    0.000    0.000 
#    0.000    0.000    0.000    0.000    0.000    0.000 
#
# Total GULP energy -198283.855013 kJ/mol
# GULP energy per Si atom -12392.740938 kJ/mol
# Density = 2.134401 g / cm^3
# Si number density = 21.392704 Si / 1000 Ang^3
#
#
#
# Elastic Constant Matrix: (Units=GPa)
#
#
# Indices 1 2 3 4 5 6 
#
# 1 109.8927 8.8504 40.2257 -11.5770 4.7619 5.6225
# 2 8.8504 17.7639 15.0724 -6.5036 5.5542 -0.5302
# 3 40.2257 15.0724 118.2872 0.1526 7.9621 -3.9490
# 4 -11.5770 -6.5036 0.1526 33.0273 3.9974 -1.4778
# 5 4.7619 5.5542 7.9621 3.9974 31.6373 3.8233
# 6 5.6225 -0.5302 -3.9490 -1.4778 3.8233 11.4903
#
#
#
# Elastic Compliance Matrix: (Units=1/GPa)
#
#
# Indices 1 2 3 4 5 6 
#
# 1 0.011331 -0.001188 -0.003909 0.003489 -0.000176 -0.006436
# 2 -0.001188 0.074072 -0.007855 0.016242 -0.013868 0.008003
# 3 -0.003909 -0.007855 0.011044 -0.002589 -0.001136 0.005391
# 4 0.003489 0.016242 -0.002589 0.035911 -0.007916 0.005405
# 5 -0.000176 -0.013868 -0.001136 -0.007916 0.037084 -0.014302
# 6 -0.006436 0.008003 0.005391 0.005405 -0.014302 0.097855
#
#
# Mechanical properties :
#
#
# Convention : Reuss Voigt Hill
#
# Bulk Modulus (GPa) = 14.17576 41.58231 27.87904
# Shear Modulus (GPa) = 15.78704 27.35068 21.56886
#
# Velocity S-wave (km/s) = 2.71950 3.57950 3.17872
# Velocity P-wave (km/s) = 4.06223 6.04678 5.15098
#
# Compressibility (1/GPa) = 0.07054296
#
# Stress axis : x y z
#
# Youngs Moduli (GPa) = 88.25355 13.50044 90.54543
#
# Poissons Ratio (x) = 0.01603 0.35398
# Poissons Ratio (y) = 0.10482 0.71121
# Poissons Ratio (z) = 0.34502 0.10604
#
# Static dielectric constant tensor:
#      x y z
#    x 4.131670 0.390670 0.028300 
#    y 0.390670 3.445560 -0.090540 
#    z 0.028300 -0.090540 3.996770 
# 
# 
# High freq. dielectric constant tensor:
#      x y z
#    x 1.842260 0.020160 0.018250 
#    y 0.020160 1.794880 -0.006390 
#    z 0.018250 -0.006390 1.849340 
# 
# From -- ./inp_files/186678.got.cif
#   From: 2010.06.25/outbox.cif.g09.slc.cpg/sg2_94_cif.got.tgz:186678.got - 2010.06.27 13:26:56.
