data_PCOD8039647
_publ_section_title
;
Structure prediction by ZEFSAII (Michael W. Deem and Ramdas Pophale) SiO2 
 PCOD8039647
Probable space group: P -1
;
_chemical_formula_sum "Si O2"
_cell_formula_units_Z 16
_cell_length_a 8.379455
_cell_length_b 8.392633
_cell_length_c 13.943693
_cell_angle_alpha 96.589798
_cell_angle_beta 52.508849
_cell_angle_gamma 85.496036
_cell_volume 759.095841
_symmetry_space_group_name_H-M "P -1"
_symmetry_group_IT_number 2
_symmetry_cell_setting 'triclinic'
loop_
_space_group_symop_operation_xyz
x,y,z
-x,-y,-z
loop_
_atom_site_type_symbol
_atom_site_label
_atom_site_fract_x
_atom_site_fract_y
_atom_site_fract_z
Si Si1 0.297640 0.089397 0.700320
Si Si2 0.910303 0.330584 0.821140
Si Si3 0.773617 0.473457 0.485998
Si Si4 0.518870 0.245194 0.473225
Si Si5 0.036771 0.603801 0.902178
Si Si6 0.205555 0.068884 0.944313
Si Si7 0.636016 0.276631 0.092624
Si Si8 0.775555 0.500291 0.700031
O O1 0.456376 0.179955 0.593738
O O2 0.305246 0.119132 0.812883
O O3 0.066724 0.158458 0.753071
O O4 0.357471 0.897503 0.646985
O O5 0.806482 0.353516 0.756061
O O6 0.036866 0.480561 0.803533
O O7 0.735801 0.334823 0.964576
O O8 0.678619 0.362431 0.439610
O O9 0.681263 0.662659 0.505159
O O10 0.714563 0.437097 0.614635
O O11 0.016966 0.429597 0.382766
O O12 0.248809 0.668820 0.850276
O O13 0.000000 0.500000 0.000000
O O14 0.852633 0.761334 0.963676
O O15 0.358033 0.919639 0.928799
O O16 0.000000 0.000000 0.000000
O O17 0.399105 0.355773 0.187530
#
# Coordination Sequence:
#
# PCOD8039647 Si02
#       8
#     2   2   2   2   2   2   2   2
#     4  11  20  37  63  93 119 143 200 260 298 333
#     4  11  21  38  60  90 124 157 194 241 298 362
#     4  10  23  43  63  87 112 158 209 247 294 349
#     4  10  23  40  68  87 108 156 210 257 290 338
#     4   9  18  33  60  88 114 153 201 235 283 344
#     4  10  18  34  58  92 120 147 192 249 288 340
#     4  10  21  37  61  90 121 161 191 244 299 350
#     4  11  23  38  61  85 129 158 194 240 303 366
#
# _framework density 21.077708000000001
#
# number of rings (size 3 to 8) (size 9 to 14) (size 15 to 20)
#    0.000    1.750    5.000    1.125    1.750    2.000 
#    0.000    1.250    5.500    0.000    0.000    0.000 
#    0.000    0.000    0.000    0.000    0.000    0.000 
#
# Total GULP energy -198328.189392 kJ/mol
# GULP energy per Si atom -12395.511837 kJ/mol
# Density = 2.102973 g / cm^3
# Si number density = 21.077708 Si / 1000 Ang^3
#
#
#
# Elastic Constant Matrix: (Units=GPa)
#
#
# Indices 1 2 3 4 5 6 
#
# 1 58.7250 31.4695 24.4563 8.2318 -6.2845 -13.3397
# 2 31.4695 104.9566 28.2199 21.6352 -7.2891 -18.7854
# 3 24.4563 28.2199 91.1366 11.5568 -19.5785 -9.1797
# 4 8.2318 21.6352 11.5568 38.8866 -14.4016 0.9089
# 5 -6.2845 -7.2891 -19.5785 -14.4016 34.1860 0.8420
# 6 -13.3397 -18.7854 -9.1797 0.9089 0.8420 23.7193
#
#
#
# Elastic Compliance Matrix: (Units=1/GPa)
#
#
# Indices 1 2 3 4 5 6 
#
# 1 0.022896 -0.004020 -0.003801 -0.001557 0.000315 0.008271
# 2 -0.004020 0.014186 -0.001977 -0.007471 -0.002205 0.008574
# 3 -0.003801 -0.001977 0.014256 0.000268 0.007119 0.001551
# 4 -0.001557 -0.007471 0.000268 0.035261 0.013338 -0.008514
# 5 0.000315 -0.002205 0.007119 0.013338 0.038553 -0.000693
# 6 0.008271 0.008574 0.001551 -0.008514 -0.000693 0.054553
#
#
# Mechanical properties :
#
#
# Convention : Reuss Voigt Hill
#
# Bulk Modulus (GPa) = 31.50259 47.01216 39.25738
# Shear Modulus (GPa) = 23.82289 30.73654 27.27972
#
# Velocity S-wave (km/s) = 3.36555 3.82285 3.60146
# Velocity P-wave (km/s) = 5.48461 6.46824 5.99663
#
# Compressibility (1/GPa) = 0.03174342
#
# Stress axis : x y z
#
# Youngs Moduli (GPa) = 43.67489 70.49198 70.14467
#
# Poissons Ratio (x) = 0.28337 0.26664
# Poissons Ratio (y) = 0.17557 0.13864
# Poissons Ratio (z) = 0.16602 0.13933
#
# Static dielectric constant tensor:
#      x y z
#    x 3.767560 -0.226800 0.103430 
#    y -0.226800 4.254040 0.136560 
#    z 0.103430 0.136560 3.943460 
# 
# 
# High freq. dielectric constant tensor:
#      x y z
#    x 1.786180 -0.024290 -0.005460 
#    y -0.024290 1.828780 -0.001120 
#    z -0.005460 -0.001120 1.838780 
# 
# From -- ./inp_files/243891.got.cif
#   From: 2010.06.25/outbox.cif.g09.slc.cpg/sg2_122_cif.got.tgz:243891.got - 2010.06.27 13:26:56.
