data_PCOD8039171
_publ_section_title
;
Structure prediction by ZEFSAII (Michael W. Deem and Ramdas Pophale) SiO2 
 PCOD8039171
Probable space group: P -1
;
_chemical_formula_sum "Si O2"
_cell_formula_units_Z 12
_cell_length_a 9.958174
_cell_length_b 18.880485
_cell_length_c 6.999690
_cell_angle_alpha 56.077996
_cell_angle_beta 136.302169
_cell_angle_gamma 138.615839
_cell_volume 600.724031
_symmetry_space_group_name_H-M "P -1"
_symmetry_group_IT_number 2
_symmetry_cell_setting 'triclinic'
loop_
_space_group_symop_operation_xyz
x,y,z
-x,-y,-z
loop_
_atom_site_type_symbol
_atom_site_label
_atom_site_fract_x
_atom_site_fract_y
_atom_site_fract_z
Si Si1 0.143749 0.229736 0.562069
Si Si2 0.653959 0.177325 0.176997
Si Si3 0.252435 0.112952 0.127308
Si Si4 0.880043 0.442788 0.659480
Si Si5 0.417017 0.206276 0.562966
Si Si6 0.091958 0.403286 0.269407
O O1 0.243564 0.354387 0.489492
O O2 0.257236 0.206288 0.887761
O O3 0.220835 0.211621 0.465776
O O4 0.845815 0.150023 0.391128
O O5 0.472928 0.114491 0.264099
O O6 0.500376 0.149072 0.866729
O O7 0.809428 0.305855 0.180492
O O8 0.283284 0.131560 0.355768
O O9 0.000000 0.000000 0.000000
O O10 0.646082 0.322945 0.555136
O O11 0.000000 0.500000 0.500000
O O12 0.794181 0.504728 0.592364
O O13 0.083413 0.446960 0.988190
#
# Coordination Sequence:
#
# PCOD8039171 Si02
#       6
#     2   2   2   2   2   2
#     4   9  21  40  58  82 119 151 180 233 286 335
#     4   8  19  40  58  77 119 150 176 233 286 330
#     4  11  23  38  59  86 112 146 193 241 282 328
#     4  10  18  32  60  85 110 149 188 226 273 333
#     4  10  21  37  59  83 113 152 192 229 278 338
#     4   8  18  36  55  80 117 149 179 220 285 331
#
# _framework density 19.975892999999999
#
# number of rings (size 3 to 8) (size 9 to 14) (size 15 to 20)
#    1.000    1.667    0.000    1.000    0.000    8.000 
#    0.000    3.333    0.000    0.000    0.000    0.000 
#    0.000    0.000    0.000    0.000    0.000    0.000 
#
# Total GULP energy -148731.867089 kJ/mol
# GULP energy per Si atom -12394.322257 kJ/mol
# Density = 1.993043 g / cm^3
# Si number density = 19.975893 Si / 1000 Ang^3
#
#
#
# Elastic Constant Matrix: (Units=GPa)
#
#
# Indices 1 2 3 4 5 6 
#
# 1 103.8945 -6.8972 32.9069 -2.6828 -1.1497 2.1913
# 2 -6.8972 23.6535 5.1235 9.8753 -9.1716 -4.0681
# 3 32.9069 5.1235 73.3731 9.4893 -15.2014 -17.0514
# 4 -2.6828 9.8753 9.4893 29.7594 -5.3026 -3.4386
# 5 -1.1497 -9.1716 -15.2014 -5.3026 34.5305 -0.3721
# 6 2.1913 -4.0681 -17.0514 -3.4386 -0.3721 22.3105
#
#
#
# Elastic Compliance Matrix: (Units=1/GPa)
#
#
# Indices 1 2 3 4 5 6 
#
# 1 0.012497 0.002701 -0.008005 0.001621 -0.002213 -0.006640
# 2 0.002701 0.055908 0.001794 -0.015426 0.013459 0.009147
# 3 -0.008005 0.001794 0.024328 -0.005022 0.010355 0.019106
# 4 0.001621 -0.015426 -0.005022 0.040391 -0.000058 -0.000586
# 5 -0.002213 0.013459 0.010355 -0.000058 0.037131 0.011196
# 6 -0.006640 0.009147 0.019106 -0.000586 0.011196 0.061840
#
#
# Mechanical properties :
#
#
# Convention : Reuss Voigt Hill
#
# Bulk Modulus (GPa) = 11.66663 29.24306 20.45484
# Shear Modulus (GPa) = 18.67846 28.63928 23.65887
#
# Velocity S-wave (km/s) = 3.06118 3.79052 3.44520
# Velocity P-wave (km/s) = 4.28339 5.81621 5.10763
#
# Compressibility (1/GPa) = 0.08571458
#
# Stress axis : x y z
#
# Youngs Moduli (GPa) = 80.01788 17.88637 41.10420
#
# Poissons Ratio (x) = -0.04831 0.32902
# Poissons Ratio (y) = -0.21614 -0.07373
# Poissons Ratio (z) = 0.64051 -0.03208
#
# Static dielectric constant tensor:
#      x y z
#    x 3.542450 0.047550 0.026020 
#    y 0.047550 3.452830 -0.096380 
#    z 0.026020 -0.096380 3.539860 
# 
# 
# High freq. dielectric constant tensor:
#      x y z
#    x 1.775070 0.007170 -0.000940 
#    y 0.007170 1.765530 -0.006640 
#    z -0.000940 -0.006640 1.771170 
# 
# From -- ./inp_files/10147.got.cif
#   From: 2010.06.25/outbox.cif.g09.slc.cpg/sg2_6_cif.got.tgz:10147.got - 2010.06.27 13:26:56.
