data_PCOD8039209
_publ_section_title
;
Structure prediction by ZEFSAII (Michael W. Deem and Ramdas Pophale) SiO2 
 PCOD8039209
Probable space group: P -1
;
_chemical_formula_sum "Si O2"
_cell_formula_units_Z 16
_cell_length_a 13.922636
_cell_length_b 12.182792
_cell_length_c 17.811443
_cell_angle_alpha 97.624713
_cell_angle_beta 22.975500
_cell_angle_gamma 111.083757
_cell_volume 922.502610
_symmetry_space_group_name_H-M "P -1"
_symmetry_group_IT_number 2
_symmetry_cell_setting 'triclinic'
loop_
_space_group_symop_operation_xyz
x,y,z
-x,-y,-z
loop_
_atom_site_type_symbol
_atom_site_label
_atom_site_fract_x
_atom_site_fract_y
_atom_site_fract_z
Si Si1 0.175604 0.334904 0.167481
Si Si2 0.993954 0.448365 0.182309
Si Si3 0.128960 0.509794 0.325811
Si Si4 0.934948 0.859117 0.005411
Si Si5 0.816565 0.060652 0.320499
Si Si6 0.406089 0.800523 0.670270
Si Si7 0.315833 0.595315 0.825909
Si Si8 0.633264 0.449529 0.566902
O O1 0.103021 0.373999 0.303440
O O2 0.185544 0.430224 0.103370
O O3 0.898431 0.172923 0.335586
O O4 0.503860 0.359751 0.933157
O O5 0.807374 0.317758 0.248598
O O6 0.749175 0.461769 0.399729
O O7 0.244219 0.588242 0.965760
O O8 0.000000 0.500000 0.500000
O O9 0.928744 0.531128 0.416777
O O10 0.608028 0.715482 0.253603
O O11 0.915421 0.865733 0.929039
O O12 0.215607 0.859258 0.834297
O O13 0.000000 0.000000 0.000000
O O14 0.500000 0.000000 0.500000
O O15 0.745233 0.925203 0.402275
O O16 0.486281 0.749837 0.682046
O O17 0.499514 0.534204 0.673319
O O18 0.000000 0.500000 0.000000
#
# Coordination Sequence:
#
# PCOD8039209 Si02
#       8
#     2   2   2   2   2   2   2   2
#     4  10  19  35  53  80 110 138 177 222 276 322
#     4  10  18  33  54  74 110 143 175 222 268 311
#     4  10  21  32  54  80 106 139 180 225 271 315
#     4  11  20  30  49  80 112 139 176 217 269 329
#     4  10  18  33  52  74 111 145 167 213 276 325
#     4  10  20  33  50  75 111 151 169 214 269 319
#     4  10  19  35  49  74 110 143 185 219 254 320
#     4  11  21  34  55  80 104 145 181 221 272 320
#
# _framework density 17.344123
#
# number of rings (size 3 to 8) (size 9 to 14) (size 15 to 20)
#    0.000    1.750    5.000    2.250    5.250    2.000 
#    2.250    0.000    0.000    0.750    0.000   12.250 
#    0.000    0.000    0.000    0.000    0.000    0.000 
#
# Total GULP energy -198234.502990 kJ/mol
# GULP energy per Si atom -12389.656437 kJ/mol
# Density = 1.730465 g / cm^3
# Si number density = 17.344123 Si / 1000 Ang^3
#
#
#
# Elastic Constant Matrix: (Units=GPa)
#
#
# Indices 1 2 3 4 5 6 
#
# 1 82.1563 55.0565 51.2556 1.1305 12.2604 -9.8777
# 2 55.0565 97.9255 57.0128 3.3288 15.5982 -4.6358
# 3 51.2556 57.0128 100.3580 16.4288 10.3668 -10.6444
# 4 1.1305 3.3288 16.4288 32.6390 0.3175 3.9478
# 5 12.2604 15.5982 10.3668 0.3175 39.3078 -3.9263
# 6 -9.8777 -4.6358 -10.6444 3.9478 -3.9263 35.6453
#
#
#
# Elastic Compliance Matrix: (Units=1/GPa)
#
#
# Indices 1 2 3 4 5 6 
#
# 1 0.022616 -0.008466 -0.006821 0.003217 -0.001663 0.002590
# 2 -0.008466 0.019377 -0.006944 0.002151 -0.003487 -0.002522
# 3 -0.006821 -0.006944 0.019309 -0.009265 0.000268 0.004028
# 4 0.003217 0.002151 -0.009265 0.035647 -0.000258 -0.005572
# 5 -0.001663 -0.003487 0.000268 -0.000258 0.027496 0.002223
# 6 0.002590 -0.002522 0.004028 -0.005572 0.002223 0.030509
#
#
# Mechanical properties :
#
#
# Convention : Reuss Voigt Hill
#
# Bulk Modulus (GPa) = 59.38057 67.45439 63.41748
# Shear Modulus (GPa) = 24.38665 29.32608 26.85636
#
# Velocity S-wave (km/s) = 3.75380 4.11644 3.93929
# Velocity P-wave (km/s) = 7.28691 7.84663 7.57194
#
# Compressibility (1/GPa) = 0.01684052
#
# Stress axis : x y z
#
# Youngs Moduli (GPa) = 44.21584 51.60711 51.78899
#
# Poissons Ratio (x) = 0.43690 0.35327
# Poissons Ratio (y) = 0.37433 0.35961
# Poissons Ratio (z) = 0.30162 0.35834
#
# Static dielectric constant tensor:
#      x y z
#    x 3.717990 -0.292020 0.578460 
#    y -0.292020 3.408170 -0.176380 
#    z 0.578460 -0.176380 3.705530 
# 
# 
# High freq. dielectric constant tensor:
#      x y z
#    x 1.656190 0.002620 0.014990 
#    y 0.002620 1.651930 0.011550 
#    z 0.014990 0.011550 1.672980 
# 
# From -- ./inp_files/542882.got.cif
#   From: 2010.06.25/outbox.cif.g09.slc.cpg/sg2_272_cif.got.tgz:542882.got - 2010.06.27 13:26:56.
