data_PCOD8039655
_publ_section_title
;
Structure prediction by ZEFSAII (Michael W. Deem and Ramdas Pophale) SiO2 
 PCOD8039655
Probable space group: P -1
;
_chemical_formula_sum "Si O2"
_cell_formula_units_Z 16
_cell_length_a 23.451941
_cell_length_b 15.590350
_cell_length_c 9.603103
_cell_angle_alpha 35.524036
_cell_angle_beta 143.435639
_cell_angle_gamma 155.016910
_cell_volume 830.418433
_symmetry_space_group_name_H-M "P -1"
_symmetry_group_IT_number 2
_symmetry_cell_setting 'triclinic'
loop_
_space_group_symop_operation_xyz
x,y,z
-x,-y,-z
loop_
_atom_site_type_symbol
_atom_site_label
_atom_site_fract_x
_atom_site_fract_y
_atom_site_fract_z
Si Si1 0.098263 0.915511 0.489753
Si Si2 0.521369 0.453766 0.448308
Si Si3 0.196880 0.548526 0.486981
Si Si4 0.433184 0.648503 0.938459
Si Si5 0.226353 0.369376 0.159270
Si Si6 0.710590 0.094528 0.995634
Si Si7 0.712546 0.047057 0.362597
Si Si8 0.144784 0.583754 0.648629
O O1 0.147515 0.895631 0.466385
O O2 0.934525 0.703536 0.472927
O O3 0.120501 0.115847 0.258017
O O4 0.194282 0.949086 0.756146
O O5 0.500000 0.500000 0.500000
O O6 0.678886 0.564601 0.606705
O O7 0.416877 0.206331 0.530657
O O8 0.496620 0.557147 0.151059
O O9 0.338644 0.608716 0.680917
O O10 0.203617 0.680962 0.208249
O O11 0.179016 0.607840 0.521858
O O12 0.562884 0.903505 0.882646
O O13 0.330636 0.519556 0.038606
O O14 0.137939 0.420011 0.935210
O O15 0.682164 0.109600 0.080653
O O16 0.732481 0.176663 0.361136
O O17 0.000000 0.500000 0.500000
#
# Coordination Sequence:
#
# PCOD8039655 Si02
#       8
#     2   2   2   2   2   2   2   2
#     4  10  18  34  60  83 101 147 197 219 257 326
#     4  10  14  33  55  86 101 135 193 236 254 311
#     4  11  23  32  54  87 118 143 173 226 286 325
#     4  10  17  32  56  83 108 136 183 234 268 304
#     4  10  18  33  59  83 105 142 188 231 264 320
#     4  10  18  36  58  79 110 146 188 220 262 333
#     4  10  19  33  61  79 106 145 183 232 263 321
#     4  11  23  36  49  84 121 140 171 234 289 311
#
# _framework density 19.267395
#
# number of rings (size 3 to 8) (size 9 to 14) (size 15 to 20)
#    0.750    1.000    7.500    0.750    0.000    3.500 
#    0.000    0.000    0.000    5.250    0.000    0.000 
#    0.000    0.000    0.000    0.000    0.000    0.000 
#
# Total GULP energy -198234.181225 kJ/mol
# GULP energy per Si atom -12389.636327 kJ/mol
# Density = 1.922354 g / cm^3
# Si number density = 19.267395 Si / 1000 Ang^3
#
#
#
# Elastic Constant Matrix: (Units=GPa)
#
#
# Indices 1 2 3 4 5 6 
#
# 1 21.2838 19.7649 25.7373 -7.9572 2.4497 -4.6521
# 2 19.7649 136.8588 34.2124 -12.8347 7.4736 -7.3807
# 3 25.7373 34.2124 114.5509 -0.0298 23.0835 -2.9946
# 4 -7.9572 -12.8347 -0.0298 40.3677 1.7454 6.4651
# 5 2.4497 7.4736 23.0835 1.7454 19.8694 -0.8927
# 6 -4.6521 -7.3807 -2.9946 6.4651 -0.8927 17.9803
#
#
#
# Elastic Compliance Matrix: (Units=1/GPa)
#
#
# Indices 1 2 3 4 5 6 
#
# 1 0.080481 -0.005971 -0.018729 0.011473 0.013604 0.011803
# 2 -0.005971 0.008685 -0.000907 0.001447 -0.001547 0.001272
# 3 -0.018729 -0.000907 0.016431 -0.002904 -0.016284 -0.002246
# 4 0.011473 0.001447 -0.002904 0.028726 -0.001437 -0.007322
# 5 0.013604 -0.001547 -0.016284 -0.001437 0.068461 0.004089
# 6 0.011803 0.001272 -0.002246 -0.007322 0.004089 0.061654
#
#
# Mechanical properties :
#
#
# Convention : Reuss Voigt Hill
#
# Bulk Modulus (GPa) = 18.38856 48.01362 33.20109
# Shear Modulus (GPa) = 14.97999 28.50874 21.74436
#
# Velocity S-wave (km/s) = 2.79136 3.85078 3.36305
# Velocity P-wave (km/s) = 4.46693 6.68917 5.68764
#
# Compressibility (1/GPa) = 0.05438165
#
# Stress axis : x y z
#
# Youngs Moduli (GPa) = 12.42535 115.14646 60.86223
#
# Poissons Ratio (x) = 0.68758 1.13988
# Poissons Ratio (y) = 0.07420 0.05519
# Poissons Ratio (z) = 0.23271 0.10442
#
# Static dielectric constant tensor:
#      x y z
#    x 2.981370 -0.016180 0.288330 
#    y -0.016180 3.556190 0.269170 
#    z 0.288330 0.269170 4.422430 
# 
# 
# High freq. dielectric constant tensor:
#      x y z
#    x 1.671560 -0.003640 0.011260 
#    y -0.003640 1.765050 0.005220 
#    z 0.011260 0.005220 1.764460 
# 
# From -- ./inp_files/477001.got.cif
#   From: 2010.06.25/outbox.cif.g09.slc.cpg/sg2_239_cif.got.tgz:477001.got - 2010.06.27 13:26:56.
