data_PCOD8039227
_publ_section_title
;
Structure prediction by ZEFSAII (Michael W. Deem and Ramdas Pophale) SiO2 
 PCOD8039227
Probable space group: P -1
;
_chemical_formula_sum "Si O2"
_cell_formula_units_Z 14
_cell_length_a 18.466112
_cell_length_b 11.432800
_cell_length_c 12.486971
_cell_angle_alpha 24.523998
_cell_angle_beta 48.645021
_cell_angle_gamma 46.052978
_cell_volume 784.025034
_symmetry_space_group_name_H-M "P -1"
_symmetry_group_IT_number 2
_symmetry_cell_setting 'triclinic'
loop_
_space_group_symop_operation_xyz
x,y,z
-x,-y,-z
loop_
_atom_site_type_symbol
_atom_site_label
_atom_site_fract_x
_atom_site_fract_y
_atom_site_fract_z
Si Si1 0.259388 0.772653 0.311784
Si Si2 0.393189 0.439738 0.273385
Si Si3 0.870472 0.598072 0.155381
Si Si4 0.276394 0.034189 0.291742
Si Si5 0.625408 0.183913 0.227512
Si Si6 0.728639 0.340940 0.195399
Si Si7 0.092378 0.515097 0.029130
O O1 0.349479 0.579944 0.311553
O O2 0.181231 0.590666 0.563495
O O3 0.313357 0.839432 0.311497
O O4 0.201310 0.069628 0.058824
O O5 0.513610 0.337156 0.253791
O O6 0.352508 0.165159 0.514709
O O7 0.356943 0.681447 0.014882
O O8 0.895158 0.442756 0.145340
O O9 0.976078 0.595774 0.110363
O O10 0.311127 0.835779 0.527644
O O11 0.324480 0.307160 0.025593
O O12 0.153410 0.174307 0.284556
O O13 0.705083 0.241143 0.185310
O O14 0.850915 0.274443 0.141308
#
# Coordination Sequence:
#
# PCOD8039227 Si02
#       7
#     2   2   2   2   2   2   2
#     4  11  19  34  51  79 111 133 169 218 260 304
#     4  10  22  38  58  77  98 134 184 219 253 304
#     4  10  19  29  53  77 112 140 169 204 252 310
#     4   9  18  30  50  80 109 134 162 208 261 314
#     4  10  21  39  59  76  95 137 184 218 253 303
#     4  10  18  33  53  78 107 131 176 212 254 305
#     4   8  19  29  51  79 108 141 172 201 246 314
#
# _framework density 17.856572
#
# number of rings (size 3 to 8) (size 9 to 14) (size 15 to 20)
#    0.857    1.429    1.429    1.714    2.000    1.714 
#    0.000    1.429    0.000    5.143    0.000    0.000 
#    0.000    0.000    0.000    0.000    0.000    0.000 
#
# Total GULP energy -173529.752996 kJ/mol
# GULP energy per Si atom -12394.982357 kJ/mol
# Density = 1.781593 g / cm^3
# Si number density = 17.856572 Si / 1000 Ang^3
#
#
#
# Elastic Constant Matrix: (Units=GPa)
#
#
# Indices 1 2 3 4 5 6 
#
# 1 52.2811 1.5930 9.8608 -4.1419 -2.0477 20.5790
# 2 1.5930 48.4498 14.0256 1.4170 -2.6894 3.1175
# 3 9.8608 14.0256 100.8667 -6.1560 -9.4167 5.9007
# 4 -4.1419 1.4170 -6.1560 19.5215 5.7646 -0.8203
# 5 -2.0477 -2.6894 -9.4167 5.7646 14.4968 -2.9600
# 6 20.5790 3.1175 5.9007 -0.8203 -2.9600 18.8250
#
#
#
# Elastic Compliance Matrix: (Units=1/GPa)
#
#
# Indices 1 2 3 4 5 6 
#
# 1 0.034858 0.001195 -0.001493 0.007149 -0.006539 -0.038552
# 2 0.001195 0.021929 -0.002876 -0.003259 0.002905 -0.003721
# 3 -0.001493 -0.002876 0.011121 0.001692 0.005724 -0.000404
# 4 0.007149 -0.003259 0.001692 0.060315 -0.024318 -0.009002
# 5 -0.006539 0.002905 0.005724 -0.024318 0.085509 0.017259
# 6 -0.038552 -0.003721 -0.000404 -0.009002 0.017259 0.098329
#
#
# Mechanical properties :
#
#
# Convention : Reuss Voigt Hill
#
# Bulk Modulus (GPa) = 16.24438 28.06184 22.15311
# Shear Modulus (GPa) = 14.75231 22.30987 18.53109
#
# Velocity S-wave (km/s) = 2.87741 3.53851 3.22495
# Velocity P-wave (km/s) = 4.48957 5.69596 5.12836
#
# Compressibility (1/GPa) = 0.06155976
#
# Stress axis : x y z
#
# Youngs Moduli (GPa) = 28.68808 45.60122 89.91810
#
# Poissons Ratio (x) = -0.05447 0.13422
# Poissons Ratio (y) = -0.03427 0.25861
# Poissons Ratio (z) = 0.04282 0.13115
#
# Static dielectric constant tensor:
#      x y z
#    x 3.139450 0.044630 -0.004370 
#    y 0.044630 3.045600 -0.118700 
#    z -0.004370 -0.118700 3.390200 
# 
# 
# High freq. dielectric constant tensor:
#      x y z
#    x 1.674160 0.012770 0.001080 
#    y 0.012770 1.660210 -0.010120 
#    z 0.001080 -0.010120 1.707080 
# 
# From -- ./inp_files/342340.got.cif
#   From: 2010.06.25/outbox.cif.g09.slc.cpg/sg2_172_cif.got.tgz:342340.got - 2010.06.27 13:26:56.
