data_PCOD8039875
_publ_section_title
;
Structure prediction by ZEFSAII (Michael W. Deem and Ramdas Pophale) SiO2 
 PCOD8039875
Probable space group: P -1
;
_chemical_formula_sum "Si O2"
_cell_formula_units_Z 16
_cell_length_a 12.183960
_cell_length_b 15.654338
_cell_length_c 15.355905
_cell_angle_alpha 153.854605
_cell_angle_beta 46.962834
_cell_angle_gamma 142.403607
_cell_volume 782.865230
_symmetry_space_group_name_H-M "P -1"
_symmetry_group_IT_number 2
_symmetry_cell_setting 'triclinic'
loop_
_space_group_symop_operation_xyz
x,y,z
-x,-y,-z
loop_
_atom_site_type_symbol
_atom_site_label
_atom_site_fract_x
_atom_site_fract_y
_atom_site_fract_z
Si Si1 0.737391 0.163477 0.291289
Si Si2 0.799085 0.790532 0.901593
Si Si3 0.887436 0.969304 0.448882
Si Si4 0.421969 0.198370 0.421448
Si Si5 0.275673 0.340147 0.372426
Si Si6 0.981533 0.573028 0.297488
Si Si7 0.150529 0.908741 0.155430
Si Si8 0.867725 0.473680 0.663154
O O1 0.576502 0.161014 0.330366
O O2 0.772458 0.239655 0.442884
O O3 0.920792 0.340771 0.302351
O O4 0.676099 0.893061 0.072457
O O5 0.789345 0.687696 0.717520
O O6 0.755075 0.591428 0.814301
O O7 0.000000 0.000000 0.000000
O O8 0.919040 0.215482 0.630724
O O9 0.676669 0.794856 0.430568
O O10 0.000000 0.000000 0.500000
O O11 0.955677 0.871063 0.246608
O O12 0.512063 0.444785 0.546423
O O13 0.276491 0.990757 0.247635
O O14 0.165066 0.410268 0.554778
O O15 0.251898 0.104194 0.203790
O O16 0.136563 0.594673 0.296486
O O17 0.879299 0.329968 0.078715
#
# Coordination Sequence:
#
# PCOD8039875 Si02
#       8
#     2   2   2   2   2   2   2   2
#     4  10  19  35  57  88 118 154 194 240 298 346
#     4  10  19  32  56  87 119 155 193 237 295 354
#     4   9  23  44  61  83 119 164 199 238 291 355
#     4  11  21  41  59  89 123 153 197 250 297 342
#     4  11  21  37  59  94 123 148 195 252 297 342
#     4  11  21  40  63  89 116 161 201 237 293 356
#     4  10  23  40  62  87 120 160 198 239 296 357
#     4  10  18  35  57  84 119 152 192 244 292 348
#
# _framework density 20.437745
#
# number of rings (size 3 to 8) (size 9 to 14) (size 15 to 20)
#    0.000    1.750    2.500    3.375    0.000    3.500 
#    9.000    0.625    0.000    1.500    0.000    0.000 
#    0.000    0.000    0.000    0.000    0.000    0.000 
#
# Total GULP energy -198317.348919 kJ/mol
# GULP energy per Si atom -12394.834307 kJ/mol
# Density = 2.039123 g / cm^3
# Si number density = 20.437745 Si / 1000 Ang^3
#
#
#
# Elastic Constant Matrix: (Units=GPa)
#
#
# Indices 1 2 3 4 5 6 
#
# 1 99.2848 28.3006 25.9214 -2.4134 -9.5430 -16.4688
# 2 28.3006 93.7405 30.7083 3.7893 -17.3024 -11.9856
# 3 25.9214 30.7083 109.2583 1.5976 -8.7437 -5.7870
# 4 -2.4134 3.7893 1.5976 9.0213 -5.0951 -6.2422
# 5 -9.5430 -17.3024 -8.7437 -5.0951 35.0105 -0.2032
# 6 -16.4688 -11.9856 -5.7870 -6.2422 -0.2032 31.1513
#
#
#
# Elastic Compliance Matrix: (Units=1/GPa)
#
#
# Indices 1 2 3 4 5 6 
#
# 1 0.013285 -0.002051 -0.001992 0.012917 0.004039 0.008479
# 2 -0.002051 0.013672 -0.002718 -0.000148 0.005519 0.003678
# 3 -0.001992 -0.002718 0.010429 -0.001210 0.000540 -0.000400
# 4 0.012917 -0.000148 -0.001210 0.155462 0.025989 0.037868
# 5 0.004039 0.005519 0.000540 0.025989 0.036365 0.009804
# 6 0.008479 0.003678 -0.000400 0.037868 0.009804 0.045577
#
#
# Mechanical properties :
#
#
# Convention : Reuss Voigt Hill
#
# Bulk Modulus (GPa) = 41.90161 52.46046 47.18103
# Shear Modulus (GPa) = 16.87673 29.52684 23.20178
#
# Velocity S-wave (km/s) = 2.87673 3.80507 3.37299
# Velocity P-wave (km/s) = 5.61967 6.71036 6.18909
#
# Compressibility (1/GPa) = 0.02386543
#
# Stress axis : x y z
#
# Youngs Moduli (GPa) = 75.27076 73.14232 95.88887
#
# Poissons Ratio (x) = 0.15000 0.19102
# Poissons Ratio (y) = 0.15436 0.26058
# Poissons Ratio (z) = 0.14994 0.19877
#
# Static dielectric constant tensor:
#      x y z
#    x 3.962430 -0.099130 -0.291000 
#    y -0.099130 4.256100 -0.002060 
#    z -0.291000 -0.002060 3.881010 
# 
# 
# High freq. dielectric constant tensor:
#      x y z
#    x 1.808100 -0.016270 -0.007180 
#    y -0.016270 1.764640 0.005190 
#    z -0.007180 0.005190 1.801140 
# 
# From -- ./inp_files/521896.got.cif
#   From: 2010.06.25/outbox.cif.g09.slc.cpg/sg2_261_cif.got.tgz:521896.got - 2010.06.27 13:26:56.
