data_PCOD8039664
_publ_section_title
;
Structure prediction by ZEFSAII (Michael W. Deem and Ramdas Pophale) SiO2 
 PCOD8039664
Probable space group: P -1
;
_chemical_formula_sum "Si O2"
_cell_formula_units_Z 16
_cell_length_a 15.568288
_cell_length_b 15.360967
_cell_length_c 8.352789
_cell_angle_alpha 102.721576
_cell_angle_beta 74.698004
_cell_angle_gamma 38.064272
_cell_volume 824.749487
_symmetry_space_group_name_H-M "P -1"
_symmetry_group_IT_number 2
_symmetry_cell_setting 'triclinic'
loop_
_space_group_symop_operation_xyz
x,y,z
-x,-y,-z
loop_
_atom_site_type_symbol
_atom_site_label
_atom_site_fract_x
_atom_site_fract_y
_atom_site_fract_z
Si Si1 0.515603 0.260461 0.938927
Si Si2 0.708070 0.886442 0.180445
Si Si3 0.183219 0.640281 0.042336
Si Si4 0.844573 0.502386 0.204911
Si Si5 0.508241 0.890772 0.309609
Si Si6 0.852979 0.063238 0.513843
Si Si7 0.494957 0.246696 0.312639
Si Si8 0.526323 0.395020 0.563407
O O1 0.550509 0.128991 0.802294
O O2 0.701441 0.156038 0.754378
O O3 0.304575 0.488370 0.069202
O O4 0.498929 0.277489 0.143634
O O5 0.559642 0.939002 0.219695
O O6 0.679821 0.929312 0.402493
O O7 0.658493 0.020587 0.160429
O O8 0.937826 0.648370 0.931612
O O9 0.103263 0.637975 0.960269
O O10 0.331572 0.573367 0.846882
O O11 0.984812 0.867258 0.292472
O O12 0.705683 0.686951 0.233292
O O13 0.727181 0.591443 0.466138
O O14 0.727668 0.226963 0.503220
O O15 0.000000 0.000000 0.500000
O O16 0.547832 0.280497 0.418800
O O17 0.500000 0.500000 0.500000
#
# Coordination Sequence:
#
# PCOD8039664 Si02
#       8
#     2   2   2   2   2   2   2   2
#     4  10  22  39  56  81 123 150 186 238 296 337
#     4  10  18  34  59  83 114 144 198 236 273 341
#     4   9  20  38  58  78 112 151 186 234 282 344
#     4   9  17  35  56  80 109 147 193 229 280 336
#     4   9  19  34  58  85 108 154 188 233 287 337
#     4  11  24  39  61  88 110 150 199 235 288 350
#     4  10  22  36  55  83 114 156 183 235 294 337
#     4  10  23  40  60  82 116 150 190 240 288 341
#
# _framework density 19.399830000000001
#
# number of rings (size 3 to 8) (size 9 to 14) (size 15 to 20)
#    0.000    2.250    0.000    4.125    3.500    3.000 
#    2.250    0.625    0.000    0.000    0.000    0.000 
#    0.000    0.000    0.000    0.000    0.000    0.000 
#
# Total GULP energy -198397.380056 kJ/mol
# GULP energy per Si atom -12399.836253 kJ/mol
# Density = 1.935568 g / cm^3
# Si number density = 19.399830 Si / 1000 Ang^3
#
#
#
# Elastic Constant Matrix: (Units=GPa)
#
#
# Indices 1 2 3 4 5 6 
#
# 1 72.9705 29.5847 17.4239 -3.7945 -10.1482 2.6020
# 2 29.5847 88.1283 42.6315 -13.4861 -11.2996 3.9767
# 3 17.4239 42.6315 96.5096 -0.3156 -7.3361 -7.3169
# 4 -3.7945 -13.4861 -0.3156 29.1729 -1.0233 2.7045
# 5 -10.1482 -11.2996 -7.3361 -1.0233 24.5052 2.8172
# 6 2.6020 3.9767 -7.3169 2.7045 2.8172 29.6901
#
#
#
# Elastic Compliance Matrix: (Units=1/GPa)
#
#
# Indices 1 2 3 4 5 6 
#
# 1 0.016404 -0.004396 -0.000775 0.000400 0.004726 -0.001525
# 2 -0.004396 0.018680 -0.007407 0.008665 0.005542 -0.005257
# 3 -0.000775 -0.007407 0.014115 -0.003836 -0.000235 0.004910
# 4 0.000400 0.008665 -0.003836 0.039058 0.005358 -0.006207
# 5 0.004726 0.005542 -0.000235 0.005358 0.046173 -0.006084
# 6 -0.001525 -0.005257 0.004910 -0.006207 -0.006084 0.036872
#
#
# Mechanical properties :
#
#
# Convention : Reuss Voigt Hill
#
# Bulk Modulus (GPa) = 41.59080 48.54317 45.06699
# Shear Modulus (GPa) = 24.45337 27.87154 26.16246
#
# Velocity S-wave (km/s) = 3.55420 3.79448 3.67630
# Velocity P-wave (km/s) = 6.19099 6.65389 6.42661
#
# Compressibility (1/GPa) = 0.02404378
#
# Stress axis : x y z
#
# Youngs Moduli (GPa) = 60.96110 53.53446 70.84575
#
# Poissons Ratio (x) = 0.23534 0.05489
# Poissons Ratio (y) = 0.26798 0.52473
# Poissons Ratio (z) = 0.04723 0.39651
#
# Static dielectric constant tensor:
#      x y z
#    x 3.575860 0.149600 -0.019600 
#    y 0.149600 3.364730 0.058130 
#    z -0.019600 0.058130 3.593760 
# 
# 
# High freq. dielectric constant tensor:
#      x y z
#    x 1.755680 0.014410 -0.004670 
#    y 0.014410 1.739800 0.007910 
#    z -0.004670 0.007910 1.760770 
# 
# From -- ./inp_files/51658.got.cif
#   From: 2010.06.25/outbox.cif.g09.slc.cpg/sg2_26_cif.got.tgz:51658.got - 2010.06.27 13:26:56.
