data_PCOD8039431
_publ_section_title
;
Structure prediction by ZEFSAII (Michael W. Deem and Ramdas Pophale) SiO2 
 PCOD8039431
Probable space group: P -1
;
_chemical_formula_sum "Si O2"
_cell_formula_units_Z 16
_cell_length_a 18.619507
_cell_length_b 12.366315
_cell_length_c 21.433977
_cell_angle_alpha 39.642933
_cell_angle_beta 161.178992
_cell_angle_gamma 150.119103
_cell_volume 752.779035
_symmetry_space_group_name_H-M "P -1"
_symmetry_group_IT_number 2
_symmetry_cell_setting 'triclinic'
loop_
_space_group_symop_operation_xyz
x,y,z
-x,-y,-z
loop_
_atom_site_type_symbol
_atom_site_label
_atom_site_fract_x
_atom_site_fract_y
_atom_site_fract_z
Si Si1 0.194787 0.641250 0.321056
Si Si2 0.730465 0.431702 0.768149
Si Si3 0.787126 0.135511 0.874140
Si Si4 0.801417 0.306718 0.373413
Si Si5 0.093580 0.013767 0.249971
Si Si6 0.191765 0.450904 0.845133
Si Si7 0.872823 0.727707 0.642390
Si Si8 0.835727 0.827739 0.257382
O O1 0.085920 0.745665 0.142296
O O2 0.058229 0.392150 0.294425
O O3 0.074164 0.606826 0.306404
O O4 0.553091 0.834543 0.529841
O O5 0.643847 0.233851 0.739977
O O6 0.832473 0.643385 0.717446
O O7 0.432925 0.334637 0.604931
O O8 0.000000 0.500000 0.000000
O O9 0.505150 0.866462 0.762609
O O10 0.045847 0.178205 0.109030
O O11 0.735623 0.384707 0.224172
O O12 0.000000 0.500000 0.500000
O O13 0.967583 0.219804 0.528269
O O14 0.913573 0.784117 0.162816
O O15 0.978535 0.949042 0.254421
O O16 0.492575 0.591205 0.071981
O O17 0.141903 0.003015 0.749963
#
# Coordination Sequence:
#
# PCOD8039431 Si02
#       8
#     2   2   2   2   2   2   2   2
#     4  11  25  44  61  94 135 167 206 263 320 378
#     4  10  18  33  60  95 119 155 214 267 300 356
#     4  11  21  37  66  93 118 162 214 253 316 368
#     4  12  22  40  65  94 122 162 213 263 311 373
#     4  12  22  41  68  94 122 166 220 266 310 374
#     4  12  27  41  63  96 133 169 206 263 329 371
#     4  10  21  37  60  91 128 167 205 256 317 373
#     4  12  22  40  67  95 128 164 218 264 309 381
#
# _framework density 21.254577000000001
#
# number of rings (size 3 to 8) (size 9 to 14) (size 15 to 20)
#    0.000    0.750    5.000    4.500    0.000    2.000 
#    0.000    0.625    0.000    0.000    0.000    0.000 
#    0.000    0.000    0.000    0.000    0.000    0.000 
#
# Total GULP energy -198319.721479 kJ/mol
# GULP energy per Si atom -12394.982592 kJ/mol
# Density = 2.120620 g / cm^3
# Si number density = 21.254577 Si / 1000 Ang^3
#
#
#
# Elastic Constant Matrix: (Units=GPa)
#
#
# Indices 1 2 3 4 5 6 
#
# 1 61.8484 23.2513 0.6233 2.2636 10.7590 -6.9448
# 2 23.2513 89.8356 10.6394 0.4394 2.7474 -19.6955
# 3 0.6233 10.6394 88.5954 -4.6795 -5.6540 3.7614
# 4 2.2636 0.4394 -4.6795 42.0739 -0.1191 -4.6178
# 5 10.7590 2.7474 -5.6540 -0.1191 22.1056 -0.6565
# 6 -6.9448 -19.6955 3.7614 -4.6178 -0.6565 21.8484
#
#
#
# Elastic Compliance Matrix: (Units=1/GPa)
#
#
# Indices 1 2 3 4 5 6 
#
# 1 0.019623 -0.004337 -0.000322 -0.000860 -0.009041 0.001930
# 2 -0.004337 0.015411 -0.002313 0.001262 0.000002 0.013179
# 3 -0.000322 -0.002313 0.012002 0.000952 0.003402 -0.003950
# 4 -0.000860 0.001262 0.000952 0.024558 0.000813 0.005915
# 5 -0.009041 0.000002 0.003402 0.000813 0.050459 -0.001770
# 6 0.001930 0.013179 -0.003950 0.005915 -0.001770 0.060140
#
#
# Mechanical properties :
#
#
# Convention : Reuss Voigt Hill
#
# Bulk Modulus (GPa) = 30.21740 34.36749 32.29244
# Shear Modulus (GPa) = 24.13491 30.92329 27.52910
#
# Velocity S-wave (km/s) = 3.37340 3.81845 3.60280
# Velocity P-wave (km/s) = 5.42410 5.97037 5.70378
#
# Compressibility (1/GPa) = 0.03309352
#
# Stress axis : x y z
#
# Youngs Moduli (GPa) = 50.95998 64.88902 83.31673
#
# Poissons Ratio (x) = 0.28142 0.02679
# Poissons Ratio (y) = 0.22101 0.19271
# Poissons Ratio (z) = 0.01639 0.15008
#
# Static dielectric constant tensor:
#      x y z
#    x 3.749440 -0.240000 -0.036570 
#    y -0.240000 4.185750 -0.181170 
#    z -0.036570 -0.181170 4.000580 
# 
# 
# High freq. dielectric constant tensor:
#      x y z
#    x 1.797010 -0.019860 -0.011140 
#    y -0.019860 1.849510 -0.004360 
#    z -0.011140 -0.004360 1.845030 
# 
# From -- ./inp_files/272866.got.cif
#   From: 2010.06.25/outbox.cif.g09.slc.cpg/sg2_137_cif.got.tgz:272866.got - 2010.06.27 13:26:56.
