data_PCOD8039607
_publ_section_title
;
Structure prediction by ZEFSAII (Michael W. Deem and Ramdas Pophale) SiO2 
 PCOD8039607
Probable space group: P -1
;
_chemical_formula_sum "Si O2"
_cell_formula_units_Z 16
_cell_length_a 13.971832
_cell_length_b 11.872245
_cell_length_c 13.886869
_cell_angle_alpha 43.539494
_cell_angle_beta 131.547336
_cell_angle_gamma 150.427326
_cell_volume 779.474386
_symmetry_space_group_name_H-M "P -1"
_symmetry_group_IT_number 2
_symmetry_cell_setting 'triclinic'
loop_
_space_group_symop_operation_xyz
x,y,z
-x,-y,-z
loop_
_atom_site_type_symbol
_atom_site_label
_atom_site_fract_x
_atom_site_fract_y
_atom_site_fract_z
Si Si1 0.279173 0.737158 0.035677
Si Si2 0.157046 0.450895 0.432319
Si Si3 0.686064 0.593246 0.792738
Si Si4 0.904049 0.858181 0.266072
Si Si5 0.613381 0.073820 0.807118
Si Si6 0.777684 0.143814 0.256903
Si Si7 0.678083 0.716290 0.375160
Si Si8 0.412356 0.323662 0.960810
O O1 0.237268 0.508953 0.125436
O O2 0.243819 0.743787 0.120257
O O3 0.152045 0.725043 0.883979
O O4 0.500000 0.000000 0.000000
O O5 0.131399 0.362043 0.580630
O O6 0.311856 0.747708 0.344834
O O7 0.238355 0.374443 0.469797
O O8 0.952795 0.318191 0.339617
O O9 0.546485 0.527565 0.655629
O O10 0.569318 0.471210 0.889443
O O11 0.866818 0.888439 0.747879
O O12 0.808182 0.890514 0.260189
O O13 0.787181 0.773754 0.141221
O O14 0.388486 0.896667 0.788460
O O15 0.639254 0.910439 0.898089
O O16 0.693889 0.878065 0.361339
O O17 0.500000 0.500000 0.000000
#
# Coordination Sequence:
#
# PCOD8039607 Si02
#       8
#     2   2   2   2   2   2   2   2
#     4  10  18  34  57  91 123 163 193 244 302 360
#     4  10  25  35  56  93 130 161 206 243 292 376
#     4  11  19  40  66  87 127 163 195 253 308 360
#     4   9  24  40  61  91 123 162 203 242 307 367
#     4  11  23  39  61  91 126 162 201 256 305 351
#     4  11  20  34  55  88 130 168 204 234 298 362
#     4   9  20  36  53  87 127 167 200 227 292 364
#     4  11  24  45  69  91 114 153 214 264 305 360
#
# _framework density 20.526653
#
# number of rings (size 3 to 8) (size 9 to 14) (size 15 to 20)
#    0.750    1.000    5.000    1.125    5.250    1.500 
#    0.000    0.625    0.000    1.500    0.000    0.000 
#    0.000    0.000    0.000    0.000    0.000    0.000 
#
# Total GULP energy -198290.663853 kJ/mol
# GULP energy per Si atom -12393.166491 kJ/mol
# Density = 2.047993 g / cm^3
# Si number density = 20.526653 Si / 1000 Ang^3
#
#
#
# Elastic Constant Matrix: (Units=GPa)
#
#
# Indices 1 2 3 4 5 6 
#
# 1 34.9749 27.0113 20.6943 0.4317 11.0491 -6.3682
# 2 27.0113 73.7119 35.0978 4.8146 9.9864 9.0373
# 3 20.6943 35.0978 123.6873 -9.2993 22.0400 3.4138
# 4 0.4317 4.8146 -9.2993 34.2129 12.7998 5.7252
# 5 11.0491 9.9864 22.0400 12.7998 18.2119 1.0604
# 6 -6.3682 9.0373 3.4138 5.7252 1.0604 29.1768
#
#
#
# Elastic Compliance Matrix: (Units=1/GPa)
#
#
# Indices 1 2 3 4 5 6 
#
# 1 0.058070 -0.020860 0.004250 0.015883 -0.041090 0.017015
# 2 -0.020860 0.024066 -0.005881 -0.007718 0.012598 -0.010263
# 3 0.004250 -0.005881 0.015561 0.016254 -0.029540 -0.001187
# 4 0.015883 -0.007718 0.016254 0.060665 -0.067392 -0.005499
# 5 -0.041090 0.012598 -0.029540 -0.067392 0.156153 -0.001866
# 6 0.017015 -0.010263 -0.001187 -0.005499 -0.001866 0.042452
#
#
# Mechanical properties :
#
#
# Convention : Reuss Voigt Hill
#
# Bulk Modulus (GPa) = 18.96957 44.22012 31.59484
# Shear Modulus (GPa) = 11.91833 26.29172 19.10502
#
# Velocity S-wave (km/s) = 2.41223 3.58279 3.05412
# Velocity P-wave (km/s) = 4.12553 6.22131 5.27848
#
# Compressibility (1/GPa) = 0.05271602
#
# Stress axis : x y z
#
# Youngs Moduli (GPa) = 17.22045 41.55251 64.26219
#
# Poissons Ratio (x) = 0.86678 -0.27310
# Poissons Ratio (y) = 0.35922 0.37791
# Poissons Ratio (z) = -0.07318 0.24436
#
# Static dielectric constant tensor:
#      x y z
#    x 3.282320 0.213490 0.043390 
#    y 0.213490 3.530690 0.126860 
#    z 0.043390 0.126860 4.005760 
# 
# 
# High freq. dielectric constant tensor:
#      x y z
#    x 1.754810 0.031600 0.008980 
#    y 0.031600 1.789440 0.000920 
#    z 0.008980 0.000920 1.815840 
# 
# From -- ./inp_files/532341.got.cif
#   From: 2010.06.25/outbox.cif.g09.slc.cpg/sg2_267_cif.got.tgz:532341.got - 2010.06.27 13:26:56.
