data_PCOD8039132
_publ_section_title
;
Structure prediction by ZEFSAII (Michael W. Deem and Ramdas Pophale) SiO2 
 PCOD8039132
Probable space group: P -1
;
_chemical_formula_sum "Si O2"
_cell_formula_units_Z 16
_cell_length_a 12.307411
_cell_length_b 14.877113
_cell_length_c 11.303349
_cell_angle_alpha 61.452852
_cell_angle_beta 48.918404
_cell_angle_gamma 31.120760
_cell_volume 787.017493
_symmetry_space_group_name_H-M "P -1"
_symmetry_group_IT_number 2
_symmetry_cell_setting 'triclinic'
loop_
_space_group_symop_operation_xyz
x,y,z
-x,-y,-z
loop_
_atom_site_type_symbol
_atom_site_label
_atom_site_fract_x
_atom_site_fract_y
_atom_site_fract_z
Si Si1 0.970689 0.512487 0.374484
Si Si2 0.858396 0.689750 0.980170
Si Si3 0.705778 0.466063 0.498943
Si Si4 0.254382 0.886990 0.231124
Si Si5 0.389682 0.136517 0.714687
Si Si6 0.556334 0.835899 0.875224
Si Si7 0.875645 0.947384 0.528331
Si Si8 0.351577 0.501838 0.748613
O O1 0.247297 0.348987 0.220868
O O2 0.000000 0.500000 0.500000
O O3 0.790270 0.521156 0.467118
O O4 0.838601 0.694771 0.311359
O O5 0.722181 0.791186 0.889406
O O6 0.054725 0.667507 0.883282
O O7 0.653527 0.807039 0.154156
O O8 0.000000 0.500000 0.000000
O O9 0.467336 0.544673 0.679759
O O10 0.606550 0.548100 0.388048
O O11 0.937759 0.254817 0.460108
O O12 0.504561 0.673248 0.180630
O O13 0.005399 0.962358 0.350218
O O14 0.220590 0.966230 0.327618
O O15 0.309722 0.925782 0.052836
O O16 0.444050 0.983433 0.769718
O O17 0.642945 0.047940 0.550443
#
# Coordination Sequence:
#
# PCOD8039132 Si02
#       8
#     2   2   2   2   2   2   2   2
#     4  12  26  45  65  86 120 171 222 264 302 363
#     4  12  18  33  61  94 132 157 191 250 324 377
#     4  10  20  35  55  89 126 159 205 252 305 368
#     4  10  20  32  55  92 135 163 187 244 321 388
#     4  12  23  38  64  91 122 162 206 261 319 371
#     4  12  23  39  60  95 128 160 211 258 312 376
#     4  10  19  34  56  92 131 163 193 243 318 385
#     4  10  18  32  57  88 129 161 189 249 317 372
#
# _framework density 20.329916999999998
#
# number of rings (size 3 to 8) (size 9 to 14) (size 15 to 20)
#    0.000    1.000    6.250    1.125    1.750    1.500 
#    0.000    0.000    0.000    7.500    0.000    0.000 
#    0.000    0.000    0.000    0.000    0.000    0.000 
#
# Total GULP energy -198252.946881 kJ/mol
# GULP energy per Si atom -12390.809180 kJ/mol
# Density = 2.028365 g / cm^3
# Si number density = 20.329917 Si / 1000 Ang^3
#
#
#
# Elastic Constant Matrix: (Units=GPa)
#
#
# Indices 1 2 3 4 5 6 
#
# 1 51.6466 15.0454 42.3849 -6.9094 -5.7944 -3.9208
# 2 15.0454 99.0350 47.4102 -18.3715 -7.7467 -5.2373
# 3 42.3849 47.4102 125.7077 7.1944 -19.6078 -9.6614
# 4 -6.9094 -18.3715 7.1944 27.7220 -2.4890 -2.5615
# 5 -5.7944 -7.7467 -19.6078 -2.4890 32.4355 -4.4146
# 6 -3.9208 -5.2373 -9.6614 -2.5615 -4.4146 11.9441
#
#
#
# Elastic Compliance Matrix: (Units=1/GPa)
#
#
# Indices 1 2 3 4 5 6 
#
# 1 0.030453 0.004106 -0.012057 0.014024 0.000944 0.005401
# 2 0.004106 0.016275 -0.007562 0.014528 0.002012 0.006227
# 3 -0.012057 -0.007562 0.016994 -0.011269 0.006318 0.006391
# 4 0.014024 0.014528 -0.011269 0.054033 0.005412 0.015447
# 5 0.000944 0.002012 0.006318 0.005412 0.038676 0.021758
# 6 0.005401 0.006227 0.006391 0.015447 0.021758 0.104751
#
#
# Mechanical properties :
#
#
# Convention : Reuss Voigt Hill
#
# Bulk Modulus (GPa) = 30.58343 54.00778 42.29561
# Shear Modulus (GPa) = 16.49597 25.85691 21.17644
#
# Velocity S-wave (km/s) = 2.85162 3.57019 3.23095
# Velocity P-wave (km/s) = 5.09103 6.60442 5.89648
#
# Compressibility (1/GPa) = 0.03269744
#
# Stress axis : x y z
#
# Youngs Moduli (GPa) = 32.83761 61.44337 58.84538
#
# Poissons Ratio (x) = -0.25232 0.70949
# Poissons Ratio (y) = -0.13485 0.44497
# Poissons Ratio (z) = 0.39592 0.46462
#
# Static dielectric constant tensor:
#      x y z
#    x 3.411900 -0.096270 -0.650710 
#    y -0.096270 4.110310 0.237220 
#    z -0.650710 0.237220 4.156220 
# 
# 
# High freq. dielectric constant tensor:
#      x y z
#    x 1.730760 0.000130 -0.042710 
#    y 0.000130 1.811950 0.003550 
#    z -0.042710 0.003550 1.796720 
# 
# From -- ./inp_files/432681.got.cif
#   From: 2010.06.25/outbox.cif.g09.slc.cpg/sg2_217_cif.got.tgz:432681.got - 2010.06.27 13:26:56.
