data_PCOD8039865
_publ_section_title
;
Structure prediction by ZEFSAII (Michael W. Deem and Ramdas Pophale) SiO2 
 PCOD8039865
Probable space group: P -1
;
_chemical_formula_sum "Si O2"
_cell_formula_units_Z 16
_cell_length_a 9.349543
_cell_length_b 13.641428
_cell_length_c 11.993851
_cell_angle_alpha 110.420585
_cell_angle_beta 113.194814
_cell_angle_gamma 42.048258
_cell_volume 937.754833
_symmetry_space_group_name_H-M "P -1"
_symmetry_group_IT_number 2
_symmetry_cell_setting 'triclinic'
loop_
_space_group_symop_operation_xyz
x,y,z
-x,-y,-z
loop_
_atom_site_type_symbol
_atom_site_label
_atom_site_fract_x
_atom_site_fract_y
_atom_site_fract_z
Si Si1 0.567196 0.346112 0.765804
Si Si2 0.101197 0.193567 0.644392
Si Si3 0.514258 0.144347 0.741236
Si Si4 0.664857 0.342935 0.197287
Si Si5 0.759906 0.093018 0.009639
Si Si6 0.042573 0.081831 0.791322
Si Si7 0.925414 0.902712 0.638479
Si Si8 0.624192 0.453442 0.632328
O O1 0.458745 0.285948 0.733472
O O2 0.409046 0.513782 0.831097
O O3 0.819572 0.230590 0.841482
O O4 0.598570 0.351545 0.644360
O O5 0.291874 0.186549 0.689500
O O6 0.083943 0.132423 0.504244
O O7 0.140331 0.105635 0.731797
O O8 0.876232 0.364289 0.655886
O O9 0.686827 0.002861 0.659933
O O10 0.608615 0.106484 0.880019
O O11 0.651918 0.255973 0.070101
O O12 0.488747 0.405011 0.267756
O O13 0.903201 0.241826 0.288467
O O14 0.775780 0.013351 0.093348
O O15 0.000000 0.000000 0.000000
O O16 0.993640 0.991019 0.690400
O O17 0.500000 0.500000 0.500000
#
# Coordination Sequence:
#
# PCOD8039865 Si02
#       8
#     2   2   2   2   2   2   2   2
#     4   8  17  33  52  82 100 138 187 212 263 321
#     4  11  20  34  57  82 116 138 175 232 275 317
#     4  11  22  35  53  83 115 143 175 230 276 311
#     4   9  18  33  60  79 100 137 195 215 257 315
#     4  11  19  37  57  79 108 141 190 224 259 324
#     4   9  19  34  57  81 101 146 189 218 262 319
#     4  10  18  35  57  82 108 141 183 219 271 325
#     4   9  17  34  56  78 106 142 179 218 263 323
#
# _framework density 17.062028999999999
#
# number of rings (size 3 to 8) (size 9 to 14) (size 15 to 20)
#    0.750    1.500    5.000    0.750    0.000    1.000 
#    0.000    3.125    5.500    0.000    0.000    0.000 
#    0.000    0.000    0.000    0.000    0.000    0.000 
#
# Total GULP energy -198236.360899 kJ/mol
# GULP energy per Si atom -12389.772556 kJ/mol
# Density = 1.702319 g / cm^3
# Si number density = 17.062029 Si / 1000 Ang^3
#
#
#
# Elastic Constant Matrix: (Units=GPa)
#
#
# Indices 1 2 3 4 5 6 
#
# 1 80.0479 34.7707 10.3276 -3.5722 -6.3726 -9.7704
# 2 34.7707 116.7921 23.0197 8.4226 -2.3669 -0.8615
# 3 10.3276 23.0197 63.5671 4.1672 -8.3647 -4.9147
# 4 -3.5722 8.4226 4.1672 31.7717 -2.7028 -6.6329
# 5 -6.3726 -2.3669 -8.3647 -2.7028 13.3853 -2.3763
# 6 -9.7704 -0.8615 -4.9147 -6.6329 -2.3763 26.4903
#
#
#
# Elastic Compliance Matrix: (Units=1/GPa)
#
#
# Indices 1 2 3 4 5 6 
#
# 1 0.016826 -0.005323 0.000827 0.005861 0.010292 0.008577
# 2 -0.005323 0.011070 -0.003741 -0.004201 -0.004428 -0.003747
# 3 0.000827 -0.003741 0.018951 0.000718 0.012610 0.005010
# 4 0.005861 -0.004201 0.000718 0.036786 0.012135 0.012458
# 5 0.010292 -0.004428 0.012610 0.012135 0.092228 0.017304
# 6 0.008577 -0.003747 0.005010 0.012458 0.017304 0.046392
#
#
# Mechanical properties :
#
#
# Convention : Reuss Voigt Hill
#
# Bulk Modulus (GPa) = 32.92318 44.07143 38.49731
# Shear Modulus (GPa) = 20.09229 27.14875 23.62052
#
# Velocity S-wave (km/s) = 3.43534 3.99329 3.72478
# Velocity P-wave (km/s) = 5.92229 6.86644 6.41177
#
# Compressibility (1/GPa) = 0.03037374
#
# Stress axis : x y z
#
# Youngs Moduli (GPa) = 59.43252 90.33491 52.76676
#
# Poissons Ratio (x) = 0.48086 -0.04365
# Poissons Ratio (y) = 0.31637 0.19739
# Poissons Ratio (z) = -0.04917 0.33793
#
# Static dielectric constant tensor:
#      x y z
#    x 2.933810 -0.125450 -0.251870 
#    y -0.125450 4.899240 -0.141510 
#    z -0.251870 -0.141510 3.358790 
# 
# 
# High freq. dielectric constant tensor:
#      x y z
#    x 1.622680 -0.002360 -0.022920 
#    y -0.002360 1.673890 -0.003950 
#    z -0.022920 -0.003950 1.656390 
# 
# From -- ./inp_files/278531.got.cif
#   From: 2010.06.25/outbox.cif.g09.slc.cpg/sg2_140_cif.got.tgz:278531.got - 2010.06.27 13:26:56.
