data_PCOD8039166
_publ_section_title
;
Structure prediction by ZEFSAII (Michael W. Deem and Ramdas Pophale) SiO2 
 PCOD8039166
Probable space group: P -1
;
_chemical_formula_sum "Si O2"
_cell_formula_units_Z 16
_cell_length_a 10.759576
_cell_length_b 14.970631
_cell_length_c 8.993169
_cell_angle_alpha 144.496483
_cell_angle_beta 102.558823
_cell_angle_gamma 62.045150
_cell_volume 704.029379
_symmetry_space_group_name_H-M "P -1"
_symmetry_group_IT_number 2
_symmetry_cell_setting 'triclinic'
loop_
_space_group_symop_operation_xyz
x,y,z
-x,-y,-z
loop_
_atom_site_type_symbol
_atom_site_label
_atom_site_fract_x
_atom_site_fract_y
_atom_site_fract_z
Si Si1 0.061682 0.290938 0.244533
Si Si2 0.060398 0.897071 0.221284
Si Si3 0.242937 0.206079 0.639050
Si Si4 0.624135 0.195862 0.778170
Si Si5 0.478141 0.156011 0.417012
Si Si6 0.629232 0.775906 0.826484
Si Si7 0.025908 0.771135 0.542239
Si Si8 0.682646 0.575702 0.845348
O O1 0.013427 0.231268 0.299380
O O2 0.000000 0.500000 0.500000
O O3 0.238717 0.194775 0.155294
O O4 0.002938 0.232399 0.006152
O O5 0.239014 0.774089 0.118055
O O6 0.000000 0.000000 0.500000
O O7 0.011173 0.033311 0.253615
O O8 0.321066 0.256102 0.597538
O O9 0.248209 0.304528 0.921965
O O10 0.072298 0.281666 0.656709
O O11 0.337039 0.992633 0.396575
O O12 0.594905 0.187622 0.582933
O O13 0.478029 0.360100 0.039101
O O14 0.457168 0.238886 0.359105
O O15 0.524930 0.948415 0.133756
O O16 0.674723 0.599385 0.696293
O O17 0.200588 0.631941 0.369002
#
# Coordination Sequence:
#
# PCOD8039166 Si02
#       8
#     2   2   2   2   2   2   2   2
#     4  12  25  44  72 100 139 179 234 282 335 407
#     4  11  27  48  72  98 139 186 229 278 351 411
#     4  10  18  34  58  96 135 176 227 271 337 401
#     4  10  20  40  63  92 135 182 221 281 340 409
#     4  10  18  32  59  94 133 176 224 275 335 400
#     4  11  20  33  62 104 133 170 231 283 331 395
#     4  11  24  41  65 101 137 182 220 288 347 405
#     4  11  20  36  65 102 135 176 227 283 339 410
#
# _framework density 22.726326
#
# number of rings (size 3 to 8) (size 9 to 14) (size 15 to 20)
#    0.000    1.250    5.000    2.250    1.750    1.000 
#    0.000    2.500    5.500    0.000    0.000    0.000 
#    0.000    0.000    0.000    0.000    0.000    0.000 
#
# Total GULP energy -198391.049256 kJ/mol
# GULP energy per Si atom -12399.440579 kJ/mol
# Density = 2.267460 g / cm^3
# Si number density = 22.726326 Si / 1000 Ang^3
#
#
#
# Elastic Constant Matrix: (Units=GPa)
#
#
# Indices 1 2 3 4 5 6 
#
# 1 90.7303 44.2047 41.4378 0.6146 -10.5555 -24.4091
# 2 44.2047 128.2300 48.5503 -15.6116 -3.0125 -19.1589
# 3 41.4378 48.5503 78.2729 -10.4834 -1.2095 -9.4331
# 4 0.6146 -15.6116 -10.4834 32.2724 -4.7185 -5.3201
# 5 -10.5555 -3.0125 -1.2095 -4.7185 36.7382 1.9787
# 6 -24.4091 -19.1589 -9.4331 -5.3201 1.9787 37.5207
#
#
#
# Elastic Compliance Matrix: (Units=1/GPa)
#
#
# Indices 1 2 3 4 5 6 
#
# 1 0.018301 -0.002407 -0.007388 -0.001937 0.004120 0.008328
# 2 -0.002407 0.011620 -0.004823 0.004803 0.000514 0.003809
# 3 -0.007388 -0.004823 0.019976 0.003840 -0.001279 -0.001635
# 4 -0.001937 0.004803 0.003840 0.036385 0.004255 0.007093
# 5 0.004120 0.000514 -0.001279 0.004255 0.028858 0.001703
# 6 0.008328 0.003809 -0.001635 0.007093 0.001703 0.034519
#
#
# Mechanical properties :
#
#
# Convention : Reuss Voigt Hill
#
# Bulk Modulus (GPa) = 48.39848 62.84655 55.62252
# Shear Modulus (GPa) = 26.91287 32.17564 29.54425
#
# Velocity S-wave (km/s) = 3.44498 3.76678 3.60946
# Velocity P-wave (km/s) = 6.09641 6.82875 6.47295
#
# Compressibility (1/GPa) = 0.02066181
#
# Stress axis : x y z
#
# Youngs Moduli (GPa) = 54.64078 86.05596 50.05903
#
# Poissons Ratio (x) = 0.20710 0.36985
# Poissons Ratio (y) = 0.13149 0.24145
# Poissons Ratio (z) = 0.40370 0.41508
#
# Static dielectric constant tensor:
#      x y z
#    x 4.055660 -0.291900 -0.198940 
#    y -0.291900 4.219840 -0.149300 
#    z -0.198940 -0.149300 3.867990 
# 
# 
# High freq. dielectric constant tensor:
#      x y z
#    x 1.883460 -0.018990 -0.018330 
#    y -0.018990 1.904160 -0.016300 
#    z -0.018330 -0.016300 1.879980 
# 
# From -- ./inp_files/271228.got.cif
#   From: 2010.06.25/outbox.cif.g09.slc.cpg/sg2_136_cif.got.tgz:271228.got - 2010.06.27 13:26:56.
