data_PCOD8039831
_publ_section_title
;
Structure prediction by ZEFSAII (Michael W. Deem and Ramdas Pophale) SiO2 
 PCOD8039831
Probable space group: P -1
;
_chemical_formula_sum "Si O2"
_cell_formula_units_Z 12
_cell_length_a 16.194983
_cell_length_b 9.054855
_cell_length_c 9.080947
_cell_angle_alpha 115.063758
_cell_angle_beta 51.497200
_cell_angle_gamma 75.199321
_cell_volume 642.746959
_symmetry_space_group_name_H-M "P -1"
_symmetry_group_IT_number 2
_symmetry_cell_setting 'triclinic'
loop_
_space_group_symop_operation_xyz
x,y,z
-x,-y,-z
loop_
_atom_site_type_symbol
_atom_site_label
_atom_site_fract_x
_atom_site_fract_y
_atom_site_fract_z
Si Si1 0.212513 0.280324 0.358350
Si Si2 0.355123 0.478320 0.756421
Si Si3 0.308544 0.201148 0.546759
Si Si4 0.348630 0.285155 0.953905
Si Si5 0.295646 0.889683 0.894605
Si Si6 0.141655 0.263732 0.007327
O O1 0.298639 0.198569 0.382313
O O2 0.028860 0.478264 0.663423
O O3 0.256779 0.389669 0.256111
O O4 0.273168 0.048081 0.115120
O O5 0.276519 0.424196 0.724404
O O6 0.338811 0.462400 0.944349
O O7 0.263321 0.748675 0.939196
O O8 0.533447 0.293546 0.438014
O O9 0.474944 0.957899 0.314618
O O10 0.178839 0.227385 0.775870
O O11 0.273703 0.229184 0.915021
O O12 0.172075 0.056566 0.968003
#
# Coordination Sequence:
#
# PCOD8039831 Si02
#       6
#     2   2   2   2   2   2
#     4  11  22  33  56  83 110 133 175 225 262 306
#     4  10  19  34  57  79 103 141 178 219 255 315
#     4  11  19  36  56  82 104 139 181 216 258 310
#     4  10  18  35  56  78 102 142 184 207 251 321
#     4  10  19  35  55  80 105 138 180 215 263 308
#     4  10  19  37  55  78 107 146 173 208 266 326
#
# _framework density 18.669867
#
# number of rings (size 3 to 8) (size 9 to 14) (size 15 to 20)
#    0.000    1.667    5.000    4.000    0.000    0.000 
#    0.000   10.833    0.000    0.000    0.000    0.000 
#    0.000    0.000    0.000    0.000    0.000    0.000 
#
# Total GULP energy -148702.426619 kJ/mol
# GULP energy per Si atom -12391.868885 kJ/mol
# Density = 1.862737 g / cm^3
# Si number density = 18.669867 Si / 1000 Ang^3
#
#
#
# Elastic Constant Matrix: (Units=GPa)
#
#
# Indices 1 2 3 4 5 6 
#
# 1 48.5284 42.7943 19.8932 -5.0455 6.5546 -8.1582
# 2 42.7943 167.2026 44.9908 -19.4849 5.7230 1.4466
# 3 19.8932 44.9908 87.5679 -22.1958 -9.9113 -1.3651
# 4 -5.0455 -19.4849 -22.1958 34.7887 -7.5878 5.3794
# 5 6.5546 5.7230 -9.9113 -7.5878 24.8991 -3.9278
# 6 -8.1582 1.4466 -1.3651 5.3794 -3.9278 20.8963
#
#
#
# Elastic Compliance Matrix: (Units=1/GPa)
#
#
# Indices 1 2 3 4 5 6 
#
# 1 0.032255 -0.007179 -0.006451 -0.007550 -0.009692 0.012790
# 2 -0.007179 0.008861 -0.002355 0.002917 -0.000904 -0.004491
# 3 -0.006451 -0.002355 0.018884 0.013022 0.013417 -0.001952
# 4 -0.007550 0.002917 0.013022 0.043074 0.018050 -0.009995
# 5 -0.009692 -0.000904 0.013417 0.018050 0.054187 0.002694
# 6 0.012790 -0.004491 -0.001952 -0.009995 0.002694 0.056112
#
#
# Mechanical properties :
#
#
# Convention : Reuss Voigt Hill
#
# Bulk Modulus (GPa) = 35.67332 57.62840 46.65086
# Shear Modulus (GPa) = 19.63194 29.15820 24.39507
#
# Velocity S-wave (km/s) = 3.24625 3.95622 3.61869
# Velocity P-wave (km/s) = 5.76192 7.19743 6.51931
#
# Compressibility (1/GPa) = 0.02803215
#
# Stress axis : x y z
#
# Youngs Moduli (GPa) = 31.00249 112.84796 52.95508
#
# Poissons Ratio (x) = 0.81009 0.34160
# Poissons Ratio (y) = 0.22255 0.12471
# Poissons Ratio (z) = 0.19999 0.26577
#
# Static dielectric constant tensor:
#      x y z
#    x 3.122860 -0.157880 -0.007280 
#    y -0.157880 4.299110 -0.406460 
#    z -0.007280 -0.406460 3.490810 
# 
# 
# High freq. dielectric constant tensor:
#      x y z
#    x 1.684610 -0.021150 -0.014870 
#    y -0.021150 1.742110 -0.023000 
#    z -0.014870 -0.023000 1.725730 
# 
# From -- ./inp_files/144737.got.cif
#   From: 2010.06.25/outbox.cif.g09.slc.cpg/sg2_73_cif.got.tgz:144737.got - 2010.06.27 13:26:56.
