data_PCOD8039323
_publ_section_title
;
Structure prediction by ZEFSAII (Michael W. Deem and Ramdas Pophale) SiO2 
 PCOD8039323
Probable space group: P -1
;
_chemical_formula_sum "Si O2"
_cell_formula_units_Z 16
_cell_length_a 13.951090
_cell_length_b 12.989721
_cell_length_c 11.996962
_cell_angle_alpha 63.178459
_cell_angle_beta 148.937737
_cell_angle_gamma 129.479103
_cell_volume 841.688146
_symmetry_space_group_name_H-M "P -1"
_symmetry_group_IT_number 2
_symmetry_cell_setting 'triclinic'
loop_
_space_group_symop_operation_xyz
x,y,z
-x,-y,-z
loop_
_atom_site_type_symbol
_atom_site_label
_atom_site_fract_x
_atom_site_fract_y
_atom_site_fract_z
Si Si1 0.422431 0.260599 0.686864
Si Si2 0.603414 0.935394 0.062135
Si Si3 0.364840 0.120006 0.465805
Si Si4 0.939321 0.116788 0.000087
Si Si5 0.217275 0.719488 0.346574
Si Si6 0.905791 0.447686 0.054574
Si Si7 0.986897 0.218065 0.236204
Si Si8 0.465238 0.892941 0.700692
O O1 0.400050 0.184737 0.816994
O O2 0.376613 0.160923 0.586091
O O3 0.237418 0.297007 0.489795
O O4 0.653433 0.405772 0.832585
O O5 0.464509 0.867740 0.843663
O O6 0.851625 0.061348 0.221191
O O7 0.500000 0.000000 0.000000
O O8 0.585463 0.234351 0.567558
O O9 0.145861 0.098824 0.197450
O O10 0.355556 0.979382 0.522675
O O11 0.981551 0.214677 0.099253
O O12 0.907575 0.198982 0.829819
O O13 0.714052 0.968421 0.862764
O O14 0.317239 0.749286 0.557016
O O15 0.046842 0.558176 0.236455
O O16 0.888660 0.306133 0.136367
O O17 0.000000 0.500000 0.000000
#
# Coordination Sequence:
#
# PCOD8039323 Si02
#       8
#     2   2   2   2   2   2   2   2
#     4  11  21  36  61  86 109 142 188 235 276 316
#     4  11  19  39  64  81 108 141 185 241 279 316
#     4  10  18  33  57  82 108 143 178 229 282 322
#     4   9  18  33  55  82 110 140 181 226 279 328
#     4  11  22  34  51  78 117 149 180 218 270 332
#     4  12  21  37  55  81 118 152 184 220 266 335
#     4  10  21  35  59  89 109 140 186 233 280 320
#     4  10  21  35  52  82 111 142 181 230 275 323
#
# _framework density 19.009416000000002
#
# number of rings (size 3 to 8) (size 9 to 14) (size 15 to 20)
#    0.000    1.500    5.000    2.625    0.000    3.500 
#    0.000    0.625    0.000    0.750    0.000    0.000 
#    0.000    0.000    0.000    0.000    0.000    0.000 
#
# Total GULP energy -198371.686303 kJ/mol
# GULP energy per Si atom -12398.230394 kJ/mol
# Density = 1.896615 g / cm^3
# Si number density = 19.009416 Si / 1000 Ang^3
#
#
#
# Elastic Constant Matrix: (Units=GPa)
#
#
# Indices 1 2 3 4 5 6 
#
# 1 55.9776 14.5826 43.6452 4.7648 -0.9691 5.2212
# 2 14.5826 53.3843 42.8122 19.2955 -10.6551 3.7836
# 3 43.6452 42.8122 135.4199 18.8680 5.5003 0.2402
# 4 4.7648 19.2955 18.8680 29.8576 -4.7625 -1.8860
# 5 -0.9691 -10.6551 5.5003 -4.7625 38.6184 -1.1454
# 6 5.2212 3.7836 0.2402 -1.8860 -1.1454 21.6469
#
#
#
# Elastic Compliance Matrix: (Units=1/GPa)
#
#
# Indices 1 2 3 4 5 6 
#
# 1 0.024710 0.000271 -0.008257 0.001029 0.001828 -0.005729
# 2 0.000271 0.033375 -0.008867 -0.015087 0.008420 -0.006670
# 3 -0.008257 -0.008867 0.013302 -0.001919 -0.004696 0.002978
# 4 0.001029 -0.015087 -0.001919 0.044996 0.001876 0.006430
# 5 0.001828 0.008420 -0.004696 0.001876 0.029159 -0.000154
# 6 -0.005729 -0.006670 0.002978 0.006430 -0.000154 0.049263
#
#
# Mechanical properties :
#
#
# Convention : Reuss Voigt Hill
#
# Bulk Modulus (GPa) = 26.53841 49.65131 38.09486
# Shear Modulus (GPa) = 20.74074 27.60737 24.17405
#
# Velocity S-wave (km/s) = 3.30673 3.81504 3.56994
# Velocity P-wave (km/s) = 5.34511 6.75145 6.08902
#
# Compressibility (1/GPa) = 0.03768123
#
# Stress axis : x y z
#
# Youngs Moduli (GPa) = 40.46925 29.96223 75.17856
#
# Poissons Ratio (x) = -0.00812 0.62075
# Poissons Ratio (y) = -0.01096 0.66659
# Poissons Ratio (z) = 0.33416 0.26567
#
# Static dielectric constant tensor:
#      x y z
#    x 3.502770 0.101000 -0.007600 
#    y 0.101000 3.319880 -0.039390 
#    z -0.007600 -0.039390 3.871490 
# 
# 
# High freq. dielectric constant tensor:
#      x y z
#    x 1.725170 -0.006700 0.006470 
#    y -0.006700 1.705350 0.008040 
#    z 0.006470 0.008040 1.755910 
# 
# From -- ./inp_files/431188.got.cif
#   From: 2010.06.25/outbox.cif.g09.slc.cpg/sg2_216_cif.got.tgz:431188.got - 2010.06.27 13:26:56.
