data_PCOD8039093
_publ_section_title
;
Structure prediction by ZEFSAII (Michael W. Deem and Ramdas Pophale) SiO2 
 PCOD8039093
Probable space group: P -1
;
_chemical_formula_sum "Si O2"
_cell_formula_units_Z 16
_cell_length_a 8.302134
_cell_length_b 17.791350
_cell_length_c 8.929665
_cell_angle_alpha 49.150349
_cell_angle_beta 88.121221
_cell_angle_gamma 60.401541
_cell_volume 778.455043
_symmetry_space_group_name_H-M "P -1"
_symmetry_group_IT_number 2
_symmetry_cell_setting 'triclinic'
loop_
_space_group_symop_operation_xyz
x,y,z
-x,-y,-z
loop_
_atom_site_type_symbol
_atom_site_label
_atom_site_fract_x
_atom_site_fract_y
_atom_site_fract_z
Si Si1 0.257096 0.492693 0.063075
Si Si2 0.901103 0.461210 0.441472
Si Si3 0.461469 0.028607 0.640088
Si Si4 0.524562 0.652666 0.020319
Si Si5 0.772447 0.379297 0.810870
Si Si6 0.871835 0.679186 0.660362
Si Si7 0.230032 0.937220 0.716128
Si Si8 0.907070 0.905870 0.777057
O O1 0.292087 0.513429 0.204148
O O2 0.206911 0.396163 0.185538
O O3 0.459739 0.416549 0.046471
O O4 0.075344 0.628261 0.816928
O O5 0.751882 0.580814 0.177981
O O6 0.784541 0.421958 0.590964
O O7 0.000000 0.500000 0.500000
O O8 0.075330 0.341244 0.491694
O O9 0.305171 0.174827 0.493433
O O10 0.500000 0.000000 0.500000
O O11 0.359001 0.963283 0.787408
O O12 0.684292 0.974317 0.775477
O O13 0.405299 0.634183 0.171959
O O14 0.401360 0.802400 0.803512
O O15 0.985411 0.243137 0.027310
O O16 0.056224 0.935084 0.808237
O O17 0.116392 0.050966 0.450530
#
# Coordination Sequence:
#
# PCOD8039093 Si02
#       8
#     2   2   2   2   2   2   2   2
#     4  10  18  33  58  87 117 142 196 253 293 343
#     4  11  23  40  59  79 121 163 193 234 292 356
#     4  10  18  32  56  81 111 148 186 236 297 335
#     4  10  22  36  60  88 117 151 195 245 297 349
#     4  11  21  37  59  87 120 154 192 237 303 353
#     4  10  21  35  55  90 114 152 201 240 286 355
#     4   9  18  34  55  84 116 146 188 239 296 343
#     4   9  19  32  55  85 113 148 189 237 288 350
#
# _framework density 20.553532000000001
#
# number of rings (size 3 to 8) (size 9 to 14) (size 15 to 20)
#    0.000    2.000    1.250    3.750    1.750    0.000 
#    0.000    3.125    0.000    1.500    0.000    0.000 
#    0.000    0.000    0.000    0.000    0.000    0.000 
#
# Total GULP energy -198233.053284 kJ/mol
# GULP energy per Si atom -12389.565830 kJ/mol
# Density = 2.050675 g / cm^3
# Si number density = 20.553532 Si / 1000 Ang^3
#
#
#
# Elastic Constant Matrix: (Units=GPa)
#
#
# Indices 1 2 3 4 5 6 
#
# 1 109.3438 28.6912 7.1309 -13.6881 1.7907 -7.9197
# 2 28.6912 117.7083 40.9912 -15.6994 7.8580 -11.4472
# 3 7.1309 40.9912 64.4468 -12.5018 1.1402 -5.6146
# 4 -13.6881 -15.6994 -12.5018 37.8384 -7.8117 -0.9202
# 5 1.7907 7.8580 1.1402 -7.8117 27.5119 -1.1251
# 6 -7.9197 -11.4472 -5.6146 -0.9202 -1.1251 28.3719
#
#
#
# Elastic Compliance Matrix: (Units=1/GPa)
#
#
# Indices 1 2 3 4 5 6 
#
# 1 0.010248 -0.002292 0.001169 0.003405 0.001001 0.002317
# 2 -0.002292 0.012078 -0.006852 0.001474 -0.002482 0.002826
# 3 0.001169 -0.006852 0.020848 0.005037 0.002527 0.001951
# 4 0.003405 0.001474 0.005037 0.031749 0.008323 0.003902
# 5 0.001001 -0.002482 0.002527 0.008323 0.039316 0.001607
# 6 0.002317 0.002826 0.001951 0.003902 0.001607 0.037610
#
#
# Mechanical properties :
#
#
# Convention : Reuss Voigt Hill
#
# Bulk Modulus (GPa) = 36.73386 49.45841 43.09613
# Shear Modulus (GPa) = 28.26854 33.05682 30.66268
#
# Velocity S-wave (km/s) = 3.71261 4.01475 3.86663
# Velocity P-wave (km/s) = 6.02404 6.75325 6.39904
#
# Compressibility (1/GPa) = 0.02722284
#
# Stress axis : x y z
#
# Youngs Moduli (GPa) = 97.57529 82.79653 47.96605
#
# Poissons Ratio (x) = 0.18980 -0.05607
# Poissons Ratio (y) = 0.22368 0.32868
# Poissons Ratio (z) = -0.11405 0.56734
#
# Static dielectric constant tensor:
#      x y z
#    x 4.500520 -0.219250 -0.114350 
#    y -0.219250 3.597230 -0.143770 
#    z -0.114350 -0.143770 3.615670 
# 
# 
# High freq. dielectric constant tensor:
#      x y z
#    x 1.822590 -0.011740 -0.006140 
#    y -0.011740 1.781680 -0.027610 
#    z -0.006140 -0.027610 1.777400 
# 
# From -- ./inp_files/158706.got.cif
#   From: 2010.06.25/outbox.cif.g09.slc.cpg/sg2_80_cif.got.tgz:158706.got - 2010.06.27 13:26:56.
