data_PCOD8039893
_publ_section_title
;
Structure prediction by ZEFSAII (Michael W. Deem and Ramdas Pophale) SiO2 
 PCOD8039893
Probable space group: P -1
;
_chemical_formula_sum "Si O2"
_cell_formula_units_Z 16
_cell_length_a 18.576607
_cell_length_b 9.580836
_cell_length_c 15.575490
_cell_angle_alpha 124.631294
_cell_angle_beta 25.368340
_cell_angle_gamma 105.791678
_cell_volume 712.302758
_symmetry_space_group_name_H-M "P -1"
_symmetry_group_IT_number 2
_symmetry_cell_setting 'triclinic'
loop_
_space_group_symop_operation_xyz
x,y,z
-x,-y,-z
loop_
_atom_site_type_symbol
_atom_site_label
_atom_site_fract_x
_atom_site_fract_y
_atom_site_fract_z
Si Si1 0.482796 0.436357 0.129505
Si Si2 0.955076 0.796269 0.859632
Si Si3 0.429106 0.798728 0.216824
Si Si4 0.356946 0.003644 0.882440
Si Si5 0.029359 0.740621 0.093997
Si Si6 0.594759 0.302938 0.399232
Si Si7 0.966445 0.447808 0.147755
Si Si8 0.553397 0.311964 0.192480
O O1 0.557757 0.563734 0.051042
O O2 0.634340 0.280889 0.995579
O O3 0.224904 0.639147 0.511288
O O4 0.507505 0.269609 0.975228
O O5 0.897778 0.705250 0.966674
O O6 0.866563 0.784778 0.858333
O O7 0.823109 0.065155 0.116345
O O8 0.507178 0.929182 0.207998
O O9 0.151012 0.983886 0.592287
O O10 0.517741 0.774299 0.563634
O O11 0.280835 0.933900 0.020155
O O12 0.021622 0.608213 0.132157
O O13 0.292428 0.634589 0.767987
O O14 0.945476 0.718976 0.087152
O O15 0.443959 0.500343 0.703140
O O16 0.694207 0.607571 0.506903
#
# Coordination Sequence:
#
# PCOD8039893 Si02
#       8
#     2   2   2   2   2   2   2   2
#     4  10  23  38  60  80 106 150 195 228 261 324
#     4   9  20  38  54  84 110 149 180 222 285 327
#     4  11  21  38  58  81 113 144 191 230 269 319
#     4  10  21  37  55  85 116 144 178 226 289 326
#     4  10  18  35  58  81 112 146 185 229 269 326
#     4   9  20  35  59  80 118 143 174 224 289 331
#     4   9  19  33  59  85 107 145 190 225 269 330
#     4  10  19  37  59  87 108 144 189 226 271 333
#
# _framework density 22.462358999999999
#
# number of rings (size 3 to 8) (size 9 to 14) (size 15 to 20)
#    0.750    1.500    2.500    0.375    1.750    2.500 
#    2.250    1.250    0.000    2.250    0.000    0.000 
#    0.000    0.000    0.000    0.000    0.000    0.000 
#
# Total GULP energy -198268.546977 kJ/mol
# GULP energy per Si atom -12391.784186 kJ/mol
# Density = 2.241123 g / cm^3
# Si number density = 22.462359 Si / 1000 Ang^3
#
#
#
# Elastic Constant Matrix: (Units=GPa)
#
#
# Indices 1 2 3 4 5 6 
#
# 1 131.1629 70.9066 21.3216 1.8663 25.7913 -19.7351
# 2 70.9066 118.4936 23.3084 4.6116 28.0959 -14.0995
# 3 21.3216 23.3084 32.1947 4.9334 12.2486 -5.3749
# 4 1.8663 4.6116 4.9334 18.9055 -5.2657 5.8233
# 5 25.7913 28.0959 12.2486 -5.2657 24.9371 -1.5234
# 6 -19.7351 -14.0995 -5.3749 5.8233 -1.5234 57.3392
#
#
#
# Elastic Compliance Matrix: (Units=1/GPa)
#
#
# Indices 1 2 3 4 5 6 
#
# 1 0.012407 -0.005134 -0.000968 -0.002573 -0.006933 0.002994
# 2 -0.005134 0.015325 -0.001445 -0.007056 -0.012600 0.002248
# 3 -0.000968 -0.001445 0.045520 -0.019509 -0.023547 0.004934
# 4 -0.002573 -0.007056 -0.019509 0.073066 0.034954 -0.010941
# 5 -0.006933 -0.012600 -0.023547 0.034954 0.079856 -0.009120
# 6 0.002994 0.002248 0.004934 -0.010941 -0.009120 0.020355
#
#
# Mechanical properties :
#
#
# Convention : Reuss Voigt Hill
#
# Bulk Modulus (GPa) = 17.19436 56.99157 37.09297
# Shear Modulus (GPa) = 17.79292 31.32401 24.55846
#
# Velocity S-wave (km/s) = 2.81752 3.73837 3.31012
# Velocity P-wave (km/s) = 4.27269 6.63784 5.58197
#
# Compressibility (1/GPa) = 0.05815859
#
# Stress axis : x y z
#
# Youngs Moduli (GPa) = 80.59824 65.25244 21.96817
#
# Poissons Ratio (x) = 0.33499 0.02127
# Poissons Ratio (y) = 0.41377 0.03175
# Poissons Ratio (z) = 0.07804 0.09430
#
# Static dielectric constant tensor:
#      x y z
#    x 4.090230 -0.444540 0.029330 
#    y -0.444540 4.286600 0.134540 
#    z 0.029330 0.134540 3.743240 
# 
# 
# High freq. dielectric constant tensor:
#      x y z
#    x 1.883430 -0.019400 -0.000740 
#    y -0.019400 1.894990 0.013130 
#    z -0.000740 0.013130 1.844640 
# 
# From -- ./inp_files/540285.got.cif
#   From: 2010.06.25/outbox.cif.g09.slc.cpg/sg2_271_cif.got.tgz:540285.got - 2010.06.27 13:26:56.
