data_PCOD8039879
_publ_section_title
;
Structure prediction by ZEFSAII (Michael W. Deem and Ramdas Pophale) SiO2 
 PCOD8039879
Probable space group: P -1
;
_chemical_formula_sum "Si O2"
_cell_formula_units_Z 16
_cell_length_a 14.599534
_cell_length_b 11.583900
_cell_length_c 9.359776
_cell_angle_alpha 114.228499
_cell_angle_beta 129.978181
_cell_angle_gamma 43.222028
_cell_volume 825.622218
_symmetry_space_group_name_H-M "P -1"
_symmetry_group_IT_number 2
_symmetry_cell_setting 'triclinic'
loop_
_space_group_symop_operation_xyz
x,y,z
-x,-y,-z
loop_
_atom_site_type_symbol
_atom_site_label
_atom_site_fract_x
_atom_site_fract_y
_atom_site_fract_z
Si Si1 0.110670 0.244008 0.819831
Si Si2 0.259640 0.440459 0.427145
Si Si3 0.804423 0.728104 0.530829
Si Si4 0.834020 0.487877 0.209378
Si Si5 0.831529 0.064304 0.322299
Si Si6 0.682903 0.688373 0.878368
Si Si7 0.673241 0.991828 0.318378
Si Si8 0.665348 0.415109 0.196186
O O1 0.928161 0.392224 0.667219
O O2 0.138462 0.081290 0.822605
O O3 0.226239 0.180905 0.763824
O O4 0.178145 0.306475 0.022078
O O5 0.283368 0.280510 0.429516
O O6 0.327393 0.397782 0.312314
O O7 0.356555 0.475812 0.634687
O O8 0.804142 0.624655 0.353573
O O9 0.979758 0.649794 0.715329
O O10 0.707741 0.922145 0.480622
O O11 0.785410 0.391871 0.189847
O O12 0.730280 0.572324 0.004075
O O13 0.740679 0.083892 0.387955
O O14 0.730659 0.234504 0.219822
O O15 0.000000 0.000000 0.500000
O O16 0.515591 0.877616 0.833868
O O17 0.500000 0.500000 0.000000
#
# Coordination Sequence:
#
# PCOD8039879 Si02
#       8
#     2   2   2   2   2   2   2   2
#     4  10  20  36  64  85 114 159 197 239 284 364
#     4  11  23  38  62  89 124 155 189 254 297 364
#     4  10  18  35  57  86 117 151 202 232 300 342
#     4  10  19  34  60  83 114 157 198 243 274 367
#     4  10  19  37  62  86 112 157 214 230 271 353
#     4  12  22  37  61  96 121 146 196 251 322 327
#     4  10  21  34  60  90 117 156 198 254 279 352
#     4  11  22  38  61  87 115 159 204 240 288 349
#
# _framework density 19.379325000000001
#
# number of rings (size 3 to 8) (size 9 to 14) (size 15 to 20)
#    0.750    0.750    3.750    3.750    0.000    1.500 
#    0.000    2.500    0.000    0.750    0.000    0.000 
#    0.000    0.000    0.000    0.000    0.000    0.000 
#
# Total GULP energy -198245.628230 kJ/mol
# GULP energy per Si atom -12390.351764 kJ/mol
# Density = 1.933522 g / cm^3
# Si number density = 19.379325 Si / 1000 Ang^3
#
#
#
# Elastic Constant Matrix: (Units=GPa)
#
#
# Indices 1 2 3 4 5 6 
#
# 1 68.0626 34.7262 28.3564 -7.6078 0.6083 21.7740
# 2 34.7262 83.7914 32.6032 -25.8103 -5.8547 24.7643
# 3 28.3564 32.6032 92.5309 -12.6617 0.7716 -1.2732
# 4 -7.6078 -25.8103 -12.6617 37.2812 2.5277 -2.4761
# 5 0.6083 -5.8547 0.7716 2.5277 35.2506 -3.6054
# 6 21.7740 24.7643 -1.2732 -2.4761 -3.6054 42.9601
#
#
#
# Elastic Compliance Matrix: (Units=1/GPa)
#
#
# Indices 1 2 3 4 5 6 
#
# 1 0.022130 -0.005067 -0.005268 -0.001229 -0.001908 -0.008682
# 2 -0.005067 0.022794 -0.004952 0.012269 0.002096 -0.009835
# 3 -0.005268 -0.004952 0.014363 0.000803 -0.000495 0.005955
# 4 -0.001229 0.012269 0.000803 0.035105 -0.000934 -0.004481
# 5 -0.001908 0.002096 -0.000495 -0.000934 0.029045 0.002128
# 6 -0.008682 -0.009835 0.005955 -0.004481 0.002128 0.033444
#
#
# Mechanical properties :
#
#
# Convention : Reuss Voigt Hill
#
# Bulk Modulus (GPa) = 34.83025 48.41741 41.62383
# Shear Modulus (GPa) = 25.37737 33.01167 29.19452
#
# Velocity S-wave (km/s) = 3.62264 4.13176 3.88555
# Velocity P-wave (km/s) = 5.95902 6.91377 6.45407
#
# Compressibility (1/GPa) = 0.02871068
#
# Stress axis : x y z
#
# Youngs Moduli (GPa) = 45.18790 43.87146 69.62549
#
# Poissons Ratio (x) = 0.22232 0.36678
# Poissons Ratio (y) = 0.22899 0.34481
# Poissons Ratio (z) = 0.23805 0.21727
#
# Static dielectric constant tensor:
#      x y z
#    x 3.600520 0.188970 0.069590 
#    y 0.188970 3.271270 -0.114760 
#    z 0.069590 -0.114760 3.434000 
# 
# 
# High freq. dielectric constant tensor:
#      x y z
#    x 1.749470 0.018990 0.010640 
#    y 0.018990 1.741280 -0.025190 
#    z 0.010640 -0.025190 1.742010 
# 
# From -- ./inp_files/303747.got.cif
#   From: 2010.06.25/outbox.cif.g09.slc.cpg/sg2_152_cif.got.tgz:303747.got - 2010.06.27 13:26:56.
