data_PCOD8039201
_publ_section_title
;
Structure prediction by ZEFSAII (Michael W. Deem and Ramdas Pophale) SiO2 
 PCOD8039201
Probable space group: P -1
;
_chemical_formula_sum "Si O2"
_cell_formula_units_Z 14
_cell_length_a 6.309991
_cell_length_b 11.157308
_cell_length_c 9.074471
_cell_angle_alpha 93.937766
_cell_angle_beta 73.022510
_cell_angle_gamma 116.261280
_cell_volume 546.591100
_symmetry_space_group_name_H-M "P -1"
_symmetry_group_IT_number 2
_symmetry_cell_setting 'triclinic'
loop_
_space_group_symop_operation_xyz
x,y,z
-x,-y,-z
loop_
_atom_site_type_symbol
_atom_site_label
_atom_site_fract_x
_atom_site_fract_y
_atom_site_fract_z
Si Si1 0.777251 0.580264 0.011290
Si Si2 0.077828 0.315002 0.315417
Si Si3 0.640481 0.351957 0.220139
Si Si4 0.631425 0.766788 0.212993
Si Si5 0.569520 0.885707 0.935982
Si Si6 0.304821 0.548656 0.477951
Si Si7 0.949831 0.025205 0.344723
O O1 0.827738 0.476255 0.094051
O O2 0.820027 0.706426 0.120058
O O3 0.500000 0.500000 0.000000
O O4 0.963312 0.638335 0.837668
O O5 0.361535 0.337293 0.267433
O O6 0.062993 0.413844 0.458147
O O7 0.897960 0.157238 0.366819
O O8 0.629092 0.214484 0.147197
O O9 0.743134 0.369428 0.369861
O O10 0.404512 0.645116 0.326387
O O11 0.726591 0.890512 0.318233
O O12 0.545964 0.803830 0.081814
O O13 0.837317 0.950542 0.813676
O O14 0.500000 0.000000 0.000000
O O15 0.500000 0.500000 0.500000
O O16 0.000000 0.000000 0.500000
#
# Coordination Sequence:
#
# PCOD8039201 Si02
#       7
#     2   2   2   2   2   2   2
#     4  10  14  27  51  83 106 135 192 250 270 320
#     4   9  16  28  46  80 110 138 175 238 285 325
#     4   9  16  29  50  81 109 134 195 237 270 321
#     4  12  19  33  58  88 112 148 192 246 285 324
#     4  11  23  39  56  81 122 163 189 221 285 363
#     4  10  16  27  53  86 110 138 184 247 288 318
#     4  11  23  36  55  89 120 142 191 248 289 325
#
# _framework density 25.613294
#
# number of rings (size 3 to 8) (size 9 to 14) (size 15 to 20)
#    0.000    1.714    8.571    3.000    0.000    0.000 
#    0.000    2.857    0.000    0.857    0.000    4.000 
#    0.000    0.000    0.000    0.000    0.000    0.000 
#
# Total GULP energy -173555.495593 kJ/mol
# GULP energy per Si atom -12396.821114 kJ/mol
# Density = 2.555500 g / cm^3
# Si number density = 25.613294 Si / 1000 Ang^3
#
#
#
# Elastic Constant Matrix: (Units=GPa)
#
#
# Indices 1 2 3 4 5 6 
#
# 1 51.1349 24.8764 27.7220 1.8322 17.8901 4.7214
# 2 24.8764 205.2656 62.8554 35.8817 9.9234 -18.9548
# 3 27.7220 62.8554 167.2517 7.6838 14.5443 -10.0745
# 4 1.8322 35.8817 7.6838 68.9019 -7.3942 6.2107
# 5 17.8901 9.9234 14.5443 -7.3942 44.6930 8.6995
# 6 4.7214 -18.9548 -10.0745 6.2107 8.6995 35.0142
#
#
#
# Elastic Compliance Matrix: (Units=1/GPa)
#
#
# Indices 1 2 3 4 5 6 
#
# 1 0.025283 -0.002147 -0.002908 0.000225 -0.007986 -0.003464
# 2 -0.002147 0.006814 -0.001600 -0.003911 -0.001681 0.004629
# 3 -0.002908 -0.001600 0.007303 -0.000220 -0.001280 0.001984
# 4 0.000225 -0.003911 -0.000220 0.017708 0.005066 -0.006610
# 5 -0.007986 -0.001681 -0.001280 0.005066 0.028807 -0.008257
# 6 -0.003464 0.004629 0.001984 -0.006610 -0.008257 0.035328
#
#
# Mechanical properties :
#
#
# Convention : Reuss Voigt Hill
#
# Bulk Modulus (GPa) = 38.32929 72.72885 55.52907
# Shear Modulus (GPa) = 34.90378 50.26837 42.58608
#
# Velocity S-wave (km/s) = 3.69551 4.43492 4.08199
# Velocity P-wave (km/s) = 5.76248 7.39468 6.62901
#
# Compressibility (1/GPa) = 0.02608971
#
# Stress axis : x y z
#
# Youngs Moduli (GPa) = 39.55245 146.74945 136.92144
#
# Poissons Ratio (x) = 0.31501 0.39823
# Poissons Ratio (y) = 0.08490 0.21913
# Poissons Ratio (z) = 0.11504 0.23486
#
# Static dielectric constant tensor:
#      x y z
#    x 4.808690 -0.268400 0.042000 
#    y -0.268400 5.398080 0.485160 
#    z 0.042000 0.485160 5.241000 
# 
# 
# High freq. dielectric constant tensor:
#      x y z
#    x 2.036230 -0.009700 0.004100 
#    y -0.009700 2.042000 0.015320 
#    z 0.004100 0.015320 2.047860 
# 
# From -- ./inp_files/180106.got.cif
#   From: 2010.06.25/outbox.cif.g09.slc.cpg/sg2_91_cif.got.tgz:180106.got - 2010.06.27 13:26:56.
