data_PCOD8039516
_publ_section_title
;
Structure prediction by ZEFSAII (Michael W. Deem and Ramdas Pophale) SiO2 
 PCOD8039516
Probable space group: P -1
;
_chemical_formula_sum "Si O2"
_cell_formula_units_Z 14
_cell_length_a 14.410907
_cell_length_b 13.201379
_cell_length_c 9.805232
_cell_angle_alpha 122.871065
_cell_angle_beta 68.668038
_cell_angle_gamma 151.836066
_cell_volume 707.848510
_symmetry_space_group_name_H-M "P -1"
_symmetry_group_IT_number 2
_symmetry_cell_setting 'triclinic'
loop_
_space_group_symop_operation_xyz
x,y,z
-x,-y,-z
loop_
_atom_site_type_symbol
_atom_site_label
_atom_site_fract_x
_atom_site_fract_y
_atom_site_fract_z
Si Si1 0.193273 0.829794 0.216532
Si Si2 0.923746 0.000293 0.239121
Si Si3 0.183308 0.550491 0.043885
Si Si4 0.270385 0.360592 0.508393
Si Si5 0.668170 0.784319 0.450047
Si Si6 0.070654 0.899019 0.984965
Si Si7 0.532099 0.794335 0.886903
O O1 0.961977 0.612347 0.130870
O O2 0.264477 0.005670 0.414339
O O3 0.345784 0.987326 0.119672
O O4 0.204185 0.711582 0.197498
O O5 0.702846 0.776889 0.269502
O O6 0.931520 0.092165 0.170371
O O7 0.071831 0.209124 0.432745
O O8 0.984543 0.927969 0.122597
O O9 0.409955 0.740307 0.026747
O O10 0.083365 0.371889 0.092145
O O11 0.428387 0.510702 0.408207
O O12 0.210486 0.168064 0.467026
O O13 0.363576 0.540756 0.708899
O O14 0.303725 0.121503 0.069453
#
# Coordination Sequence:
#
# PCOD8039516 Si02
#       7
#     2   2   2   2   2   2   2
#     4   9  19  32  54  84 103 131 180 216 254 309
#     4  11  21  36  53  76 109 140 169 216 262 307
#     4  10  18  34  55  76 108 140 170 216 259 301
#     4  10  19  32  56  81 102 132 174 212 262 315
#     4  10  19  33  53  79 106 132 170 221 260 302
#     4  10  23  35  51  79 107 138 178 208 257 320
#     4  10  19  35  56  81 106 134 171 219 261 302
#
# _framework density 19.778243
#
# number of rings (size 3 to 8) (size 9 to 14) (size 15 to 20)
#    0.000    2.000    0.000    6.000    0.000    1.143 
#    0.000    4.286    0.000    4.286    0.000    0.000 
#    0.000    0.000    0.000    0.000    0.000    0.000 
#
# Total GULP energy -173577.945266 kJ/mol
# GULP energy per Si atom -12398.424662 kJ/mol
# Density = 1.973323 g / cm^3
# Si number density = 19.778243 Si / 1000 Ang^3
#
#
#
# Elastic Constant Matrix: (Units=GPa)
#
#
# Indices 1 2 3 4 5 6 
#
# 1 92.8741 56.7736 37.9374 -10.2468 -10.2307 -19.3318
# 2 56.7736 103.2418 43.8805 -18.5102 -12.8345 -18.1725
# 3 37.9374 43.8805 67.7392 -9.6730 -2.4274 -14.0202
# 4 -10.2468 -18.5102 -9.6730 35.6703 1.1885 -6.7807
# 5 -10.2307 -12.8345 -2.4274 1.1885 25.0612 -4.2508
# 6 -19.3318 -18.1725 -14.0202 -6.7807 -4.2508 33.6611
#
#
#
# Elastic Compliance Matrix: (Units=1/GPa)
#
#
# Indices 1 2 3 4 5 6 
#
# 1 0.018481 -0.006109 -0.004610 0.001943 0.004965 0.006414
# 2 -0.006109 0.019164 -0.006268 0.007512 0.007492 0.006686
# 3 -0.004610 -0.006268 0.022338 0.002210 -0.002455 0.003407
# 4 0.001943 0.007512 0.002210 0.035558 0.005534 0.013953
# 5 0.004965 0.007492 -0.002455 0.005534 0.047468 0.012983
# 6 0.006414 0.006686 0.003407 0.013953 0.012983 0.042871
#
#
# Mechanical properties :
#
#
# Convention : Reuss Voigt Hill
#
# Bulk Modulus (GPa) = 38.44883 60.11534 49.28209
# Shear Modulus (GPa) = 21.87954 27.22942 24.55448
#
# Velocity S-wave (km/s) = 3.32963 3.71446 3.52730
# Velocity P-wave (km/s) = 5.85355 6.98978 6.44675
#
# Compressibility (1/GPa) = 0.02600859
#
# Stress axis : x y z
#
# Youngs Moduli (GPa) = 54.10891 52.17981 44.76729
#
# Poissons Ratio (x) = 0.31877 0.20639
# Poissons Ratio (y) = 0.33055 0.28061
# Poissons Ratio (z) = 0.24946 0.32707
#
# Static dielectric constant tensor:
#      x y z
#    x 3.591250 0.058280 -0.061750 
#    y 0.058280 3.762300 -0.050080 
#    z -0.061750 -0.050080 3.197580 
# 
# 
# High freq. dielectric constant tensor:
#      x y z
#    x 1.762700 0.008740 -0.012860 
#    y 0.008740 1.787410 -0.003030 
#    z -0.012860 -0.003030 1.734650 
# 
# From -- ./inp_files/273672.got.cif
#   From: 2010.06.25/outbox.cif.g09.slc.cpg/sg2_137_cif.got.tgz:273672.got - 2010.06.27 13:26:56.
