data_PCOD8039666
_publ_section_title
;
Structure prediction by ZEFSAII (Michael W. Deem and Ramdas Pophale) SiO2 
 PCOD8039666
Probable space group: P -1
;
_chemical_formula_sum "Si O2"
_cell_formula_units_Z 14
_cell_length_a 12.959447
_cell_length_b 29.437050
_cell_length_c 8.744900
_cell_angle_alpha 145.010894
_cell_angle_beta 49.676149
_cell_angle_gamma 155.295520
_cell_volume 730.835581
_symmetry_space_group_name_H-M "P -1"
_symmetry_group_IT_number 2
_symmetry_cell_setting 'triclinic'
loop_
_space_group_symop_operation_xyz
x,y,z
-x,-y,-z
loop_
_atom_site_type_symbol
_atom_site_label
_atom_site_fract_x
_atom_site_fract_y
_atom_site_fract_z
Si Si1 0.831611 0.042079 0.011640
Si Si2 0.390329 0.912873 0.523965
Si Si3 0.738536 0.071861 0.889591
Si Si4 0.720043 0.705860 0.476959
Si Si5 0.543640 0.278445 0.378817
Si Si6 0.047670 0.621239 0.897569
Si Si7 0.150212 0.351168 0.055980
O O1 0.673186 0.041303 0.196299
O O2 0.108102 0.183891 0.233730
O O3 0.859303 0.062519 0.855864
O O4 0.654942 0.875333 0.754628
O O5 0.500000 0.000000 0.500000
O O6 0.612644 0.976599 0.585834
O O7 0.128610 0.724106 0.235780
O O8 0.997327 0.255294 0.096481
O O9 0.500000 0.000000 0.000000
O O10 0.638264 0.746621 0.591036
O O11 0.463347 0.523769 0.273397
O O12 0.884106 0.736165 0.279425
O O13 0.693777 0.303717 0.173180
O O14 0.780937 0.436881 0.694779
O O15 0.978186 0.632941 0.841060
#
# Coordination Sequence:
#
# PCOD8039666 Si02
#       7
#     2   2   2   2   2   2   2
#     4  11  20  35  53  83 116 147 180 229 286 333
#     4  11  17  33  62  83 103 143 200 234 264 323
#     4  10  21  33  57  88 114 141 186 237 279 324
#     4  10  21  35  60  82 112 149 190 229 274 328
#     4  10  21  33  55  86 115 141 186 235 280 324
#     4  10  18  34  59  84 106 142 193 242 266 311
#     4  10  19  37  59  87 106 144 198 233 265 329
#
# _framework density 19.156155999999999
#
# number of rings (size 3 to 8) (size 9 to 14) (size 15 to 20)
#    0.000    1.714    4.286    1.286    0.000    0.571 
#    0.000    1.429    0.000    0.000    0.000    0.000 
#    0.000    0.000    0.000    0.000    0.000    0.000 
#
# Total GULP energy -173442.401713 kJ/mol
# GULP energy per Si atom -12388.742980 kJ/mol
# Density = 1.911256 g / cm^3
# Si number density = 19.156156 Si / 1000 Ang^3
#
#
#
# Elastic Constant Matrix: (Units=GPa)
#
#
# Indices 1 2 3 4 5 6 
#
# 1 96.8225 33.9604 64.0406 8.1436 5.7128 -11.8043
# 2 33.9604 89.0141 39.6678 22.1508 -0.3045 -12.0007
# 3 64.0406 39.6678 112.2101 31.8849 10.6604 -19.4233
# 4 8.1436 22.1508 31.8849 31.0513 3.9936 -7.3125
# 5 5.7128 -0.3045 10.6604 3.9936 33.7300 -3.4641
# 6 -11.8043 -12.0007 -19.4233 -7.3125 -3.4641 28.1070
#
#
#
# Elastic Compliance Matrix: (Units=1/GPa)
#
#
# Indices 1 2 3 4 5 6 
#
# 1 0.019300 -0.004537 -0.012445 0.011128 -0.000655 0.000383
# 2 -0.004537 0.015737 0.000023 -0.009751 0.002323 0.002579
# 3 -0.012445 0.000023 0.022260 -0.018101 -0.002252 0.005179
# 4 0.011128 -0.009751 -0.018101 0.055676 -0.002622 0.002164
# 5 -0.000655 0.002323 -0.002252 -0.002622 0.031038 0.002303
# 6 0.000383 0.002579 0.005179 0.002164 0.002303 0.041266
#
#
# Mechanical properties :
#
#
# Convention : Reuss Voigt Hill
#
# Bulk Modulus (GPa) = 42.77315 63.70937 53.24126
# Shear Modulus (GPa) = 22.02752 29.26951 25.64852
#
# Velocity S-wave (km/s) = 3.39469 3.91313 3.66309
# Velocity P-wave (km/s) = 6.14348 7.33123 6.76348
#
# Compressibility (1/GPa) = 0.02337915
#
# Stress axis : x y z
#
# Youngs Moduli (GPa) = 51.81311 63.54343 44.92355
#
# Poissons Ratio (x) = 0.28832 0.55905
# Poissons Ratio (y) = 0.23510 -0.00102
# Poissons Ratio (z) = 0.64479 -0.00145
#
# Static dielectric constant tensor:
#      x y z
#    x 3.537650 0.123580 -0.058960 
#    y 0.123580 3.318720 0.306960 
#    z -0.058960 0.306960 3.660960 
# 
# 
# High freq. dielectric constant tensor:
#      x y z
#    x 1.747390 0.011340 0.003470 
#    y 0.011340 1.724060 0.025250 
#    z 0.003470 0.025250 1.742220 
# 
# From -- ./inp_files/258908.got.cif
#   From: 2010.06.25/outbox.cif.g09.slc.cpg/sg2_130_cif.got.tgz:258908.got - 2010.06.27 13:26:56.
