data_PCOD8039372
_publ_section_title
;
Structure prediction by ZEFSAII (Michael W. Deem and Ramdas Pophale) SiO2 
 PCOD8039372
Probable space group: P -1
;
_chemical_formula_sum "Si O2"
_cell_formula_units_Z 10
_cell_length_a 14.940834
_cell_length_b 12.462861
_cell_length_c 10.451118
_cell_angle_alpha 120.578422
_cell_angle_beta 127.257415
_cell_angle_gamma 19.183098
_cell_volume 493.935638
_symmetry_space_group_name_H-M "P -1"
_symmetry_group_IT_number 2
_symmetry_cell_setting 'triclinic'
loop_
_space_group_symop_operation_xyz
x,y,z
-x,-y,-z
loop_
_atom_site_type_symbol
_atom_site_label
_atom_site_fract_x
_atom_site_fract_y
_atom_site_fract_z
Si Si1 0.983012 0.061671 0.825937
Si Si2 0.583993 0.239361 0.148755
Si Si3 0.015903 0.796990 0.843741
Si Si4 0.178744 0.265820 0.890264
Si Si5 0.835156 0.707276 0.611950
O O1 0.636353 0.470550 0.759335
O O2 0.134498 0.968258 0.027866
O O3 0.181726 0.895423 0.775496
O O4 0.987870 0.906901 0.755446
O O5 0.780194 0.924912 0.184139
O O6 0.371816 0.405433 0.949340
O O7 0.829684 0.862207 0.707884
O O8 0.999454 0.480022 0.737486
O O9 0.000000 0.500000 0.000000
O O10 0.500000 0.000000 0.000000
O O11 0.000000 0.500000 0.500000
O O12 0.500000 0.000000 0.500000
#
# Coordination Sequence:
#
# PCOD8039372 Si02
#       5
#     2   2   2   2   2
#     4   9  19  31  61  92 109 146 204 273 283 329
#     4  10  18  33  58  90 109 141 206 261 292 329
#     4   9  20  35  59  86 120 150 205 250 298 351
#     4  12  22  40  65  87 121 165 212 257 287 357
#     4  12  27  40  59  91 134 167 192 245 322 378
#
# _framework density 20.245552
#
# number of rings (size 3 to 8) (size 9 to 14) (size 15 to 20)
#    1.200    0.400    2.000    4.200    2.800    0.000 
#    0.000    0.000    0.000    7.200    0.000    0.000 
#    0.000    0.000    0.000    0.000    0.000    0.000 
#
# Total GULP energy -123949.496582 kJ/mol
# GULP energy per Si atom -12394.949658 kJ/mol
# Density = 2.019947 g / cm^3
# Si number density = 20.245552 Si / 1000 Ang^3
#
#
#
# Elastic Constant Matrix: (Units=GPa)
#
#
# Indices 1 2 3 4 5 6 
#
# 1 166.3990 68.9558 58.3650 -16.3114 18.8461 9.7952
# 2 68.9558 102.2507 47.0150 -18.0421 6.1902 -0.9387
# 3 58.3650 47.0150 78.0725 -14.8871 -0.7807 4.2251
# 4 -16.3114 -18.0421 -14.8871 26.0065 -0.7705 4.0030
# 5 18.8461 6.1902 -0.7807 -0.7705 37.2994 3.1598
# 6 9.7952 -0.9387 4.2251 4.0030 3.1598 59.5516
#
#
#
# Elastic Compliance Matrix: (Units=1/GPa)
#
#
# Indices 1 2 3 4 5 6 
#
# 1 0.010087 -0.004189 -0.004866 0.000689 -0.004388 -0.001193
# 2 -0.004189 0.016183 -0.005692 0.005162 -0.000670 0.001036
# 3 -0.004866 -0.005692 0.021010 0.005355 0.004069 -0.001356
# 4 0.000689 0.005162 0.005355 0.046076 0.000157 -0.003517
# 5 -0.004388 -0.000670 0.004069 0.000157 0.029324 -0.001144
# 6 -0.001193 0.001036 -0.001356 -0.003517 -0.001144 0.017398
#
#
# Mechanical properties :
#
#
# Convention : Reuss Voigt Hill
#
# Bulk Modulus (GPa) = 56.22857 77.26596 66.74727
# Shear Modulus (GPa) = 28.48992 36.06395 32.27693
#
# Velocity S-wave (km/s) = 3.75536 4.22516 3.99717
# Velocity P-wave (km/s) = 6.82915 7.87717 7.37181
#
# Compressibility (1/GPa) = 0.01778455
#
# Stress axis : x y z
#
# Youngs Moduli (GPa) = 99.13638 61.79358 47.59725
#
# Poissons Ratio (x) = 0.25884 0.23163
# Poissons Ratio (y) = 0.41526 0.27094
# Poissons Ratio (z) = 0.48244 0.35175
#
# Static dielectric constant tensor:
#      x y z
#    x 3.856820 0.081600 0.065990 
#    y 0.081600 3.613050 -0.039650 
#    z 0.065990 -0.039650 3.188300 
# 
# 
# High freq. dielectric constant tensor:
#      x y z
#    x 1.812740 0.005380 0.012780 
#    y 0.005380 1.796660 -0.010410 
#    z 0.012780 -0.010410 1.736110 
# 
# From -- ./inp_files/15907.got.cif
#   From: 2010.06.25/outbox.cif.g09.slc.cpg/sg2_8_cif.got.tgz:15907.got - 2010.06.27 13:26:56.
