data_PCOD8039575
_publ_section_title
;
Structure prediction by ZEFSAII (Michael W. Deem and Ramdas Pophale) SiO2 
 PCOD8039575
Probable space group: P -1
;
_chemical_formula_sum "Si O2"
_cell_formula_units_Z 16
_cell_length_a 12.041752
_cell_length_b 9.345158
_cell_length_c 13.275975
_cell_angle_alpha 124.438070
_cell_angle_beta 77.749260
_cell_angle_gamma 65.948984
_cell_volume 910.296307
_symmetry_space_group_name_H-M "P -1"
_symmetry_group_IT_number 2
_symmetry_cell_setting 'triclinic'
loop_
_space_group_symop_operation_xyz
x,y,z
-x,-y,-z
loop_
_atom_site_type_symbol
_atom_site_label
_atom_site_fract_x
_atom_site_fract_y
_atom_site_fract_z
Si Si1 0.845963 0.620236 0.132917
Si Si2 0.726060 0.401480 0.572167
Si Si3 0.588260 0.666557 0.110197
Si Si4 0.956682 0.896060 0.542981
Si Si5 0.400022 0.196407 0.384397
Si Si6 0.649671 0.106904 0.419674
Si Si7 0.350737 0.634978 0.204201
Si Si8 0.814501 0.746777 0.403125
O O1 0.748961 0.552879 0.085550
O O2 0.872863 0.569028 0.228372
O O3 0.756635 0.889258 0.237879
O O4 0.000000 0.500000 0.000000
O O5 0.635203 0.655540 0.648327
O O6 0.682620 0.275989 0.465898
O O7 0.677704 0.420606 0.704028
O O8 0.905617 0.256090 0.465351
O O9 0.496779 0.614541 0.171801
O O10 0.490397 0.938461 0.226789
O O11 0.620927 0.555589 0.950251
O O12 0.950409 0.724497 0.412246
O O13 0.793831 0.108524 0.706402
O O14 0.000000 0.000000 0.500000
O O15 0.481610 0.229337 0.467808
O O16 0.245686 0.302298 0.511400
O O17 0.683262 0.010024 0.490343
#
# Coordination Sequence:
#
# PCOD8039575 Si02
#       8
#     2   2   2   2   2   2   2   2
#     4   9  20  32  58  83 103 134 184 235 267 304
#     4  11  22  33  58  81 116 145 173 230 271 326
#     4  10  21  35  57  81 106 146 183 228 263 323
#     4  10  18  34  57  80 104 144 185 223 263 316
#     4  11  21  36  53  87 112 139 183 221 280 324
#     4   9  19  35  56  79 105 145 183 225 262 321
#     4  10  20  36  57  79 109 144 189 219 267 321
#     4  10  19  34  60  78 108 137 189 230 261 316
#
# _framework density 17.576695000000001
#
# number of rings (size 3 to 8) (size 9 to 14) (size 15 to 20)
#    0.750    1.250    3.750    0.750    7.000    1.000 
#    0.000    0.000    0.000    0.750    0.000    0.000 
#    0.000    0.000    0.000    0.000    0.000    0.000 
#
# Total GULP energy -198248.810991 kJ/mol
# GULP energy per Si atom -12390.550687 kJ/mol
# Density = 1.753669 g / cm^3
# Si number density = 17.576695 Si / 1000 Ang^3
#
#
#
# Elastic Constant Matrix: (Units=GPa)
#
#
# Indices 1 2 3 4 5 6 
#
# 1 143.1786 27.7202 45.8211 -1.8114 12.3008 20.1689
# 2 27.7202 73.2553 22.1273 -0.7059 3.0116 9.0233
# 3 45.8211 22.1273 83.0337 -9.3896 6.1865 14.2009
# 4 -1.8114 -0.7059 -9.3896 16.8840 6.0000 -2.9216
# 5 12.3008 3.0116 6.1865 6.0000 30.5010 -0.9829
# 6 20.1689 9.0233 14.2009 -2.9216 -0.9829 13.4341
#
#
#
# Elastic Compliance Matrix: (Units=1/GPa)
#
#
# Indices 1 2 3 4 5 6 
#
# 1 0.010168 -0.001331 -0.003199 -0.001541 -0.003390 -0.011573
# 2 -0.001331 0.015696 -0.002565 -0.001882 -0.000324 -0.006265
# 3 -0.003199 -0.002565 0.017601 0.009003 -0.004134 -0.010425
# 4 -0.001541 -0.001882 0.009003 0.070640 -0.014646 0.008352
# 5 -0.003390 -0.000324 -0.004134 -0.014646 0.038204 0.009287
# 6 -0.011573 -0.006265 -0.010425 0.008352 0.009287 0.109536
#
#
# Mechanical properties :
#
#
# Convention : Reuss Voigt Hill
#
# Bulk Modulus (GPa) = 34.15926 54.53389 44.34658
# Shear Modulus (GPa) = 17.49508 25.75040 21.62274
#
# Velocity S-wave (km/s) = 3.15835 3.83172 3.51122
# Velocity P-wave (km/s) = 5.72511 7.11827 6.45936
#
# Compressibility (1/GPa) = 0.02927464
#
# Stress axis : x y z
#
# Youngs Moduli (GPa) = 98.35164 63.70850 56.81465
#
# Poissons Ratio (x) = 0.08482 0.18173
# Poissons Ratio (y) = 0.13094 0.14575
# Poissons Ratio (z) = 0.31459 0.16343
#
# Static dielectric constant tensor:
#      x y z
#    x 4.090820 -0.119260 -0.060900 
#    y -0.119260 2.941740 0.112650 
#    z -0.060900 0.112650 3.259060 
# 
# 
# High freq. dielectric constant tensor:
#      x y z
#    x 1.703920 0.010230 0.008160 
#    y 0.010230 1.638110 -0.002190 
#    z 0.008160 -0.002190 1.667340 
# 
# From -- ./inp_files/395950.got.cif
#   From: 2010.06.25/outbox.cif.g09.slc.cpg/sg2_198_cif.got.tgz:395950.got - 2010.06.27 13:26:56.
