data_PCOD8039455
_publ_section_title
;
Structure prediction by ZEFSAII (Michael W. Deem and Ramdas Pophale) SiO2 
 PCOD8039455
Probable space group: P -1
;
_chemical_formula_sum "Si O2"
_cell_formula_units_Z 14
_cell_length_a 11.435213
_cell_length_b 9.061128
_cell_length_c 9.319921
_cell_angle_alpha 56.985920
_cell_angle_beta 56.415756
_cell_angle_gamma 83.886816
_cell_volume 647.810142
_symmetry_space_group_name_H-M "P -1"
_symmetry_group_IT_number 2
_symmetry_cell_setting 'triclinic'
loop_
_space_group_symop_operation_xyz
x,y,z
-x,-y,-z
loop_
_atom_site_type_symbol
_atom_site_label
_atom_site_fract_x
_atom_site_fract_y
_atom_site_fract_z
Si Si1 0.009467 0.752885 0.243429
Si Si2 0.062576 0.384434 0.324345
Si Si3 0.762189 0.168157 0.584211
Si Si4 0.214853 0.155713 0.852022
Si Si5 0.486860 0.050034 0.645427
Si Si6 0.277067 0.241187 0.080843
Si Si7 0.432539 0.808581 0.064265
O O1 0.959584 0.732929 0.452524
O O2 0.865107 0.737969 0.255587
O O3 0.083352 0.596864 0.227283
O O4 0.129040 0.943143 0.036136
O O5 0.209555 0.371300 0.154375
O O6 0.921858 0.295508 0.364686
O O7 0.646563 0.161977 0.538209
O O8 0.720361 0.268244 0.705796
O O9 0.774624 0.965471 0.714911
O O10 0.376703 0.175354 0.669635
O O11 0.225776 0.252248 0.947467
O O12 0.500000 0.000000 0.500000
O O13 0.418894 0.859997 0.880378
O O14 0.454990 0.315167 0.930236
O O15 0.500000 0.000000 0.000000
#
# Coordination Sequence:
#
# PCOD8039455 Si02
#       7
#     2   2   2   2   2   2   2
#     4  10  25  37  58  84 125 150 188 245 292 329
#     4  11  22  39  58  90 117 153 194 240 281 348
#     4  10  18  35  61  87 113 154 189 234 288 351
#     4  11  20  40  59  85 115 157 192 239 289 343
#     4  10  19  31  58  89 113 142 197 244 281 335
#     4  10  18  33  63  86 111 152 202 224 285 349
#     4   8  15  32  53  87 109 149 183 235 278 346
#
# _framework density 21.611269
#
# number of rings (size 3 to 8) (size 9 to 14) (size 15 to 20)
#    0.000    2.286    5.714    0.429    4.000    1.714 
#    0.000    0.714    3.143    5.143    0.000    0.000 
#    0.000    0.000    0.000    0.000    0.000    0.000 
#
# Total GULP energy -173544.271100 kJ/mol
# GULP energy per Si atom -12396.019364 kJ/mol
# Density = 2.156208 g / cm^3
# Si number density = 21.611269 Si / 1000 Ang^3
#
#
#
# Elastic Constant Matrix: (Units=GPa)
#
#
# Indices 1 2 3 4 5 6 
#
# 1 97.7676 31.8655 29.4073 22.4996 19.8861 -19.8315
# 2 31.8655 93.5756 37.7217 35.7387 4.9180 -20.3558
# 3 29.4073 37.7217 55.8951 27.1351 13.5481 -4.9402
# 4 22.4996 35.7387 27.1351 38.4542 1.6932 -4.6337
# 5 19.8861 4.9180 13.5481 1.6932 26.7347 12.5414
# 6 -19.8315 -20.3558 -4.9402 -4.6337 12.5414 30.7027
#
#
#
# Elastic Compliance Matrix: (Units=1/GPa)
#
#
# Indices 1 2 3 4 5 6 
#
# 1 0.024877 0.005386 0.001994 -0.015644 -0.034354 0.031632
# 2 0.005386 0.022917 -0.003665 -0.018598 -0.015281 0.021518
# 3 0.001994 -0.003665 0.035852 -0.020761 -0.022716 0.010772
# 4 -0.015644 -0.018598 -0.020761 0.061719 0.036359 -0.031313
# 5 -0.034354 -0.015281 -0.022716 0.036359 0.110444 -0.075603
# 6 0.031632 0.021518 0.010772 -0.031313 -0.075603 0.095158
#
#
# Mechanical properties :
#
#
# Convention : Reuss Voigt Hill
#
# Bulk Modulus (GPa) = 10.97981 49.46970 30.22476
# Shear Modulus (GPa) = 13.37273 29.06125 21.21699
#
# Velocity S-wave (km/s) = 2.49024 3.67103 3.13670
# Velocity P-wave (km/s) = 3.65513 6.39601 5.20908
#
# Compressibility (1/GPa) = 0.09107622
#
# Stress axis : x y z
#
# Youngs Moduli (GPa) = 40.19718 43.63594 27.89270
#
# Poissons Ratio (x) = -0.23503 -0.05562
# Poissons Ratio (y) = -0.21651 0.10223
# Poissons Ratio (z) = -0.08016 0.15993
#
# Static dielectric constant tensor:
#      x y z
#    x 4.378480 -0.217730 -0.146700 
#    y -0.217730 3.572860 0.345000 
#    z -0.146700 0.345000 3.967380 
# 
# 
# High freq. dielectric constant tensor:
#      x y z
#    x 1.869980 -0.011680 -0.000450 
#    y -0.011680 1.820620 0.024580 
#    z -0.000450 0.024580 1.821930 
# 
# From -- ./inp_files/175444.got.cif
#   From: 2010.06.25/outbox.cif.g09.slc.cpg/sg2_88_cif.got.tgz:175444.got - 2010.06.27 13:26:56.
