data_PCOD8039972
_publ_section_title
;
Structure prediction by ZEFSAII (Michael W. Deem and Ramdas Pophale) SiO2 
 PCOD8039972
Probable space group: P -1
;
_chemical_formula_sum "Si O2"
_cell_formula_units_Z 16
_cell_length_a 16.078305
_cell_length_b 26.432509
_cell_length_c 14.764070
_cell_angle_alpha 25.941986
_cell_angle_beta 27.062418
_cell_angle_gamma 15.241214
_cell_volume 707.130234
_symmetry_space_group_name_H-M "P -1"
_symmetry_group_IT_number 2
_symmetry_cell_setting 'triclinic'
loop_
_space_group_symop_operation_xyz
x,y,z
-x,-y,-z
loop_
_atom_site_type_symbol
_atom_site_label
_atom_site_fract_x
_atom_site_fract_y
_atom_site_fract_z
Si Si1 0.226865 0.738017 0.888465
Si Si2 0.128525 0.374435 0.974891
Si Si3 0.505290 0.826850 0.690947
Si Si4 0.582356 0.993759 0.030993
Si Si5 0.360151 0.156127 0.291635
Si Si6 0.437534 0.398369 0.736630
Si Si7 0.661292 0.723365 0.502382
Si Si8 0.965287 0.945903 0.990182
O O1 0.376292 0.786001 0.647324
O O2 0.500000 0.500000 0.000000
O O3 0.079638 0.806223 0.021441
O O4 0.937205 0.866388 0.891494
O O5 0.302077 0.237485 0.118494
O O6 0.754114 0.529031 0.099209
O O7 0.305971 0.230069 0.948129
O O8 0.195949 0.479455 0.756823
O O9 0.764793 0.705875 0.718073
O O10 0.688855 0.715591 0.597013
O O11 0.292669 0.056070 0.523752
O O12 0.274279 0.837564 0.917173
O O13 0.575510 0.890760 0.272735
O O14 0.500000 0.000000 0.000000
O O15 0.751057 0.977345 0.213093
O O16 0.500000 0.500000 0.500000
O O17 0.775378 0.156436 0.794388
O O18 0.000000 0.500000 0.500000
#
# Coordination Sequence:
#
# PCOD8039972 Si02
#       8
#     2   2   2   2   2   2   2   2
#     4  11  22  42  71  97 132 178 226 279 342 401
#     4  10  21  40  61  87 130 169 212 268 330 397
#     4  10  20  33  61  91 116 160 207 253 323 388
#     4  12  25  46  70  95 133 183 232 284 338 399
#     4  10  18  35  60  85 121 155 203 254 320 380
#     4  10  20  35  62  89 122 171 207 252 332 398
#     4  11  23  42  68  97 134 176 224 280 337 397
#     4  10  20  37  59  91 128 161 206 267 326 387
#
# _framework density 22.626667000000001
#
# number of rings (size 3 to 8) (size 9 to 14) (size 15 to 20)
#    0.000    1.500    5.000    1.125    1.750    0.500 
#    6.750    1.250    0.000    0.000    0.000    0.000 
#    0.000    0.000    0.000    0.000    0.000    0.000 
#
# Total GULP energy -198242.495033 kJ/mol
# GULP energy per Si atom -12390.155940 kJ/mol
# Density = 2.257517 g / cm^3
# Si number density = 22.626667 Si / 1000 Ang^3
#
#
#
# Elastic Constant Matrix: (Units=GPa)
#
#
# Indices 1 2 3 4 5 6 
#
# 1 134.2064 31.4242 15.3645 13.7841 -22.1386 9.1004
# 2 31.4242 115.6573 10.4492 7.0317 -19.3756 30.6888
# 3 15.3645 10.4492 101.6018 5.5643 -23.3079 6.1153
# 4 13.7841 7.0317 5.5643 31.3366 2.2816 -7.6194
# 5 -22.1386 -19.3756 -23.3079 2.2816 29.5494 -3.0524
# 6 9.1004 30.6888 6.1153 -7.6194 -3.0524 37.9979
#
#
#
# Elastic Compliance Matrix: (Units=1/GPa)
#
#
# Indices 1 2 3 4 5 6 
#
# 1 0.009426 -0.000345 0.000810 -0.005395 0.007625 -0.002579
# 2 -0.000345 0.013761 0.001932 -0.006884 0.009586 -0.011953
# 3 0.000810 0.001932 0.012749 -0.004850 0.011910 -0.003822
# 4 -0.005395 -0.006884 -0.004850 0.041309 -0.014043 0.014787
# 5 0.007625 0.009586 0.011910 -0.014043 0.055300 -0.009859
# 6 -0.002579 -0.011953 -0.003822 0.014787 -0.009859 0.039377
#
#
# Mechanical properties :
#
#
# Convention : Reuss Voigt Hill
#
# Bulk Modulus (GPa) = 24.55088 51.77126 38.16107
# Shear Modulus (GPa) = 27.66962 39.39195 33.53078
#
# Velocity S-wave (km/s) = 3.50076 4.17700 3.85374
# Velocity P-wave (km/s) = 5.21674 6.79657 6.05837
#
# Compressibility (1/GPa) = 0.04073173
#
# Stress axis : x y z
#
# Youngs Moduli (GPa) = 106.09007 72.66715 78.43795
#
# Poissons Ratio (x) = 0.02504 -0.06353
# Poissons Ratio (y) = 0.03655 -0.15157
# Poissons Ratio (z) = -0.08592 -0.14042
#
# Static dielectric constant tensor:
#      x y z
#    x 4.290720 -0.199920 -0.341280 
#    y -0.199920 4.696910 0.256970 
#    z -0.341280 0.256970 4.290400 
# 
# 
# High freq. dielectric constant tensor:
#      x y z
#    x 1.894960 0.001550 -0.021570 
#    y 0.001550 1.900440 0.003650 
#    z -0.021570 0.003650 1.894160 
# 
# From -- ./inp_files/524635.got.cif
#   From: 2010.06.25/outbox.cif.g09.slc.cpg/sg2_263_cif.got.tgz:524635.got - 2010.06.27 13:26:56.
