data_PCOD8039016
_publ_section_title
;
Structure prediction by ZEFSAII (Michael W. Deem and Ramdas Pophale) SiO2 
 PCOD8039016
Probable space group: P -1
;
_chemical_formula_sum "Si O2"
_cell_formula_units_Z 16
_cell_length_a 19.855332
_cell_length_b 9.977796
_cell_length_c 11.812258
_cell_angle_alpha 141.856254
_cell_angle_beta 39.196650
_cell_angle_gamma 127.707933
_cell_volume 913.434080
_symmetry_space_group_name_H-M "P -1"
_symmetry_group_IT_number 2
_symmetry_cell_setting 'triclinic'
loop_
_space_group_symop_operation_xyz
x,y,z
-x,-y,-z
loop_
_atom_site_type_symbol
_atom_site_label
_atom_site_fract_x
_atom_site_fract_y
_atom_site_fract_z
Si Si1 0.917943 0.259529 0.824987
Si Si2 0.371826 0.253474 0.680091
Si Si3 0.390386 0.678307 0.595472
Si Si4 0.409246 0.759514 0.364122
Si Si5 0.244248 0.047337 0.088355
Si Si6 0.239376 0.358976 0.708114
Si Si7 0.647340 0.616973 0.969543
Si Si8 0.139288 0.120118 0.490541
O O1 0.041699 0.292139 0.717806
O O2 0.858284 0.113599 0.903790
O O3 0.907931 0.123921 0.628702
O O4 0.860447 0.486799 0.033833
O O5 0.485708 0.338682 0.544223
O O6 0.285489 0.273236 0.708003
O O7 0.336553 0.407761 0.933182
O O8 0.377448 0.007686 0.553546
O O9 0.373580 0.683883 0.485359
O O10 0.329527 0.472020 0.589367
O O11 0.348619 0.897022 0.854025
O O12 0.535882 0.737575 0.169589
O O13 0.349769 0.615098 0.250590
O O14 0.230120 0.165592 0.307116
O O15 0.255856 0.232887 0.102315
O O16 0.193735 0.150629 0.561573
#
# Coordination Sequence:
#
# PCOD8039016 Si02
#       8
#     2   2   2   2   2   2   2   2
#     4   8  19  34  55  79  97 126 170 231 254 291
#     4  11  21  34  47  77 118 138 158 210 252 303
#     4  10  18  35  51  76 107 139 175 204 238 298
#     4  10  19  32  54  71 102 144 179 206 233 296
#     4   9  15  31  57  75  96 128 175 215 245 289
#     4  11  21  32  55  78 106 137 166 203 268 311
#     4  10  18  32  53  74  99 140 182 203 242 295
#     4   9  18  35  54  79  98 127 175 222 257 291
#
# _framework density 17.516316
#
# number of rings (size 3 to 8) (size 9 to 14) (size 15 to 20)
#    0.750    1.500    2.500    2.250    0.000    1.000 
#    0.000    0.625    0.000    1.500    0.000    0.000 
#    0.000    0.000    0.000    0.000    0.000    0.000 
#
# Total GULP energy -198259.359273 kJ/mol
# GULP energy per Si atom -12391.209955 kJ/mol
# Density = 1.747645 g / cm^3
# Si number density = 17.516316 Si / 1000 Ang^3
#
#
#
# Elastic Constant Matrix: (Units=GPa)
#
#
# Indices 1 2 3 4 5 6 
#
# 1 105.5464 18.4235 41.9951 -5.6243 20.6581 -2.9991
# 2 18.4235 36.0973 7.4818 0.6960 9.4928 -1.5988
# 3 41.9951 7.4818 82.2970 -7.3353 6.5706 -1.1126
# 4 -5.6243 0.6960 -7.3353 15.2485 0.3146 3.7203
# 5 20.6581 9.4928 6.5706 0.3146 18.5490 0.5088
# 6 -2.9991 -1.5988 -1.1126 3.7203 0.5088 15.8766
#
#
#
# Elastic Compliance Matrix: (Units=1/GPa)
#
#
# Indices 1 2 3 4 5 6 
#
# 1 0.015272 -0.002947 -0.006199 0.002580 -0.013403 0.001979
# 2 -0.002947 0.033146 -0.000703 -0.003640 -0.013480 0.004017
# 3 -0.006199 -0.000703 0.015730 0.005649 0.001637 -0.001516
# 4 0.002580 -0.003640 0.005649 0.073542 -0.003803 -0.016594
# 5 -0.013403 -0.013480 0.001637 -0.003803 0.075367 -0.005298
# 6 0.001979 0.004017 -0.001516 -0.016594 -0.005298 0.067716
#
#
# Mechanical properties :
#
#
# Convention : Reuss Voigt Hill
#
# Bulk Modulus (GPa) = 22.49716 39.97130 31.23423
# Shear Modulus (GPa) = 15.85848 20.33750 18.09799
#
# Velocity S-wave (km/s) = 3.01218 3.41113 3.21784
# Velocity P-wave (km/s) = 4.99690 6.19544 5.62816
#
# Compressibility (1/GPa) = 0.04445006
#
# Stress axis : x y z
#
# Youngs Moduli (GPa) = 65.47839 30.16963 63.57119
#
# Poissons Ratio (x) = 0.08892 0.39405
# Poissons Ratio (y) = 0.19299 0.04471
# Poissons Ratio (z) = 0.40587 0.02122
#
# Static dielectric constant tensor:
#      x y z
#    x 3.008620 0.171270 0.093670 
#    y 0.171270 2.984850 -0.071530 
#    z 0.093670 -0.071530 3.483540 
# 
# 
# High freq. dielectric constant tensor:
#      x y z
#    x 1.646880 0.019090 0.009530 
#    y 0.019090 1.652730 -0.002010 
#    z 0.009530 -0.002010 1.690680 
# 
# From -- ./inp_files/327947.got.cif
#   From: 2010.06.25/outbox.cif.g09.slc.cpg/sg2_164_cif.got.tgz:327947.got - 2010.06.27 13:26:56.
