data_PCOD8039285
_publ_section_title
;
Structure prediction by ZEFSAII (Michael W. Deem and Ramdas Pophale) SiO2 
 PCOD8039285
Probable space group: P -1
;
_chemical_formula_sum "Si O2"
_cell_formula_units_Z 16
_cell_length_a 9.302427
_cell_length_b 11.616748
_cell_length_c 10.562764
_cell_angle_alpha 118.190286
_cell_angle_beta 73.465383
_cell_angle_gamma 126.941711
_cell_volume 804.089440
_symmetry_space_group_name_H-M "P -1"
_symmetry_group_IT_number 2
_symmetry_cell_setting 'triclinic'
loop_
_space_group_symop_operation_xyz
x,y,z
-x,-y,-z
loop_
_atom_site_type_symbol
_atom_site_label
_atom_site_fract_x
_atom_site_fract_y
_atom_site_fract_z
Si Si1 0.496714 0.059179 0.170532
Si Si2 0.114538 0.675882 0.410358
Si Si3 0.192114 0.157823 0.780598
Si Si4 0.889481 0.813545 0.923098
Si Si5 0.790832 0.856939 0.723273
Si Si6 0.907308 0.813884 0.433182
Si Si7 0.514800 0.112762 0.665973
Si Si8 0.875884 0.309894 0.289911
O O1 0.327764 0.072905 0.227926
O O2 0.678584 0.227701 0.236619
O O3 0.475528 0.940507 0.222791
O O4 0.500000 0.000000 0.000000
O O5 0.302326 0.719687 0.323916
O O6 0.138485 0.729521 0.578312
O O7 0.052226 0.770693 0.394687
O O8 0.971736 0.492593 0.336471
O O9 0.196560 0.258382 0.711233
O O10 0.346463 0.126302 0.708011
O O11 0.219992 0.254696 0.953092
O O12 0.001149 0.993692 0.748980
O O13 0.747859 0.757243 0.812114
O O14 0.021422 0.755671 0.842053
O O15 0.000000 0.000000 0.000000
O O16 0.765502 0.748871 0.552335
O O17 0.000000 0.000000 0.500000
O O18 0.500000 0.000000 0.500000
#
# Coordination Sequence:
#
# PCOD8039285 Si02
#       8
#     2   2   2   2   2   2   2   2
#     4  12  23  38  64 100 129 169 219 269 318 387
#     4  11  24  43  66  96 133 173 214 272 327 383
#     4  10  20  33  57  91 121 156 208 270 310 363
#     4  10  19  37  62  87 123 171 210 253 318 387
#     4  10  18  33  55  88 121 157 208 262 307 362
#     4  10  19  35  59  90 122 161 215 259 307 373
#     4  12  21  38  66  97 128 171 225 262 313 390
#     4  11  24  44  65  95 135 173 213 268 336 381
#
# _framework density 19.898284
#
# number of rings (size 3 to 8) (size 9 to 14) (size 15 to 20)
#    0.000    1.250    2.500    7.500    0.000    0.000 
#    0.000    5.000    0.000    0.000    0.000    0.000 
#    0.000    0.000    0.000    0.000    0.000    0.000 
#
# Total GULP energy -198328.455358 kJ/mol
# GULP energy per Si atom -12395.528460 kJ/mol
# Density = 1.985299 g / cm^3
# Si number density = 19.898284 Si / 1000 Ang^3
#
#
#
# Elastic Constant Matrix: (Units=GPa)
#
#
# Indices 1 2 3 4 5 6 
#
# 1 164.5359 52.0767 62.3173 -16.6256 -11.9970 -5.9091
# 2 52.0767 70.3148 43.1160 -10.1799 9.5721 1.3789
# 3 62.3173 43.1160 154.4974 -34.5190 9.9004 -3.9210
# 4 -16.6256 -10.1799 -34.5190 31.6151 -11.8472 3.7809
# 5 -11.9970 9.5721 9.9004 -11.8472 43.1714 -8.5299
# 6 -5.9091 1.3789 -3.9210 3.7809 -8.5299 29.2169
#
#
#
# Elastic Compliance Matrix: (Units=1/GPa)
#
#
# Indices 1 2 3 4 5 6 
#
# 1 0.009661 -0.006570 -0.001703 0.002953 0.006016 0.003410
# 2 -0.006570 0.022124 -0.003765 -0.002703 -0.007544 -0.004731
# 3 -0.001703 -0.003765 0.010252 0.009287 0.000595 0.000181
# 4 0.002953 -0.002703 0.009287 0.047052 0.012086 -0.000589
# 5 0.006016 -0.007544 0.000595 0.012086 0.031524 0.009292
# 6 0.003410 -0.004731 0.000181 -0.000589 0.009292 0.037953
#
#
# Mechanical properties :
#
#
# Convention : Reuss Voigt Hill
#
# Bulk Modulus (GPa) = 55.67158 78.26310 66.96734
# Shear Modulus (GPa) = 26.50706 36.25656 31.38181
#
# Velocity S-wave (km/s) = 3.65379 4.27323 3.97559
# Velocity P-wave (km/s) = 6.77046 7.98526 7.40282
#
# Compressibility (1/GPa) = 0.01796249
#
# Stress axis : x y z
#
# Youngs Moduli (GPa) = 103.50406 45.19878 97.54649
#
# Poissons Ratio (x) = 0.29694 0.16611
# Poissons Ratio (y) = 0.67999 0.36726
# Poissons Ratio (z) = 0.17625 0.17017
#
# Static dielectric constant tensor:
#      x y z
#    x 4.008810 -0.366150 0.782760 
#    y -0.366150 3.669780 -1.222560 
#    z 0.782760 -1.222560 5.791070 
# 
# 
# High freq. dielectric constant tensor:
#      x y z
#    x 1.788590 -0.014480 0.001300 
#    y -0.014480 1.733680 -0.033760 
#    z 0.001300 -0.033760 1.793870 
# 
# From -- ./inp_files/390998.got.cif
#   From: 2010.06.25/outbox.cif.g09.slc.cpg/sg2_196_cif.got.tgz:390998.got - 2010.06.27 13:26:56.
