data_PCOD8039438
_publ_section_title
;
Structure prediction by ZEFSAII (Michael W. Deem and Ramdas Pophale) SiO2 
 PCOD8039438
Probable space group: P -1
;
_chemical_formula_sum "Si O2"
_cell_formula_units_Z 16
_cell_length_a 21.609357
_cell_length_b 5.191811
_cell_length_c 17.333747
_cell_angle_alpha 81.427202
_cell_angle_beta 30.771243
_cell_angle_gamma 100.496519
_cell_volume 777.082614
_symmetry_space_group_name_H-M "P -1"
_symmetry_group_IT_number 2
_symmetry_cell_setting 'triclinic'
loop_
_space_group_symop_operation_xyz
x,y,z
-x,-y,-z
loop_
_atom_site_type_symbol
_atom_site_label
_atom_site_fract_x
_atom_site_fract_y
_atom_site_fract_z
Si Si1 0.279883 0.964351 0.005817
Si Si2 0.889781 0.209604 0.956817
Si Si3 0.898144 0.115087 0.115865
Si Si4 0.605964 0.416354 0.048681
Si Si5 0.098051 0.985703 0.719944
Si Si6 0.163737 0.285620 0.351024
Si Si7 0.274564 0.129015 0.375200
Si Si8 0.964547 0.408668 0.445677
O O1 0.245467 0.962524 0.952849
O O2 0.386027 0.851774 0.906245
O O3 0.123508 0.726069 0.231314
O O4 0.370784 0.331702 0.923594
O O5 0.973861 0.599151 0.851133
O O6 0.806300 0.038323 0.137164
O O7 0.012278 0.148532 0.807240
O O8 0.812068 0.955949 0.297314
O O9 0.000000 0.500000 0.000000
O O10 0.000000 0.000000 0.000000
O O11 0.735346 0.609611 0.837187
O O12 0.441867 0.226412 0.193271
O O13 0.227173 0.169955 0.508208
O O14 0.270450 0.361293 0.307715
O O15 0.103572 0.502874 0.416381
O O16 0.024610 0.879928 0.521408
O O17 0.154415 0.749432 0.491583
#
# Coordination Sequence:
#
# PCOD8039438 Si02
#       8
#     2   2   2   2   2   2   2   2
#     4  12  24  39  55  87 112 153 175 237 280 336
#     4  10  18  35  56  84 116 142 177 226 283 321
#     4   8  16  28  52  87 110 134 174 232 270 312
#     4  12  27  37  57  80 119 144 194 224 284 335
#     4  10  18  33  61  84 109 140 190 227 266 325
#     4  10  22  40  60  80 104 149 192 238 277 320
#     4  10  24  39  60  81 110 151 187 235 275 327
#     4  10  22  38  63  77 107 145 191 228 288 318
#
# _framework density 20.589831
#
# number of rings (size 3 to 8) (size 9 to 14) (size 15 to 20)
#    0.750    1.000    1.250    3.375    1.750    3.500 
#    0.000    0.000    0.000    1.500    0.000    0.000 
#    0.000    0.000    0.000    0.000    0.000    0.000 
#
# Total GULP energy -198307.109611 kJ/mol
# GULP energy per Si atom -12394.194351 kJ/mol
# Density = 2.054297 g / cm^3
# Si number density = 20.589831 Si / 1000 Ang^3
#
#
#
# Elastic Constant Matrix: (Units=GPa)
#
#
# Indices 1 2 3 4 5 6 
#
# 1 153.8346 42.7490 33.6754 16.2013 10.5530 4.3063
# 2 42.7490 118.5484 13.0812 14.5321 -5.8163 -8.5589
# 3 33.6754 13.0812 39.4098 8.8033 -10.6126 6.5879
# 4 16.2013 14.5321 8.8033 15.3604 4.8313 -0.0416
# 5 10.5530 -5.8163 -10.6126 4.8313 35.5930 8.4127
# 6 4.3063 -8.5589 6.5879 -0.0416 8.4127 36.7130
#
#
#
# Elastic Compliance Matrix: (Units=1/GPa)
#
#
# Indices 1 2 3 4 5 6 
#
# 1 0.009699 -0.002635 -0.009241 -0.000449 -0.006321 0.001354
# 2 -0.002635 0.010677 0.001609 -0.009470 0.003912 0.001602
# 3 -0.009241 0.001609 0.046957 -0.026103 0.023472 -0.012375
# 4 -0.000449 -0.009470 -0.026103 0.097170 -0.024328 0.008214
# 5 -0.006321 0.003912 0.023472 -0.024328 0.043898 -0.012645
# 6 0.001354 0.001602 -0.012375 0.008214 -0.012645 0.032581
#
#
# Mechanical properties :
#
#
# Convention : Reuss Voigt Hill
#
# Bulk Modulus (GPa) = 21.36853 54.53378 37.95115
# Shear Modulus (GPa) = 18.04312 32.35240 25.19776
#
# Velocity S-wave (km/s) = 2.96347 3.96824 3.50207
# Velocity P-wave (km/s) = 4.70215 6.89487 5.90125
#
# Compressibility (1/GPa) = 0.04679780
#
# Stress axis : x y z
#
# Youngs Moduli (GPa) = 103.10795 93.66364 21.29612
#
# Poissons Ratio (x) = 0.24680 0.19680
# Poissons Ratio (y) = 0.27169 -0.03426
# Poissons Ratio (z) = 0.95281 -0.15068
#
# Static dielectric constant tensor:
#      x y z
#    x 4.495630 0.103070 0.252600 
#    y 0.103070 3.947160 0.147590 
#    z 0.252600 0.147590 3.259940 
# 
# 
# High freq. dielectric constant tensor:
#      x y z
#    x 1.840200 0.001870 0.012750 
#    y 0.001870 1.828200 0.012470 
#    z 0.012750 0.012470 1.746800 
# 
# From -- ./inp_files/578597.got.cif
#   From: 2010.06.25/outbox.cif.g09.slc.cpg/sg2_290_cif.got.tgz:578597.got - 2010.06.27 13:26:56.
