data_PCOD8039063
_publ_section_title
;
Structure prediction by ZEFSAII (Michael W. Deem and Ramdas Pophale) SiO2 
 PCOD8039063
Probable space group: P -1
;
_chemical_formula_sum "Si O2"
_cell_formula_units_Z 16
_cell_length_a 14.994063
_cell_length_b 12.466746
_cell_length_c 5.255129
_cell_angle_alpha 73.658587
_cell_angle_beta 116.344941
_cell_angle_gamma 73.249492
_cell_volume 740.903391
_symmetry_space_group_name_H-M "P -1"
_symmetry_group_IT_number 2
_symmetry_cell_setting 'triclinic'
loop_
_space_group_symop_operation_xyz
x,y,z
-x,-y,-z
loop_
_atom_site_type_symbol
_atom_site_label
_atom_site_fract_x
_atom_site_fract_y
_atom_site_fract_z
Si Si1 0.013096 0.120685 0.366819
Si Si2 0.745530 0.680079 0.497413
Si Si3 0.882386 0.617766 0.198021
Si Si4 0.273387 0.052913 0.680477
Si Si5 0.412075 0.662830 0.520992
Si Si6 0.447111 0.393687 0.765611
Si Si7 0.961899 0.820822 0.142074
Si Si8 0.270933 0.942593 0.250124
O O1 0.140651 0.092693 0.484622
O O2 0.963841 0.219837 0.475535
O O3 0.954856 0.187241 0.980093
O O4 0.000000 0.000000 0.500000
O O5 0.801634 0.642631 0.317649
O O6 0.704110 0.827931 0.401918
O O7 0.638778 0.657519 0.376633
O O8 0.829815 0.593917 0.889142
O O9 0.898438 0.739151 0.074155
O O10 0.000000 0.500000 0.500000
O O11 0.328198 0.958873 0.571058
O O12 0.327029 0.981353 0.060518
O O13 0.381899 0.548208 0.582479
O O14 0.457190 0.660631 0.295008
O O15 0.298558 0.797022 0.336223
O O16 0.501933 0.651838 0.858173
O O17 0.865757 0.968342 0.978119
#
# Coordination Sequence:
#
# PCOD8039063 Si02
#       8
#     2   2   2   2   2   2   2   2
#     4  10  18  32  55  80 109 154 196 240 302 360
#     4  12  21  43  64  88 125 165 207 252 323 364
#     4  12  23  40  64  87 123 166 208 257 306 369
#     4  10  19  35  58  84 118 163 190 251 309 358
#     4  10  21  42  62  93 125 156 211 248 307 371
#     4  10  23  40  66  89 123 167 197 260 303 370
#     4  10  19  37  54  82 116 160 189 247 310 345
#     4  10  18  35  63  83 119 160 191 242 309 359
#
# _framework density 21.595258999999999
#
# number of rings (size 3 to 8) (size 9 to 14) (size 15 to 20)
#    0.000    1.500    5.000    2.250    0.000    0.000 
#    0.000   11.250    0.000    0.000    0.000    0.000 
#    0.000    0.000    0.000    0.000    0.000    0.000 
#
# Total GULP energy -198264.458714 kJ/mol
# GULP energy per Si atom -12391.528670 kJ/mol
# Density = 2.154611 g / cm^3
# Si number density = 21.595259 Si / 1000 Ang^3
#
#
#
# Elastic Constant Matrix: (Units=GPa)
#
#
# Indices 1 2 3 4 5 6 
#
# 1 60.4610 31.8651 22.8751 9.0105 -22.6798 14.0062
# 2 31.8651 101.2687 34.4141 9.8880 -9.2966 5.5888
# 3 22.8751 34.4141 91.4208 25.7441 -34.7101 -12.3241
# 4 9.0105 9.8880 25.7441 48.3174 -15.3617 -5.9998
# 5 -22.6798 -9.2966 -34.7101 -15.3617 33.0042 12.2022
# 6 14.0062 5.5888 -12.3241 -5.9998 12.2022 35.7534
#
#
#
# Elastic Compliance Matrix: (Units=1/GPa)
#
#
# Indices 1 2 3 4 5 6 
#
# 1 0.041272 -0.009530 0.005003 0.001462 0.041562 -0.026893
# 2 -0.009530 0.013955 -0.006327 -0.000747 -0.010689 0.002894
# 3 0.005003 -0.006327 0.021867 -0.004067 0.023557 -0.002156
# 4 0.001462 -0.000747 -0.004067 0.025390 0.008522 -0.000506
# 5 0.041562 -0.010689 0.023557 0.008522 0.098946 -0.038830
# 6 -0.026893 0.002894 -0.002156 -0.000506 -0.038830 0.050476
#
#
# Mechanical properties :
#
#
# Convention : Reuss Voigt Hill
#
# Bulk Modulus (GPa) = 18.05466 47.93990 32.99728
# Shear Modulus (GPa) = 17.11888 34.34808 25.73348
#
# Velocity S-wave (km/s) = 2.81857 3.99248 3.45574
# Velocity P-wave (km/s) = 4.35558 6.59550 5.58891
#
# Compressibility (1/GPa) = 0.05538737
#
# Stress axis : x y z
#
# Youngs Moduli (GPa) = 24.22974 71.65715 45.73129
#
# Poissons Ratio (x) = 0.68289 -0.22881
# Poissons Ratio (y) = 0.23091 0.28933
# Poissons Ratio (z) = -0.12123 0.45335
#
# Static dielectric constant tensor:
#      x y z
#    x 3.644020 -0.167460 -0.694650 
#    y -0.167460 4.305980 0.616220 
#    z -0.694650 0.616220 4.603500 
# 
# 
# High freq. dielectric constant tensor:
#      x y z
#    x 1.815110 0.005050 -0.044670 
#    y 0.005050 1.857870 0.028670 
#    z -0.044670 0.028670 1.854810 
# 
# From -- ./inp_files/93423.got.cif
#   From: 2010.06.25/outbox.cif.g09.slc.cpg/sg2_47_cif.got.tgz:93423.got - 2010.06.27 13:26:56.
