data_PCOD8039039
_publ_section_title
;
Structure prediction by ZEFSAII (Michael W. Deem and Ramdas Pophale) SiO2 
 PCOD8039039
Probable space group: P -1
;
_chemical_formula_sum "Si O2"
_cell_formula_units_Z 16
_cell_length_a 10.956341
_cell_length_b 13.735110
_cell_length_c 22.455038
_cell_angle_alpha 152.071303
_cell_angle_beta 140.641108
_cell_angle_gamma 33.607727
_cell_volume 866.903005
_symmetry_space_group_name_H-M "P -1"
_symmetry_group_IT_number 2
_symmetry_cell_setting 'triclinic'
loop_
_space_group_symop_operation_xyz
x,y,z
-x,-y,-z
loop_
_atom_site_type_symbol
_atom_site_label
_atom_site_fract_x
_atom_site_fract_y
_atom_site_fract_z
Si Si1 0.171650 0.414741 0.372114
Si Si2 0.276127 0.371884 0.150091
Si Si3 0.647308 0.133792 0.445347
Si Si4 0.946467 0.370630 0.679513
Si Si5 0.432684 0.735130 0.379452
Si Si6 0.899140 0.324781 0.312419
Si Si7 0.035099 0.136146 0.384372
Si Si8 0.767972 0.990441 0.133606
O O1 0.436570 0.235627 0.377009
O O2 0.086025 0.455151 0.293908
O O3 0.055389 0.290686 0.297395
O O4 0.106801 0.674084 0.515318
O O5 0.107099 0.475343 0.197450
O O6 0.312846 0.576783 0.246170
O O7 0.509234 0.147497 0.139538
O O8 0.170888 0.274402 0.008172
O O9 0.781181 0.267779 0.551990
O O10 0.559805 0.186521 0.508223
O O11 0.799910 0.847967 0.338989
O O12 0.682808 0.591784 0.371315
O O13 0.289274 0.966132 0.408563
O O14 0.028814 0.285774 0.403796
O O15 0.818618 0.127742 0.173140
O O16 0.916106 0.978127 0.240084
#
# Coordination Sequence:
#
# PCOD8039039 Si02
#       8
#     2   2   2   2   2   2   2   2
#     4  12  20  34  54  77 107 141 168 204 262 310
#     4   9  17  37  56  75 106 131 172 218 256 296
#     4  10  20  34  50  77 110 133 168 213 253 308
#     4  10  21  34  52  77 104 141 167 206 259 309
#     4  10  18  32  54  79 105 132 168 217 260 300
#     4   9  21  34  50  79 105 135 172 216 250 300
#     4  10  19  31  51  80 103 133 168 208 260 301
#     4   8  18  35  57  76 102 134 169 220 255 293
#
# _framework density 18.456506000000001
#
# number of rings (size 3 to 8) (size 9 to 14) (size 15 to 20)
#    0.750    1.500    2.500    1.500    0.000    2.000 
#    0.000    0.625    0.000    0.750    0.000    0.000 
#    0.000    0.000    0.000    0.000    0.000    0.000 
#
# Total GULP energy -198348.804437 kJ/mol
# GULP energy per Si atom -12396.800277 kJ/mol
# Density = 1.841450 g / cm^3
# Si number density = 18.456506 Si / 1000 Ang^3
#
#
#
# Elastic Constant Matrix: (Units=GPa)
#
#
# Indices 1 2 3 4 5 6 
#
# 1 52.6711 20.8363 0.2536 6.8449 -6.7732 -3.9306
# 2 20.8363 117.8251 8.5012 7.0518 -1.5093 -1.3842
# 3 0.2536 8.5012 60.9584 12.5206 0.0691 -3.6201
# 4 6.8449 7.0518 12.5206 19.0045 -3.7140 -4.5967
# 5 -6.7732 -1.5093 0.0691 -3.7140 10.0828 -1.3943
# 6 -3.9306 -1.3842 -3.6201 -4.5967 -1.3943 26.2912
#
#
#
# Elastic Compliance Matrix: (Units=1/GPa)
#
#
# Indices 1 2 3 4 5 6 
#
# 1 0.023041 -0.003704 0.001513 -0.004405 0.013763 0.003418
# 2 -0.003704 0.009298 -0.000894 -0.002064 -0.001940 -0.000651
# 3 0.001513 -0.000894 0.019366 -0.013759 -0.004289 0.000213
# 4 -0.004405 -0.002064 -0.013759 0.071569 0.024732 0.011163
# 5 0.013763 -0.001940 -0.004289 0.024732 0.118932 0.011996
# 6 0.003418 -0.000651 0.000213 0.011163 0.011996 0.041129
#
#
# Mechanical properties :
#
#
# Convention : Reuss Voigt Hill
#
# Bulk Modulus (GPa) = 21.96087 32.29300 27.12693
# Shear Modulus (GPa) = 16.41044 24.53327 20.47185
#
# Velocity S-wave (km/s) = 2.98508 3.64984 3.33407
# Velocity P-wave (km/s) = 4.87909 5.94109 5.43609
#
# Compressibility (1/GPa) = 0.04553554
#
# Stress axis : x y z
#
# Youngs Moduli (GPa) = 43.40095 107.55433 51.63558
#
# Poissons Ratio (x) = 0.39835 -0.07811
# Poissons Ratio (y) = 0.16074 0.04615
# Poissons Ratio (z) = -0.06565 0.09613
#
# Static dielectric constant tensor:
#      x y z
#    x 3.159990 -0.062200 -0.016730 
#    y -0.062200 3.381390 0.088320 
#    z -0.016730 0.088320 3.152190 
# 
# 
# High freq. dielectric constant tensor:
#      x y z
#    x 1.702500 -0.005600 0.001480 
#    y -0.005600 1.720870 0.005040 
#    z 0.001480 0.005040 1.683400 
# 
# From -- ./inp_files/595547.got.cif
#   From: 2010.06.25/outbox.cif.g09.slc.cpg/sg2_298_cif.got.tgz:595547.got - 2010.06.27 13:26:56.
