data_PCOD8039153
_publ_section_title
;
Structure prediction by ZEFSAII (Michael W. Deem and Ramdas Pophale) SiO2 
 PCOD8039153
Probable space group: P -1
;
_chemical_formula_sum "Si O2"
_cell_formula_units_Z 16
_cell_length_a 26.511466
_cell_length_b 10.257040
_cell_length_c 18.808854
_cell_angle_alpha 147.783709
_cell_angle_beta 159.272052
_cell_angle_gamma 25.501721
_cell_volume 779.318687
_symmetry_space_group_name_H-M "P -1"
_symmetry_group_IT_number 2
_symmetry_cell_setting 'triclinic'
loop_
_space_group_symop_operation_xyz
x,y,z
-x,-y,-z
loop_
_atom_site_type_symbol
_atom_site_label
_atom_site_fract_x
_atom_site_fract_y
_atom_site_fract_z
Si Si1 0.498891 0.917252 0.131403
Si Si2 0.916703 0.286665 0.214735
Si Si3 0.435387 0.524529 0.774872
Si Si4 0.875781 0.439316 0.391460
Si Si5 0.713032 0.885105 0.917852
Si Si6 0.886242 0.379844 0.811654
Si Si7 0.545306 0.722841 0.885778
Si Si8 0.917630 0.225512 0.628257
O O1 0.689253 0.620340 0.270155
O O2 0.385136 0.100289 0.134209
O O3 0.530562 0.135655 0.227600
O O4 0.403135 0.799489 0.906314
O O5 0.060213 0.349602 0.422402
O O6 0.838942 0.381210 0.235876
O O7 0.000558 0.940262 0.146179
O O8 0.754548 0.485467 0.039506
O O9 0.471795 0.560644 0.756392
O O10 0.249721 0.556340 0.544449
O O11 0.600421 0.205219 0.875981
O O12 0.017530 0.113888 0.462859
O O13 0.725995 0.633842 0.767728
O O14 0.911797 0.770226 0.149122
O O15 0.828798 0.320515 0.633595
O O16 0.000000 0.500000 0.000000
O O17 0.500000 0.000000 0.000000
#
# Coordination Sequence:
#
# PCOD8039153 Si02
#       8
#     2   2   2   2   2   2   2   2
#     4  11  22  36  58  91 131 153 185 256 316 352
#     4  10  18  33  59  84 116 153 202 249 290 345
#     4  11  21  37  63  90 117 153 206 249 298 349
#     4  10  18  32  58  89 115 149 195 251 306 341
#     4  11  23  43  57  85 131 164 191 240 308 363
#     4   9  20  38  62  83 115 164 206 240 286 356
#     4  10  18  33  54  90 115 147 194 248 293 346
#     4  10  21  37  64  90 111 157 208 249 288 353
#
# _framework density 20.530754000000002
#
# number of rings (size 3 to 8) (size 9 to 14) (size 15 to 20)
#    0.000    1.750    3.750    3.375    3.500    1.000 
#    2.250    1.250    0.000    0.000    0.000    0.000 
#    0.000    0.000    0.000    0.000    0.000    0.000 
#
# Total GULP energy -198226.698039 kJ/mol
# GULP energy per Si atom -12389.168627 kJ/mol
# Density = 2.048403 g / cm^3
# Si number density = 20.530754 Si / 1000 Ang^3
#
#
#
# Elastic Constant Matrix: (Units=GPa)
#
#
# Indices 1 2 3 4 5 6 
#
# 1 91.1973 34.2649 12.4607 -4.1715 9.6854 -17.9133
# 2 34.2649 108.2857 27.5482 0.3718 2.8529 -10.0636
# 3 12.4607 27.5482 79.2789 -22.4425 5.8030 -5.4974
# 4 -4.1715 0.3718 -22.4425 24.7921 2.9645 5.0249
# 5 9.6854 2.8529 5.8030 2.9645 16.4614 -4.5831
# 6 -17.9133 -10.0636 -5.4974 5.0249 -4.5831 35.4244
#
#
#
# Elastic Compliance Matrix: (Units=1/GPa)
#
#
# Indices 1 2 3 4 5 6 
#
# 1 0.014242 -0.004131 0.000978 0.003243 -0.007262 0.004781
# 2 -0.004131 0.012083 -0.005668 -0.006901 0.004128 0.001977
# 3 0.000978 -0.005668 0.021115 0.021213 -0.011507 -0.002337
# 4 0.003243 -0.006901 0.021213 0.064708 -0.022378 -0.009102
# 5 -0.007262 0.004128 -0.011507 -0.022378 0.074776 0.008563
# 6 0.004781 0.001977 -0.002337 -0.009102 0.008563 0.033245
#
#
# Mechanical properties :
#
#
# Convention : Reuss Voigt Hill
#
# Bulk Modulus (GPa) = 33.55956 47.47884 40.51920
# Shear Modulus (GPa) = 20.18224 28.96814 24.57519
#
# Velocity S-wave (km/s) = 3.13872 3.76035 3.46351
# Velocity P-wave (km/s) = 5.43295 6.48302 5.98108
#
# Compressibility (1/GPa) = 0.02979777
#
# Stress axis : x y z
#
# Youngs Moduli (GPa) = 70.21328 82.76332 47.36016
#
# Poissons Ratio (x) = 0.34190 -0.04632
# Poissons Ratio (y) = 0.29005 0.26844
# Poissons Ratio (z) = -0.06867 0.46910
#
# Static dielectric constant tensor:
#      x y z
#    x 3.745160 -0.084270 -0.034230 
#    y -0.084270 3.818260 -0.084410 
#    z -0.034230 -0.084410 3.522030 
# 
# 
# High freq. dielectric constant tensor:
#      x y z
#    x 1.770050 0.003120 0.011110 
#    y 0.003120 1.800270 -0.019640 
#    z 0.011110 -0.019640 1.789240 
# 
# From -- ./inp_files/256895.got.cif
#   From: 2010.06.25/outbox.cif.g09.slc.cpg/sg2_129_cif.got.tgz:256895.got - 2010.06.27 13:26:56.
