data_PCOD8039854
_publ_section_title
;
Structure prediction by ZEFSAII (Michael W. Deem and Ramdas Pophale) SiO2 
 PCOD8039854
Probable space group: P -1
;
_chemical_formula_sum "Si O2"
_cell_formula_units_Z 16
_cell_length_a 11.165784
_cell_length_b 15.780791
_cell_length_c 14.190393
_cell_angle_alpha 134.306856
_cell_angle_beta 31.607043
_cell_angle_gamma 113.439439
_cell_volume 797.811851
_symmetry_space_group_name_H-M "P -1"
_symmetry_group_IT_number 2
_symmetry_cell_setting 'triclinic'
loop_
_space_group_symop_operation_xyz
x,y,z
-x,-y,-z
loop_
_atom_site_type_symbol
_atom_site_label
_atom_site_fract_x
_atom_site_fract_y
_atom_site_fract_z
Si Si1 0.173540 0.647223 0.238675
Si Si2 0.207433 0.021744 0.109837
Si Si3 0.125765 0.845766 0.256116
Si Si4 0.198582 0.060631 0.636549
Si Si5 0.032197 0.866141 0.823827
Si Si6 0.541963 0.331917 0.757427
Si Si7 0.614951 0.793490 0.769340
Si Si8 0.760150 0.810019 0.109494
O O1 0.142370 0.742781 0.245019
O O2 0.244607 0.699549 0.327353
O O3 0.892716 0.650037 0.446766
O O4 0.406072 0.490582 0.937440
O O5 0.921251 0.035799 0.331626
O O6 0.263326 0.110073 0.214381
O O7 0.434115 0.858702 0.847307
O O8 0.210076 0.072182 0.042094
O O9 0.928260 0.857514 0.312994
O O10 0.431793 0.785611 0.967637
O O11 0.000000 0.000000 0.500000
O O12 0.135238 0.175114 0.847621
O O13 0.518778 0.955705 0.341026
O O14 0.315598 0.769675 0.506130
O O15 0.001160 0.766466 0.840271
O O16 0.000000 0.000000 0.000000
O O17 0.310255 0.308776 0.933351
#
# Coordination Sequence:
#
# PCOD8039854 Si02
#       8
#     2   2   2   2   2   2   2   2
#     4  11  24  43  62  85 127 164 197 254 301 366
#     4  10  18  35  56  92 121 143 196 255 298 348
#     4  11  23  36  63  96 121 155 204 259 307 353
#     4  10  20  37  57  90 125 147 200 256 299 352
#     4  12  22  36  64  92 122 158 203 252 302 354
#     4  11  25  43  59  88 126 160 207 247 299 371
#     4  10  21  36  59  85 124 156 193 247 310 358
#     4  11  21  37  60  85 121 163 195 245 305 355
#
# _framework density 20.054853000000001
#
# number of rings (size 3 to 8) (size 9 to 14) (size 15 to 20)
#    0.000    1.250    3.750    3.750    5.250    1.000 
#    0.000    3.125    0.000    2.250    0.000    0.000 
#    0.000    0.000    0.000    0.000    0.000    0.000 
#
# Total GULP energy -198287.851055 kJ/mol
# GULP energy per Si atom -12392.990691 kJ/mol
# Density = 2.000921 g / cm^3
# Si number density = 20.054853 Si / 1000 Ang^3
#
#
#
# Elastic Constant Matrix: (Units=GPa)
#
#
# Indices 1 2 3 4 5 6 
#
# 1 97.4935 33.6904 37.7178 1.2462 -3.6921 -21.1062
# 2 33.6904 103.7516 42.0300 -8.8732 3.5052 -18.6852
# 3 37.7178 42.0300 95.5689 -7.9547 2.6559 -9.8841
# 4 1.2462 -8.8732 -7.9547 28.6531 1.6193 -3.8417
# 5 -3.6921 3.5052 2.6559 1.6193 26.2847 -0.5428
# 6 -21.1062 -18.6852 -9.8841 -3.8417 -0.5428 32.3020
#
#
#
# Elastic Compliance Matrix: (Units=1/GPa)
#
#
# Indices 1 2 3 4 5 6 
#
# 1 0.014147 -0.001897 -0.004276 -0.001657 0.002912 0.006690
# 2 -0.001897 0.013353 -0.004165 0.003917 -0.001751 0.005646
# 3 -0.004276 -0.004165 0.014212 0.002863 -0.001669 -0.000542
# 4 -0.001657 0.003917 0.002863 0.038039 -0.003253 0.006528
# 5 0.002912 -0.001751 -0.001669 -0.003253 0.039070 0.000649
# 6 0.006690 0.005646 -0.000542 0.006528 0.000649 0.039216
#
#
# Mechanical properties :
#
#
# Convention : Reuss Voigt Hill
#
# Bulk Modulus (GPa) = 47.53963 58.18783 52.86373
# Shear Modulus (GPa) = 26.92163 29.67299 28.29731
#
# Velocity S-wave (km/s) = 3.66785 3.85072 3.76040
# Velocity P-wave (km/s) = 6.45707 6.98914 6.72837
#
# Compressibility (1/GPa) = 0.02103508
#
# Stress axis : x y z
#
# Youngs Moduli (GPa) = 70.68865 74.89133 70.36500
#
# Poissons Ratio (x) = 0.14206 0.30088
# Poissons Ratio (y) = 0.13409 0.29307
# Poissons Ratio (z) = 0.30226 0.31192
#
# Static dielectric constant tensor:
#      x y z
#    x 3.860520 -0.129270 -0.258510 
#    y -0.129270 3.487790 -0.186160 
#    z -0.258510 -0.186160 3.785550 
# 
# 
# High freq. dielectric constant tensor:
#      x y z
#    x 1.786100 -0.009360 -0.013310 
#    y -0.009360 1.769280 -0.019370 
#    z -0.013310 -0.019370 1.771790 
# 
# From -- ./inp_files/521641.got.cif
#   From: 2010.06.25/outbox.cif.g09.slc.cpg/sg2_261_cif.got.tgz:521641.got - 2010.06.27 13:26:56.
