data_PCOD8039429
_publ_section_title
;
Structure prediction by ZEFSAII (Michael W. Deem and Ramdas Pophale) SiO2 
 PCOD8039429
Probable space group: P -1
;
_chemical_formula_sum "Si O2"
_cell_formula_units_Z 16
_cell_length_a 23.542158
_cell_length_b 11.597689
_cell_length_c 9.566765
_cell_angle_alpha 69.545930
_cell_angle_beta 130.523342
_cell_angle_gamma 150.823171
_cell_volume 783.017278
_symmetry_space_group_name_H-M "P -1"
_symmetry_group_IT_number 2
_symmetry_cell_setting 'triclinic'
loop_
_space_group_symop_operation_xyz
x,y,z
-x,-y,-z
loop_
_atom_site_type_symbol
_atom_site_label
_atom_site_fract_x
_atom_site_fract_y
_atom_site_fract_z
Si Si1 0.067117 0.360184 0.953795
Si Si2 0.330323 0.806786 0.518381
Si Si3 0.254331 0.863253 0.112777
Si Si4 0.817018 0.761080 0.236552
Si Si5 0.388238 0.610209 0.672644
Si Si6 0.672730 0.430045 0.874413
Si Si7 0.175479 0.193666 0.257844
Si Si8 0.045260 0.790782 0.852607
O O1 0.108688 0.567740 0.913877
O O2 0.234442 0.537272 0.083212
O O3 0.882211 0.037110 0.722823
O O4 0.038967 0.286646 0.104452
O O5 0.327945 0.881973 0.340458
O O6 0.399116 0.772890 0.612370
O O7 0.132435 0.504458 0.399424
O O8 0.470451 0.084498 0.727626
O O9 0.418579 0.154487 0.158127
O O10 0.159446 0.839001 0.038674
O O11 0.655528 0.505052 0.194437
O O12 0.829103 0.919942 0.138396
O O13 0.776681 0.609241 0.108074
O O14 0.000000 0.000000 0.500000
O O15 0.233960 0.328504 0.444723
O O16 0.672513 0.553323 0.723508
O O17 0.000000 0.000000 0.000000
#
# Coordination Sequence:
#
# PCOD8039429 Si02
#       8
#     2   2   2   2   2   2   2   2
#     4  10  19  36  64  92 122 156 208 263 314 354
#     4  11  20  39  65  97 120 162 216 264 309 361
#     4  11  23  40  64  96 131 166 206 264 321 372
#     4  12  25  42  63  95 131 170 209 256 317 383
#     4  12  23  40  66  94 128 169 213 254 315 379
#     4  11  21  36  66  98 127 154 217 273 301 363
#     4  10  18  33  60  93 121 155 209 264 300 352
#     4  11  24  41  63  93 134 168 205 260 325 376
#
# _framework density 20.433776000000002
#
# number of rings (size 3 to 8) (size 9 to 14) (size 15 to 20)
#    0.000    1.000    5.000    6.375    0.000    1.000 
#    0.000    3.750    0.000    6.750    0.000    0.000 
#    0.000    0.000    0.000    0.000    0.000    0.000 
#
# Total GULP energy -198255.170406 kJ/mol
# GULP energy per Si atom -12390.948150 kJ/mol
# Density = 2.038727 g / cm^3
# Si number density = 20.433776 Si / 1000 Ang^3
#
#
#
# Elastic Constant Matrix: (Units=GPa)
#
#
# Indices 1 2 3 4 5 6 
#
# 1 87.0799 59.9724 45.9588 2.7685 -8.1352 0.2321
# 2 59.9724 130.8243 50.9379 18.5643 -12.8758 -8.6753
# 3 45.9588 50.9379 62.6403 14.9351 -14.6312 -7.2032
# 4 2.7685 18.5643 14.9351 34.7029 -1.3839 -9.1555
# 5 -8.1352 -12.8758 -14.6312 -1.3839 27.1037 4.4282
# 6 0.2321 -8.6753 -7.2032 -9.1555 4.4282 32.6027
#
#
#
# Elastic Compliance Matrix: (Units=1/GPa)
#
#
# Indices 1 2 3 4 5 6 
#
# 1 0.022947 -0.006416 -0.014299 0.006929 -0.003090 -0.002664
# 2 -0.006416 0.013163 -0.004508 -0.004223 0.001488 0.001164
# 3 -0.014299 -0.004508 0.035731 -0.010783 0.011954 0.002145
# 4 0.006929 -0.004223 -0.010783 0.036941 -0.005088 0.007510
# 5 -0.003090 0.001488 0.011954 -0.005088 0.043568 -0.004287
# 6 -0.002664 0.001164 0.002145 0.007510 -0.004287 0.034166
#
#
# Mechanical properties :
#
#
# Convention : Reuss Voigt Hill
#
# Bulk Modulus (GPa) = 46.74112 66.03141 56.38626
# Shear Modulus (GPa) = 20.48364 27.12688 23.80526
#
# Velocity S-wave (km/s) = 3.16957 3.64751 3.41691
# Velocity P-wave (km/s) = 6.02652 7.07984 6.57431
#
# Compressibility (1/GPa) = 0.02139444
#
# Stress axis : x y z
#
# Youngs Moduli (GPa) = 43.57781 75.96796 27.98661
#
# Poissons Ratio (x) = 0.48742 0.40019
# Poissons Ratio (y) = 0.27960 0.12618
# Poissons Ratio (z) = 0.62313 0.34250
#
# Static dielectric constant tensor:
#      x y z
#    x 3.564200 -0.265810 -0.295950 
#    y -0.265810 4.632710 0.514460 
#    z -0.295950 0.514460 3.493290 
# 
# 
# High freq. dielectric constant tensor:
#      x y z
#    x 1.775940 -0.008670 -0.015990 
#    y -0.008670 1.823930 0.033700 
#    z -0.015990 0.033700 1.757940 
# 
# From -- ./inp_files/353483.got.cif
#   From: 2010.06.25/outbox.cif.g09.slc.cpg/sg2_177_cif.got.tgz:353483.got - 2010.06.27 13:26:56.
