data_PCOD8039538
_publ_section_title
;
Structure prediction by ZEFSAII (Michael W. Deem and Ramdas Pophale) SiO2 
 PCOD8039538
Probable space group: P -1
;
_chemical_formula_sum "Si O2"
_cell_formula_units_Z 16
_cell_length_a 15.742075
_cell_length_b 10.106083
_cell_length_c 15.152437
_cell_angle_alpha 121.880832
_cell_angle_beta 40.665259
_cell_angle_gamma 145.323649
_cell_volume 863.466177
_symmetry_space_group_name_H-M "P -1"
_symmetry_group_IT_number 2
_symmetry_cell_setting 'triclinic'
loop_
_space_group_symop_operation_xyz
x,y,z
-x,-y,-z
loop_
_atom_site_type_symbol
_atom_site_label
_atom_site_fract_x
_atom_site_fract_y
_atom_site_fract_z
Si Si1 0.474746 0.772637 0.845449
Si Si2 0.204469 0.174866 0.347010
Si Si3 0.980701 0.247047 0.752440
Si Si4 0.749155 0.291316 0.853468
Si Si5 0.317973 0.589784 0.460841
Si Si6 0.710781 0.534154 0.277104
Si Si7 0.910220 0.350770 0.427283
Si Si8 0.366245 0.182495 0.567830
O O1 0.633583 0.778101 0.709459
O O2 0.311123 0.595187 0.836271
O O3 0.589648 0.041963 0.836489
O O4 0.363681 0.671069 0.993131
O O5 0.303019 0.434947 0.346253
O O6 0.000000 0.000000 0.500000
O O7 0.155092 0.034499 0.247011
O O8 0.153814 0.400318 0.596725
O O9 0.078834 0.334778 0.802108
O O10 0.844680 0.274037 0.851205
O O11 0.912728 0.505891 0.733022
O O12 0.269038 0.702554 0.486748
O O13 0.535436 0.793902 0.409884
O O14 0.527968 0.337165 0.417706
O O15 0.725425 0.730392 0.310787
O O16 0.000000 0.500000 0.500000
O O17 0.812535 0.091715 0.423284
#
# Coordination Sequence:
#
# PCOD8039538 Si02
#       8
#     2   2   2   2   2   2   2   2
#     4  10  18  34  56  78 105 142 174 216 259 315
#     4   9  16  28  51  77 103 134 171 211 262 302
#     4   8  17  29  49  79 107 132 168 221 251 311
#     4   9  20  36  53  77 107 142 177 209 267 318
#     4   9  17  32  49  73 105 137 169 211 272 305
#     4  10  19  31  54  82 107 131 178 218 265 301
#     4  11  22  34  53  78 106 138 177 222 264 310
#     4  10  20  32  50  80 110 135 169 223 262 313
#
# _framework density 18.529966000000002
#
# number of rings (size 3 to 8) (size 9 to 14) (size 15 to 20)
#    0.000    2.500    1.250    1.875    3.500    0.500 
#    0.000    0.625    0.000    0.750    0.000    0.000 
#    0.000    0.000    0.000    0.000    0.000    0.000 
#
# Total GULP energy -198280.194653 kJ/mol
# GULP energy per Si atom -12392.512166 kJ/mol
# Density = 1.848779 g / cm^3
# Si number density = 18.529966 Si / 1000 Ang^3
#
#
#
# Elastic Constant Matrix: (Units=GPa)
#
#
# Indices 1 2 3 4 5 6 
#
# 1 97.0841 45.1898 21.6813 7.5466 1.7590 19.1606
# 2 45.1898 117.6435 23.0937 12.7221 5.2390 15.9924
# 3 21.6813 23.0937 57.1749 6.3903 -4.3887 -0.3459
# 4 7.5466 12.7221 6.3903 21.3909 2.8450 2.8122
# 5 1.7590 5.2390 -4.3887 2.8450 14.1747 1.9473
# 6 19.1606 15.9924 -0.3459 2.8122 1.9473 30.5930
#
#
#
# Elastic Compliance Matrix: (Units=1/GPa)
#
#
# Indices 1 2 3 4 5 6 
#
# 1 0.014345 -0.003681 -0.003959 -0.000695 -0.000543 -0.007006
# 2 -0.003681 0.011526 -0.003138 -0.003722 -0.003590 -0.003184
# 3 -0.003959 -0.003138 0.021498 -0.004876 0.008701 0.004258
# 4 -0.000695 -0.003722 -0.004876 0.052273 -0.010289 -0.001824
# 5 -0.000543 -0.003590 0.008701 -0.010289 0.076926 -0.001635
# 6 -0.007006 -0.003184 0.004258 -0.001824 -0.001635 0.039060
#
#
# Mechanical properties :
#
#
# Convention : Reuss Voigt Hill
#
# Bulk Modulus (GPa) = 38.74324 50.20357 44.47340
# Shear Modulus (GPa) = 20.34282 25.36092 22.85187
#
# Velocity S-wave (km/s) = 3.31695 3.70353 3.51556
# Velocity P-wave (km/s) = 5.96853 6.74093 6.36646
#
# Compressibility (1/GPa) = 0.02581096
#
# Stress axis : x y z
#
# Youngs Moduli (GPa) = 69.71275 86.76338 46.51663
#
# Poissons Ratio (x) = 0.31939 0.18416
# Poissons Ratio (y) = 0.25662 0.14598
# Poissons Ratio (z) = 0.27600 0.27228
#
# Static dielectric constant tensor:
#      x y z
#    x 3.496160 0.281620 -0.219440 
#    y 0.281620 3.506660 0.204140 
#    z -0.219440 0.204140 3.222170 
# 
# 
# High freq. dielectric constant tensor:
#      x y z
#    x 1.709730 0.024800 -0.019260 
#    y 0.024800 1.720020 0.020740 
#    z -0.019260 0.020740 1.687310 
# 
# From -- ./inp_files/256914.got.cif
#   From: 2010.06.25/outbox.cif.g09.slc.cpg/sg2_129_cif.got.tgz:256914.got - 2010.06.27 13:26:56.
