data_PCOD8039049
_publ_section_title
;
Structure prediction by ZEFSAII (Michael W. Deem and Ramdas Pophale) SiO2 
 PCOD8039049
Probable space group: P -1
;
_chemical_formula_sum "Si O2"
_cell_formula_units_Z 16
_cell_length_a 10.874780
_cell_length_b 25.244404
_cell_length_c 22.963386
_cell_angle_alpha 169.226412
_cell_angle_beta 46.599877
_cell_angle_gamma 132.920043
_cell_volume 855.366678
_symmetry_space_group_name_H-M "P -1"
_symmetry_group_IT_number 2
_symmetry_cell_setting 'triclinic'
loop_
_space_group_symop_operation_xyz
x,y,z
-x,-y,-z
loop_
_atom_site_type_symbol
_atom_site_label
_atom_site_fract_x
_atom_site_fract_y
_atom_site_fract_z
Si Si1 0.195580 0.328635 0.510991
Si Si2 0.595888 0.798027 0.792148
Si Si3 0.620340 0.144430 0.755913
Si Si4 0.687890 0.770871 0.439830
Si Si5 0.136774 0.451163 0.097123
Si Si6 0.386233 0.922833 0.093463
Si Si7 0.356044 0.995793 0.589879
Si Si8 0.957328 0.006350 0.453249
O O1 0.218958 0.235064 0.333612
O O2 0.250882 0.081595 0.269427
O O3 0.999264 0.382409 0.641911
O O4 0.311274 0.607366 0.789347
O O5 0.500000 0.500000 0.500000
O O6 0.500000 0.000000 0.000000
O O7 0.572574 0.915620 0.992856
O O8 0.771798 0.139028 0.651960
O O9 0.641035 0.896082 0.527756
O O10 0.439256 0.094357 0.730418
O O11 0.630759 0.443053 0.107684
O O12 0.584395 0.923163 0.688310
O O13 0.891141 0.806447 0.424633
O O14 0.283773 0.673893 0.270346
O O15 0.209105 0.206295 0.849524
O O16 0.051227 0.304845 0.909589
O O17 0.500000 0.000000 0.500000
O O18 0.000000 0.000000 0.500000
#
# Coordination Sequence:
#
# PCOD8039049 Si02
#       8
#     2   2   2   2   2   2   2   2
#     4  10  19  33  52  83 115 138 177 217 268 330
#     4   8  16  29  49  77 113 145 164 205 265 336
#     4  11  24  39  53  74 108 145 188 231 262 311
#     4  11  22  36  56  82 109 141 176 222 278 332
#     4  12  24  38  59  81 106 150 185 228 271 317
#     4  10  18  32  54  82 115 143 169 209 278 340
#     4  12  26  41  58  74 104 150 201 231 264 305
#     4  10  23  35  55  80 112 139 178 220 284 321
#
# _framework density 18.705428999999999
#
# number of rings (size 3 to 8) (size 9 to 14) (size 15 to 20)
#    0.000    1.500    2.500    3.000    5.250    0.000 
#    0.000    0.000    0.000    0.000    0.000    5.250 
#    0.000    0.000    0.000    0.000    0.000    0.000 
#
# Total GULP energy -198298.702725 kJ/mol
# GULP energy per Si atom -12393.668920 kJ/mol
# Density = 1.866285 g / cm^3
# Si number density = 18.705429 Si / 1000 Ang^3
#
#
#
# Elastic Constant Matrix: (Units=GPa)
#
#
# Indices 1 2 3 4 5 6 
#
# 1 68.2625 23.4881 20.2798 -3.1367 4.4365 5.4226
# 2 23.4881 77.7457 27.4576 -22.8140 11.6144 -2.8591
# 3 20.2798 27.4576 79.5725 -4.7345 3.4264 3.2244
# 4 -3.1367 -22.8140 -4.7345 48.6175 -2.0717 -0.2755
# 5 4.4365 11.6144 3.4264 -2.0717 29.3906 5.3877
# 6 5.4226 -2.8591 3.2244 -0.2755 5.3877 17.1497
#
#
#
# Elastic Compliance Matrix: (Units=1/GPa)
#
#
# Indices 1 2 3 4 5 6 
#
# 1 0.017571 -0.005199 -0.002557 -0.001559 0.000726 -0.006195
# 2 -0.005199 0.020135 -0.005145 0.008339 -0.007537 0.008470
# 3 -0.002557 -0.005145 0.015011 -0.001085 0.001191 -0.003263
# 4 -0.001559 0.008339 -0.001085 0.024217 -0.001783 0.003036
# 5 0.000726 -0.007537 0.001191 -0.001783 0.039205 -0.014055
# 6 -0.006195 0.008470 -0.003263 0.003036 -0.014055 0.066759
#
#
# Mechanical properties :
#
#
# Convention : Reuss Voigt Hill
#
# Bulk Modulus (GPa) = 37.15621 40.89242 39.02432
# Shear Modulus (GPa) = 22.97038 29.32190 26.14614
#
# Velocity S-wave (km/s) = 3.50809 3.96354 3.74275
# Velocity P-wave (km/s) = 6.02627 6.54637 6.29169
#
# Compressibility (1/GPa) = 0.02691340
#
# Stress axis : x y z
#
# Youngs Moduli (GPa) = 56.91103 49.66544 66.61937
#
# Poissons Ratio (x) = 0.25823 0.17035
# Poissons Ratio (y) = 0.29590 0.34277
# Poissons Ratio (z) = 0.14553 0.25554
#
# Static dielectric constant tensor:
#      x y z
#    x 3.347730 -0.005740 -0.062000 
#    y -0.005740 3.955670 -0.271930 
#    z -0.062000 -0.271930 3.727740 
# 
# 
# High freq. dielectric constant tensor:
#      x y z
#    x 1.686240 -0.017680 -0.010370 
#    y -0.017680 1.729660 -0.001960 
#    z -0.010370 -0.001960 1.743740 
# 
# From -- ./inp_files/44576.got.cif
#   From: 2010.06.25/outbox.cif.g09.slc.cpg/sg2_23_cif.got.tgz:44576.got - 2010.06.27 13:26:56.
