data_PCOD8039341
_publ_section_title
;
Structure prediction by ZEFSAII (Michael W. Deem and Ramdas Pophale) SiO2 
 PCOD8039341
Probable space group: P -1
;
_chemical_formula_sum "Si O2"
_cell_formula_units_Z 12
_cell_length_a 7.817289
_cell_length_b 8.727136
_cell_length_c 11.355545
_cell_angle_alpha 81.552462
_cell_angle_beta 71.602138
_cell_angle_gamma 51.405055
_cell_volume 573.235729
_symmetry_space_group_name_H-M "P -1"
_symmetry_group_IT_number 2
_symmetry_cell_setting 'triclinic'
loop_
_space_group_symop_operation_xyz
x,y,z
-x,-y,-z
loop_
_atom_site_type_symbol
_atom_site_label
_atom_site_fract_x
_atom_site_fract_y
_atom_site_fract_z
Si Si1 0.704557 0.413203 0.638030
Si Si2 0.013042 0.987753 0.727181
Si Si3 0.177719 0.497972 0.881744
Si Si4 0.371858 0.727610 0.846429
Si Si5 0.222880 0.585202 0.626035
Si Si6 0.416423 0.875741 0.061862
O O1 0.614979 0.569645 0.745359
O O2 0.488439 0.436974 0.626358
O O3 0.807737 0.455300 0.498138
O O4 0.901822 0.196272 0.668217
O O5 0.832748 0.985840 0.844216
O O6 0.217970 0.928613 0.779555
O O7 0.122541 0.813846 0.626834
O O8 0.221349 0.650129 0.899826
O O9 0.095005 0.545345 0.756441
O O10 0.419388 0.283568 0.858096
O O11 0.000000 0.500000 0.000000
O O12 0.426150 0.763494 0.957554
O O13 0.500000 0.000000 0.000000
#
# Coordination Sequence:
#
# PCOD8039341 Si02
#       6
#     2   2   2   2   2   2
#     4   9  17  34  57  84 115 153 188 235 279 344
#     4  10  18  33  57  89 114 149 187 235 291 339
#     4  10  20  37  58  86 117 152 186 236 285 342
#     4  10  22  37  58  89 116 151 194 234 289 342
#     4   9  18  32  55  89 116 147 195 227 281 348
#     4  12  22  37  57  86 119 151 193 245 289 335
#
# _framework density 20.933796000000001
#
# number of rings (size 3 to 8) (size 9 to 14) (size 15 to 20)
#    0.000    2.333    3.333    3.500    0.000    0.000 
#    0.000    0.000    0.000    5.000    0.000    0.000 
#    0.000    0.000    0.000    0.000    0.000    0.000 
#
# Total GULP energy -148657.159293 kJ/mol
# GULP energy per Si atom -12388.096608 kJ/mol
# Density = 2.088615 g / cm^3
# Si number density = 20.933796 Si / 1000 Ang^3
#
#
#
# Elastic Constant Matrix: (Units=GPa)
#
#
# Indices 1 2 3 4 5 6 
#
# 1 34.8379 31.7749 35.5534 -2.2671 1.7289 4.4993
# 2 31.7749 124.8488 41.3096 -14.9175 6.5184 -29.9013
# 3 35.5534 41.3096 158.2912 -7.5005 0.2699 7.1195
# 4 -2.2671 -14.9175 -7.5005 35.9459 -3.8336 3.5464
# 5 1.7289 6.5184 0.2699 -3.8336 13.8056 -0.6925
# 6 4.4993 -29.9013 7.1195 3.5464 -0.6925 32.2075
#
#
#
# Elastic Compliance Matrix: (Units=1/GPa)
#
#
# Indices 1 2 3 4 5 6 
#
# 1 0.053566 -0.016785 -0.006836 -0.002976 -0.000541 -0.021239
# 2 -0.016785 0.018019 -0.001598 0.003752 -0.004384 0.018919
# 3 -0.006836 -0.001598 0.008430 0.001082 0.001622 -0.002476
# 4 -0.002976 0.003752 0.001082 0.030109 0.006966 0.000494
# 5 -0.000541 -0.004384 0.001622 0.006966 0.076300 -0.003479
# 6 -0.021239 0.018919 -0.002476 0.000494 -0.003479 0.051998
#
#
# Mechanical properties :
#
#
# Convention : Reuss Voigt Hill
#
# Bulk Modulus (GPa) = 33.81048 59.47264 46.64156
# Shear Modulus (GPa) = 16.73815 30.34778 23.54297
#
# Velocity S-wave (km/s) = 2.83074 3.81163 3.35720
# Velocity P-wave (km/s) = 5.18366 6.91685 6.11201
#
# Compressibility (1/GPa) = 0.02957663
#
# Stress axis : x y z
#
# Youngs Moduli (GPa) = 18.66847 55.49791 118.62801
#
# Poissons Ratio (x) = 0.93155 0.81090
# Poissons Ratio (y) = 0.31336 0.18956
# Poissons Ratio (z) = 0.12761 0.08868
#
# Static dielectric constant tensor:
#      x y z
#    x 3.377160 -0.346510 0.098700 
#    y -0.346510 4.158420 -0.698890 
#    z 0.098700 -0.698890 6.898890 
# 
# 
# High freq. dielectric constant tensor:
#      x y z
#    x 1.765120 -0.036980 0.009360 
#    y -0.036980 1.829350 -0.000080 
#    z 0.009360 -0.000080 1.838910 
# 
# From -- ./inp_files/171940.got.cif
#   From: 2010.06.25/outbox.cif.g09.slc.cpg/sg2_86_cif.got.tgz:171940.got - 2010.06.27 13:26:56.
