data_PCOD8039847
_publ_section_title
;
Structure prediction by ZEFSAII (Michael W. Deem and Ramdas Pophale) SiO2 
 PCOD8039847
Probable space group: P -1
;
_chemical_formula_sum "Si O2"
_cell_formula_units_Z 14
_cell_length_a 11.635358
_cell_length_b 15.123482
_cell_length_c 9.606758
_cell_angle_alpha 101.365437
_cell_angle_beta 54.678436
_cell_angle_gamma 143.218480
_cell_volume 692.722270
_symmetry_space_group_name_H-M "P -1"
_symmetry_group_IT_number 2
_symmetry_cell_setting 'triclinic'
loop_
_space_group_symop_operation_xyz
x,y,z
-x,-y,-z
loop_
_atom_site_type_symbol
_atom_site_label
_atom_site_fract_x
_atom_site_fract_y
_atom_site_fract_z
Si Si1 0.638674 0.750943 0.801801
Si Si2 0.776516 0.972387 0.577427
Si Si3 0.887633 0.634250 0.920294
Si Si4 0.345322 0.165257 0.660827
Si Si5 0.479894 0.985601 0.677396
Si Si6 0.789631 0.779770 0.002436
Si Si7 0.831422 0.331997 0.486755
O O1 0.658848 0.866028 0.770201
O O2 0.647003 0.753359 0.965074
O O3 0.348594 0.550537 0.889174
O O4 0.893272 0.832723 0.585651
O O5 0.727024 0.867260 0.461616
O O6 0.633333 0.986498 0.641442
O O7 0.747481 0.650248 0.975301
O O8 0.154334 0.799407 0.883942
O O9 0.963215 0.620216 0.724713
O O10 0.638237 0.277269 0.495700
O O11 0.349860 0.263382 0.768774
O O12 0.116788 0.977624 0.839391
O O13 0.500000 0.000000 0.500000
O O14 0.637141 0.163385 0.673139
O O15 0.000000 0.500000 0.500000
#
# Coordination Sequence:
#
# PCOD8039847 Si02
#       7
#     2   2   2   2   2   2   2
#     4  10  21  34  56  89 117 154 193 241 281 355
#     4  10  20  38  58  84 119 159 191 232 300 345
#     4  11  20  36  59  88 116 150 202 237 288 343
#     4  10  18  35  56  86 113 152 191 240 289 335
#     4  10  18  36  59  83 114 151 195 236 289 343
#     4  10  20  34  60  87 115 148 198 240 284 338
#     4  11  20  33  58  88 116 147 195 243 288 339
#
# _framework density 20.21012
#
# number of rings (size 3 to 8) (size 9 to 14) (size 15 to 20)
#    0.000    1.714    4.286    3.857    0.000    1.714 
#    0.000    0.714    0.000    6.857    0.000    0.000 
#    0.000    0.000    0.000    0.000    0.000    0.000 
#
# Total GULP energy -173480.533865 kJ/mol
# GULP energy per Si atom -12391.466705 kJ/mol
# Density = 2.016412 g / cm^3
# Si number density = 20.210120 Si / 1000 Ang^3
#
#
#
# Elastic Constant Matrix: (Units=GPa)
#
#
# Indices 1 2 3 4 5 6 
#
# 1 104.2543 38.4266 35.8104 -12.9456 -13.8392 -11.8601
# 2 38.4266 123.6180 51.6243 -19.1786 -6.9556 -15.7812
# 3 35.8104 51.6243 79.6143 -22.3530 -8.1754 -4.5383
# 4 -12.9456 -19.1786 -22.3530 47.6276 1.1940 -5.2764
# 5 -13.8392 -6.9556 -8.1754 1.1940 19.7792 -0.1480
# 6 -11.8601 -15.7812 -4.5383 -5.2764 -0.1480 20.6555
#
#
#
# Elastic Compliance Matrix: (Units=1/GPa)
#
#
# Indices 1 2 3 4 5 6 
#
# 1 0.013164 -0.001048 -0.003547 0.002034 0.007302 0.006550
# 2 -0.001048 0.012615 -0.006376 0.002701 0.000967 0.008333
# 3 -0.003547 -0.006376 0.020184 0.005751 0.003264 -0.000981
# 4 0.002034 0.002701 0.005751 0.026506 0.003234 0.011289
# 5 0.007302 0.000967 0.003264 0.003234 0.057213 0.006885
# 6 0.006550 0.008333 -0.000981 0.011289 0.006885 0.061258
#
#
# Mechanical properties :
#
#
# Convention : Reuss Voigt Hill
#
# Bulk Modulus (GPa) = 41.63021 62.13435 51.88228
# Shear Modulus (GPa) = 22.63583 29.72083 26.17833
#
# Velocity S-wave (km/s) = 3.35031 3.83899 3.60294
# Velocity P-wave (km/s) = 5.96737 7.10362 6.56014
#
# Compressibility (1/GPa) = 0.02402102
#
# Stress axis : x y z
#
# Youngs Moduli (GPa) = 75.96696 79.27010 49.54320
#
# Poissons Ratio (x) = 0.08307 0.17574
# Poissons Ratio (y) = 0.07961 0.31588
# Poissons Ratio (z) = 0.26947 0.50542
#
# Static dielectric constant tensor:
#      x y z
#    x 3.496480 -0.047420 -0.244530 
#    y -0.047420 3.924240 -0.354450 
#    z -0.244530 -0.354450 3.717220 
# 
# 
# High freq. dielectric constant tensor:
#      x y z
#    x 1.775020 -0.005560 -0.031530 
#    y -0.005560 1.777970 -0.026130 
#    z -0.031530 -0.026130 1.771400 
# 
# From -- ./inp_files/197264.got.cif
#   From: 2010.06.25/outbox.cif.g09.slc.cpg/sg2_99_cif.got.tgz:197264.got - 2010.06.27 13:26:56.
