data_PCOD8039739
_publ_section_title
;
Structure prediction by ZEFSAII (Michael W. Deem and Ramdas Pophale) SiO2 
 PCOD8039739
Probable space group: P -1
;
_chemical_formula_sum "Si O2"
_cell_formula_units_Z 16
_cell_length_a 11.567775
_cell_length_b 12.013886
_cell_length_c 8.908740
_cell_angle_alpha 74.155292
_cell_angle_beta 54.203581
_cell_angle_gamma 47.809327
_cell_volume 729.100686
_symmetry_space_group_name_H-M "P -1"
_symmetry_group_IT_number 2
_symmetry_cell_setting 'triclinic'
loop_
_space_group_symop_operation_xyz
x,y,z
-x,-y,-z
loop_
_atom_site_type_symbol
_atom_site_label
_atom_site_fract_x
_atom_site_fract_y
_atom_site_fract_z
Si Si1 0.165902 0.994873 0.828765
Si Si2 0.087538 0.754089 0.284744
Si Si3 0.016855 0.568806 0.814689
Si Si4 0.917778 0.865115 0.698127
Si Si5 0.342930 0.845110 0.044658
Si Si6 0.644892 0.521703 0.265961
Si Si7 0.291039 0.761332 0.584037
Si Si8 0.236138 0.456346 0.144477
O O1 0.300121 0.865149 0.649217
O O2 0.286541 0.953625 0.901774
O O3 0.064117 0.160081 0.769316
O O4 0.000000 0.000000 0.000000
O O5 0.244445 0.771422 0.149129
O O6 0.965676 0.823664 0.503041
O O7 0.193345 0.573925 0.261897
O O8 0.899017 0.752288 0.839727
O O9 0.236361 0.492483 0.674081
O O10 0.940385 0.539581 0.737720
O O11 0.000000 0.500000 0.000000
O O12 0.079149 0.859297 0.652057
O O13 0.725325 0.041514 0.802184
O O14 0.568161 0.714066 0.911737
O O15 0.440160 0.694895 0.356880
O O16 0.626289 0.393589 0.333868
O O17 0.751784 0.486517 0.044354
#
# Coordination Sequence:
#
# PCOD8039739 Si02
#       8
#     2   2   2   2   2   2   2   2
#     4  10  20  35  58  89 126 163 190 245 315 371
#     4  11  23  37  63  94 127 159 203 256 317 361
#     4   9  22  41  63  87 120 171 210 251 299 371
#     4  11  22  38  64  93 124 159 205 257 312 364
#     4  11  23  37  63  94 129 157 202 253 317 369
#     4   9  19  34  61  92 117 159 207 254 305 365
#     4  10  18  34  61  91 126 151 201 257 315 358
#     4  11  23  39  61  85 129 166 210 247 303 363
#
# _framework density 21.944842999999999
#
# number of rings (size 3 to 8) (size 9 to 14) (size 15 to 20)
#    0.000    1.750    2.500    3.000    5.250    4.000 
#    0.000    0.000    0.000    1.500    0.000    0.000 
#    0.000    0.000    0.000    0.000    0.000    0.000 
#
# Total GULP energy -198242.383586 kJ/mol
# GULP energy per Si atom -12390.148974 kJ/mol
# Density = 2.189490 g / cm^3
# Si number density = 21.944843 Si / 1000 Ang^3
#
#
#
# Elastic Constant Matrix: (Units=GPa)
#
#
# Indices 1 2 3 4 5 6 
#
# 1 74.0130 33.7877 15.3257 2.7664 6.7474 1.5455
# 2 33.7877 113.0305 28.5853 19.7858 1.6483 -8.2205
# 3 15.3257 28.5853 61.2024 18.0009 16.2941 2.3980
# 4 2.7664 19.7858 18.0009 38.0046 6.2794 4.6077
# 5 6.7474 1.6483 16.2941 6.2794 22.6977 -2.2433
# 6 1.5455 -8.2205 2.3980 4.6077 -2.2433 30.7622
#
#
#
# Elastic Compliance Matrix: (Units=1/GPa)
#
#
# Indices 1 2 3 4 5 6 
#
# 1 0.016610 -0.005399 -0.001195 0.003349 -0.004915 -0.003044
# 2 -0.005399 0.013022 -0.004938 -0.005757 0.006336 0.005460
# 3 -0.001195 -0.004938 0.025156 -0.006199 -0.015971 -0.003457
# 4 0.003349 -0.005757 -0.006199 0.033836 -0.006154 -0.006740
# 5 -0.004915 0.006336 -0.015971 -0.006154 0.059058 0.008414
# 6 -0.003044 0.005460 -0.003457 -0.006740 0.008414 0.036012
#
#
# Mechanical properties :
#
#
# Convention : Reuss Voigt Hill
#
# Bulk Modulus (GPa) = 31.52146 44.84925 38.18535
# Shear Modulus (GPa) = 23.00633 29.66273 26.33453
#
# Velocity S-wave (km/s) = 3.24137 3.68053 3.46791
# Velocity P-wave (km/s) = 5.32952 6.20833 5.78563
#
# Compressibility (1/GPa) = 0.03172442
#
# Stress axis : x y z
#
# Youngs Moduli (GPa) = 60.20601 76.79173 39.75255
#
# Poissons Ratio (x) = 0.41458 0.04749
# Poissons Ratio (y) = 0.32504 0.19630
# Poissons Ratio (z) = 0.07193 0.37920
#
# Static dielectric constant tensor:
#      x y z
#    x 4.260300 -0.100890 0.200120 
#    y -0.100890 4.204940 0.060500 
#    z 0.200120 0.060500 4.175880 
# 
# 
# High freq. dielectric constant tensor:
#      x y z
#    x 1.835840 -0.012650 0.014530 
#    y -0.012650 1.872700 0.003270 
#    z 0.014530 0.003270 1.846520 
# 
# From -- ./inp_files/262377.got.cif
#   From: 2010.06.25/outbox.cif.g09.slc.cpg/sg2_132_cif.got.tgz:262377.got - 2010.06.27 13:26:56.
