data_PCOD8039224
_publ_section_title
;
Structure prediction by ZEFSAII (Michael W. Deem and Ramdas Pophale) SiO2 
 PCOD8039224
Probable space group: P -1
;
_chemical_formula_sum "Si O2"
_cell_formula_units_Z 12
_cell_length_a 8.899376
_cell_length_b 15.659307
_cell_length_c 9.553269
_cell_angle_alpha 33.987659
_cell_angle_beta 82.046567
_cell_angle_gamma 100.474203
_cell_volume 622.440763
_symmetry_space_group_name_H-M "P -1"
_symmetry_group_IT_number 2
_symmetry_cell_setting 'triclinic'
loop_
_space_group_symop_operation_xyz
x,y,z
-x,-y,-z
loop_
_atom_site_type_symbol
_atom_site_label
_atom_site_fract_x
_atom_site_fract_y
_atom_site_fract_z
Si Si1 0.557446 0.472669 0.379288
Si Si2 0.230120 0.696057 0.415150
Si Si3 0.790659 0.731108 0.460523
Si Si4 0.952313 0.704743 0.978468
Si Si5 0.893933 0.113132 0.008760
Si Si6 0.030034 0.687180 0.696684
O O1 0.500000 0.500000 0.500000
O O2 0.585292 0.301558 0.613426
O O3 0.407252 0.429619 0.341688
O O4 0.745420 0.654636 0.064079
O O5 0.061641 0.484321 0.722666
O O6 0.223803 0.804157 0.135770
O O7 0.205244 0.787103 0.436305
O O8 0.917857 0.787608 0.232156
O O9 0.857577 0.658073 0.675074
O O10 0.782110 0.899994 0.286094
O O11 0.066428 0.855116 0.874851
O O12 0.050847 0.790418 0.700086
O O13 0.000000 0.500000 0.000000
#
# Coordination Sequence:
#
# PCOD8039224 Si02
#       6
#     2   2   2   2   2   2
#     4  10  19  32  52  80 102 126 171 213 251 291
#     4   8  18  32  54  75 101 133 171 205 246 297
#     4  10  20  32  52  77 105 131 167 208 257 295
#     4   9  18  31  55  74  99 135 170 204 244 297
#     4  10  18  33  53  76 101 136 170 206 244 301
#     4   9  18  35  52  76  98 137 170 206 243 307
#
# _framework density 19.278943000000002
#
# number of rings (size 3 to 8) (size 9 to 14) (size 15 to 20)
#    1.000    1.667    1.667    0.500    0.000    3.333 
#    0.000    0.000    0.000    1.000    0.000    0.000 
#    0.000    0.000    0.000    0.000    0.000    0.000 
#
# Total GULP energy -148658.753165 kJ/mol
# GULP energy per Si atom -12388.229430 kJ/mol
# Density = 1.923506 g / cm^3
# Si number density = 19.278943 Si / 1000 Ang^3
#
#
#
# Elastic Constant Matrix: (Units=GPa)
#
#
# Indices 1 2 3 4 5 6 
#
# 1 101.5263 44.7259 23.8290 15.0656 21.8716 -1.0200
# 2 44.7259 142.0155 27.5467 32.2314 2.4105 1.0402
# 3 23.8290 27.5467 31.2234 6.7576 9.3799 6.1212
# 4 15.0656 32.2314 6.7576 21.7985 -1.4868 -0.7192
# 5 21.8716 2.4105 9.3799 -1.4868 25.0370 9.7545
# 6 -1.0200 1.0402 6.1212 -0.7192 9.7545 28.0637
#
#
#
# Elastic Compliance Matrix: (Units=1/GPa)
#
#
# Indices 1 2 3 4 5 6 
#
# 1 0.016683 -0.002266 -0.005987 -0.007132 -0.015317 0.007137
# 2 -0.002266 0.012265 -0.006702 -0.014326 0.002593 -0.000344
# 3 -0.005987 -0.006702 0.046897 -0.001339 -0.009007 -0.007102
# 4 -0.007132 -0.014326 -0.001339 0.073237 0.013313 -0.002187
# 5 -0.015317 0.002593 -0.009007 0.013313 0.065457 -0.021099
# 6 0.007137 -0.000344 -0.007102 -0.002187 -0.021099 0.044732
#
#
# Mechanical properties :
#
#
# Convention : Reuss Voigt Hill
#
# Bulk Modulus (GPa) = 21.77013 51.88539 36.82776
# Shear Modulus (GPa) = 16.42067 26.89073 21.65570
#
# Velocity S-wave (km/s) = 2.92163 3.73879 3.35518
# Velocity P-wave (km/s) = 4.76423 6.75348 5.84411
#
# Compressibility (1/GPa) = 0.04593449
#
# Stress axis : x y z
#
# Youngs Moduli (GPa) = 59.94107 81.53203 21.32312
#
# Poissons Ratio (x) = 0.18478 0.12766
# Poissons Ratio (y) = 0.13585 0.14292
# Poissons Ratio (z) = 0.35885 0.54646
#
# Static dielectric constant tensor:
#      x y z
#    x 3.529620 -0.300470 0.109880 
#    y -0.300470 3.787080 0.332550 
#    z 0.109880 0.332550 3.145440 
# 
# 
# High freq. dielectric constant tensor:
#      x y z
#    x 1.744150 -0.014950 0.021120 
#    y -0.014950 1.754760 0.019000 
#    z 0.021120 0.019000 1.702970 
# 
# From -- ./inp_files/151158.got.cif
#   From: 2010.06.25/outbox.cif.g09.slc.cpg/sg2_76_cif.got.tgz:151158.got - 2010.06.27 13:26:56.
