data_PCOD8039078
_publ_section_title
;
Structure prediction by ZEFSAII (Michael W. Deem and Ramdas Pophale) SiO2 
 PCOD8039078
Probable space group: P -1
;
_chemical_formula_sum "Si O2"
_cell_formula_units_Z 16
_cell_length_a 17.483982
_cell_length_b 21.054771
_cell_length_c 8.454263
_cell_angle_alpha 137.922235
_cell_angle_beta 42.777246
_cell_angle_gamma 158.010448
_cell_volume 767.832014
_symmetry_space_group_name_H-M "P -1"
_symmetry_group_IT_number 2
_symmetry_cell_setting 'triclinic'
loop_
_space_group_symop_operation_xyz
x,y,z
-x,-y,-z
loop_
_atom_site_type_symbol
_atom_site_label
_atom_site_fract_x
_atom_site_fract_y
_atom_site_fract_z
Si Si1 0.938027 0.353615 0.759197
Si Si2 0.084561 0.867828 0.540530
Si Si3 0.703404 0.446082 0.637452
Si Si4 0.525892 0.996841 0.141631
Si Si5 0.706896 0.847862 0.471230
Si Si6 0.717033 0.967319 0.962385
Si Si7 0.486587 0.825956 0.358968
Si Si8 0.135600 0.244562 0.029787
O O1 0.971197 0.282973 0.692025
O O2 0.072357 0.428137 0.536228
O O3 0.694161 0.186726 0.783880
O O4 0.000000 0.500000 0.000000
O O5 0.911771 0.792058 0.777942
O O6 0.112454 0.954029 0.504397
O O7 0.297664 0.023638 0.599342
O O8 0.521683 0.288920 0.500153
O O9 0.662885 0.365296 0.715483
O O10 0.698618 0.554675 0.880552
O O11 0.621382 0.152234 0.382967
O O12 0.500000 0.000000 0.000000
O O13 0.688477 0.026949 0.978884
O O14 0.703749 0.858641 0.686131
O O15 0.762911 0.780471 0.223718
O O16 0.525660 0.842702 0.144148
O O17 0.933901 0.128323 0.019291
#
# Coordination Sequence:
#
# PCOD8039078 Si02
#       8
#     2   2   2   2   2   2   2   2
#     4  10  18  32  55  87 115 139 183 241 283 329
#     4   8  18  34  57  83 110 150 198 233 278 348
#     4  10  21  38  58  84 116 152 194 235 284 347
#     4  11  21  38  62  86 113 154 194 231 285 356
#     4  11  20  37  61  84 113 157 199 237 284 344
#     4  11  22  37  57  85 116 150 194 240 287 348
#     4   9  19  36  55  80 117 152 183 231 292 346
#     4  10  21  38  58  85 116 150 195 250 291 326
#
# _framework density 20.837890000000002
#
# number of rings (size 3 to 8) (size 9 to 14) (size 15 to 20)
#    0.000    2.000    0.000    6.000    0.000    0.000 
#    0.000    9.375    0.000    0.000    0.000    0.000 
#    0.000    0.000    0.000    0.000    0.000    0.000 
#
# Total GULP energy -198282.730620 kJ/mol
# GULP energy per Si atom -12392.670664 kJ/mol
# Density = 2.079046 g / cm^3
# Si number density = 20.837890 Si / 1000 Ang^3
#
#
#
# Elastic Constant Matrix: (Units=GPa)
#
#
# Indices 1 2 3 4 5 6 
#
# 1 63.8331 29.2460 30.3195 -3.3804 5.8313 -12.6882
# 2 29.2460 94.5657 38.6027 7.5211 0.1890 -24.2781
# 3 30.3195 38.6027 158.4528 8.7725 -4.7731 -27.1003
# 4 -3.3804 7.5211 8.7725 31.2650 -2.9552 -10.9713
# 5 5.8313 0.1890 -4.7731 -2.9552 30.8033 1.7378
# 6 -12.6882 -24.2781 -27.1003 -10.9713 1.7378 26.7181
#
#
#
# Elastic Compliance Matrix: (Units=1/GPa)
#
#
# Indices 1 2 3 4 5 6 
#
# 1 0.020616 -0.004308 -0.002277 0.005686 -0.004031 0.006162
# 2 -0.004308 0.015042 -0.001034 -0.000101 -0.000041 0.010534
# 3 -0.002277 -0.001034 0.008080 -0.000002 0.001346 0.006087
# 4 0.005686 -0.000101 -0.000002 0.039323 0.001645 0.018647
# 5 -0.004031 -0.000041 0.001346 0.001645 0.033712 -0.002104
# 6 0.006162 0.010534 0.006087 0.018647 -0.002104 0.063894
#
#
# Mechanical properties :
#
#
# Convention : Reuss Voigt Hill
#
# Bulk Modulus (GPa) = 35.08946 57.02088 46.05517
# Shear Modulus (GPa) = 24.34199 32.33620 28.33909
#
# Velocity S-wave (km/s) = 3.42154 3.94356 3.69179
# Velocity P-wave (km/s) = 5.69957 6.93967 6.34996
#
# Compressibility (1/GPa) = 0.02849859
#
# Stress axis : x y z
#
# Youngs Moduli (GPa) = 48.50670 66.48136 123.75685
#
# Poissons Ratio (x) = 0.28641 0.28185
# Poissons Ratio (y) = 0.20897 0.12798
# Poissons Ratio (z) = 0.11047 0.06875
#
# Static dielectric constant tensor:
#      x y z
#    x 3.508880 -0.321260 -0.107820 
#    y -0.321260 3.979990 -0.016000 
#    z -0.107820 -0.016000 3.989190 
# 
# 
# High freq. dielectric constant tensor:
#      x y z
#    x 1.784630 -0.018590 -0.012460 
#    y -0.018590 1.808900 -0.004680 
#    z -0.012460 -0.004680 1.829980 
# 
# From -- ./inp_files/328730.got.cif
#   From: 2010.06.25/outbox.cif.g09.slc.cpg/sg2_165_cif.got.tgz:328730.got - 2010.06.27 13:26:56.
