data_PCOD8039987
_publ_section_title
;
Structure prediction by ZEFSAII (Michael W. Deem and Ramdas Pophale) SiO2 
 PCOD8039987
Probable space group: P -1
;
_chemical_formula_sum "Si O2"
_cell_formula_units_Z 16
_cell_length_a 14.175890
_cell_length_b 8.751392
_cell_length_c 20.533440
_cell_angle_alpha 133.005626
_cell_angle_beta 32.874778
_cell_angle_gamma 109.067975
_cell_volume 793.265498
_symmetry_space_group_name_H-M "P -1"
_symmetry_group_IT_number 2
_symmetry_cell_setting 'triclinic'
loop_
_space_group_symop_operation_xyz
x,y,z
-x,-y,-z
loop_
_atom_site_type_symbol
_atom_site_label
_atom_site_fract_x
_atom_site_fract_y
_atom_site_fract_z
Si Si1 0.930761 0.020977 0.942978
Si Si2 0.489700 0.296803 0.210397
Si Si3 0.691535 0.713243 0.917600
Si Si4 0.828578 0.834907 0.075058
Si Si5 0.359535 0.028422 0.389219
Si Si6 0.866056 0.448758 0.407523
Si Si7 0.484671 0.537455 0.895288
Si Si8 0.928068 0.371824 0.810236
O O1 0.104528 0.747812 0.723024
O O2 0.055340 0.142607 0.924058
O O3 0.841210 0.975463 0.046170
O O4 0.715408 0.236650 0.087491
O O5 0.277924 0.531812 0.443332
O O6 0.444657 0.402798 0.194175
O O7 0.508950 0.030440 0.124527
O O8 0.581260 0.592190 0.915876
O O9 0.802264 0.577395 0.882862
O O10 0.889898 0.658308 0.741174
O O11 0.573639 0.976563 0.282655
O O12 0.950200 0.525427 0.899601
O O13 0.420923 0.767009 0.242194
O O14 0.264866 0.254067 0.456345
O O15 0.175077 0.113938 0.575387
O O16 0.216692 0.720259 0.109753
#
# Coordination Sequence:
#
# PCOD8039987 Si02
#       8
#     2   2   2   2   2   2   2   2
#     4  10  20  34  61  88 109 142 186 233 281 324
#     4  11  21  39  55  82 120 145 185 232 273 335
#     4  10  21  39  58  83 108 149 195 234 270 320
#     4  10  18  35  60  90 107 139 187 236 279 323
#     4  10  20  36  54  85 113 142 185 231 275 329
#     4  10  20  36  58  83 115 142 184 241 270 322
#     4  11  24  35  58  82 114 157 182 223 285 333
#     4  10  20  39  58  83 117 143 186 238 271 326
#
# _framework density 20.169792999999999
#
# number of rings (size 3 to 8) (size 9 to 14) (size 15 to 20)
#    0.000    1.750    5.000    1.500    0.000    7.000 
#    0.000    2.500    0.000    4.500    0.000    0.000 
#    0.000    0.000    0.000    0.000    0.000    0.000 
#
# Total GULP energy -198372.928933 kJ/mol
# GULP energy per Si atom -12398.308058 kJ/mol
# Density = 2.012389 g / cm^3
# Si number density = 20.169793 Si / 1000 Ang^3
#
#
#
# Elastic Constant Matrix: (Units=GPa)
#
#
# Indices 1 2 3 4 5 6 
#
# 1 111.5923 37.3994 38.0838 -1.3701 7.0985 47.2762
# 2 37.3994 47.7557 27.0402 -14.1873 9.9869 18.6643
# 3 38.0838 27.0402 129.7040 -26.0950 10.5600 20.1705
# 4 -1.3701 -14.1873 -26.0950 26.2985 -0.2722 -0.2444
# 5 7.0985 9.9869 10.5600 -0.2722 16.8787 -4.8031
# 6 47.2762 18.6643 20.1705 -0.2444 -4.8031 42.6252
#
#
#
# Elastic Compliance Matrix: (Units=1/GPa)
#
#
# Indices 1 2 3 4 5 6 
#
# 1 0.021260 -0.006765 -0.001665 -0.004491 -0.009938 -0.020975
# 2 -0.006765 0.045531 0.003013 0.026725 -0.030424 -0.017134
# 3 -0.001665 0.003013 0.012055 0.013337 -0.010188 -0.006249
# 4 -0.004491 0.026725 0.013337 0.065032 -0.025644 -0.015548
# 5 -0.009938 -0.030424 -0.010188 -0.025644 0.098814 0.040153
# 6 -0.020975 -0.017134 -0.006249 -0.015548 0.040153 0.061619
#
#
# Mechanical properties :
#
#
# Convention : Reuss Voigt Hill
#
# Bulk Modulus (GPa) = 14.70346 54.89985 34.80166
# Shear Modulus (GPa) = 14.80102 29.59573 22.19837
#
# Velocity S-wave (km/s) = 2.71185 3.83473 3.32109
# Velocity P-wave (km/s) = 4.13657 6.84725 5.65668
#
# Compressibility (1/GPa) = 0.06801120
#
# Stress axis : x y z
#
# Youngs Moduli (GPa) = 47.03735 21.96324 82.95325
#
# Poissons Ratio (x) = 0.14859 0.13808
# Poissons Ratio (y) = 0.31822 -0.24992
# Poissons Ratio (z) = 0.07830 -0.06617
#
# Static dielectric constant tensor:
#      x y z
#    x 3.549840 0.282780 0.001280 
#    y 0.282780 3.557730 -0.298740 
#    z 0.001280 -0.298740 4.010250 
# 
# 
# High freq. dielectric constant tensor:
#      x y z
#    x 1.770520 0.018780 0.004620 
#    y 0.018780 1.772520 -0.014050 
#    z 0.004620 -0.014050 1.796940 
# 
# From -- ./inp_files/276283.got.cif
#   From: 2010.06.25/outbox.cif.g09.slc.cpg/sg2_139_cif.got.tgz:276283.got - 2010.06.27 13:26:56.
