data_PCOD8039119
_publ_section_title
;
Structure prediction by ZEFSAII (Michael W. Deem and Ramdas Pophale) SiO2 
 PCOD8039119
Probable space group: P -1
;
_chemical_formula_sum "Si O2"
_cell_formula_units_Z 12
_cell_length_a 7.640518
_cell_length_b 12.763528
_cell_length_c 9.116106
_cell_angle_alpha 147.707371
_cell_angle_beta 95.736288
_cell_angle_gamma 92.165958
_cell_volume 459.891266
_symmetry_space_group_name_H-M "P -1"
_symmetry_group_IT_number 2
_symmetry_cell_setting 'triclinic'
loop_
_space_group_symop_operation_xyz
x,y,z
-x,-y,-z
loop_
_atom_site_type_symbol
_atom_site_label
_atom_site_fract_x
_atom_site_fract_y
_atom_site_fract_z
Si Si1 0.381842 0.731748 0.765394
Si Si2 0.279500 0.459504 0.168608
Si Si3 0.903218 0.943881 0.217116
Si Si4 0.336216 0.485142 0.764409
Si Si5 0.089930 0.719575 0.174571
Si Si6 0.235342 0.093519 0.141976
O O1 0.269241 0.610472 0.478098
O O2 0.374733 0.581175 0.720670
O O3 0.586915 0.824665 0.846121
O O4 0.269908 0.898002 0.996231
O O5 0.465640 0.526397 0.171174
O O6 0.269001 0.234728 0.965675
O O7 0.104143 0.449771 0.034838
O O8 0.075638 0.883996 0.239579
O O9 0.868847 0.156850 0.523957
O O10 0.928558 0.955140 0.053383
O O11 0.211994 0.258913 0.458834
O O12 0.250243 0.614362 0.022384
#
# Coordination Sequence:
#
# PCOD8039119 Si02
#       6
#     2   2   2   2   2   2
#     4  10  18  32  57  83 104 139 177 218 265 307
#     4   9  17  35  55  77 106 140 176 211 265 312
#     4   9  17  37  52  77 110 140 170 218 264 307
#     4  11  18  35  60  79 102 141 176 217 264 308
#     4   9  20  33  57  78 108 139 175 219 257 312
#     4  10  19  33  57  80 109 135 179 221 256 314
#
# _framework density 26.093126000000002
#
# number of rings (size 3 to 8) (size 9 to 14) (size 15 to 20)
#    1.000    1.333    3.333    1.000    0.000    3.333 
#    0.000    4.167    3.667    3.000    0.000    0.000 
#    0.000    0.000    0.000    0.000    0.000    0.000 
#
# Total GULP energy -148752.641915 kJ/mol
# GULP energy per Si atom -12396.053493 kJ/mol
# Density = 2.603374 g / cm^3
# Si number density = 26.093126 Si / 1000 Ang^3
#
#
#
# Elastic Constant Matrix: (Units=GPa)
#
#
# Indices 1 2 3 4 5 6 
#
# 1 75.4198 4.6796 44.5030 -7.1641 -13.8225 -25.8090
# 2 4.6796 35.0829 15.8074 -4.8683 -9.5816 -6.1810
# 3 44.5030 15.8074 169.1047 16.5726 -20.7792 -2.5352
# 4 -7.1641 -4.8683 16.5726 41.3421 -3.3131 -4.3396
# 5 -13.8225 -9.5816 -20.7792 -3.3131 44.7718 -2.3233
# 6 -25.8090 -6.1810 -2.5352 -4.3396 -2.3233 28.5451
#
#
#
# Elastic Compliance Matrix: (Units=1/GPa)
#
#
# Indices 1 2 3 4 5 6 
#
# 1 0.034099 0.011442 -0.009639 0.015801 0.011529 0.035793
# 2 0.011442 0.037978 -0.006095 0.011938 0.010790 0.020720
# 3 -0.009639 -0.006095 0.009465 -0.007351 -0.000970 -0.010390
# 4 0.015801 0.011938 -0.007351 0.034210 0.007697 0.022046
# 5 0.011529 0.010790 -0.000970 0.007697 0.029165 0.016219
# 6 0.035793 0.020720 -0.010390 0.022046 0.016219 0.075630
#
#
# Mechanical properties :
#
#
# Convention : Reuss Voigt Hill
#
# Bulk Modulus (GPa) = 13.70625 45.50972 29.60798
# Shear Modulus (GPa) = 19.72786 37.23963 28.48374
#
# Velocity S-wave (km/s) = 2.75263 3.78190 3.30755
# Velocity P-wave (km/s) = 3.92006 6.04562 5.09492
#
# Compressibility (1/GPa) = 0.07295941
#
# Stress axis : x y z
#
# Youngs Moduli (GPa) = 29.32640 26.33121 105.65076
#
# Poissons Ratio (x) = -0.30128 1.01832
# Poissons Ratio (y) = -0.33555 0.64390
# Poissons Ratio (z) = 0.28266 0.16048
#
# Static dielectric constant tensor:
#      x y z
#    x 4.550880 -0.109980 0.288400 
#    y -0.109980 4.688910 0.222000 
#    z 0.288400 0.222000 4.698160 
# 
# 
# High freq. dielectric constant tensor:
#      x y z
#    x 2.037000 -0.005130 0.010250 
#    y -0.005130 2.058300 0.007430 
#    z 0.010250 0.007430 2.050160 
# 
# From -- ./inp_files/146753.got.cif
#   From: 2010.06.25/outbox.cif.g09.slc.cpg/sg2_74_cif.got.tgz:146753.got - 2010.06.27 13:26:56.
