data_PCOD8039698
_publ_section_title
;
Structure prediction by ZEFSAII (Michael W. Deem and Ramdas Pophale) SiO2 
 PCOD8039698
Probable space group: P -1
;
_chemical_formula_sum "Si O2"
_cell_formula_units_Z 16
_cell_length_a 8.312673
_cell_length_b 13.699947
_cell_length_c 9.557227
_cell_angle_alpha 113.793376
_cell_angle_beta 63.323734
_cell_angle_gamma 125.680743
_cell_volume 774.810801
_symmetry_space_group_name_H-M "P -1"
_symmetry_group_IT_number 2
_symmetry_cell_setting 'triclinic'
loop_
_space_group_symop_operation_xyz
x,y,z
-x,-y,-z
loop_
_atom_site_type_symbol
_atom_site_label
_atom_site_fract_x
_atom_site_fract_y
_atom_site_fract_z
Si Si1 0.829458 0.339987 0.062367
Si Si2 0.782616 0.636846 0.177790
Si Si3 0.467998 0.384167 0.186176
Si Si4 0.997152 0.804228 0.750763
Si Si5 0.113792 0.066345 0.352623
Si Si6 0.851884 0.383391 0.398607
Si Si7 0.583059 0.678419 0.527576
Si Si8 0.915941 0.137594 0.951398
O O1 0.766880 0.196294 0.020085
O O2 0.037617 0.403749 0.919660
O O3 0.630619 0.335925 0.067172
O O4 0.889264 0.405059 0.229548
O O5 0.562852 0.518206 0.153147
O O6 0.763304 0.676532 0.365425
O O7 0.848918 0.753698 0.118434
O O8 0.240473 0.291668 0.168818
O O9 0.463265 0.408556 0.369307
O O10 0.021903 0.886246 0.653084
O O11 0.117710 0.729952 0.630347
O O12 0.087553 0.894323 0.901719
O O13 0.334120 0.183173 0.367937
O O14 0.158184 0.979605 0.184712
O O15 0.000000 0.000000 0.500000
O O16 0.618875 0.354697 0.505273
O O17 0.000000 0.500000 0.500000
#
# Coordination Sequence:
#
# PCOD8039698 Si02
#       8
#     2   2   2   2   2   2   2   2
#     4   8  19  35  55  85 116 152 195 233 289 348
#     4  10  18  34  60  83 120 147 194 238 294 340
#     4  10  19  34  58  89 116 151 194 239 289 359
#     4  10  22  38  60  87 116 156 195 239 296 343
#     4  11  20  40  62  82 115 156 200 247 281 340
#     4  10  20  40  57  86 122 155 186 239 296 357
#     4  10  21  36  61  85 115 156 198 233 296 347
#     4   9  20  37  58  81 117 151 190 241 293 329
#
# _framework density 20.650203000000001
#
# number of rings (size 3 to 8) (size 9 to 14) (size 15 to 20)
#    0.750    1.500    1.250    1.875    0.000    3.500 
#    2.250   11.875    0.000    0.000    0.000    0.000 
#    0.000    0.000    0.000    0.000    0.000    0.000 
#
# Total GULP energy -198217.464910 kJ/mol
# GULP energy per Si atom -12388.591557 kJ/mol
# Density = 2.060320 g / cm^3
# Si number density = 20.650203 Si / 1000 Ang^3
#
#
#
# Elastic Constant Matrix: (Units=GPa)
#
#
# Indices 1 2 3 4 5 6 
#
# 1 59.3429 -5.3189 28.4793 1.0113 -4.3320 4.1335
# 2 -5.3189 44.7528 16.6785 0.9601 9.0965 -6.0024
# 3 28.4793 16.6785 108.4220 14.6701 -12.7340 -3.9609
# 4 1.0113 0.9601 14.6701 39.0595 2.7748 1.3677
# 5 -4.3320 9.0965 -12.7340 2.7748 29.6458 -1.0333
# 6 4.1335 -6.0024 -3.9609 1.3677 -1.0333 18.9722
#
#
#
# Elastic Compliance Matrix: (Units=1/GPa)
#
#
# Indices 1 2 3 4 5 6 
#
# 1 0.020715 0.004677 -0.006832 0.002201 -0.001713 -0.004712
# 2 0.004677 0.028499 -0.007033 0.002407 -0.011107 0.005751
# 3 -0.006832 -0.007033 0.013862 -0.005510 0.007733 0.002976
# 4 0.002201 0.002407 -0.005510 0.028059 -0.005521 -0.003192
# 5 -0.001713 -0.011107 0.007733 -0.005521 0.040766 0.001092
# 6 -0.004712 0.005751 0.002976 -0.003192 0.001092 0.056466
#
#
# Mechanical properties :
#
#
# Convention : Reuss Voigt Hill
#
# Bulk Modulus (GPa) = 22.37085 32.46619 27.41852
# Shear Modulus (GPa) = 22.55894 29.04742 25.80318
#
# Velocity S-wave (km/s) = 3.30878 3.75459 3.53871
# Velocity P-wave (km/s) = 5.04521 5.87810 5.47751
#
# Compressibility (1/GPa) = 0.04470103
#
# Stress axis : x y z
#
# Youngs Moduli (GPa) = 48.27492 35.08894 72.13922
#
# Poissons Ratio (x) = -0.16411 0.49284
# Poissons Ratio (y) = -0.22578 0.50733
# Poissons Ratio (z) = 0.32980 0.24677
#
# Static dielectric constant tensor:
#      x y z
#    x 3.575750 -0.105620 -0.136920 
#    y -0.105620 3.682550 0.020840 
#    z -0.136920 0.020840 3.774690 
# 
# 
# High freq. dielectric constant tensor:
#      x y z
#    x 1.785600 -0.010330 -0.010800 
#    y -0.010330 1.800980 0.008010 
#    z -0.010800 0.008010 1.810280 
# 
# From -- ./inp_files/202990.got.cif
#   From: 2010.06.25/outbox.cif.g09.slc.cpg/sg2_102_cif.got.tgz:202990.got - 2010.06.27 13:26:56.
