data_PCOD8039269
_publ_section_title
;
Structure prediction by ZEFSAII (Michael W. Deem and Ramdas Pophale) SiO2 
 PCOD8039269
Probable space group: P -1
;
_chemical_formula_sum "Si O2"
_cell_formula_units_Z 14
_cell_length_a 11.321082
_cell_length_b 11.255967
_cell_length_c 15.131922
_cell_angle_alpha 60.126436
_cell_angle_beta 28.951974
_cell_angle_gamma 70.524382
_cell_volume 784.925937
_symmetry_space_group_name_H-M "P -1"
_symmetry_group_IT_number 2
_symmetry_cell_setting 'triclinic'
loop_
_space_group_symop_operation_xyz
x,y,z
-x,-y,-z
loop_
_atom_site_type_symbol
_atom_site_label
_atom_site_fract_x
_atom_site_fract_y
_atom_site_fract_z
Si Si1 0.211204 0.960925 0.434250
Si Si2 0.222125 0.643892 0.522000
Si Si3 0.762328 0.655730 0.099201
Si Si4 0.260455 0.562502 0.123614
Si Si5 0.415644 0.855579 0.996606
Si Si6 0.155048 0.071983 0.167129
Si Si7 0.942398 0.467078 0.914076
O O1 0.242290 0.808869 0.441818
O O2 0.123736 0.966354 0.591470
O O3 0.471887 0.071972 0.196894
O O4 0.000000 0.000000 0.500000
O O5 0.476075 0.611592 0.333727
O O6 0.990230 0.559718 0.643184
O O7 0.170121 0.588987 0.677479
O O8 0.945243 0.646733 0.064914
O O9 0.843006 0.815162 0.952527
O O10 0.781412 0.542050 0.054956
O O11 0.238279 0.610813 0.017958
O O12 0.500000 0.500000 0.000000
O O13 0.278090 0.693687 0.128764
O O14 0.634718 0.860054 0.923106
O O15 0.208393 0.930980 0.142902
#
# Coordination Sequence:
#
# PCOD8039269 Si02
#       7
#     2   2   2   2   2   2   2
#     4  10  18  33  55  80 107 145 181 224 271 326
#     4  10  20  35  59  83 108 148 185 226 278 323
#     4  11  18  37  59  85 105 147 194 230 263 333
#     4  10  20  39  54  81 120 144 177 233 283 325
#     4  10  20  35  54  79 112 144 180 226 277 328
#     4  10  19  33  57  79 107 142 193 222 267 330
#     4   9  22  35  58  79 116 143 187 232 276 318
#
# _framework density 17.836077
#
# number of rings (size 3 to 8) (size 9 to 14) (size 15 to 20)
#    0.857    1.143    2.857    3.000    0.000    0.000 
#    2.571    2.143    0.000    0.857    0.000    0.000 
#    0.000    0.000    0.000    0.000    0.000    0.000 
#
# Total GULP energy -173519.057722 kJ/mol
# GULP energy per Si atom -12394.218409 kJ/mol
# Density = 1.779548 g / cm^3
# Si number density = 17.836077 Si / 1000 Ang^3
#
#
#
# Elastic Constant Matrix: (Units=GPa)
#
#
# Indices 1 2 3 4 5 6 
#
# 1 74.3482 39.9200 21.1903 5.5718 5.9375 -8.2629
# 2 39.9200 115.0176 41.5747 9.8616 -3.8758 -4.3284
# 3 21.1903 41.5747 92.6625 22.5755 4.6905 -4.7006
# 4 5.5718 9.8616 22.5755 33.5118 -3.4237 4.5980
# 5 5.9375 -3.8758 4.6905 -3.4237 19.3444 -5.4595
# 6 -8.2629 -4.3284 -4.7006 4.5980 -5.4595 27.1300
#
#
#
# Elastic Compliance Matrix: (Units=1/GPa)
#
#
# Indices 1 2 3 4 5 6 
#
# 1 0.017756 -0.005892 -0.000452 -0.002000 -0.005874 0.003546
# 2 -0.005892 0.012608 -0.004848 0.001078 0.005803 0.000362
# 3 -0.000452 -0.004848 0.015968 -0.010181 -0.005826 0.002408
# 4 -0.002000 0.001078 -0.010181 0.038516 0.008113 -0.007096
# 5 -0.005874 0.005803 -0.005826 0.008113 0.060000 0.008827
# 6 0.003546 0.000362 0.002408 -0.007096 0.008827 0.041394
#
#
# Mechanical properties :
#
#
# Convention : Reuss Voigt Hill
#
# Bulk Modulus (GPa) = 41.75729 54.15537 47.95633
# Shear Modulus (GPa) = 23.08310 27.95345 25.51828
#
# Velocity S-wave (km/s) = 3.60137 3.96314 3.78658
# Velocity P-wave (km/s) = 6.38402 7.16733 6.78699
#
# Compressibility (1/GPa) = 0.02394792
#
# Stress axis : x y z
#
# Youngs Moduli (GPa) = 56.31900 79.31261 62.62650
#
# Poissons Ratio (x) = 0.46733 0.02833
# Poissons Ratio (y) = 0.33184 0.30359
# Poissons Ratio (z) = 0.02547 0.38447
#
# Static dielectric constant tensor:
#      x y z
#    x 3.091740 -0.121710 0.263000 
#    y -0.121710 3.276240 0.102460 
#    z 0.263000 0.102460 3.601460 
# 
# 
# High freq. dielectric constant tensor:
#      x y z
#    x 1.654680 -0.013040 0.019360 
#    y -0.013040 1.700660 0.011310 
#    z 0.019360 0.011310 1.692000 
# 
# From -- ./inp_files/518730.got.cif
#   From: 2010.06.25/outbox.cif.g09.slc.cpg/sg2_260_cif.got.tgz:518730.got - 2010.06.27 13:26:56.
