data_PCOD8039067
_publ_section_title
;
Structure prediction by ZEFSAII (Michael W. Deem and Ramdas Pophale) SiO2 
 PCOD8039067
Probable space group: P -1
;
_chemical_formula_sum "Si O2"
_cell_formula_units_Z 16
_cell_length_a 10.304146
_cell_length_b 9.027436
_cell_length_c 11.945030
_cell_angle_alpha 60.646882
_cell_angle_beta 96.216013
_cell_angle_gamma 59.753202
_cell_volume 737.689158
_symmetry_space_group_name_H-M "P -1"
_symmetry_group_IT_number 2
_symmetry_cell_setting 'triclinic'
loop_
_space_group_symop_operation_xyz
x,y,z
-x,-y,-z
loop_
_atom_site_type_symbol
_atom_site_label
_atom_site_fract_x
_atom_site_fract_y
_atom_site_fract_z
Si Si1 0.459601 0.580365 0.279057
Si Si2 0.523288 0.726518 0.437111
Si Si3 0.785096 0.293640 0.291509
Si Si4 0.020983 0.124390 0.184600
Si Si5 0.092442 0.680639 0.364316
Si Si6 0.855949 0.346665 0.863572
Si Si7 0.743958 0.806277 0.696906
Si Si8 0.097921 0.169362 0.501112
O O1 0.436371 0.757275 0.297268
O O2 0.531217 0.364699 0.440262
O O3 0.594640 0.516852 0.218451
O O4 0.280799 0.685262 0.165869
O O5 0.726997 0.560097 0.505658
O O6 0.450716 0.968939 0.383929
O O7 0.838336 0.289752 0.170035
O O8 0.914924 0.277739 0.392151
O O9 0.783045 0.094011 0.385640
O O10 0.138891 0.177712 0.217839
O O11 0.987886 0.166457 0.033630
O O12 0.109158 0.870762 0.317557
O O13 0.038569 0.696783 0.223762
O O14 0.947175 0.724679 0.416780
O O15 0.759772 0.595414 0.808448
O O16 0.803251 0.773862 0.584534
#
# Coordination Sequence:
#
# PCOD8039067 Si02
#       8
#     2   2   2   2   2   2   2   2
#     4  10  18  32  55  83 109 138 181 231 270 314
#     4  10  19  33  57  88 107 136 180 227 287 314
#     4   9  16  31  58  80 105 137 185 234 262 311
#     4  10  21  38  57  78 107 151 192 218 257 324
#     4  10  20  36  61  84 106 137 185 241 264 313
#     4  11  24  34  52  83 116 151 178 213 273 330
#     4  11  21  36  57  81 115 145 175 225 274 338
#     4   9  17  32  56  85 106 137 181 225 284 312
#
# _framework density 21.689352
#
# number of rings (size 3 to 8) (size 9 to 14) (size 15 to 20)
#    0.000    2.000    2.500    3.750    0.000    3.000 
#    0.000    0.000    0.000    0.750    0.000    0.000 
#    0.000    0.000    0.000    0.000    0.000    0.000 
#
# Total GULP energy -198336.745355 kJ/mol
# GULP energy per Si atom -12396.046585 kJ/mol
# Density = 2.163999 g / cm^3
# Si number density = 21.689352 Si / 1000 Ang^3
#
#
#
# Elastic Constant Matrix: (Units=GPa)
#
#
# Indices 1 2 3 4 5 6 
#
# 1 33.9796 28.2438 17.1530 2.9713 4.0920 -15.2836
# 2 28.2438 97.4207 27.3222 6.2335 2.3007 -20.5942
# 3 17.1530 27.3222 84.2105 18.2981 8.8979 -8.3217
# 4 2.9713 6.2335 18.2981 34.3383 4.0088 -3.8495
# 5 4.0920 2.3007 8.8979 4.0088 10.8981 1.9279
# 6 -15.2836 -20.5942 -8.3217 -3.8495 1.9279 37.0719
#
#
#
# Elastic Compliance Matrix: (Units=1/GPa)
#
#
# Indices 1 2 3 4 5 6 
#
# 1 0.047598 -0.009342 -0.004226 0.003377 -0.016289 0.014683
# 2 -0.009342 0.014391 -0.002586 -0.000285 0.002080 0.003425
# 3 -0.004226 -0.002586 0.015927 -0.006649 -0.008451 0.000146
# 4 0.003377 -0.000285 -0.006649 0.033881 -0.008901 0.003722
# 5 -0.016289 0.002080 -0.008451 -0.008901 0.110107 -0.014108
# 6 0.014683 0.003425 0.000146 0.003722 -0.014108 0.036084
#
#
# Mechanical properties :
#
#
# Convention : Reuss Voigt Hill
#
# Bulk Modulus (GPa) = 21.92536 40.11655 31.02095
# Shear Modulus (GPa) = 16.36672 25.98777 21.17724
#
# Velocity S-wave (km/s) = 2.74997 3.46523 3.12811
# Velocity P-wave (km/s) = 4.49599 5.87763 5.23261
#
# Compressibility (1/GPa) = 0.04560929
#
# Stress axis : x y z
#
# Youngs Moduli (GPa) = 21.00925 69.48547 62.78682
#
# Poissons Ratio (x) = 0.64912 0.26534
# Poissons Ratio (y) = 0.19626 0.16236
# Poissons Ratio (z) = 0.08879 0.17968
#
# Static dielectric constant tensor:
#      x y z
#    x 3.540680 -0.151230 -0.104800 
#    y -0.151230 4.216940 0.333180 
#    z -0.104800 0.333180 3.591450 
# 
# 
# High freq. dielectric constant tensor:
#      x y z
#    x 1.824050 -0.010710 0.001570 
#    y -0.010710 1.874110 0.020920 
#    z 0.001570 0.020920 1.811650 
# 
# From -- ./inp_files/404689.got.cif
#   From: 2010.06.25/outbox.cif.g09.slc.cpg/sg2_203_cif.got.tgz:404689.got - 2010.06.27 13:26:56.
