data_PCOD8039892
_publ_section_title
;
Structure prediction by ZEFSAII (Michael W. Deem and Ramdas Pophale) SiO2 
 PCOD8039892
Probable space group: P -1
;
_chemical_formula_sum "Si O2"
_cell_formula_units_Z 16
_cell_length_a 8.912570
_cell_length_b 8.384916
_cell_length_c 17.604867
_cell_angle_alpha 121.616731
_cell_angle_beta 130.998659
_cell_angle_gamma 51.433484
_cell_volume 761.416206
_symmetry_space_group_name_H-M "P -1"
_symmetry_group_IT_number 2
_symmetry_cell_setting 'triclinic'
loop_
_space_group_symop_operation_xyz
x,y,z
-x,-y,-z
loop_
_atom_site_type_symbol
_atom_site_label
_atom_site_fract_x
_atom_site_fract_y
_atom_site_fract_z
Si Si1 0.416039 0.008528 0.742206
Si Si2 0.975349 0.097301 0.420894
Si Si3 0.320424 0.072274 0.894608
Si Si4 0.113520 0.773693 0.743496
Si Si5 0.755880 0.331062 0.549517
Si Si6 0.166709 0.334273 0.260083
Si Si7 0.530109 0.596846 0.152440
Si Si8 0.812006 0.473084 0.063564
O O1 0.457171 0.998755 0.843512
O O2 0.463421 0.191179 0.766048
O O3 0.172385 0.030906 0.653774
O O4 0.574414 0.798556 0.699621
O O5 0.961763 0.211398 0.365434
O O6 0.888998 0.281035 0.500768
O O7 0.214541 0.896484 0.464626
O O8 0.184246 0.319526 0.916048
O O9 0.145339 0.978217 0.825779
O O10 0.500000 0.000000 0.000000
O O11 0.350102 0.573372 0.784503
O O12 0.920767 0.768772 0.729562
O O13 0.500000 0.500000 0.500000
O O14 0.875230 0.434617 0.670069
O O15 0.056604 0.329227 0.140188
O O16 0.665141 0.515093 0.100189
O O17 0.279739 0.628244 0.058374
#
# Coordination Sequence:
#
# PCOD8039892 Si02
#       8
#     2   2   2   2   2   2   2   2
#     4  10  21  37  58  86 121 163 203 242 307 374
#     4  10  22  42  68  91 118 159 204 251 310 370
#     4  10  18  35  58  80 114 165 206 243 295 358
#     4  10  20  37  60  90 122 154 199 257 303 351
#     4  11  22  43  70  89 117 162 206 249 312 376
#     4  11  22  38  58  90 124 156 205 259 300 363
#     4   9  17  33  56  82 118 162 197 237 296 361
#     4   9  18  33  56  81 115 162 202 234 298 361
#
# _framework density 21.013476000000001
#
# number of rings (size 3 to 8) (size 9 to 14) (size 15 to 20)
#    0.000    2.000    2.500    3.000    1.750    1.000 
#    2.250    2.500    0.000    0.000    0.000    0.000 
#    0.000    0.000    0.000    0.000    0.000    0.000 
#
# Total GULP energy -198255.827622 kJ/mol
# GULP energy per Si atom -12390.989226 kJ/mol
# Density = 2.096565 g / cm^3
# Si number density = 21.013476 Si / 1000 Ang^3
#
#
#
# Elastic Constant Matrix: (Units=GPa)
#
#
# Indices 1 2 3 4 5 6 
#
# 1 46.9866 31.5941 4.1023 -3.1514 2.1776 6.6069
# 2 31.5941 105.7651 20.2718 -5.2380 -3.8487 3.8196
# 3 4.1023 20.2718 55.5208 -9.4668 -5.2396 0.5148
# 4 -3.1514 -5.2380 -9.4668 42.0888 8.3813 -1.1951
# 5 2.1776 -3.8487 -5.2396 8.3813 23.4350 -3.3877
# 6 6.6069 3.8196 0.5148 -1.1951 -3.3877 33.6681
#
#
#
# Elastic Compliance Matrix: (Units=1/GPa)
#
#
# Indices 1 2 3 4 5 6 
#
# 1 0.027967 -0.008437 0.000932 0.002161 -0.005272 -0.004999
# 2 -0.008437 0.012767 -0.003893 -0.000343 0.002202 0.000476
# 3 0.000932 -0.003893 0.020221 0.003637 0.002543 0.000335
# 4 0.002161 -0.000343 0.003637 0.026471 -0.008970 -0.000404
# 5 -0.005272 0.002202 0.002543 -0.008970 0.048060 0.005263
# 6 -0.004999 0.000476 0.000335 -0.000404 0.005263 0.031139
#
#
# Mechanical properties :
#
#
# Convention : Reuss Voigt Hill
#
# Bulk Modulus (GPa) = 26.20741 35.57878 30.89309
# Shear Modulus (GPa) = 24.73516 29.99202 27.36359
#
# Velocity S-wave (km/s) = 3.43462 3.78203 3.61251
# Velocity P-wave (km/s) = 5.31297 6.00332 5.66866
#
# Compressibility (1/GPa) = 0.03815715
#
# Stress axis : x y z
#
# Youngs Moduli (GPa) = 35.75692 78.32464 49.45371
#
# Poissons Ratio (x) = 0.66082 -0.04607
# Poissons Ratio (y) = 0.30168 0.19254
# Poissons Ratio (z) = -0.03331 0.30495
#
# Static dielectric constant tensor:
#      x y z
#    x 1.901800 -0.797650 0.105130 
#    y -0.797650 3.284380 -0.037600 
#    z 0.105130 -0.037600 4.193560 
# 
# 
# High freq. dielectric constant tensor:
#      x y z
#    x 1.783900 0.014000 0.005170 
#    y 0.014000 1.823340 -0.006500 
#    z 0.005170 -0.006500 1.837850 
# 
# From -- ./inp_files/329660.got.cif
#   From: 2010.06.25/outbox.cif.g09.slc.cpg/sg2_165_cif.got.tgz:329660.got - 2010.06.27 13:26:56.
