data_PCOD8039515
_publ_section_title
;
Structure prediction by ZEFSAII (Michael W. Deem and Ramdas Pophale) SiO2 
 PCOD8039515
Probable space group: P -1
;
_chemical_formula_sum "Si O2"
_cell_formula_units_Z 16
_cell_length_a 8.823134
_cell_length_b 10.734804
_cell_length_c 16.454685
_cell_angle_alpha 82.498076
_cell_angle_beta 113.774512
_cell_angle_gamma 139.016340
_cell_volume 895.331061
_symmetry_space_group_name_H-M "P -1"
_symmetry_group_IT_number 2
_symmetry_cell_setting 'triclinic'
loop_
_space_group_symop_operation_xyz
x,y,z
-x,-y,-z
loop_
_atom_site_type_symbol
_atom_site_label
_atom_site_fract_x
_atom_site_fract_y
_atom_site_fract_z
Si Si1 0.268342 0.387787 0.216816
Si Si2 0.135666 0.550833 0.609012
Si Si3 0.892057 0.304082 0.256958
Si Si4 0.048370 0.382343 0.008591
Si Si5 0.840391 0.525574 0.145476
Si Si6 0.832873 0.680698 0.278567
Si Si7 0.729282 0.899724 0.740131
Si Si8 0.665970 0.074392 0.833087
O O1 0.162164 0.386863 0.112085
O O2 0.579676 0.595464 0.273004
O O3 0.192974 0.197421 0.216758
O O4 0.139054 0.375709 0.268805
O O5 0.033403 0.593270 0.648697
O O6 0.051661 0.361952 0.635862
O O7 0.448331 0.742699 0.648737
O O8 0.000000 0.500000 0.500000
O O9 0.782845 0.347698 0.168775
O O10 0.638045 0.063534 0.227910
O O11 0.248766 0.490602 0.964557
O O12 0.000000 0.500000 0.000000
O O13 0.777350 0.152220 0.943158
O O14 0.715039 0.546298 0.182456
O O15 0.159979 0.729766 0.202333
O O16 0.054473 0.913624 0.289199
O O17 0.711037 0.959803 0.817597
#
# Coordination Sequence:
#
# PCOD8039515 Si02
#       8
#     2   2   2   2   2   2   2   2
#     4  11  21  31  50  80 107 142 172 214 262 300
#     4   9  19  37  64  82  94 129 178 216 255 321
#     4  10  18  34  55  75 107 134 170 220 268 299
#     4  10  19  34  50  76 106 136 195 221 240 291
#     4   8  17  35  50  68 100 141 178 216 248 291
#     4   9  19  37  53  73 110 140 163 213 266 310
#     4   9  19  37  52  76 110 139 169 207 266 315
#     4   8  18  34  50  69 100 143 179 217 247 295
#
# _framework density 17.870486
#
# number of rings (size 3 to 8) (size 9 to 14) (size 15 to 20)
#    0.750    2.000    1.250    0.750    0.000    4.000 
#    2.250    2.500    0.000    1.500    0.000    0.000 
#    0.000    0.000    0.000    0.000    0.000    0.000 
#
# Total GULP energy -198216.500448 kJ/mol
# GULP energy per Si atom -12388.531278 kJ/mol
# Density = 1.782981 g / cm^3
# Si number density = 17.870486 Si / 1000 Ang^3
#
#
#
# Elastic Constant Matrix: (Units=GPa)
#
#
# Indices 1 2 3 4 5 6 
#
# 1 107.2030 43.3991 47.8724 -2.7180 -4.3151 8.8031
# 2 43.3991 101.7399 32.3287 -5.9701 4.8109 -0.3016
# 3 47.8724 32.3287 121.8424 -5.5295 -0.2341 -7.5330
# 4 -2.7180 -5.9701 -5.5295 20.2349 0.0884 -2.0882
# 5 -4.3151 4.8109 -0.2341 0.0884 17.4579 -5.2130
# 6 8.8031 -0.3016 -7.5330 -2.0882 -5.2130 27.8585
#
#
#
# Elastic Compliance Matrix: (Units=1/GPa)
#
#
# Indices 1 2 3 4 5 6 
#
# 1 0.013757 -0.004665 -0.004539 -0.001313 0.003096 -0.005144
# 2 -0.004665 0.012630 -0.001361 0.002811 -0.004482 0.000615
# 3 -0.004539 -0.001361 0.010750 0.002403 0.000774 0.004652
# 4 -0.001313 0.002811 0.002403 0.051241 0.000156 0.004965
# 5 0.003096 -0.004482 0.000774 0.000156 0.062545 0.010898
# 6 -0.005144 0.000615 0.004652 0.004965 0.010898 0.041197
#
#
# Mechanical properties :
#
#
# Convention : Reuss Voigt Hill
#
# Bulk Modulus (GPa) = 62.47391 64.22063 63.34727
# Shear Modulus (GPa) = 22.87421 26.92260 24.89841
#
# Velocity S-wave (km/s) = 3.58159 3.88563 3.73670
# Velocity P-wave (km/s) = 7.22072 7.49303 7.35814
#
# Compressibility (1/GPa) = 0.01600668
#
# Stress axis : x y z
#
# Youngs Moduli (GPa) = 72.68841 79.17561 93.02159
#
# Poissons Ratio (x) = 0.36933 0.42226
# Poissons Ratio (y) = 0.33907 0.12664
# Poissons Ratio (z) = 0.32996 0.10779
#
# Static dielectric constant tensor:
#      x y z
#    x 3.328190 0.045250 -0.150620 
#    y 0.045250 3.490770 -0.122080 
#    z -0.150620 -0.122080 2.998060 
# 
# 
# High freq. dielectric constant tensor:
#      x y z
#    x 1.684060 0.001310 -0.017110 
#    y 0.001310 1.700670 -0.010080 
#    z -0.017110 -0.010080 1.653560 
# 
# From -- ./inp_files/285544.got.cif
#   From: 2010.06.25/outbox.cif.g09.slc.cpg/sg2_143_cif.got.tgz:285544.got - 2010.06.27 13:26:56.
