data_PCOD8039673
_publ_section_title
;
Structure prediction by ZEFSAII (Michael W. Deem and Ramdas Pophale) SiO2 
 PCOD8039673
Probable space group: P -1
;
_chemical_formula_sum "Si O2"
_cell_formula_units_Z 16
_cell_length_a 9.414685
_cell_length_b 21.815905
_cell_length_c 21.149338
_cell_angle_alpha 161.872556
_cell_angle_beta 140.729967
_cell_angle_gamma 38.213815
_cell_volume 827.489132
_symmetry_space_group_name_H-M "P -1"
_symmetry_group_IT_number 2
_symmetry_cell_setting 'triclinic'
loop_
_space_group_symop_operation_xyz
x,y,z
-x,-y,-z
loop_
_atom_site_type_symbol
_atom_site_label
_atom_site_fract_x
_atom_site_fract_y
_atom_site_fract_z
Si Si1 0.551266 0.158026 0.525544
Si Si2 0.617816 0.905948 0.181535
Si Si3 0.893468 0.853154 0.569850
Si Si4 0.841202 0.912105 0.036488
Si Si5 0.296715 0.466086 0.353149
Si Si6 0.958448 0.916223 0.512905
Si Si7 0.531413 0.092262 0.003187
Si Si8 0.795661 0.461045 0.849144
O O1 0.325735 0.220403 0.552975
O O2 0.630393 0.362171 0.738529
O O3 0.492110 0.053198 0.338278
O O4 0.755294 0.991963 0.466864
O O5 0.874848 0.931573 0.281908
O O6 0.457999 0.973399 0.130475
O O7 0.637823 0.670839 0.973272
O O8 0.127173 0.674691 0.477853
O O9 0.845904 0.922620 0.549394
O O10 0.925330 0.040540 0.808699
O O11 0.783182 0.019030 0.052221
O O12 0.857873 0.670535 0.799250
O O13 0.637336 0.013212 0.116555
O O14 0.500000 0.500000 0.500000
O O15 0.425904 0.338124 0.211742
O O16 0.098595 0.688784 0.319107
O O17 0.000000 0.500000 0.000000
#
# Coordination Sequence:
#
# PCOD8039673 Si02
#       8
#     2   2   2   2   2   2   2   2
#     4  11  25  38  56  86 124 157 185 241 293 344
#     4  11  20  39  62  83 114 151 203 235 281 347
#     4  12  22  38  58  90 122 149 190 240 303 339
#     4   9  19  35  57  88 115 142 184 249 289 327
#     4  10  18  34  59  87 118 145 189 243 282 341
#     4  11  21  38  62  86 110 158 197 240 279 343
#     4   9  17  35  61  88 104 148 196 241 279 330
#     4  11  20  40  62  80 116 157 200 237 278 340
#
# _framework density 19.335602999999999
#
# number of rings (size 3 to 8) (size 9 to 14) (size 15 to 20)
#    0.750    0.750    5.000    1.875    0.000    1.000 
#    0.000    1.250    0.000    1.500    0.000    0.000 
#    0.000    0.000    0.000    0.000    0.000    0.000 
#
# Total GULP energy -198327.576548 kJ/mol
# GULP energy per Si atom -12395.473534 kJ/mol
# Density = 1.929159 g / cm^3
# Si number density = 19.335603 Si / 1000 Ang^3
#
#
#
# Elastic Constant Matrix: (Units=GPa)
#
#
# Indices 1 2 3 4 5 6 
#
# 1 96.0326 24.9565 32.6295 -11.7086 7.9214 16.4426
# 2 24.9565 51.2772 22.5768 -5.6726 -2.7176 28.7604
# 3 32.6295 22.5768 109.0285 -2.8937 10.7482 10.1226
# 4 -11.7086 -5.6726 -2.8937 30.7411 3.8251 -2.7446
# 5 7.9214 -2.7176 10.7482 3.8251 23.0508 -5.4870
# 6 16.4426 28.7604 10.1226 -2.7446 -5.4870 27.8053
#
#
#
# Elastic Compliance Matrix: (Units=1/GPa)
#
#
# Indices 1 2 3 4 5 6 
#
# 1 0.013906 -0.002288 -0.002430 0.004894 -0.006082 -0.005689
# 2 -0.002288 0.051005 -0.004782 0.004070 -0.003539 -0.049960
# 3 -0.002430 -0.004782 0.011215 -0.000054 -0.004620 0.001383
# 4 0.004894 0.004070 -0.000054 0.035713 -0.008342 -0.005206
# 5 -0.006082 -0.003539 -0.004620 -0.008342 0.053015 0.018577
# 6 -0.005689 -0.049960 0.001383 -0.005206 0.018577 0.093653
#
#
# Mechanical properties :
#
#
# Convention : Reuss Voigt Hill
#
# Bulk Modulus (GPa) = 17.50521 46.29600 31.90061
# Shear Modulus (GPa) = 16.86060 28.06448 22.46254
#
# Velocity S-wave (km/s) = 2.95616 3.81391 3.41210
# Velocity P-wave (km/s) = 4.55246 6.58710 5.66193
#
# Compressibility (1/GPa) = 0.05712584
#
# Stress axis : x y z
#
# Youngs Moduli (GPa) = 71.91186 19.60593 89.16685
#
# Poissons Ratio (x) = 0.04486 0.21670
# Poissons Ratio (y) = 0.16454 0.42636
# Poissons Ratio (z) = 0.17477 0.09375
#
# Static dielectric constant tensor:
#      x y z
#    x 3.225160 0.201950 0.058450 
#    y 0.201950 3.460450 -0.080630 
#    z 0.058450 -0.080630 3.695330 
# 
# 
# High freq. dielectric constant tensor:
#      x y z
#    x 1.717430 0.022640 0.003590 
#    y 0.022640 1.745630 -0.008100 
#    z 0.003590 -0.008100 1.761190 
# 
# From -- ./inp_files/591809.got.cif
#   From: 2010.06.25/outbox.cif.g09.slc.cpg/sg2_296_cif.got.tgz:591809.got - 2010.06.27 13:26:56.
