data_PCOD8039569
_publ_section_title
;
Structure prediction by ZEFSAII (Michael W. Deem and Ramdas Pophale) SiO2 
 PCOD8039569
Probable space group: P -1
;
_chemical_formula_sum "Si O2"
_cell_formula_units_Z 14
_cell_length_a 12.334829
_cell_length_b 14.174631
_cell_length_c 23.255850
_cell_angle_alpha 156.956077
_cell_angle_beta 29.244430
_cell_angle_gamma 138.594997
_cell_volume 747.260271
_symmetry_space_group_name_H-M "P -1"
_symmetry_group_IT_number 2
_symmetry_cell_setting 'triclinic'
loop_
_space_group_symop_operation_xyz
x,y,z
-x,-y,-z
loop_
_atom_site_type_symbol
_atom_site_label
_atom_site_fract_x
_atom_site_fract_y
_atom_site_fract_z
Si Si1 0.409231 0.764606 0.117218
Si Si2 0.032615 0.911133 0.556346
Si Si3 0.164265 0.371345 0.231530
Si Si4 0.637032 0.604196 0.725405
Si Si5 0.159006 0.886624 0.708966
Si Si6 0.515211 0.808590 0.222428
Si Si7 0.838212 0.036566 0.837329
O O1 0.482432 0.841937 0.188404
O O2 0.598977 0.793063 0.998876
O O3 0.389946 0.481864 0.967172
O O4 0.164494 0.954265 0.321464
O O5 0.047574 0.615114 0.383947
O O6 0.276489 0.942402 0.439935
O O7 0.982584 0.034721 0.711586
O O8 0.211534 0.465793 0.326145
O O9 0.994436 0.195177 0.216612
O O10 0.663374 0.356536 0.537076
O O11 0.730618 0.800598 0.755154
O O12 0.369003 0.709377 0.923823
O O13 0.293344 0.060438 0.773971
O O14 0.995719 0.044527 0.823757
#
# Coordination Sequence:
#
# PCOD8039569 Si02
#       7
#     2   2   2   2   2   2   2
#     4  10  22  43  59  78 107 156 203 222 268 340
#     4  11  19  38  62  82 107 153 191 226 274 338
#     4  10  19  35  64  85 110 146 187 233 278 331
#     4  10  18  34  56  90 117 144 181 226 281 343
#     4  11  21  37  56  90 121 140 178 238 288 328
#     4  10  25  40  57  79 116 154 186 234 280 326
#     4  10  19  32  60  87 115 149 179 223 286 339
#
# _framework density 18.735105999999998
#
# number of rings (size 3 to 8) (size 9 to 14) (size 15 to 20)
#    0.000    1.714    4.286    1.286    0.000    2.286 
#    0.000    2.143    0.000    0.000    0.000    0.000 
#    0.000    0.000    0.000    0.000    0.000    0.000 
#
# Total GULP energy -173665.777102 kJ/mol
# GULP energy per Si atom -12404.698364 kJ/mol
# Density = 1.869246 g / cm^3
# Si number density = 18.735106 Si / 1000 Ang^3
#
#
#
# Elastic Constant Matrix: (Units=GPa)
#
#
# Indices 1 2 3 4 5 6 
#
# 1 84.1119 57.1377 34.3922 8.0447 -3.7587 14.7936
# 2 57.1377 103.9844 35.1742 -9.5942 14.3964 17.0614
# 3 34.3922 35.1742 79.6007 1.6420 -17.0664 15.6364
# 4 8.0447 -9.5942 1.6420 17.3231 2.1510 2.8751
# 5 -3.7587 14.3964 -17.0664 2.1510 28.3109 -0.2993
# 6 14.7936 17.0614 15.6364 2.8751 -0.2993 31.5349
#
#
#
# Elastic Compliance Matrix: (Units=1/GPa)
#
#
# Indices 1 2 3 4 5 6 
#
# 1 0.029724 -0.021844 0.001240 -0.028249 0.017948 0.000006
# 2 -0.021844 0.033688 -0.011365 0.034508 -0.029565 -0.005770
# 3 0.001240 -0.011365 0.022483 -0.010787 0.020270 -0.004405
# 4 -0.028249 0.034508 -0.010787 0.096891 -0.035260 -0.009238
# 5 0.017948 -0.029565 0.020270 -0.035260 0.067652 0.001382
# 6 0.000006 -0.005770 -0.004405 -0.009238 0.001382 0.037870
#
#
# Mechanical properties :
#
#
# Convention : Reuss Voigt Hill
#
# Bulk Modulus (GPa) = 45.54695 57.90058 51.72376
# Shear Modulus (GPa) = 13.90568 24.83330 19.36949
#
# Velocity S-wave (km/s) = 2.72734 3.64469 3.21886
# Velocity P-wave (km/s) = 5.85505 6.97736 6.44070
#
# Compressibility (1/GPa) = 0.02195537
#
# Stress axis : x y z
#
# Youngs Moduli (GPa) = 33.64311 29.68388 44.47832
#
# Poissons Ratio (x) = 0.64842 -0.05515
# Poissons Ratio (y) = 0.73491 0.50551
# Poissons Ratio (z) = -0.04171 0.33737
#
# Static dielectric constant tensor:
#      x y z
#    x 3.279540 -0.233920 -0.123530 
#    y -0.233920 3.338490 -0.200800 
#    z -0.123530 -0.200800 3.539940 
# 
# 
# High freq. dielectric constant tensor:
#      x y z
#    x 1.717140 -0.019450 -0.011610 
#    y -0.019450 1.715070 -0.019520 
#    z -0.011610 -0.019520 1.738610 
# 
# From -- ./inp_files/251365.got.cif
#   From: 2010.06.25/outbox.cif.g09.slc.cpg/sg2_126_cif.got.tgz:251365.got - 2010.06.27 13:26:56.
