data_PCOD8039547
_publ_section_title
;
Structure prediction by ZEFSAII (Michael W. Deem and Ramdas Pophale) SiO2 
 PCOD8039547
Probable space group: P -1
;
_chemical_formula_sum "Si O2"
_cell_formula_units_Z 16
_cell_length_a 24.307503
_cell_length_b 18.266101
_cell_length_c 12.881462
_cell_angle_alpha 149.899433
_cell_angle_beta 159.642548
_cell_angle_gamma 28.232000
_cell_volume 914.183575
_symmetry_space_group_name_H-M "P -1"
_symmetry_group_IT_number 2
_symmetry_cell_setting 'triclinic'
loop_
_space_group_symop_operation_xyz
x,y,z
-x,-y,-z
loop_
_atom_site_type_symbol
_atom_site_label
_atom_site_fract_x
_atom_site_fract_y
_atom_site_fract_z
Si Si1 0.031915 0.699629 0.881342
Si Si2 0.598159 0.376904 0.607851
Si Si3 0.040694 0.371530 0.561984
Si Si4 0.612099 0.821980 0.948007
Si Si5 0.493828 0.193048 0.480694
Si Si6 0.456881 0.244327 0.700588
Si Si7 0.340471 0.567972 0.992509
Si Si8 0.291913 0.057539 0.308651
O O1 0.060145 0.539381 0.798342
O O2 0.947555 0.696705 0.616877
O O3 0.911406 0.854968 0.923745
O O4 0.207479 0.724858 0.210980
O O5 0.500000 0.500000 0.500000
O O6 0.498723 0.265831 0.309270
O O7 0.604806 0.471129 0.839181
O O8 0.862788 0.392563 0.330415
O O9 0.195775 0.245334 0.748692
O O10 0.626648 0.799961 0.821567
O O11 0.500000 0.000000 0.000000
O O12 0.379271 0.268925 0.475086
O O13 0.613833 0.007706 0.493409
O O14 0.620835 0.283211 0.794754
O O15 0.459173 0.410297 0.945383
O O16 0.345449 0.192939 0.521331
O O17 0.650582 0.098521 0.857567
#
# Coordination Sequence:
#
# PCOD8039547 Si02
#       8
#     2   2   2   2   2   2   2   2
#     4  10  18  34  56  81 106 137 185 226 250 318
#     4  10  21  35  54  83 107 144 176 217 272 319
#     4  10  20  31  56  82 106 142 179 215 272 314
#     4  11  22  36  52  81 117 141 170 220 282 323
#     4   9  20  34  54  81 108 140 178 220 272 309
#     4   9  18  34  56  80 102 144 186 219 259 313
#     4  10  19  34  57  81 109 138 184 221 259 323
#     4   9  18  32  56  80 103 135 187 220 261 305
#
# _framework density 17.501954000000001
#
# number of rings (size 3 to 8) (size 9 to 14) (size 15 to 20)
#    0.750    1.500    2.500    1.125    0.000    2.000 
#    0.000    4.375    0.000    0.750    0.000    0.000 
#    0.000    0.000    0.000    0.000    0.000    0.000 
#
# Total GULP energy -198234.703907 kJ/mol
# GULP energy per Si atom -12389.668994 kJ/mol
# Density = 1.746212 g / cm^3
# Si number density = 17.501954 Si / 1000 Ang^3
#
#
#
# Elastic Constant Matrix: (Units=GPa)
#
#
# Indices 1 2 3 4 5 6 
#
# 1 94.3267 50.4233 35.5072 -6.2989 -7.2512 8.5274
# 2 50.4233 94.7746 42.7367 -12.4464 -13.7774 -7.7162
# 3 35.5072 42.7367 77.0335 -11.0505 -5.4552 4.5915
# 4 -6.2989 -12.4464 -11.0505 22.8777 0.6288 -3.2406
# 5 -7.2512 -13.7774 -5.4552 0.6288 17.2312 -1.9697
# 6 8.5274 -7.7162 4.5915 -3.2406 -1.9697 38.6965
#
#
#
# Elastic Compliance Matrix: (Units=1/GPa)
#
#
# Indices 1 2 3 4 5 6 
#
# 1 0.016366 -0.008173 -0.003090 -0.002125 -0.001132 -0.005105
# 2 -0.008173 0.021200 -0.006629 0.006884 0.012077 0.008006
# 3 -0.003090 -0.006629 0.018771 0.004277 -0.001107 -0.002566
# 4 -0.002125 0.006884 0.004277 0.049616 0.004808 0.005733
# 5 -0.001132 0.012077 -0.001107 0.004808 0.067446 0.006625
# 6 -0.005105 0.008006 -0.002566 0.005733 0.006625 0.029686
#
#
# Mechanical properties :
#
#
# Convention : Reuss Voigt Hill
#
# Bulk Modulus (GPa) = 48.65295 58.16324 53.40810
# Shear Modulus (GPa) = 20.34824 24.92558 22.63691
#
# Velocity S-wave (km/s) = 3.41343 3.77790 3.60028
# Velocity P-wave (km/s) = 6.58743 7.23426 6.91841
#
# Compressibility (1/GPa) = 0.02055374
#
# Stress axis : x y z
#
# Youngs Moduli (GPa) = 61.10071 47.16874 53.27299
#
# Poissons Ratio (x) = 0.38553 0.16462
# Poissons Ratio (y) = 0.49940 0.35313
# Poissons Ratio (z) = 0.18881 0.31267
#
# Static dielectric constant tensor:
#      x y z
#    x 3.378210 0.192820 -0.070660 
#    y 0.192820 2.724530 0.187060 
#    z -0.070660 0.187060 2.956700 
# 
# 
# High freq. dielectric constant tensor:
#      x y z
#    x 1.688210 0.007020 0.004940 
#    y 0.007020 1.677600 0.007020 
#    z 0.004940 0.007020 1.644390 
# 
# From -- ./inp_files/186794.got.cif
#   From: 2010.06.25/outbox.cif.g09.slc.cpg/sg2_94_cif.got.tgz:186794.got - 2010.06.27 13:26:56.
