data_PCOD8039012
_publ_section_title
;
Structure prediction by ZEFSAII (Michael W. Deem and Ramdas Pophale) SiO2 
 PCOD8039012
Probable space group: P -1
;
_chemical_formula_sum "Si O2"
_cell_formula_units_Z 16
_cell_length_a 8.929432
_cell_length_b 15.968552
_cell_length_c 21.165637
_cell_angle_alpha 141.809075
_cell_angle_beta 28.765531
_cell_angle_gamma 143.693540
_cell_volume 825.755620
_symmetry_space_group_name_H-M "P -1"
_symmetry_group_IT_number 2
_symmetry_cell_setting 'triclinic'
loop_
_space_group_symop_operation_xyz
x,y,z
-x,-y,-z
loop_
_atom_site_type_symbol
_atom_site_label
_atom_site_fract_x
_atom_site_fract_y
_atom_site_fract_z
Si Si1 0.649711 0.400745 0.209563
Si Si2 0.250266 0.916092 0.219562
Si Si3 0.810250 0.676982 0.791442
Si Si4 0.667541 0.096131 0.055728
Si Si5 0.721725 0.916364 0.501773
Si Si6 0.254331 0.005525 0.801617
Si Si7 0.284666 0.580606 0.493413
Si Si8 0.188035 0.600760 0.046601
O O1 0.417512 0.360064 0.209183
O O2 0.679432 0.258989 0.144181
O O3 0.489999 0.475695 0.365666
O O4 0.025326 0.521563 0.125362
O O5 0.130263 0.749313 0.142182
O O6 0.917891 0.949159 0.381240
O O7 0.454160 0.027413 0.156260
O O8 0.470254 0.922576 0.204099
O O9 0.990379 0.851643 0.834391
O O10 0.087550 0.602704 0.641728
O O11 0.583998 0.625125 0.907840
O O12 0.500000 0.000000 0.000000
O O13 0.053278 0.109570 0.924776
O O14 0.427749 0.980030 0.656906
O O15 0.552238 0.740072 0.467497
O O16 0.000000 0.000000 0.500000
O O17 0.000000 0.500000 0.500000
O O18 0.000000 0.500000 0.000000
#
# Coordination Sequence:
#
# PCOD8039012 Si02
#       8
#     2   2   2   2   2   2   2   2
#     4  10  19  33  53  80 117 147 178 238 297 331
#     4  11  21  37  63  84 109 156 203 231 278 356
#     4   9  17  32  56  81 108 143 195 233 270 341
#     4  12  22  37  55  87 125 151 182 243 301 341
#     4   9  19  36  61  85 110 148 206 242 273 340
#     4  10  20  37  61  85 111 151 201 232 280 348
#     4   9  17  31  55  83 109 146 193 237 286 335
#     4  10  18  32  52  83 108 144 193 231 274 339
#
# _framework density 19.376194000000002
#
# number of rings (size 3 to 8) (size 9 to 14) (size 15 to 20)
#    0.000    2.000    3.750    1.125    0.000    0.000 
#    0.000    2.500    0.000    6.750    0.000    0.000 
#    0.000    0.000    0.000    0.000    0.000    0.000 
#
# Total GULP energy -198220.872339 kJ/mol
# GULP energy per Si atom -12388.804521 kJ/mol
# Density = 1.933209 g / cm^3
# Si number density = 19.376194 Si / 1000 Ang^3
#
#
#
# Elastic Constant Matrix: (Units=GPa)
#
#
# Indices 1 2 3 4 5 6 
#
# 1 35.2003 18.2321 29.8590 0.9157 -4.6263 -3.5360
# 2 18.2321 107.7786 74.4209 3.6496 -11.4041 -8.4435
# 3 29.8590 74.4209 205.2887 -5.2592 -9.0725 -26.7378
# 4 0.9157 3.6496 -5.2592 37.0489 -1.4736 -2.5685
# 5 -4.6263 -11.4041 -9.0725 -1.4736 18.8739 1.3129
# 6 -3.5360 -8.4435 -26.7378 -2.5685 1.3129 29.7620
#
#
#
# Elastic Compliance Matrix: (Units=1/GPa)
#
#
# Indices 1 2 3 4 5 6 
#
# 1 0.033587 -0.002521 -0.003845 -0.000969 0.004818 -0.000475
# 2 -0.002521 0.013263 -0.004363 -0.001714 0.005223 -0.000835
# 3 -0.003845 -0.004363 0.007772 0.002004 -0.000066 0.005464
# 4 -0.000969 -0.001714 0.002004 0.027777 0.001614 0.003525
# 5 0.004818 0.005223 -0.000066 0.001614 0.057442 -0.000400
# 6 -0.000475 -0.000835 0.005464 0.003525 -0.000400 0.038537
#
#
# Mechanical properties :
#
#
# Convention : Reuss Voigt Hill
#
# Bulk Modulus (GPa) = 30.15394 65.92129 48.03761
# Shear Modulus (GPa) = 23.70891 32.18733 27.94812
#
# Velocity S-wave (km/s) = 3.50181 4.08018 3.80201
# Velocity P-wave (km/s) = 5.65211 7.50285 6.64226
#
# Compressibility (1/GPa) = 0.03316316
#
# Stress axis : x y z
#
# Youngs Moduli (GPa) = 29.77341 75.39918 128.66436
#
# Poissons Ratio (x) = 0.19011 0.49471
# Poissons Ratio (y) = 0.07507 0.56138
# Poissons Ratio (z) = 0.11448 0.32897
#
# Static dielectric constant tensor:
#      x y z
#    x 3.058740 0.301350 0.056200 
#    y 0.301350 3.838080 -0.347450 
#    z 0.056200 -0.347450 4.697190 
# 
# 
# High freq. dielectric constant tensor:
#      x y z
#    x 1.690180 0.036220 0.009650 
#    y 0.036220 1.758200 -0.005380 
#    z 0.009650 -0.005380 1.792730 
# 
# From -- ./inp_files/227579.got.cif
#   From: 2010.06.25/outbox.cif.g09.slc.cpg/sg2_114_cif.got.tgz:227579.got - 2010.06.27 13:26:56.
