data_PCOD8039833
_publ_section_title
;
Structure prediction by ZEFSAII (Michael W. Deem and Ramdas Pophale) SiO2 
 PCOD8039833
Probable space group: P -1
;
_chemical_formula_sum "Si O2"
_cell_formula_units_Z 14
_cell_length_a 9.508180
_cell_length_b 11.265328
_cell_length_c 9.969009
_cell_angle_alpha 63.725406
_cell_angle_beta 125.662650
_cell_angle_gamma 84.362988
_cell_volume 678.531467
_symmetry_space_group_name_H-M "P -1"
_symmetry_group_IT_number 2
_symmetry_cell_setting 'triclinic'
loop_
_space_group_symop_operation_xyz
x,y,z
-x,-y,-z
loop_
_atom_site_type_symbol
_atom_site_label
_atom_site_fract_x
_atom_site_fract_y
_atom_site_fract_z
Si Si1 0.554883 0.246155 0.876063
Si Si2 0.126174 0.698615 0.875718
Si Si3 0.294951 0.827952 0.278638
Si Si4 0.917937 0.834815 0.950322
Si Si5 0.107608 0.633049 0.611480
Si Si6 0.802843 0.704874 0.186969
Si Si7 0.480837 0.560107 0.708128
O O1 0.760364 0.202160 0.091724
O O2 0.599546 0.155600 0.805871
O O3 0.414747 0.209648 0.909494
O O4 0.448615 0.426988 0.687711
O O5 0.293446 0.518554 0.070466
O O6 0.026555 0.722910 0.662097
O O7 0.957295 0.750370 0.870646
O O8 0.453356 0.691580 0.525612
O O9 0.204663 0.984378 0.232122
O O10 0.126902 0.786033 0.162976
O O11 0.792434 0.784343 0.000201
O O12 0.125885 0.469116 0.717085
O O13 0.317181 0.628015 0.701790
O O14 0.952385 0.724577 0.361540
#
# Coordination Sequence:
#
# PCOD8039833 Si02
#       7
#     2   2   2   2   2   2   2
#     4   8  19  32  58  84 105 135 183 227 263 313
#     4   9  20  35  57  83 107 137 187 216 272 312
#     4  10  18  35  56  78 111 146 184 211 265 325
#     4  10  21  34  54  81 112 146 176 221 265 327
#     4  10  19  34  56  83 110 139 174 232 268 316
#     4  10  20  33  55  83 112 134 180 223 278 306
#     4   9  17  31  58  80 101 138 183 223 253 314
#
# _framework density 20.632794000000001
#
# number of rings (size 3 to 8) (size 9 to 14) (size 15 to 20)
#    0.857    1.714    1.429    0.857    0.000    1.143 
#    0.000    0.714    0.000    3.429    0.000    0.000 
#    0.000    0.000    0.000    0.000    0.000    0.000 
#
# Total GULP energy -173513.328489 kJ/mol
# GULP energy per Si atom -12393.809178 kJ/mol
# Density = 2.058583 g / cm^3
# Si number density = 20.632794 Si / 1000 Ang^3
#
#
#
# Elastic Constant Matrix: (Units=GPa)
#
#
# Indices 1 2 3 4 5 6 
#
# 1 118.0616 36.8192 19.8215 11.6163 -20.5407 -29.7871
# 2 36.8192 71.7855 35.8419 22.4567 -13.4480 -24.5026
# 3 19.8215 35.8419 43.6050 17.1526 -8.0675 -12.4271
# 4 11.6163 22.4567 17.1526 23.9559 -8.8582 -8.3328
# 5 -20.5407 -13.4480 -8.0675 -8.8582 19.2302 5.4835
# 6 -29.7871 -24.5026 -12.4271 -8.3328 5.4835 25.8236
#
#
#
# Elastic Compliance Matrix: (Units=1/GPa)
#
#
# Indices 1 2 3 4 5 6 
#
# 1 0.014039 -0.001188 -0.000996 0.004035 0.011789 0.013386
# 2 -0.001188 0.033024 -0.016507 -0.010610 0.005014 0.017533
# 3 -0.000996 -0.016507 0.042407 -0.015352 -0.001598 -0.001019
# 4 0.004035 -0.010610 -0.015352 0.070516 0.021389 0.005412
# 5 0.011789 0.005014 -0.001598 0.021389 0.074830 0.008598
# 6 0.013386 0.017533 -0.001019 0.005412 0.008598 0.070231
#
#
# Mechanical properties :
#
#
# Convention : Reuss Voigt Hill
#
# Bulk Modulus (GPa) = 19.19832 46.49079 32.84456
# Shear Modulus (GPa) = 13.89685 23.19991 18.54838
#
# Velocity S-wave (km/s) = 2.59807 3.35687 3.00155
# Velocity P-wave (km/s) = 4.28076 6.13239 5.28825
#
# Compressibility (1/GPa) = 0.05208789
#
# Stress axis : x y z
#
# Youngs Moduli (GPa) = 71.22834 30.28068 23.58087
#
# Poissons Ratio (x) = 0.03597 0.02350
# Poissons Ratio (y) = 0.08462 0.38925
# Poissons Ratio (z) = 0.07097 0.49985
#
# Static dielectric constant tensor:
#      x y z
#    x 3.636740 -0.278260 -0.001220 
#    y -0.278260 3.486830 0.045120 
#    z -0.001220 0.045120 3.269440 
# 
# 
# High freq. dielectric constant tensor:
#      x y z
#    x 1.801160 -0.025330 -0.009150 
#    y -0.025330 1.785200 0.004120 
#    z -0.009150 0.004120 1.769270 
# 
# From -- ./inp_files/186033.got.cif
#   From: 2010.06.25/outbox.cif.g09.slc.cpg/sg2_94_cif.got.tgz:186033.got - 2010.06.27 13:26:56.
