data_PCOD8039567
_publ_section_title
;
Structure prediction by ZEFSAII (Michael W. Deem and Ramdas Pophale) SiO2 
 PCOD8039567
Probable space group: P -1
;
_chemical_formula_sum "Si O2"
_cell_formula_units_Z 14
_cell_length_a 27.608122
_cell_length_b 21.959371
_cell_length_c 12.379856
_cell_angle_alpha 157.599623
_cell_angle_beta 155.615547
_cell_angle_gamma 12.284125
_cell_volume 605.964825
_symmetry_space_group_name_H-M "P -1"
_symmetry_group_IT_number 2
_symmetry_cell_setting 'triclinic'
loop_
_space_group_symop_operation_xyz
x,y,z
-x,-y,-z
loop_
_atom_site_type_symbol
_atom_site_label
_atom_site_fract_x
_atom_site_fract_y
_atom_site_fract_z
Si Si1 0.850512 0.126423 0.800806
Si Si2 0.301444 0.497411 0.609911
Si Si3 0.985978 0.774926 0.973775
Si Si4 0.600292 0.556214 0.812148
Si Si5 0.537046 0.490272 0.222713
Si Si6 0.875184 0.586135 0.530579
Si Si7 0.384326 0.128274 0.325187
O O1 0.733241 0.408788 0.957266
O O2 0.634828 0.266497 0.628627
O O3 0.024570 0.835301 0.594888
O O4 0.000000 0.000000 0.000000
O O5 0.412785 0.404047 0.566399
O O6 0.353873 0.257173 0.362086
O O7 0.402587 0.512238 0.919320
O O8 0.999052 0.614151 0.822125
O O9 0.976404 0.713216 0.729609
O O10 0.216918 0.610360 0.183041
O O11 0.774064 0.136399 0.162515
O O12 0.500000 0.500000 0.500000
O O13 0.395543 0.923958 0.996493
O O14 0.833713 0.579327 0.559473
O O15 0.624087 0.908391 0.498972
#
# Coordination Sequence:
#
# PCOD8039567 Si02
#       7
#     2   2   2   2   2   2   2
#     4  10  22  37  62  90 122 159 206 255 301 358
#     4  10  20  33  55  92 122 158 194 257 307 361
#     4  10  18  34  56  89 120 159 202 260 302 366
#     4  11  24  42  61  87 127 169 205 251 308 372
#     4  10  19  33  57  90 127 153 198 248 321 357
#     4   9  19  30  56  89 123 146 205 261 316 344
#     4  10  20  35  57  87 123 161 201 254 310 365
#
# _framework density 23.103653000000001
#
# number of rings (size 3 to 8) (size 9 to 14) (size 15 to 20)
#    0.000    2.000    2.857    0.857   10.000    0.000 
#    0.000    3.571    0.000    0.857    0.000    0.000 
#    0.000    0.000    0.000    0.000    0.000    0.000 
#
# Total GULP energy -173437.615592 kJ/mol
# GULP energy per Si atom -12388.401114 kJ/mol
# Density = 2.305107 g / cm^3
# Si number density = 23.103653 Si / 1000 Ang^3
#
#
#
# Elastic Constant Matrix: (Units=GPa)
#
#
# Indices 1 2 3 4 5 6 
#
# 1 90.6412 28.7334 25.1684 5.7777 42.2738 -21.8182
# 2 28.7334 84.0611 22.3142 8.6148 12.9583 -24.2386
# 3 25.1684 22.3142 107.7825 0.1947 36.6462 -2.8320
# 4 5.7777 8.6148 0.1947 30.6894 1.0131 15.0621
# 5 42.2738 12.9583 36.6462 1.0131 34.6205 -2.6094
# 6 -21.8182 -24.2386 -2.8320 15.0621 -2.6094 43.2251
#
#
#
# Elastic Compliance Matrix: (Units=1/GPa)
#
#
# Indices 1 2 3 4 5 6 
#
# 1 0.048381 0.001600 0.013283 -0.021781 -0.070875 0.029500
# 2 0.001600 0.018305 -0.001972 -0.012632 -0.005215 0.015030
# 3 0.013283 -0.001972 0.018466 -0.003918 -0.034454 0.006094
# 4 -0.021781 -0.012632 -0.003918 0.057068 0.031061 -0.036345
# 5 -0.070875 -0.005215 -0.034454 0.031061 0.149720 -0.042742
# 6 0.029500 0.015030 0.006094 -0.036345 -0.042742 0.056937
#
#
# Mechanical properties :
#
#
# Convention : Reuss Voigt Hill
#
# Bulk Modulus (GPa) = 9.01103 48.32410 28.66756
# Shear Modulus (GPa) = 13.88710 35.45824 24.67267
#
# Velocity S-wave (km/s) = 2.45435 3.92183 3.27144
# Velocity P-wave (km/s) = 3.45550 6.43967 5.16768
#
# Compressibility (1/GPa) = 0.11097507
#
# Stress axis : x y z
#
# Youngs Moduli (GPa) = 20.66913 54.63005 54.15301
#
# Poissons Ratio (x) = -0.08743 -0.71933
# Poissons Ratio (y) = -0.03308 0.10681
# Poissons Ratio (z) = -0.27455 0.10775
#
# Static dielectric constant tensor:
#      x y z
#    x 4.564280 -0.609800 0.549970 
#    y -0.609800 4.481940 -0.021470 
#    z 0.549970 -0.021470 3.632850 
# 
# 
# High freq. dielectric constant tensor:
#      x y z
#    x 1.906060 -0.034070 0.053930 
#    y -0.034070 1.908700 0.007860 
#    z 0.053930 0.007860 1.864140 
# 
# From -- ./inp_files/545156.got.cif
#   From: 2010.06.25/outbox.cif.g09.slc.cpg/sg2_273_cif.got.tgz:545156.got - 2010.06.27 13:26:56.
