data_PCOD8039086
_publ_section_title
;
Structure prediction by ZEFSAII (Michael W. Deem and Ramdas Pophale) SiO2 
 PCOD8039086
Probable space group: P -1
;
_chemical_formula_sum "Si O2"
_cell_formula_units_Z 16
_cell_length_a 5.331172
_cell_length_b 22.700802
_cell_length_c 9.996603
_cell_angle_alpha 49.605074
_cell_angle_beta 122.228254
_cell_angle_gamma 110.629720
_cell_volume 779.384452
_symmetry_space_group_name_H-M "P -1"
_symmetry_group_IT_number 2
_symmetry_cell_setting 'triclinic'
loop_
_space_group_symop_operation_xyz
x,y,z
-x,-y,-z
loop_
_atom_site_type_symbol
_atom_site_label
_atom_site_fract_x
_atom_site_fract_y
_atom_site_fract_z
Si Si1 0.079871 0.857395 0.293803
Si Si2 0.805836 0.597884 0.408978
Si Si3 0.423332 0.915552 0.550011
Si Si4 0.803479 0.665608 0.805198
Si Si5 0.457719 0.088607 0.824799
Si Si6 0.890134 0.844925 0.622771
Si Si7 0.873745 0.318619 0.395692
Si Si8 0.879855 0.422000 0.746893
O O1 0.230589 0.917639 0.354123
O O2 0.218068 0.872081 0.163735
O O3 0.154363 0.773301 0.494475
O O4 0.725614 0.872091 0.163714
O O5 0.885438 0.514552 0.613641
O O6 0.454042 0.610380 0.288071
O O7 0.940639 0.663584 0.445304
O O8 0.953566 0.610384 0.288191
O O9 0.732999 0.870569 0.678541
O O10 0.235762 0.870560 0.678550
O O11 0.500000 0.000000 0.500000
O O12 0.866565 0.753245 0.736773
O O13 0.453243 0.646746 0.731909
O O14 0.950316 0.646761 0.731768
O O15 0.942641 0.605486 0.034474
O O16 0.272343 0.107912 0.610479
O O17 0.500000 0.000000 0.000000
#
# Coordination Sequence:
#
# PCOD8039086 Si02
#       8
#     2   2   2   2   2   2   2   2
#     4  10  19  35  53  81 110 151 192 256 308 350
#     4  10  23  43  65  92 132 172 204 250 315 379
#     4  10  18  32  56  73 106 149 191 237 310 365
#     4  12  21  38  68  94 126 165 209 267 311 367
#     4  10  18  32  56  73 106 149 191 237 310 365
#     4  10  19  35  53  81 110 151 192 256 308 350
#     4  12  21  38  68  94 126 165 209 267 311 367
#     4  10  23  43  65  92 132 172 204 250 315 379
#
# _framework density 20.529019999999999
#
# number of rings (size 3 to 8) (size 9 to 14) (size 15 to 20)
#    0.000    1.500    5.000    2.250    0.000    1.000 
#    0.000    0.000   33.000    0.000    0.000    0.000 
#    0.000    0.000    0.000    0.000    0.000    0.000 
#
# Total GULP energy -198326.728697 kJ/mol
# GULP energy per Si atom -12395.420544 kJ/mol
# Density = 2.048229 g / cm^3
# Si number density = 20.529020 Si / 1000 Ang^3
#
#
#
# Elastic Constant Matrix: (Units=GPa)
#
#
# Indices 1 2 3 4 5 6 
#
# 1 231.1718 10.4545 24.5325 2.0061 -12.0925 -7.0113
# 2 10.4545 50.3751 -12.8183 9.5978 -1.8861 1.1298
# 3 24.5325 -12.8183 75.0936 -8.8270 0.3288 -3.1670
# 4 2.0061 9.5978 -8.8270 12.3958 -1.6378 -0.1547
# 5 -12.0925 -1.8861 0.3288 -1.6378 21.8513 6.1875
# 6 -7.0113 1.1298 -3.1670 -0.1547 6.1875 15.2786
#
#
#
# Elastic Compliance Matrix: (Units=1/GPa)
#
#
# Indices 1 2 3 4 5 6 
#
# 1 0.004726 -0.001230 -0.001816 -0.000804 0.002197 0.000985
# 2 -0.001230 0.023960 0.002447 -0.016538 0.000764 -0.002306
# 3 -0.001816 0.002447 0.015549 0.009360 -0.001105 0.002751
# 4 -0.000804 -0.016538 0.009360 0.100962 0.005053 0.001770
# 5 0.002197 0.000764 -0.001105 0.005053 0.053339 -0.020827
# 6 0.000985 -0.002306 0.002751 0.001770 -0.020827 0.075096
#
#
# Mechanical properties :
#
#
# Convention : Reuss Voigt Hill
#
# Bulk Modulus (GPa) = 23.23574 44.55310 33.89442
# Shear Modulus (GPa) = 17.29052 32.20326 24.74689
#
# Velocity S-wave (km/s) = 2.90530 3.96494 3.47574
# Velocity P-wave (km/s) = 4.75367 6.53534 5.71437
#
# Compressibility (1/GPa) = 0.04303715
#
# Stress axis : x y z
#
# Youngs Moduli (GPa) = 211.59766 41.73588 64.31317
#
# Poissons Ratio (x) = 0.05132 0.11682
# Poissons Ratio (y) = 0.26020 -0.15738
# Poissons Ratio (z) = 0.38434 -0.10213
#
# Static dielectric constant tensor:
#      x y z
#    x 5.499870 -0.098690 -0.170770 
#    y -0.098690 3.383730 -0.132930 
#    z -0.170770 -0.132930 3.366440 
# 
# 
# High freq. dielectric constant tensor:
#      x y z
#    x 1.849210 -0.004510 -0.006820 
#    y -0.004510 1.775700 -0.018460 
#    z -0.006820 -0.018460 1.770940 
# 
# From -- ./inp_files/141184.got.cif
#   From: 2010.06.25/outbox.cif.g09.slc.cpg/sg2_71_cif.got.tgz:141184.got - 2010.06.27 13:26:56.
