data_PCOD8039711
_publ_section_title
;
Structure prediction by ZEFSAII (Michael W. Deem and Ramdas Pophale) SiO2 
 PCOD8039711
Probable space group: P -1
;
_chemical_formula_sum "Si O2"
_cell_formula_units_Z 16
_cell_length_a 16.213600
_cell_length_b 8.523117
_cell_length_c 11.239576
_cell_angle_alpha 42.424893
_cell_angle_beta 68.853544
_cell_angle_gamma 98.721629
_cell_volume 730.536911
_symmetry_space_group_name_H-M "P -1"
_symmetry_group_IT_number 2
_symmetry_cell_setting 'triclinic'
loop_
_space_group_symop_operation_xyz
x,y,z
-x,-y,-z
loop_
_atom_site_type_symbol
_atom_site_label
_atom_site_fract_x
_atom_site_fract_y
_atom_site_fract_z
Si Si1 0.221680 0.657203 0.445446
Si Si2 0.859755 0.688577 0.547958
Si Si3 0.237755 0.250969 0.802465
Si Si4 0.027582 0.571400 0.260250
Si Si5 0.049390 0.271257 0.225954
Si Si6 0.584618 0.724290 0.435817
Si Si7 0.706205 0.417852 0.005522
Si Si8 0.624609 0.659640 0.082579
O O1 0.207155 0.442841 0.468037
O O2 0.242388 0.537916 0.619622
O O3 0.108993 0.628061 0.528374
O O4 0.334509 0.014744 0.162519
O O5 0.917349 0.536327 0.627427
O O6 0.764885 0.594727 0.750892
O O7 0.964549 0.069012 0.270318
O O8 0.298007 0.223359 0.673800
O O9 0.299105 0.297936 0.868938
O O10 0.100819 0.932253 0.049676
O O11 0.034397 0.505108 0.154980
O O12 0.188610 0.469675 0.019349
O O13 0.000000 0.000000 0.500000
O O14 0.500000 0.500000 0.500000
O O15 0.513890 0.556698 0.689511
O O16 0.616622 0.051932 0.231146
O O17 0.633949 0.502221 0.054144
#
# Coordination Sequence:
#
# PCOD8039711 Si02
#       8
#     2   2   2   2   2   2   2   2
#     4  12  23  36  62  91 124 156 200 242 292 354
#     4  10  18  34  60  88 120 163 191 238 299 352
#     4  11  23  40  59  90 121 157 201 245 294 352
#     4  10  18  37  56  83 124 156 196 241 289 355
#     4   8  16  29  56  82 117 157 189 234 290 350
#     4  10  20  40  64  87 115 154 203 245 299 347
#     4  10  18  37  62  88 116 154 200 241 298 352
#     4  11  23  39  65  86 118 161 197 249 293 349
#
# _framework density 21.901700999999999
#
# number of rings (size 3 to 8) (size 9 to 14) (size 15 to 20)
#    0.000    2.000    3.750    4.125    1.750    0.500 
#    0.000    3.125    0.000    4.500    0.000    0.000 
#    0.000    0.000    0.000    0.000    0.000    0.000 
#
# Total GULP energy -198292.255467 kJ/mol
# GULP energy per Si atom -12393.265967 kJ/mol
# Density = 2.185185 g / cm^3
# Si number density = 21.901701 Si / 1000 Ang^3
#
#
#
# Elastic Constant Matrix: (Units=GPa)
#
#
# Indices 1 2 3 4 5 6 
#
# 1 25.6080 6.2667 10.9730 2.8957 10.7107 -5.2365
# 2 6.2667 75.5046 5.1105 -19.2283 2.4943 -7.8785
# 3 10.9730 5.1105 72.3301 -20.9783 0.3041 12.6038
# 4 2.8957 -19.2283 -20.9783 39.0066 -3.9644 -15.0330
# 5 10.7107 2.4943 0.3041 -3.9644 34.5330 2.4258
# 6 -5.2365 -7.8785 12.6038 -15.0330 2.4258 15.7299
#
#
#
# Elastic Compliance Matrix: (Units=1/GPa)
#
#
# Indices 1 2 3 4 5 6 
#
# 1 0.062578 -0.000349 -0.016102 -0.002326 -0.021948 0.034721
# 2 -0.000349 0.023623 -0.000652 0.025304 -0.001260 0.036616
# 3 -0.016102 -0.000652 0.021160 0.006040 0.006807 -0.017919
# 4 -0.002326 0.025304 0.006040 0.070168 0.001708 0.073856
# 5 -0.021948 -0.001260 0.006807 0.001708 0.037222 -0.017499
# 6 0.034721 0.036616 -0.017919 0.073856 -0.017499 0.181111
#
#
# Mechanical properties :
#
#
# Convention : Reuss Voigt Hill
#
# Bulk Modulus (GPa) = 13.66935 24.23815 18.95375
# Shear Modulus (GPa) = 11.00224 27.92674 19.46449
#
# Velocity S-wave (km/s) = 2.24374 3.57472 2.98438
# Velocity P-wave (km/s) = 3.60101 5.30368 4.53300
#
# Compressibility (1/GPa) = 0.07315636
#
# Stress axis : x y z
#
# Youngs Moduli (GPa) = 15.98008 42.33075 47.25922
#
# Poissons Ratio (x) = 0.01475 0.76095
# Poissons Ratio (y) = 0.00557 0.03083
# Poissons Ratio (z) = 0.25730 0.02762
#
# Static dielectric constant tensor:
#      x y z
#    x 3.583180 -0.062080 -0.424080 
#    y -0.062080 4.375920 -0.155170 
#    z -0.424080 -0.155170 4.145120 
# 
# 
# High freq. dielectric constant tensor:
#      x y z
#    x 1.817150 -0.015110 -0.022030 
#    y -0.015110 1.867980 -0.012510 
#    z -0.022030 -0.012510 1.860810 
# 
# From -- ./inp_files/460950.got.cif
#   From: 2010.06.25/outbox.cif.g09.slc.cpg/sg2_231_cif.got.tgz:460950.got - 2010.06.27 13:26:56.
