data_PCOD8039215
_publ_section_title
;
Structure prediction by ZEFSAII (Michael W. Deem and Ramdas Pophale) SiO2 
 PCOD8039215
Probable space group: P -1
;
_chemical_formula_sum "Si O2"
_cell_formula_units_Z 16
_cell_length_a 10.913378
_cell_length_b 16.906605
_cell_length_c 11.452892
_cell_angle_alpha 39.543594
_cell_angle_beta 139.360757
_cell_angle_gamma 135.359251
_cell_volume 834.552107
_symmetry_space_group_name_H-M "P -1"
_symmetry_group_IT_number 2
_symmetry_cell_setting 'triclinic'
loop_
_space_group_symop_operation_xyz
x,y,z
-x,-y,-z
loop_
_atom_site_type_symbol
_atom_site_label
_atom_site_fract_x
_atom_site_fract_y
_atom_site_fract_z
Si Si1 0.700884 0.989761 0.834907
Si Si2 0.567918 0.140510 0.764719
Si Si3 0.019567 0.162774 0.714378
Si Si4 0.602532 0.814329 0.751418
Si Si5 0.152734 0.354287 0.773862
Si Si6 0.856865 0.039373 0.519386
Si Si7 0.292571 0.650377 0.544224
Si Si8 0.801385 0.057730 0.207588
O O1 0.567158 0.877549 0.778375
O O2 0.572328 0.035084 0.786452
O O3 0.862969 0.942455 0.074271
O O4 0.821174 0.116162 0.703084
O O5 0.578595 0.277455 0.555697
O O6 0.363889 0.085756 0.750679
O O7 0.743847 0.158488 0.964964
O O8 0.152597 0.303508 0.697260
O O9 0.960155 0.162840 0.536191
O O10 0.678989 0.933139 0.579384
O O11 0.395843 0.717352 0.663515
O O12 0.764430 0.736887 0.976536
O O13 0.293774 0.501527 0.717711
O O14 0.926169 0.342809 0.650045
O O15 0.992903 0.953386 0.674009
O O16 0.802722 0.105621 0.288534
#
# Coordination Sequence:
#
# PCOD8039215 Si02
#       8
#     2   2   2   2   2   2   2   2
#     4   9  17  29  53  79 106 133 159 219 280 306
#     4  11  19  34  48  77 110 133 172 219 254 315
#     4   9  16  31  53  76 106 134 166 214 272 312
#     4  10  20  35  56  82 109 132 170 221 266 316
#     4  10  21  34  53  78 110 143 168 212 260 317
#     4  10  18  33  52  80 101 134 173 215 266 311
#     4  11  21  34  52  79 110 142 175 204 262 321
#     4  10  21  30  50  76 105 138 170 213 265 302
#
# _framework density 19.171961
#
# number of rings (size 3 to 8) (size 9 to 14) (size 15 to 20)
#    0.000    2.000    3.750    1.875    0.000    1.500 
#    0.000    0.000    0.000    1.500    0.000    0.000 
#    0.000    0.000    0.000    0.000    0.000    0.000 
#
# Total GULP energy -198211.423651 kJ/mol
# GULP energy per Si atom -12388.213978 kJ/mol
# Density = 1.912832 g / cm^3
# Si number density = 19.171961 Si / 1000 Ang^3
#
#
#
# Elastic Constant Matrix: (Units=GPa)
#
#
# Indices 1 2 3 4 5 6 
#
# 1 40.1917 15.5683 8.1607 3.1118 -14.5600 -9.2601
# 2 15.5683 109.4958 35.0379 9.5314 -14.3454 -18.1507
# 3 8.1607 35.0379 86.5957 14.1193 -17.7439 -16.3918
# 4 3.1118 9.5314 14.1193 31.1738 -5.2260 -1.9900
# 5 -14.5600 -14.3454 -17.7439 -5.2260 27.1221 9.2063
# 6 -9.2601 -18.1507 -16.3918 -1.9900 9.2063 23.3570
#
#
#
# Elastic Compliance Matrix: (Units=1/GPa)
#
#
# Indices 1 2 3 4 5 6 
#
# 1 0.032414 -0.002181 0.002349 -0.000625 0.015395 0.006683
# 2 -0.002181 0.011563 -0.003018 -0.001462 0.000801 0.005563
# 3 0.002349 -0.003018 0.016048 -0.004991 0.006931 0.006692
# 4 -0.000625 -0.001462 -0.004991 0.035230 0.003526 -0.003275
# 5 0.015395 0.000801 0.006931 0.003526 0.053955 -0.009376
# 6 0.006683 0.005563 0.006692 -0.003275 -0.009376 0.057899
#
#
# Mechanical properties :
#
#
# Convention : Reuss Voigt Hill
#
# Bulk Modulus (GPa) = 18.40725 39.31300 28.86013
# Shear Modulus (GPa) = 21.65285 28.16501 24.90893
#
# Velocity S-wave (km/s) = 3.36430 3.83701 3.60840
# Velocity P-wave (km/s) = 4.97125 6.33878 5.69621
#
# Compressibility (1/GPa) = 0.05432642
#
# Stress axis : x y z
#
# Youngs Moduli (GPa) = 30.85091 86.48454 62.31224
#
# Poissons Ratio (x) = 0.18864 -0.14640
# Poissons Ratio (y) = 0.06729 0.18803
# Poissons Ratio (z) = -0.07248 0.26097
#
# Static dielectric constant tensor:
#      x y z
#    x 3.388060 -0.117770 -0.081430 
#    y -0.117770 3.568170 0.299100 
#    z -0.081430 0.299100 3.730650 
# 
# 
# High freq. dielectric constant tensor:
#      x y z
#    x 1.724770 -0.005080 0.003220 
#    y -0.005080 1.722420 0.038890 
#    z 0.003220 0.038890 1.753930 
# 
# From -- ./inp_files/249800.got.cif
#   From: 2010.06.25/outbox.cif.g09.slc.cpg/sg2_125_cif.got.tgz:249800.got - 2010.06.27 13:26:56.
