data_PCOD8039282
_publ_section_title
;
Structure prediction by ZEFSAII (Michael W. Deem and Ramdas Pophale) SiO2 
 PCOD8039282
Probable space group: P -1
;
_chemical_formula_sum "Si O2"
_cell_formula_units_Z 14
_cell_length_a 9.639303
_cell_length_b 15.415502
_cell_length_c 7.714644
_cell_angle_alpha 77.938711
_cell_angle_beta 129.420385
_cell_angle_gamma 68.385688
_cell_volume 648.135811
_symmetry_space_group_name_H-M "P -1"
_symmetry_group_IT_number 2
_symmetry_cell_setting 'triclinic'
loop_
_space_group_symop_operation_xyz
x,y,z
-x,-y,-z
loop_
_atom_site_type_symbol
_atom_site_label
_atom_site_fract_x
_atom_site_fract_y
_atom_site_fract_z
Si Si1 0.599676 0.728889 0.800804
Si Si2 0.048172 0.126060 0.449572
Si Si3 0.729578 0.779598 0.559580
Si Si4 0.389620 0.858761 0.932013
Si Si5 0.018507 0.459930 0.285587
Si Si6 0.724219 0.312252 0.367284
Si Si7 0.314171 0.484810 0.704431
O O1 0.600329 0.810457 0.631833
O O2 0.573502 0.769713 0.961996
O O3 0.374557 0.737621 0.577790
O O4 0.836240 0.592743 0.013323
O O5 0.140028 0.167545 0.363513
O O6 0.812567 0.149947 0.187297
O O7 0.985540 0.200507 0.546697
O O8 0.264791 0.989453 0.716149
O O9 0.927037 0.636271 0.765879
O O10 0.536271 0.831556 0.232234
O O11 0.271510 0.427096 0.542828
O O12 0.911123 0.447833 0.373559
O O13 0.709657 0.406175 0.432145
O O14 0.563968 0.382937 0.037669
#
# Coordination Sequence:
#
# PCOD8039282 Si02
#       7
#     2   2   2   2   2   2   2
#     4  10  23  38  58  89 122 150 196 245 289 353
#     4  10  21  40  65  86 115 159 200 241 292 351
#     4  12  22  40  62  89 121 155 194 246 297 344
#     4  10  23  44  61  85 120 155 201 245 289 348
#     4  10  18  33  55  86 118 151 192 239 290 352
#     4   9  17  34  55  86 115 152 198 236 286 353
#     4   9  16  30  59  82 113 159 190 231 296 343
#
# _framework density 21.600411000000001
#
# number of rings (size 3 to 8) (size 9 to 14) (size 15 to 20)
#    0.000    2.000    1.429    4.286    0.000    0.571 
#    2.571    7.143    0.000    0.000    0.000    0.000 
#    0.000    0.000    0.000    0.000    0.000    0.000 
#
# Total GULP energy -173487.095893 kJ/mol
# GULP energy per Si atom -12391.935421 kJ/mol
# Density = 2.155125 g / cm^3
# Si number density = 21.600411 Si / 1000 Ang^3
#
#
#
# Elastic Constant Matrix: (Units=GPa)
#
#
# Indices 1 2 3 4 5 6 
#
# 1 132.4063 29.2577 27.7183 1.6847 -12.5991 34.0767
# 2 29.2577 80.4880 14.8160 -13.6244 1.3404 26.8713
# 3 27.7183 14.8160 54.5840 -7.7650 3.1980 1.8995
# 4 1.6847 -13.6244 -7.7650 30.6448 -2.9469 4.5118
# 5 -12.5991 1.3404 3.1980 -2.9469 19.2813 -1.8456
# 6 34.0767 26.8713 1.8995 4.5118 -1.8456 29.3908
#
#
#
# Elastic Compliance Matrix: (Units=1/GPa)
#
#
# Indices 1 2 3 4 5 6 
#
# 1 0.013871 0.002281 -0.007311 0.001803 0.008725 -0.017424
# 2 0.002281 0.023089 -0.004747 0.012692 0.000183 -0.025384
# 3 -0.007311 -0.004747 0.023661 0.002059 -0.007049 0.010529
# 4 0.001803 0.012692 0.002059 0.042072 0.004470 -0.020005
# 5 0.008725 0.000183 -0.007049 0.004470 0.058752 -0.006825
# 6 -0.017424 -0.025384 0.010529 -0.020005 -0.006825 0.079396
#
#
# Mechanical properties :
#
#
# Convention : Reuss Voigt Hill
#
# Bulk Modulus (GPa) = 24.35131 45.67358 35.01245
# Shear Modulus (GPa) = 18.24260 28.90913 23.57587
#
# Velocity S-wave (km/s) = 2.90927 3.66233 3.30730
# Velocity P-wave (km/s) = 4.75217 6.25094 5.55236
#
# Compressibility (1/GPa) = 0.04106555
#
# Stress axis : x y z
#
# Youngs Moduli (GPa) = 72.09498 43.31081 42.26364
#
# Poissons Ratio (x) = -0.09878 0.30899
# Poissons Ratio (y) = -0.16442 0.20063
# Poissons Ratio (z) = 0.52709 0.20560
#
# Static dielectric constant tensor:
#      x y z
#    x 3.826530 0.322610 0.242690 
#    y 0.322610 4.185270 -0.100740 
#    z 0.242690 -0.100740 3.593520 
# 
# 
# High freq. dielectric constant tensor:
#      x y z
#    x 1.834090 0.024100 0.021280 
#    y 0.024100 1.854420 -0.017010 
#    z 0.021280 -0.017010 1.818030 
# 
# From -- ./inp_files/201024.got.cif
#   From: 2010.06.25/outbox.cif.g09.slc.cpg/sg2_101_cif.got.tgz:201024.got - 2010.06.27 13:26:56.
