data_PCOD8039278
_publ_section_title
;
Structure prediction by ZEFSAII (Michael W. Deem and Ramdas Pophale) SiO2 
 PCOD8039278
Probable space group: P -1
;
_chemical_formula_sum "Si O2"
_cell_formula_units_Z 16
_cell_length_a 9.351451
_cell_length_b 8.658674
_cell_length_c 20.977135
_cell_angle_alpha 97.307941
_cell_angle_beta 29.555849
_cell_angle_gamma 96.769503
_cell_volume 830.946660
_symmetry_space_group_name_H-M "P -1"
_symmetry_group_IT_number 2
_symmetry_cell_setting 'triclinic'
loop_
_space_group_symop_operation_xyz
x,y,z
-x,-y,-z
loop_
_atom_site_type_symbol
_atom_site_label
_atom_site_fract_x
_atom_site_fract_y
_atom_site_fract_z
Si Si1 0.885352 0.656624 0.634377
Si Si2 0.083997 0.264688 0.235777
Si Si3 0.826710 0.052377 0.866811
Si Si4 0.158793 0.135893 0.867116
Si Si5 0.298395 0.823362 0.854114
Si Si6 0.837308 0.410045 0.211664
Si Si7 0.624153 0.382313 0.650372
Si Si8 0.333648 0.628020 0.033589
O O1 0.029389 0.671542 0.649486
O O2 0.627622 0.778623 0.736588
O O3 0.768468 0.480887 0.657583
O O4 0.129421 0.703708 0.490308
O O5 0.917502 0.357715 0.249449
O O6 0.026854 0.076424 0.242923
O O7 0.433271 0.296373 0.101303
O O8 0.805824 0.233363 0.860828
O O9 0.013396 0.052314 0.858727
O O10 0.500000 0.000000 0.000000
O O11 0.408555 0.256660 0.757196
O O12 0.302779 0.008123 0.850121
O O13 0.903476 0.221283 0.009449
O O14 0.161618 0.739977 0.841105
O O15 0.528866 0.495408 0.332147
O O16 0.065963 0.536878 0.099774
O O17 0.500000 0.500000 0.000000
#
# Coordination Sequence:
#
# PCOD8039278 Si02
#       8
#     2   2   2   2   2   2   2   2
#     4  10  23  42  57  87 116 164 195 249 293 349
#     4  10  20  35  58  83 122 152 190 241 299 350
#     4  10  18  33  55  84 121 151 180 240 299 342
#     4  11  21  38  62  90 114 159 195 246 292 360
#     4  10  22  36  61  88 119 148 200 241 301 347
#     4  10  19  35  58  88 116 152 194 248 287 356
#     4  10  23  40  63  80 121 157 205 241 297 347
#     4   9  18  30  52  86 117 147 182 233 296 343
#
# _framework density 19.255147000000001
#
# number of rings (size 3 to 8) (size 9 to 14) (size 15 to 20)
#    0.000    2.000    2.500    1.500    1.750    2.000 
#    0.000    0.625    0.000    0.000    0.000    0.000 
#    0.000    0.000    0.000    0.000    0.000    0.000 
#
# Total GULP energy -198237.177090 kJ/mol
# GULP energy per Si atom -12389.823568 kJ/mol
# Density = 1.921132 g / cm^3
# Si number density = 19.255147 Si / 1000 Ang^3
#
#
#
# Elastic Constant Matrix: (Units=GPa)
#
#
# Indices 1 2 3 4 5 6 
#
# 1 94.6556 35.2815 40.8558 5.2609 12.6762 15.2458
# 2 35.2815 102.6649 48.9737 4.9880 6.5334 -6.1450
# 3 40.8558 48.9737 116.5671 7.7495 6.2430 -1.3258
# 4 5.2609 4.9880 7.7495 25.6704 5.0159 1.2521
# 5 12.6762 6.5334 6.2430 5.0159 22.5857 3.2680
# 6 15.2458 -6.1450 -1.3258 1.2521 3.2680 21.7336
#
#
#
# Elastic Compliance Matrix: (Units=1/GPa)
#
#
# Indices 1 2 3 4 5 6 
#
# 1 0.016462 -0.004219 -0.003871 0.000233 -0.005235 -0.012203
# 2 -0.004219 0.013652 -0.004067 -0.000638 -0.001299 0.006804
# 3 -0.003871 -0.004067 0.011802 -0.002138 0.000218 0.002376
# 4 0.000233 -0.000638 -0.002138 0.041379 -0.008312 -0.001608
# 5 -0.005235 -0.001299 0.000218 -0.008312 0.049912 -0.003708
# 6 -0.012203 0.006804 0.002376 -0.001608 -0.003708 0.057291
#
#
# Mechanical properties :
#
#
# Convention : Reuss Voigt Hill
#
# Bulk Modulus (GPa) = 56.81814 62.67885 59.74850
# Shear Modulus (GPa) = 22.65739 26.58305 24.62022
#
# Velocity S-wave (km/s) = 3.43402 3.71963 3.57967
# Velocity P-wave (km/s) = 6.73018 7.14632 6.94137
#
# Compressibility (1/GPa) = 0.01760001
#
# Stress axis : x y z
#
# Youngs Moduli (GPa) = 60.74734 73.25200 84.73324
#
# Poissons Ratio (x) = 0.30907 0.32800
# Poissons Ratio (y) = 0.25631 0.34463
# Poissons Ratio (z) = 0.23515 0.29793
#
# Static dielectric constant tensor:
#      x y z
#    x 3.164620 0.381850 0.124630 
#    y 0.381850 3.871850 -0.150500 
#    z 0.124630 -0.150500 3.087240 
# 
# 
# High freq. dielectric constant tensor:
#      x y z
#    x 1.746060 0.007060 -0.021200 
#    y 0.007060 1.760900 0.012780 
#    z -0.021200 0.012780 1.722230 
# 
# From -- ./inp_files/182405.got.cif
#   From: 2010.06.25/outbox.cif.g09.slc.cpg/sg2_92_cif.got.tgz:182405.got - 2010.06.27 13:26:56.
