data_PCOD8039958
_publ_section_title
;
Structure prediction by ZEFSAII (Michael W. Deem and Ramdas Pophale) SiO2 
 PCOD8039958
Probable space group: P -1
;
_chemical_formula_sum "Si O2"
_cell_formula_units_Z 16
_cell_length_a 8.955555
_cell_length_b 11.939969
_cell_length_c 23.123232
_cell_angle_alpha 39.321734
_cell_angle_beta 147.992099
_cell_angle_gamma 129.351447
_cell_volume 828.684514
_symmetry_space_group_name_H-M "P -1"
_symmetry_group_IT_number 2
_symmetry_cell_setting 'triclinic'
loop_
_space_group_symop_operation_xyz
x,y,z
-x,-y,-z
loop_
_atom_site_type_symbol
_atom_site_label
_atom_site_fract_x
_atom_site_fract_y
_atom_site_fract_z
Si Si1 0.742210 0.495490 0.997013
Si Si2 0.715746 0.845911 0.316386
Si Si3 0.414807 0.765731 0.856416
Si Si4 0.378056 0.458124 0.193014
Si Si5 0.792370 0.156295 0.433057
Si Si6 0.895768 0.765465 0.605853
Si Si7 0.433710 0.514858 0.538277
Si Si8 0.127639 0.372712 0.643547
O O1 0.646543 0.686300 0.918136
O O2 0.649036 0.473525 0.909008
O O3 0.583640 0.345983 0.039321
O O4 0.080097 0.473071 0.121881
O O5 0.548408 0.680406 0.349890
O O6 0.781942 0.816391 0.281372
O O7 0.014610 0.848726 0.445148
O O8 0.529117 0.029761 0.192277
O O9 0.106961 0.755990 0.732224
O O10 0.490126 0.252015 0.311082
O O11 0.599610 0.565646 0.258514
O O12 0.942034 0.271148 0.386989
O O13 0.737663 0.960994 0.470352
O O14 0.671994 0.623363 0.603683
O O15 0.500000 0.500000 0.500000
O O16 0.133103 0.629356 0.397203
O O17 0.000000 0.500000 0.500000
#
# Coordination Sequence:
#
# PCOD8039958 Si02
#       8
#     2   2   2   2   2   2   2   2
#     4  10  24  38  63  82 117 166 207 236 285 339
#     4  10  21  38  60  87 125 150 187 253 303 348
#     4  10  22  42  59  86 117 155 211 243 280 349
#     4  11  20  40  61  88 118 158 199 244 290 356
#     4  10  18  35  59  91 122 148 186 253 305 342
#     4  10  20  32  61  93 120 147 192 251 299 347
#     4  11  20  33  57  95 119 154 184 232 321 358
#     4  10  21  36  59  89 126 146 187 243 311 353
#
# _framework density 19.307708999999999
#
# number of rings (size 3 to 8) (size 9 to 14) (size 15 to 20)
#    0.000    1.750    5.000    0.000    3.500    1.000 
#    0.000    5.000    0.000    0.000    0.000    0.000 
#    0.000    0.000    0.000    0.000    0.000    0.000 
#
# Total GULP energy -198334.128500 kJ/mol
# GULP energy per Si atom -12395.883031 kJ/mol
# Density = 1.926376 g / cm^3
# Si number density = 19.307709 Si / 1000 Ang^3
#
#
#
# Elastic Constant Matrix: (Units=GPa)
#
#
# Indices 1 2 3 4 5 6 
#
# 1 105.8693 47.6569 32.0794 -4.5334 14.4908 -13.8271
# 2 47.6569 123.7362 44.5715 -10.0876 19.3017 -5.5162
# 3 32.0794 44.5715 83.2244 -4.9850 18.2042 -5.3600
# 4 -4.5334 -10.0876 -4.9850 33.7521 -4.7366 1.1156
# 5 14.4908 19.3017 18.2042 -4.7366 32.5411 0.2890
# 6 -13.8271 -5.5162 -5.3600 1.1156 0.2890 31.0057
#
#
#
# Elastic Compliance Matrix: (Units=1/GPa)
#
#
# Indices 1 2 3 4 5 6 
#
# 1 0.012610 -0.003509 -0.002170 -0.000164 -0.002385 0.004652
# 2 -0.003509 0.011478 -0.004113 0.001989 -0.002653 -0.000281
# 3 -0.002170 -0.004113 0.016397 0.000052 -0.005769 0.001187
# 4 -0.000164 0.001989 0.000052 0.030705 0.003341 -0.000846
# 5 -0.002385 -0.002653 -0.005769 0.003341 0.037106 -0.002999
# 6 0.004652 -0.000281 0.001187 -0.000846 -0.002999 0.034540
#
#
# Mechanical properties :
#
#
# Convention : Reuss Voigt Hill
#
# Bulk Modulus (GPa) = 47.84619 62.38283 55.11451
# Shear Modulus (GPa) = 29.51818 32.02792 30.77305
#
# Velocity S-wave (km/s) = 3.91427 4.07727 3.99660
# Velocity P-wave (km/s) = 6.72780 7.38549 7.06430
#
# Compressibility (1/GPa) = 0.02090030
#
# Stress axis : x y z
#
# Youngs Moduli (GPa) = 79.30440 87.12082 60.98829
#
# Poissons Ratio (x) = 0.30570 0.13233
# Poissons Ratio (y) = 0.27827 0.25087
# Poissons Ratio (z) = 0.17207 0.35837
#
# Static dielectric constant tensor:
#      x y z
#    x 3.059300 -0.583310 -0.233530 
#    y -0.583310 3.548700 -0.337630 
#    z -0.233530 -0.337630 3.321900 
# 
# 
# High freq. dielectric constant tensor:
#      x y z
#    x 1.759880 -0.024110 0.007230 
#    y -0.024110 1.740070 -0.000610 
#    z 0.007230 -0.000610 1.737970 
# 
# From -- ./inp_files/181578.got.cif
#   From: 2010.06.25/outbox.cif.g09.slc.cpg/sg2_91_cif.got.tgz:181578.got - 2010.06.27 13:26:56.
