data_PCOD8039859
_publ_section_title
;
Structure prediction by ZEFSAII (Michael W. Deem and Ramdas Pophale) SiO2 
 PCOD8039859
Probable space group: P -1
;
_chemical_formula_sum "Si O2"
_cell_formula_units_Z 16
_cell_length_a 8.265057
_cell_length_b 13.962793
_cell_length_c 13.743149
_cell_angle_alpha 31.703241
_cell_angle_beta 87.939227
_cell_angle_gamma 72.432917
_cell_volume 713.259567
_symmetry_space_group_name_H-M "P -1"
_symmetry_group_IT_number 2
_symmetry_cell_setting 'triclinic'
loop_
_space_group_symop_operation_xyz
x,y,z
-x,-y,-z
loop_
_atom_site_type_symbol
_atom_site_label
_atom_site_fract_x
_atom_site_fract_y
_atom_site_fract_z
Si Si1 0.174780 0.402910 0.976641
Si Si2 0.283228 0.517080 0.695179
Si Si3 0.640396 0.475437 0.641299
Si Si4 0.962226 0.245127 0.988567
Si Si5 0.193989 0.964160 0.064677
Si Si6 0.870154 0.849646 0.660879
Si Si7 0.958688 0.953444 0.384594
Si Si8 0.214963 0.332102 0.669100
O O1 0.328831 0.391160 0.906932
O O2 0.015826 0.382295 0.937261
O O3 0.074049 0.630863 0.834869
O O4 0.264129 0.215894 0.219957
O O5 0.445853 0.569564 0.622956
O O6 0.262687 0.376218 0.736439
O O7 0.079021 0.730737 0.519340
O O8 0.813741 0.392450 0.783666
O O9 0.642346 0.659478 0.418998
O O10 0.658560 0.289781 0.727708
O O11 0.155246 0.056230 0.096012
O O12 0.864397 0.140476 0.145157
O O13 0.257353 0.091466 0.881121
O O14 0.000000 0.000000 0.000000
O O15 0.892318 0.017943 0.578617
O O16 0.806210 0.946928 0.468188
O O17 0.000000 0.500000 0.500000
#
# Coordination Sequence:
#
# PCOD8039859 Si02
#       8
#     2   2   2   2   2   2   2   2
#     4   9  16  33  58  80 109 139 187 230 278 338
#     4  11  22  36  55  85 116 148 181 236 286 326
#     4  11  24  38  53  85 121 152 186 234 282 323
#     4  10  18  35  57  80 106 151 194 227 265 333
#     4  10  20  36  57  79 111 154 193 231 263 324
#     4   8  16  31  56  85 101 136 187 236 274 327
#     4   9  18  32  59  82 107 139 188 233 276 338
#     4  12  21  38  59  81 113 156 197 230 267 323
#
# _framework density 22.432224000000001
#
# number of rings (size 3 to 8) (size 9 to 14) (size 15 to 20)
#    0.000    2.000    3.750    1.125    1.750    0.500 
#    4.500    0.000    0.000   28.500    0.000    0.000 
#    0.000    0.000    0.000    0.000    0.000    0.000 
#
# Total GULP energy -198216.071572 kJ/mol
# GULP energy per Si atom -12388.504473 kJ/mol
# Density = 2.238117 g / cm^3
# Si number density = 22.432224 Si / 1000 Ang^3
#
#
#
# Elastic Constant Matrix: (Units=GPa)
#
#
# Indices 1 2 3 4 5 6 
#
# 1 49.7904 22.5207 13.2998 7.9895 -24.8979 -11.1900
# 2 22.5207 84.9998 31.5876 26.5931 -16.8133 -7.5845
# 3 13.2998 31.5876 113.5107 36.3443 -50.6350 -8.9815
# 4 7.9895 26.5931 36.3443 46.0344 -12.6008 -19.9611
# 5 -24.8979 -16.8133 -50.6350 -12.6008 34.3008 8.9094
# 6 -11.1900 -7.5845 -8.9815 -19.9611 8.9094 23.8352
#
#
#
# Elastic Compliance Matrix: (Units=1/GPa)
#
#
# Indices 1 2 3 4 5 6 
#
# 1 0.077545 -0.009448 0.063010 -0.027358 0.139251 -0.017820
# 2 -0.009448 0.016902 -0.003605 -0.009585 -0.005784 -0.006280
# 3 0.063010 -0.003605 0.096706 -0.058330 0.178465 -0.050682
# 4 -0.027358 -0.009585 -0.058330 0.079520 -0.098471 0.065529
# 5 0.139251 -0.005784 0.178465 -0.098471 0.378913 -0.093318
# 6 -0.017820 -0.006280 -0.050682 0.065529 -0.093318 0.102252
#
#
# Mechanical properties :
#
#
# Convention : Reuss Voigt Hill
#
# Bulk Modulus (GPa) = 3.43562 42.56857 23.00209
# Shear Modulus (GPa) = 6.67607 32.89358 19.78483
#
# Velocity S-wave (km/s) = 1.72701 3.83345 2.97304
# Velocity P-wave (km/s) = 2.34769 6.21382 4.69698
#
# Compressibility (1/GPa) = 0.29106811
#
# Stress axis : x y z
#
# Youngs Moduli (GPa) = 12.89578 59.16593 10.34062
#
# Poissons Ratio (x) = 0.55899 -0.65157
# Poissons Ratio (y) = 0.12184 0.03727
# Poissons Ratio (z) = -0.81257 0.21328
#
# Static dielectric constant tensor:
#      x y z
#    x 3.876570 -0.452260 -0.396430 
#    y -0.452260 5.053260 0.187910 
#    z -0.396430 0.187910 4.517240 
# 
# 
# High freq. dielectric constant tensor:
#      x y z
#    x 1.822530 0.007400 -0.046780 
#    y 0.007400 1.895700 0.023560 
#    z -0.046780 0.023560 1.894500 
# 
# From -- ./inp_files/207226.got.cif
#   From: 2010.06.25/outbox.cif.g09.slc.cpg/sg2_104_cif.got.tgz:207226.got - 2010.06.27 13:26:56.
