data_PCOD8039922
_publ_section_title
;
Structure prediction by ZEFSAII (Michael W. Deem and Ramdas Pophale) SiO2 
 PCOD8039922
Probable space group: P -1
;
_chemical_formula_sum "Si O2"
_cell_formula_units_Z 16
_cell_length_a 19.209812
_cell_length_b 12.133092
_cell_length_c 9.478704
_cell_angle_alpha 48.789581
_cell_angle_beta 50.299054
_cell_angle_gamma 28.614571
_cell_volume 784.685099
_symmetry_space_group_name_H-M "P -1"
_symmetry_group_IT_number 2
_symmetry_cell_setting 'triclinic'
loop_
_space_group_symop_operation_xyz
x,y,z
-x,-y,-z
loop_
_atom_site_type_symbol
_atom_site_label
_atom_site_fract_x
_atom_site_fract_y
_atom_site_fract_z
Si Si1 0.910799 0.448085 0.932786
Si Si2 0.152473 0.716664 0.055817
Si Si3 0.249426 0.089353 0.091828
Si Si4 0.783446 0.815731 0.269342
Si Si5 0.004271 0.169616 0.324934
Si Si6 0.537511 0.572592 0.102144
Si Si7 0.506809 0.667592 0.734235
Si Si8 0.230327 0.482949 0.441020
O O1 0.840248 0.445281 0.900828
O O2 0.802409 0.717746 0.895751
O O3 0.054921 0.336504 0.771189
O O4 0.954048 0.275923 0.142865
O O5 0.172194 0.662029 0.242097
O O6 0.295518 0.623003 0.890840
O O7 0.000000 0.000000 0.000000
O O8 0.160894 0.048367 0.255404
O O9 0.423059 0.830329 0.108969
O O10 0.226919 0.183976 0.886391
O O11 0.741475 0.716584 0.482744
O O12 0.665166 0.076007 0.269246
O O13 0.893564 0.383989 0.395072
O O14 0.000000 0.000000 0.500000
O O15 0.473959 0.489154 0.270514
O O16 0.547275 0.582000 0.914592
O O17 0.622944 0.645253 0.561413
#
# Coordination Sequence:
#
# PCOD8039922 Si02
#       8
#     2   2   2   2   2   2   2   2
#     4  11  21  38  59  83 120 159 183 231 294 339
#     4  11  24  39  57  83 116 153 195 235 286 347
#     4  10  19  37  60  84 118 149 194 238 281 343
#     4  10  18  35  58  88 115 143 192 239 280 340
#     4  11  20  35  61  89 114 149 195 239 282 335
#     4   9  19  36  56  82 111 153 192 230 287 341
#     4   9  18  32  58  86 114 142 188 246 285 323
#     4  11  20  35  57  90 111 145 194 236 288 333
#
# _framework density 20.390343999999999
#
# number of rings (size 3 to 8) (size 9 to 14) (size 15 to 20)
#    0.000    1.750    2.500    3.375    0.000    5.000 
#    0.000    0.000    0.000    3.750    0.000    0.000 
#    0.000    0.000    0.000    0.000    0.000    0.000 
#
# Total GULP energy -198265.423345 kJ/mol
# GULP energy per Si atom -12391.588959 kJ/mol
# Density = 2.034393 g / cm^3
# Si number density = 20.390344 Si / 1000 Ang^3
#
#
#
# Elastic Constant Matrix: (Units=GPa)
#
#
# Indices 1 2 3 4 5 6 
#
# 1 97.1229 65.1284 21.6776 1.6747 -33.2236 -3.9858
# 2 65.1284 148.6528 24.7500 5.4641 -16.3832 -6.8422
# 3 21.6776 24.7500 64.8351 0.6250 -30.1959 -6.5679
# 4 1.6747 5.4641 0.6250 22.5333 8.1192 -12.2809
# 5 -33.2236 -16.3832 -30.1959 8.1192 27.2094 2.4051
# 6 -3.9858 -6.8422 -6.5679 -12.2809 2.4051 32.1136
#
#
#
# Elastic Compliance Matrix: (Units=1/GPa)
#
#
# Indices 1 2 3 4 5 6 
#
# 1 0.053072 -0.015924 0.043751 -0.054984 0.121766 -0.018004
# 2 -0.015924 0.012280 -0.013547 0.012596 -0.031287 0.005029
# 3 0.043751 -0.013547 0.073859 -0.065624 0.148453 -0.018564
# 4 -0.054984 0.012596 -0.065624 0.137640 -0.177727 0.048385
# 5 0.121766 -0.031287 0.148453 -0.177727 0.389531 -0.058331
# 6 -0.018004 0.005029 -0.018564 0.048385 -0.058331 0.049051
#
#
# Mechanical properties :
#
#
# Convention : Reuss Voigt Hill
#
# Bulk Modulus (GPa) = 5.96051 59.30254 32.63152
# Shear Modulus (GPa) = 6.73133 29.64159 18.18646
#
# Velocity S-wave (km/s) = 1.81890 3.81689 2.98973
# Velocity P-wave (km/s) = 2.70938 6.96933 5.28736
#
# Compressibility (1/GPa) = 0.16777097
#
# Stress axis : x y z
#
# Youngs Moduli (GPa) = 18.84226 81.43534 13.53937
#
# Poissons Ratio (x) = 1.29680 -0.59236
# Poissons Ratio (y) = 0.30005 0.18341
# Poissons Ratio (z) = -0.82437 1.10318
#
# Static dielectric constant tensor:
#      x y z
#    x 3.677710 -0.019740 -0.392590 
#    y -0.019740 3.800380 0.089720 
#    z -0.392590 0.089720 3.601630 
# 
# 
# High freq. dielectric constant tensor:
#      x y z
#    x 1.783380 0.004710 -0.034540 
#    y 0.004710 1.809400 0.007540 
#    z -0.034540 0.007540 1.774890 
# 
# From -- ./inp_files/277971.got.cif
#   From: 2010.06.25/outbox.cif.g09.slc.cpg/sg2_139_cif.got.tgz:277971.got - 2010.06.27 13:26:56.
