data_PCOD8039189
_publ_section_title
;
Structure prediction by ZEFSAII (Michael W. Deem and Ramdas Pophale) SiO2 
 PCOD8039189
Probable space group: P -1
;
_chemical_formula_sum "Si O2"
_cell_formula_units_Z 16
_cell_length_a 23.330867
_cell_length_b 9.150675
_cell_length_c 11.457153
_cell_angle_alpha 71.435382
_cell_angle_beta 146.602206
_cell_angle_gamma 132.511219
_cell_volume 789.712597
_symmetry_space_group_name_H-M "P -1"
_symmetry_group_IT_number 2
_symmetry_cell_setting 'triclinic'
loop_
_space_group_symop_operation_xyz
x,y,z
-x,-y,-z
loop_
_atom_site_type_symbol
_atom_site_label
_atom_site_fract_x
_atom_site_fract_y
_atom_site_fract_z
Si Si1 0.734058 0.438073 0.695803
Si Si2 0.804514 0.735160 0.211704
Si Si3 0.732459 0.367776 0.343127
Si Si4 0.006966 0.335543 0.094692
Si Si5 0.388597 0.176680 0.118794
Si Si6 0.382885 0.942661 0.980647
Si Si7 0.687206 0.421965 0.880086
Si Si8 0.671867 0.008241 0.694394
O O1 0.901647 0.666597 0.845098
O O2 0.591041 0.393452 0.424296
O O3 0.783015 0.508919 0.897470
O O4 0.672495 0.192567 0.623003
O O5 0.727482 0.518052 0.221910
O O6 0.676786 0.726381 0.015473
O O7 0.790818 0.664498 0.071873
O O8 0.000000 0.000000 0.500000
O O9 0.905511 0.566446 0.655604
O O10 0.580630 0.176897 0.225461
O O11 0.723689 0.211613 0.279131
O O12 0.000000 0.500000 0.000000
O O13 0.811874 0.066616 0.851703
O O14 0.333456 0.045990 0.931581
O O15 0.302027 0.980158 0.125605
O O16 0.337567 0.763570 0.045000
O O17 0.501573 0.269317 0.572431
#
# Coordination Sequence:
#
# PCOD8039189 Si02
#       8
#     2   2   2   2   2   2   2   2
#     4  10  18  34  64  92 122 152 201 259 290 350
#     4  11  26  42  57  84 129 167 196 242 307 367
#     4  10  21  38  60  89 124 156 197 253 299 353
#     4  10  19  34  57  93 126 146 188 253 316 336
#     4  11  19  37  62  85 119 161 204 242 296 357
#     4  10  18  36  65  90 114 155 210 249 291 354
#     4  10  19  39  65  90 118 156 206 249 297 355
#     4  10  18  32  63  93 121 151 200 258 299 344
#
# _framework density 20.260535999999998
#
# number of rings (size 3 to 8) (size 9 to 14) (size 15 to 20)
#    0.000    1.750    3.750    2.250    0.000    2.500 
#    4.500    1.875    2.750    2.250    0.000    0.000 
#    0.000    0.000    0.000    0.000    0.000    0.000 
#
# Total GULP energy -198272.495435 kJ/mol
# GULP energy per Si atom -12392.030965 kJ/mol
# Density = 2.021442 g / cm^3
# Si number density = 20.260536 Si / 1000 Ang^3
#
#
#
# Elastic Constant Matrix: (Units=GPa)
#
#
# Indices 1 2 3 4 5 6 
#
# 1 163.6153 30.4115 67.1736 8.5940 -1.9404 -1.8768
# 2 30.4115 28.5484 20.9467 -3.7498 -8.6852 -17.8797
# 3 67.1736 20.9467 97.8783 1.8605 -0.4867 -7.6441
# 4 8.5940 -3.7498 1.8605 32.2663 -0.9174 1.9920
# 5 -1.9404 -8.6852 -0.4867 -0.9174 38.4143 1.8801
# 6 -1.8768 -17.8797 -7.6441 1.9920 1.8801 26.1730
#
#
#
# Elastic Compliance Matrix: (Units=1/GPa)
#
#
# Indices 1 2 3 4 5 6 
#
# 1 0.011480 -0.017622 -0.004992 -0.004153 -0.002972 -0.012143
# 2 -0.017622 0.110147 -0.006209 0.014149 0.020867 0.069592
# 3 -0.004992 -0.006209 0.014962 -0.000290 -0.001468 -0.000102
# 4 -0.004153 0.014149 -0.000290 0.033457 0.003467 0.006488
# 5 -0.002972 0.020867 -0.001468 0.003467 0.030116 0.011185
# 6 -0.012143 0.069592 -0.000102 0.006488 0.011185 0.083550
#
#
# Mechanical properties :
#
#
# Convention : Reuss Voigt Hill
#
# Bulk Modulus (GPa) = 12.66711 58.56727 35.61719
# Shear Modulus (GPa) = 13.59905 30.80475 22.20190
#
# Velocity S-wave (km/s) = 2.59358 3.90350 3.31391
# Velocity P-wave (km/s) = 3.90315 7.02042 5.67982
#
# Compressibility (1/GPa) = 0.07894462
#
# Stress axis : x y z
#
# Youngs Moduli (GPa) = 87.10569 9.07874 66.83740
#
# Poissons Ratio (x) = 0.15998 0.33365
# Poissons Ratio (y) = 1.53494 0.41498
# Poissons Ratio (z) = 0.43483 0.05637
#
# Static dielectric constant tensor:
#      x y z
#    x 4.358070 0.295360 0.124920 
#    y 0.295360 3.452830 0.126710 
#    z 0.124920 0.126710 3.737240 
# 
# 
# High freq. dielectric constant tensor:
#      x y z
#    x 1.808090 0.018010 -0.006660 
#    y 0.018010 1.759030 -0.004860 
#    z -0.006660 -0.004860 1.783520 
# 
# From -- ./inp_files/328963.got.cif
#   From: 2010.06.25/outbox.cif.g09.slc.cpg/sg2_165_cif.got.tgz:328963.got - 2010.06.27 13:26:56.
