data_PCOD8039475
_publ_section_title
;
Structure prediction by ZEFSAII (Michael W. Deem and Ramdas Pophale) SiO2 
 PCOD8039475
Probable space group: P -1
;
_chemical_formula_sum "Si O2"
_cell_formula_units_Z 16
_cell_length_a 12.594466
_cell_length_b 12.815304
_cell_length_c 16.273715
_cell_angle_alpha 131.145887
_cell_angle_beta 155.283379
_cell_angle_gamma 59.420640
_cell_volume 793.333177
_symmetry_space_group_name_H-M "P -1"
_symmetry_group_IT_number 2
_symmetry_cell_setting 'triclinic'
loop_
_space_group_symop_operation_xyz
x,y,z
-x,-y,-z
loop_
_atom_site_type_symbol
_atom_site_label
_atom_site_fract_x
_atom_site_fract_y
_atom_site_fract_z
Si Si1 0.670511 0.711716 0.163893
Si Si2 0.347967 0.081436 0.206432
Si Si3 0.777591 0.723381 0.474259
Si Si4 0.722214 0.419874 0.043416
Si Si5 0.170936 0.026729 0.474348
Si Si6 0.657342 0.218351 0.163949
Si Si7 0.364595 0.098626 0.043351
Si Si8 0.064978 0.222957 0.206474
O O1 0.401961 0.652724 0.996689
O O2 0.841161 0.864746 0.401835
O O3 0.839894 0.594208 0.224498
O O4 0.562444 0.718692 0.999920
O O5 0.276515 0.190674 0.276487
O O6 0.641945 0.073582 0.427163
O O7 0.332168 0.148728 0.139546
O O8 0.158412 0.920811 0.000072
O O9 0.511729 0.602368 0.199849
O O10 0.744724 0.877603 0.499911
O O11 0.037357 0.695979 0.598101
O O12 0.787481 0.711807 0.572825
O O13 0.947200 0.341444 0.139819
O O14 0.887930 0.914329 0.199927
O O15 0.591299 0.058004 0.996625
O O16 0.609126 0.209615 0.224521
#
# Coordination Sequence:
#
# PCOD8039475 Si02
#       8
#     2   2   2   2   2   2   2   2
#     4  10  18  34  51  76 114 132 171 214 258 316
#     4  11  20  34  52  74 109 139 175 216 252 311
#     4  10  18  34  49  79 108 136 172 205 266 313
#     4  10  20  34  52  77 109 141 168 212 263 312
#     4  10  18  34  49  79 108 136 172 205 266 313
#     4  10  18  34  51  76 114 132 171 214 258 316
#     4  10  20  34  52  77 109 141 168 212 263 312
#     4  11  20  34  52  74 109 139 175 216 252 311
#
# _framework density 20.168071000000001
#
# number of rings (size 3 to 8) (size 9 to 14) (size 15 to 20)
#    0.000    1.750    7.500    0.000    0.000    2.500 
#    9.000    0.000    0.000    0.750    0.000    1.750 
#    0.000    0.000    0.000    0.000    0.000    0.000 
#
# Total GULP energy -198283.008401 kJ/mol
# GULP energy per Si atom -12392.688025 kJ/mol
# Density = 2.012217 g / cm^3
# Si number density = 20.168071 Si / 1000 Ang^3
#
#
#
# Elastic Constant Matrix: (Units=GPa)
#
#
# Indices 1 2 3 4 5 6 
#
# 1 100.1985 41.7124 43.7433 -2.1812 -22.2900 -13.3059
# 2 41.7124 105.4403 43.3240 -13.6965 -5.9952 -19.3110
# 3 43.7433 43.3240 89.0692 -20.6592 -13.4399 -5.9840
# 4 -2.1812 -13.6965 -20.6592 18.8459 3.8415 -4.6468
# 5 -22.2900 -5.9952 -13.4399 3.8415 15.9823 -2.2945
# 6 -13.3059 -19.3110 -5.9840 -4.6468 -2.2945 19.3324
#
#
#
# Elastic Compliance Matrix: (Units=1/GPa)
#
#
# Indices 1 2 3 4 5 6 
#
# 1 0.021419 -0.003966 -0.006313 -0.010474 0.026959 0.009509
# 2 -0.003966 0.016552 -0.002186 0.013584 -0.002108 0.016143
# 3 -0.006313 -0.002186 0.021445 0.021810 0.004004 0.005826
# 4 -0.010474 0.013584 0.021810 0.096177 -0.009245 0.035131
# 5 0.026959 -0.002108 0.004004 -0.009245 0.109044 0.028408
# 6 0.009509 0.016143 0.005826 0.035131 0.028408 0.088015
#
#
# Mechanical properties :
#
#
# Convention : Reuss Voigt Hill
#
# Bulk Modulus (GPa) = 28.99684 61.36304 45.17994
# Shear Modulus (GPa) = 12.85087 21.89401 17.37244
#
# Velocity S-wave (km/s) = 2.52700 3.29839 2.93812
# Velocity P-wave (km/s) = 4.78781 6.70803 5.82755
#
# Compressibility (1/GPa) = 0.03448651
#
# Stress axis : x y z
#
# Youngs Moduli (GPa) = 46.68751 60.41415 46.63018
#
# Poissons Ratio (x) = 0.23959 0.29438
# Poissons Ratio (y) = 0.18515 0.10195
# Poissons Ratio (z) = 0.29474 0.13209
#
# Static dielectric constant tensor:
#      x y z
#    x 3.432860 -0.031470 -0.153590 
#    y -0.031470 3.508590 -0.203880 
#    z -0.153590 -0.203880 3.569070 
# 
# 
# High freq. dielectric constant tensor:
#      x y z
#    x 1.753970 0.008110 -0.016760 
#    y 0.008110 1.767750 -0.027180 
#    z -0.016760 -0.027180 1.777810 
# 
# From -- ./inp_files/522536.got.cif
#   From: 2010.06.25/outbox.cif.g09.slc.cpg/sg2_262_cif.got.tgz:522536.got - 2010.06.27 13:26:56.
