data_PCOD8039457
_publ_section_title
;
Structure prediction by ZEFSAII (Michael W. Deem and Ramdas Pophale) SiO2 
 PCOD8039457
Probable space group: P -1
;
_chemical_formula_sum "Si O2"
_cell_formula_units_Z 16
_cell_length_a 9.604214
_cell_length_b 19.024499
_cell_length_c 13.121743
_cell_angle_alpha 139.415372
_cell_angle_beta 41.476128
_cell_angle_gamma 150.700815
_cell_volume 734.295453
_symmetry_space_group_name_H-M "P -1"
_symmetry_group_IT_number 2
_symmetry_cell_setting 'triclinic'
loop_
_space_group_symop_operation_xyz
x,y,z
-x,-y,-z
loop_
_atom_site_type_symbol
_atom_site_label
_atom_site_fract_x
_atom_site_fract_y
_atom_site_fract_z
Si Si1 0.505222 0.941726 0.769849
Si Si2 0.615183 0.711212 0.146594
Si Si3 0.750664 0.971947 0.862310
Si Si4 0.275728 0.155474 0.073374
Si Si5 0.547513 0.545461 0.189748
Si Si6 0.292866 0.818751 0.415284
Si Si7 0.839961 0.221838 0.778502
Si Si8 0.059742 0.305093 0.321963
O O1 0.202396 0.792369 0.723598
O O2 0.637913 0.900614 0.730907
O O3 0.729367 0.059204 0.686547
O O4 0.484523 0.042445 0.960669
O O5 0.529311 0.642036 0.231387
O O6 0.489590 0.782972 0.268690
O O7 0.965323 0.849272 0.102588
O O8 0.513159 0.586480 0.983563
O O9 0.782105 0.874449 0.805030
O O10 0.266853 0.274736 0.175013
O O11 0.584606 0.216935 0.936206
O O12 0.000000 0.000000 0.000000
O O13 0.295523 0.477828 0.340054
O O14 0.866620 0.645288 0.174573
O O15 0.093910 0.750407 0.347583
O O16 0.068148 0.724939 0.529038
O O17 0.500000 0.000000 0.500000
#
# Coordination Sequence:
#
# PCOD8039457 Si02
#       8
#     2   2   2   2   2   2   2   2
#     4  10  19  35  62  95 127 159 214 273 315 370
#     4  11  23  41  67  98 130 172 214 264 331 387
#     4  10  18  33  63  95 122 156 214 277 309 360
#     4  11  19  36  65  93 123 162 217 269 316 360
#     4  11  25  43  66  95 135 169 213 268 327 392
#     4  12  25  42  68  94 130 173 223 266 321 388
#     4  11  22  41  65  97 128 167 220 272 320 382
#     4  12  23  41  62  92 131 178 207 266 329 386
#
# _framework density 21.789596
#
# number of rings (size 3 to 8) (size 9 to 14) (size 15 to 20)
#    0.000    1.000    6.250    2.250    0.000    3.000 
#    0.000    3.750    0.000    0.000    0.000    0.000 
#    0.000    0.000    0.000    0.000    0.000    0.000 
#
# Total GULP energy -198285.057997 kJ/mol
# GULP energy per Si atom -12392.816125 kJ/mol
# Density = 2.174000 g / cm^3
# Si number density = 21.789596 Si / 1000 Ang^3
#
#
#
# Elastic Constant Matrix: (Units=GPa)
#
#
# Indices 1 2 3 4 5 6 
#
# 1 165.3702 59.6362 33.6949 -3.5016 39.3088 0.0607
# 2 59.6362 120.7532 21.7321 -20.3954 18.1181 5.1963
# 3 33.6949 21.7321 43.1281 -15.3260 17.9843 -6.9773
# 4 -3.5016 -20.3954 -15.3260 29.9970 -14.0279 3.4518
# 5 39.3088 18.1181 17.9843 -14.0279 29.4724 -4.4150
# 6 0.0607 5.1963 -6.9773 3.4518 -4.4150 42.0477
#
#
#
# Elastic Compliance Matrix: (Units=1/GPa)
#
#
# Indices 1 2 3 4 5 6 
#
# 1 0.012397 -0.004743 -0.004785 -0.011810 -0.016468 -0.000985
# 2 -0.004743 0.011844 -0.000884 0.008929 0.003539 -0.001965
# 3 -0.004785 -0.000884 0.036111 0.012910 -0.008341 0.004173
# 4 -0.011810 0.008929 0.012910 0.058870 0.030316 -0.000594
# 5 -0.016468 0.003539 -0.008341 0.030316 0.073756 0.003458
# 6 -0.000985 -0.001965 0.004173 -0.000594 0.003458 0.025131
#
#
# Mechanical properties :
#
#
# Convention : Reuss Voigt Hill
#
# Bulk Modulus (GPa) = 25.29707 62.15310 43.72509
# Shear Modulus (GPa) = 19.83273 34.58263 27.20768
#
# Velocity S-wave (km/s) = 3.02021 3.98819 3.53746
# Velocity P-wave (km/s) = 4.87823 7.05646 6.06592
#
# Compressibility (1/GPa) = 0.03953027
#
# Stress axis : x y z
#
# Youngs Moduli (GPa) = 80.66403 84.42810 27.69249
#
# Poissons Ratio (x) = 0.40043 0.13250
# Poissons Ratio (y) = 0.38258 0.02447
# Poissons Ratio (z) = 0.38595 0.07460
#
# Static dielectric constant tensor:
#      x y z
#    x 4.606150 -0.375080 0.379870 
#    y -0.375080 3.929110 -0.256790 
#    z 0.379870 -0.256790 3.610910 
# 
# 
# High freq. dielectric constant tensor:
#      x y z
#    x 1.886780 -0.011630 0.021760 
#    y -0.011630 1.852160 -0.024660 
#    z 0.021760 -0.024660 1.819460 
# 
# From -- ./inp_files/403192.got.cif
#   From: 2010.06.25/outbox.cif.g09.slc.cpg/sg2_202_cif.got.tgz:403192.got - 2010.06.27 13:26:56.
