data_PCOD8039745
_publ_section_title
;
Structure prediction by ZEFSAII (Michael W. Deem and Ramdas Pophale) SiO2 
 PCOD8039745
Probable space group: P -1
;
_chemical_formula_sum "Si O2"
_cell_formula_units_Z 12
_cell_length_a 15.846199
_cell_length_b 18.610817
_cell_length_c 11.536012
_cell_angle_alpha 158.300090
_cell_angle_beta 144.449242
_cell_angle_gamma 22.895114
_cell_volume 467.710491
_symmetry_space_group_name_H-M "P -1"
_symmetry_group_IT_number 2
_symmetry_cell_setting 'triclinic'
loop_
_space_group_symop_operation_xyz
x,y,z
-x,-y,-z
loop_
_atom_site_type_symbol
_atom_site_label
_atom_site_fract_x
_atom_site_fract_y
_atom_site_fract_z
Si Si1 0.180059 0.050944 0.363725
Si Si2 0.545459 0.217835 0.130857
Si Si3 0.284248 0.332471 0.808921
Si Si4 0.309039 0.605321 0.662389
Si Si5 0.038696 0.683861 0.841196
Si Si6 0.439782 0.243614 0.476494
O O1 0.342010 0.892422 0.419149
O O2 0.122388 0.329061 0.673712
O O3 0.306917 0.809516 0.037088
O O4 0.946559 0.192371 0.352909
O O5 0.457562 0.463489 0.496852
O O6 0.363360 0.398528 0.095269
O O7 0.569212 0.979505 0.856300
O O8 0.792208 0.039715 0.091949
O O9 0.151576 0.596880 0.962943
O O10 0.500000 0.000000 0.500000
O O11 0.436041 0.309561 0.437592
O O12 0.212992 0.580508 0.783002
O O13 0.000000 0.500000 0.500000
#
# Coordination Sequence:
#
# PCOD8039745 Si02
#       6
#     2   2   2   2   2   2
#     4  10  22  38  59  82 115 159 185 227 292 340
#     4  10  22  35  58  92 111 147 193 240 278 326
#     4  11  19  37  64  82 112 147 198 232 275 338
#     4  11  23  38  56  87 121 148 186 234 289 341
#     4  10  18  34  62  86 106 147 195 234 278 325
#     4  10  20  36  63  80 112 153 192 231 280 340
#
# _framework density 25.656897000000001
#
# number of rings (size 3 to 8) (size 9 to 14) (size 15 to 20)
#    0.000    1.667    5.000    3.000    0.000    4.000 
#    0.000    1.667    0.000    0.000    0.000    0.000 
#    0.000    0.000    0.000    0.000    0.000    0.000 
#
# Total GULP energy -148835.974312 kJ/mol
# GULP energy per Si atom -12402.997859 kJ/mol
# Density = 2.559850 g / cm^3
# Si number density = 25.656897 Si / 1000 Ang^3
#
#
#
# Elastic Constant Matrix: (Units=GPa)
#
#
# Indices 1 2 3 4 5 6 
#
# 1 63.9862 12.6977 16.3564 -6.6778 -30.6959 -4.6865
# 2 12.6977 109.8818 42.1993 -8.8075 -11.8910 2.2979
# 3 16.3564 42.1993 111.7496 -4.1452 -13.7729 -2.9890
# 4 -6.6778 -8.8075 -4.1452 26.1694 -0.5907 -3.0136
# 5 -30.6959 -11.8910 -13.7729 -0.5907 41.8364 -2.9538
# 6 -4.6865 2.2979 -2.9890 -3.0136 -2.9538 36.1250
#
#
#
# Elastic Compliance Matrix: (Units=1/GPa)
#
#
# Indices 1 2 3 4 5 6 
#
# 1 0.026517 -0.000057 -0.001008 0.007676 0.019612 0.005604
# 2 -0.000057 0.011037 -0.003837 0.003062 0.001832 -0.000622
# 3 -0.001008 -0.003837 0.010814 0.000342 0.001818 0.001185
# 4 0.007676 0.003062 0.000342 0.041997 0.007557 0.004951
# 5 0.019612 0.001832 0.001818 0.007557 0.039976 0.006477
# 6 0.005604 -0.000622 0.001185 0.004951 0.006477 0.029489
#
#
# Mechanical properties :
#
#
# Convention : Reuss Voigt Hill
#
# Bulk Modulus (GPa) = 25.93033 47.56937 36.74985
# Shear Modulus (GPa) = 27.39905 35.11712 31.25808
#
# Velocity S-wave (km/s) = 3.27142 3.70364 3.49422
# Velocity P-wave (km/s) = 4.93945 6.07207 5.53481
#
# Compressibility (1/GPa) = 0.03856487
#
# Stress axis : x y z
#
# Youngs Moduli (GPa) = 37.71111 90.60033 92.47673
#
# Poissons Ratio (x) = 0.00514 0.09322
# Poissons Ratio (y) = 0.00214 0.35483
# Poissons Ratio (z) = 0.03801 0.34763
#
# Static dielectric constant tensor:
#      x y z
#    x 4.944640 0.090400 -0.029240 
#    y 0.090400 5.385970 0.153120 
#    z -0.029240 0.153120 4.579310 
# 
# 
# High freq. dielectric constant tensor:
#      x y z
#    x 2.038300 0.010050 0.018690 
#    y 0.010050 2.034970 -0.009710 
#    z 0.018690 -0.009710 2.011940 
# 
# From -- ./inp_files/151211.got.cif
#   From: 2010.06.25/outbox.cif.g09.slc.cpg/sg2_76_cif.got.tgz:151211.got - 2010.06.27 13:26:56.
