data_PCOD8039796
_publ_section_title
;
Structure prediction by ZEFSAII (Michael W. Deem and Ramdas Pophale) SiO2 
 PCOD8039796
Probable space group: P -1
;
_chemical_formula_sum "Si O2"
_cell_formula_units_Z 16
_cell_length_a 23.805817
_cell_length_b 22.469433
_cell_length_c 15.225874
_cell_angle_alpha 150.659344
_cell_angle_beta 161.152656
_cell_angle_gamma 19.018633
_cell_volume 836.671901
_symmetry_space_group_name_H-M "P -1"
_symmetry_group_IT_number 2
_symmetry_cell_setting 'triclinic'
loop_
_space_group_symop_operation_xyz
x,y,z
-x,-y,-z
loop_
_atom_site_type_symbol
_atom_site_label
_atom_site_fract_x
_atom_site_fract_y
_atom_site_fract_z
Si Si1 0.456423 0.591240 0.691029
Si Si2 0.291343 0.324888 0.475641
Si Si3 0.862053 0.091572 0.071814
Si Si4 0.906265 0.328241 0.879296
Si Si5 0.247305 0.920243 0.908130
Si Si6 0.196832 0.637821 0.749393
Si Si7 0.794803 0.707064 0.498009
Si Si8 0.167730 0.705404 0.995495
O O1 0.714242 0.485077 0.873955
O O2 0.266707 0.595891 0.367290
O O3 0.281883 0.802298 0.730173
O O4 0.557180 0.478155 0.785971
O O5 0.610933 0.180756 0.752650
O O6 0.125295 0.538072 0.486070
O O7 0.267669 0.289149 0.491424
O O8 0.148203 0.293472 0.167406
O O9 0.798928 0.121990 0.121182
O O10 0.960516 0.174984 0.297024
O O11 0.120666 0.873733 0.150377
O O12 0.007751 0.140462 0.816410
O O13 0.521684 0.850904 0.224000
O O14 0.160639 0.663172 0.832126
O O15 0.500000 0.500000 0.000000
O O16 0.000000 0.500000 0.500000
O O17 0.914236 0.778481 0.763166
#
# Coordination Sequence:
#
# PCOD8039796 Si02
#       8
#     2   2   2   2   2   2   2   2
#     4  11  22  34  55  81 115 150 181 223 272 326
#     4  10  18  35  52  78 116 136 181 225 272 333
#     4  10  21  34  56  84 108 145 181 226 276 326
#     4  11  22  36  53  85 111 149 188 218 273 327
#     4  11  20  37  57  82 118 141 181 228 275 334
#     4  10  21  34  55  80 107 148 178 224 280 323
#     4  11  17  29  55  86 105 143 170 221 297 321
#     4  12  19  35  55  82 115 138 183 229 272 335
#
# _framework density 19.123387999999998
#
# number of rings (size 3 to 8) (size 9 to 14) (size 15 to 20)
#    0.000    1.250    5.000    3.000    0.000    2.000 
#    0.000    0.000    0.000    7.500    0.000    0.000 
#    0.000    0.000    0.000    0.000    0.000    0.000 
#
# Total GULP energy -198289.298700 kJ/mol
# GULP energy per Si atom -12393.081169 kJ/mol
# Density = 1.907986 g / cm^3
# Si number density = 19.123388 Si / 1000 Ang^3
#
#
#
# Elastic Constant Matrix: (Units=GPa)
#
#
# Indices 1 2 3 4 5 6 
#
# 1 39.9786 26.2672 20.9159 5.1981 -3.3214 9.4637
# 2 26.2672 106.8955 22.7998 19.0637 -2.1694 8.1928
# 3 20.9159 22.7998 69.6523 8.3659 -6.3887 6.9423
# 4 5.1981 19.0637 8.3659 26.6256 0.2804 4.0261
# 5 -3.3214 -2.1694 -6.3887 0.2804 17.8264 4.3847
# 6 9.4637 8.1928 6.9423 4.0261 4.3847 32.1034
#
#
#
# Elastic Compliance Matrix: (Units=1/GPa)
#
#
# Indices 1 2 3 4 5 6 
#
# 1 0.035364 -0.006642 -0.007338 0.001314 0.005099 -0.008004
# 2 -0.006642 0.012556 -0.001235 -0.007296 -0.000022 -0.000061
# 3 -0.007338 -0.001235 0.018014 -0.003134 0.005422 -0.001765
# 4 0.001314 -0.007296 -0.003134 0.044001 -0.001687 -0.003136
# 5 0.005099 -0.000022 0.005422 -0.001687 0.061691 -0.010884
# 6 -0.008004 -0.000061 -0.001765 -0.003136 -0.010884 0.035786
#
#
# Mechanical properties :
#
#
# Convention : Reuss Voigt Hill
#
# Bulk Modulus (GPa) = 28.16552 39.61023 33.88788
# Shear Modulus (GPa) = 20.02593 25.08067 22.55330
#
# Velocity S-wave (km/s) = 3.23955 3.62542 3.43790
# Velocity P-wave (km/s) = 5.36220 6.18731 5.78947
#
# Compressibility (1/GPa) = 0.03550440
#
# Stress axis : x y z
#
# Youngs Moduli (GPa) = 28.27746 79.64410 55.51140
#
# Poissons Ratio (x) = 0.52901 0.40732
# Poissons Ratio (y) = 0.18782 0.06856
# Poissons Ratio (z) = 0.20749 0.09837
#
# Static dielectric constant tensor:
#      x y z
#    x 3.419680 0.151830 0.015990 
#    y 0.151830 3.969550 0.229430 
#    z 0.015990 0.229430 3.757950 
# 
# 
# High freq. dielectric constant tensor:
#      x y z
#    x 1.725370 -0.005280 -0.001690 
#    y -0.005280 1.759550 0.009890 
#    z -0.001690 0.009890 1.714530 
# 
# From -- ./inp_files/250003.got.cif
#   From: 2010.06.25/outbox.cif.g09.slc.cpg/sg2_126_cif.got.tgz:250003.got - 2010.06.27 13:26:56.
