data_PCOD8039646
_publ_section_title
;
Structure prediction by ZEFSAII (Michael W. Deem and Ramdas Pophale) SiO2 
 PCOD8039646
Probable space group: P -1
;
_chemical_formula_sum "Si O2"
_cell_formula_units_Z 16
_cell_length_a 9.018999
_cell_length_b 12.419073
_cell_length_c 16.177342
_cell_angle_alpha 28.134548
_cell_angle_beta 84.852181
_cell_angle_gamma 95.314083
_cell_volume 792.044948
_symmetry_space_group_name_H-M "P -1"
_symmetry_group_IT_number 2
_symmetry_cell_setting 'triclinic'
loop_
_space_group_symop_operation_xyz
x,y,z
-x,-y,-z
loop_
_atom_site_type_symbol
_atom_site_label
_atom_site_fract_x
_atom_site_fract_y
_atom_site_fract_z
Si Si1 0.333542 0.850265 0.940323
Si Si2 0.794238 0.663207 0.781470
Si Si3 0.877155 0.136848 0.905039
Si Si4 0.863332 0.009985 0.272708
Si Si5 0.305212 0.025055 0.148640
Si Si6 0.980318 0.364554 0.507845
Si Si7 0.164034 0.877755 0.620268
Si Si8 0.792926 0.594773 0.019861
O O1 0.286589 0.970464 0.781240
O O2 0.520858 0.987543 0.854975
O O3 0.299224 0.563664 0.120060
O O4 0.242503 0.913386 0.978739
O O5 0.747826 0.589417 0.928902
O O6 0.980095 0.729718 0.707086
O O7 0.752676 0.905947 0.597302
O O8 0.776139 0.046238 0.888182
O O9 0.981317 0.429459 0.704212
O O10 0.000000 0.000000 0.000000
O O11 0.891168 0.766053 0.410413
O O12 0.822793 0.982170 0.389321
O O13 0.018051 0.253500 0.081082
O O14 0.199749 0.836244 0.352454
O O15 0.312295 0.292814 0.995626
O O16 0.000000 0.500000 0.500000
O O17 0.250394 0.680759 0.756719
#
# Coordination Sequence:
#
# PCOD8039646 Si02
#       8
#     2   2   2   2   2   2   2   2
#     4  12  21  38  62  92 126 156 198 255 323 356
#     4  10  20  32  61  92 118 164 206 255 297 358
#     4  11  23  42  66  88 114 160 210 254 297 368
#     4  10  18  35  60  86 119 162 200 253 300 360
#     4  10  24  40  59  89 126 160 192 258 316 362
#     4   9  19  39  60  83 111 154 208 243 293 365
#     4  10  18  34  58  91 119 161 217 250 288 360
#     4  10  18  39  58  83 125 160 214 245 296 362
#
# _framework density 20.200873000000001
#
# number of rings (size 3 to 8) (size 9 to 14) (size 15 to 20)
#    0.000    1.750    2.500    4.125    0.000    1.500 
#    0.000    8.750    0.000    0.000    0.000    0.000 
#    0.000    0.000    0.000    0.000    0.000    0.000 
#
# Total GULP energy -198362.832708 kJ/mol
# GULP energy per Si atom -12397.677044 kJ/mol
# Density = 2.015489 g / cm^3
# Si number density = 20.200873 Si / 1000 Ang^3
#
#
#
# Elastic Constant Matrix: (Units=GPa)
#
#
# Indices 1 2 3 4 5 6 
#
# 1 125.9084 39.1334 52.3538 -1.4289 7.9453 1.9452
# 2 39.1334 86.5876 23.3608 -13.6360 7.9015 -5.7863
# 3 52.3538 23.3608 121.7081 -15.7127 31.9187 -7.1355
# 4 -1.4289 -13.6360 -15.7127 29.5473 -5.4267 9.7396
# 5 7.9453 7.9015 31.9187 -5.4267 25.0027 -2.9970
# 6 1.9452 -5.7863 -7.1355 9.7396 -2.9970 25.6654
#
#
#
# Elastic Compliance Matrix: (Units=1/GPa)
#
#
# Indices 1 2 3 4 5 6 
#
# 1 0.011470 -0.004669 -0.005641 -0.003260 0.004112 -0.001773
# 2 -0.004669 0.014743 0.000727 0.006061 -0.002635 0.001272
# 3 -0.005641 0.000727 0.015749 0.004893 -0.017350 0.001087
# 4 -0.003260 0.006061 0.004893 0.043675 0.000734 -0.013514
# 5 0.004112 -0.002635 -0.017350 0.000734 0.061978 0.001229
# 6 -0.001773 0.001272 0.001087 -0.013514 0.001229 0.044958
#
#
# Mechanical properties :
#
#
# Convention : Reuss Voigt Hill
#
# Bulk Modulus (GPa) = 43.86763 62.65554 53.26158
# Shear Modulus (GPa) = 22.79586 30.66682 26.73134
#
# Velocity S-wave (km/s) = 3.36290 3.90050 3.64163
# Velocity P-wave (km/s) = 6.06973 7.16720 6.64118
#
# Compressibility (1/GPa) = 0.02279585
#
# Stress axis : x y z
#
# Youngs Moduli (GPa) = 87.18451 67.82813 63.49642
#
# Poissons Ratio (x) = 0.31670 0.35818
# Poissons Ratio (y) = 0.40707 -0.04616
# Poissons Ratio (z) = 0.49180 -0.04930
#
# Static dielectric constant tensor:
#      x y z
#    x 3.344220 -0.055220 -0.022760 
#    y -0.055220 3.743870 -0.182260 
#    z -0.022760 -0.182260 3.988030 
# 
# 
# High freq. dielectric constant tensor:
#      x y z
#    x 1.760140 -0.005330 0.019120 
#    y -0.005330 1.799690 -0.007390 
#    z 0.019120 -0.007390 1.786800 
# 
# From -- ./inp_files/187057.got.cif
#   From: 2010.06.25/outbox.cif.g09.slc.cpg/sg2_94_cif.got.tgz:187057.got - 2010.06.27 13:26:56.
