data_PCOD8039310
_publ_section_title
;
Structure prediction by ZEFSAII (Michael W. Deem and Ramdas Pophale) SiO2 
 PCOD8039310
Probable space group: P -1
;
_chemical_formula_sum "Si O2"
_cell_formula_units_Z 16
_cell_length_a 10.495553
_cell_length_b 17.092550
_cell_length_c 10.153509
_cell_angle_alpha 71.907354
_cell_angle_beta 52.387591
_cell_angle_gamma 114.528484
_cell_volume 817.348833
_symmetry_space_group_name_H-M "P -1"
_symmetry_group_IT_number 2
_symmetry_cell_setting 'triclinic'
loop_
_space_group_symop_operation_xyz
x,y,z
-x,-y,-z
loop_
_atom_site_type_symbol
_atom_site_label
_atom_site_fract_x
_atom_site_fract_y
_atom_site_fract_z
Si Si1 0.052956 0.925966 0.993219
Si Si2 0.622407 0.200177 0.516312
Si Si3 0.856384 0.527334 0.052183
Si Si4 0.589961 0.155445 0.859906
Si Si5 0.313483 0.621897 0.259601
Si Si6 0.502699 0.336395 0.598307
Si Si7 0.926708 0.149185 0.704386
Si Si8 0.492033 0.401937 0.093792
O O1 0.007570 0.865417 0.192728
O O2 0.825646 0.788717 0.116669
O O3 0.369166 0.048320 0.684650
O O4 0.000000 0.000000 0.000000
O O5 0.664376 0.180457 0.645324
O O6 0.555902 0.268819 0.539457
O O7 0.898484 0.304563 0.201886
O O8 0.649770 0.461067 0.338663
O O9 0.697745 0.463341 0.048080
O O10 0.000000 0.500000 0.000000
O O11 0.562736 0.236125 0.888944
O O12 0.826699 0.202550 0.760647
O O13 0.303367 0.995295 0.153427
O O14 0.372017 0.598495 0.371373
O O15 0.000000 0.500000 0.500000
O O16 0.441017 0.623746 0.061575
O O17 0.192116 0.253676 0.396370
O O18 0.500000 0.500000 0.000000
#
# Coordination Sequence:
#
# PCOD8039310 Si02
#       8
#     2   2   2   2   2   2   2   2
#     4   9  16  30  52  84 113 151 198 239 293 350
#     4   8  15  27  51  80 110 150 194 234 283 359
#     4  10  18  33  56  85 114 153 205 242 294 367
#     4   9  19  36  58  88 123 158 197 243 319 358
#     4  11  22  39  59  85 127 160 194 254 314 358
#     4   9  17  32  53  79 112 149 196 239 291 350
#     4  10  19  35  61  91 118 159 204 250 290 376
#     4  12  24  38  63  92 121 158 212 256 301 360
#
# _framework density 19.575482999999998
#
# number of rings (size 3 to 8) (size 9 to 14) (size 15 to 20)
#    0.000    2.250    1.250    4.500    0.000    0.500 
#    0.000    0.625    2.750    0.000    0.000    4.375 
#    0.000    0.000    0.000    0.000    0.000    0.000 
#
# Total GULP energy -198250.789132 kJ/mol
# GULP energy per Si atom -12390.674321 kJ/mol
# Density = 1.953093 g / cm^3
# Si number density = 19.575483 Si / 1000 Ang^3
#
#
#
# Elastic Constant Matrix: (Units=GPa)
#
#
# Indices 1 2 3 4 5 6 
#
# 1 122.0308 44.9654 54.4313 -1.2042 7.7698 18.8640
# 2 44.9654 68.8338 61.0668 -4.3534 -3.5743 17.0289
# 3 54.4313 61.0668 170.5320 -30.0867 -4.3633 22.7498
# 4 -1.2042 -4.3534 -30.0867 28.4036 7.0144 -3.7949
# 5 7.7698 -3.5743 -4.3633 7.0144 30.5659 -7.2722
# 6 18.8640 17.0289 22.7498 -3.7949 -7.2722 35.9921
#
#
#
# Elastic Compliance Matrix: (Units=1/GPa)
#
#
# Indices 1 2 3 4 5 6 
#
# 1 0.011848 -0.005749 -0.001630 -0.001485 -0.004411 -0.003507
# 2 -0.005749 0.026219 -0.007984 -0.006186 0.003801 -0.004230
# 3 -0.001630 -0.007984 0.011366 0.010964 -0.001833 -0.001767
# 4 -0.001485 -0.006186 0.010964 0.048231 -0.009882 -0.000136
# 5 -0.004411 0.003801 -0.001833 -0.009882 0.038278 0.008364
# 6 -0.003507 -0.004230 -0.001767 -0.000136 0.008364 0.034416
#
#
# Mechanical properties :
#
#
# Convention : Reuss Voigt Hill
#
# Bulk Modulus (GPa) = 53.45325 75.81376 64.63350
# Shear Modulus (GPa) = 24.11732 32.38784 28.25258
#
# Velocity S-wave (km/s) = 3.51382 4.07198 3.80315
# Velocity P-wave (km/s) = 6.62028 7.80519 7.23703
#
# Compressibility (1/GPa) = 0.01870794
#
# Stress axis : x y z
#
# Youngs Moduli (GPa) = 84.39906 38.14086 87.97903
#
# Poissons Ratio (x) = 0.21928 0.14341
# Poissons Ratio (y) = 0.48522 0.70239
# Poissons Ratio (z) = 0.13758 0.30450
#
# Static dielectric constant tensor:
#      x y z
#    x 3.972000 0.136070 -0.186930 
#    y 0.136070 3.324040 -0.519400 
#    z -0.186930 -0.519400 4.396260 
# 
# 
# High freq. dielectric constant tensor:
#      x y z
#    x 1.781530 0.014920 0.002810 
#    y 0.014920 1.715170 -0.040880 
#    z 0.002810 -0.040880 1.771040 
# 
# From -- ./inp_files/279375.got.cif
#   From: 2010.06.25/outbox.cif.g09.slc.cpg/sg2_140_cif.got.tgz:279375.got - 2010.06.27 13:26:56.
