data_PCOD8039187
_publ_section_title
;
Structure prediction by ZEFSAII (Michael W. Deem and Ramdas Pophale) SiO2 
 PCOD8039187
Probable space group: P -1
;
_chemical_formula_sum "Si O2"
_cell_formula_units_Z 16
_cell_length_a 13.199384
_cell_length_b 10.248116
_cell_length_c 9.008306
_cell_angle_alpha 108.650968
_cell_angle_beta 75.300952
_cell_angle_gamma 50.472222
_cell_volume 694.652222
_symmetry_space_group_name_H-M "P -1"
_symmetry_group_IT_number 2
_symmetry_cell_setting 'triclinic'
loop_
_space_group_symop_operation_xyz
x,y,z
-x,-y,-z
loop_
_atom_site_type_symbol
_atom_site_label
_atom_site_fract_x
_atom_site_fract_y
_atom_site_fract_z
Si Si1 0.882768 0.332656 0.114622
Si Si2 0.034331 0.187027 0.520249
Si Si3 0.905133 0.502764 0.919934
Si Si4 0.317077 0.127508 0.105168
Si Si5 0.512863 0.298993 0.212116
Si Si6 0.240621 0.747517 0.376525
Si Si7 0.810907 0.541892 0.507169
Si Si8 0.221135 0.833882 0.759197
O O1 0.846513 0.497260 0.303214
O O2 0.783090 0.297683 0.182759
O O3 0.822942 0.458904 0.025968
O O4 0.079557 0.091007 0.948914
O O5 0.040360 0.302988 0.680679
O O6 0.885338 0.234656 0.640897
O O7 0.984098 0.298195 0.419226
O O8 0.211735 0.921118 0.361360
O O9 0.764881 0.730498 0.964065
O O10 0.000000 0.500000 0.000000
O O11 0.212692 0.279892 0.348290
O O12 0.500000 0.000000 0.000000
O O13 0.344387 0.934923 0.014374
O O14 0.433778 0.495614 0.201603
O O15 0.354776 0.373030 0.355695
O O16 0.598833 0.280968 0.316661
O O17 0.198762 0.813103 0.590514
#
# Coordination Sequence:
#
# PCOD8039187 Si02
#       8
#     2   2   2   2   2   2   2   2
#     4  11  22  37  59  93 120 151 197 252 307 334
#     4   9  18  35  58  89 115 155 201 234 295 357
#     4  11  22  39  62  87 116 157 206 249 288 358
#     4   9  20  39  63  84 117 164 200 237 295 366
#     4  10  19  36  59  91 116 156 200 236 296 356
#     4  10  18  32  62  86 116 158 197 234 281 366
#     4   9  19  38  64  86 118 160 198 243 293 355
#     4  11  21  34  58  93 126 150 190 252 301 354
#
# _framework density 23.033109
#
# number of rings (size 3 to 8) (size 9 to 14) (size 15 to 20)
#    0.000    2.000    3.750    1.875    0.000    0.000 
#    0.000    8.125    0.000   20.250    0.000    0.000 
#    0.000    0.000    0.000    0.000    0.000    0.000 
#
# Total GULP energy -198212.879873 kJ/mol
# GULP energy per Si atom -12388.304992 kJ/mol
# Density = 2.298068 g / cm^3
# Si number density = 23.033109 Si / 1000 Ang^3
#
#
#
# Elastic Constant Matrix: (Units=GPa)
#
#
# Indices 1 2 3 4 5 6 
#
# 1 58.1766 23.9842 17.1402 5.4187 21.2470 -18.8823
# 2 23.9842 138.2101 58.1594 32.8253 12.8540 -5.5025
# 3 17.1402 58.1594 99.7455 14.3177 28.6183 7.0806
# 4 5.4187 32.8253 14.3177 38.8618 7.7957 8.9204
# 5 21.2470 12.8540 28.6183 7.7957 30.7696 -3.0759
# 6 -18.8823 -5.5025 7.0806 8.9204 -3.0759 26.6259
#
#
#
# Elastic Compliance Matrix: (Units=1/GPa)
#
#
# Indices 1 2 3 4 5 6 
#
# 1 0.032000 -0.001996 -0.000135 -0.004088 -0.017941 0.021614
# 2 -0.001996 0.013593 -0.008698 -0.011439 0.007528 0.008409
# 3 -0.000135 -0.008698 0.020116 0.006096 -0.017659 -0.011325
# 4 -0.004088 -0.011439 0.006096 0.040847 -0.010596 -0.021793
# 5 -0.017941 0.007528 -0.017659 -0.010596 0.061268 0.004157
# 6 0.021614 0.008409 -0.011325 -0.021793 0.004157 0.065416
#
#
# Mechanical properties :
#
#
# Convention : Reuss Voigt Hill
#
# Bulk Modulus (GPa) = 22.70089 54.96665 38.83377
# Shear Modulus (GPa) = 18.54728 32.37468 25.46098
#
# Velocity S-wave (km/s) = 2.84076 3.75316 3.32837
# Velocity P-wave (km/s) = 4.54280 6.53434 5.62737
#
# Compressibility (1/GPa) = 0.04405113
#
# Stress axis : x y z
#
# Youngs Moduli (GPa) = 31.24999 73.56547 49.71233
#
# Poissons Ratio (x) = 0.14686 0.00670
# Poissons Ratio (y) = 0.06239 0.43239
# Poissons Ratio (z) = 0.00421 0.63986
#
# Static dielectric constant tensor:
#      x y z
#    x 4.030010 0.191750 0.543710 
#    y 0.191750 4.536430 0.436620 
#    z 0.543710 0.436620 4.408110 
# 
# 
# High freq. dielectric constant tensor:
#      x y z
#    x 1.898770 0.000050 0.036970 
#    y 0.000050 1.912860 0.016720 
#    z 0.036970 0.016720 1.899140 
# 
# From -- ./inp_files/308036.got.cif
#   From: 2010.06.25/outbox.cif.g09.slc.cpg/sg2_155_cif.got.tgz:308036.got - 2010.06.27 13:26:56.
