data_PCOD8039722
_publ_section_title
;
Structure prediction by ZEFSAII (Michael W. Deem and Ramdas Pophale) SiO2 
 PCOD8039722
Probable space group: P -1
;
_chemical_formula_sum "Si O2"
_cell_formula_units_Z 16
_cell_length_a 17.754630
_cell_length_b 9.761560
_cell_length_c 23.484142
_cell_angle_alpha 148.612787
_cell_angle_beta 25.781611
_cell_angle_gamma 149.062201
_cell_volume 847.784393
_symmetry_space_group_name_H-M "P -1"
_symmetry_group_IT_number 2
_symmetry_cell_setting 'triclinic'
loop_
_space_group_symop_operation_xyz
x,y,z
-x,-y,-z
loop_
_atom_site_type_symbol
_atom_site_label
_atom_site_fract_x
_atom_site_fract_y
_atom_site_fract_z
Si Si1 0.041126 0.817413 0.641902
Si Si2 0.053106 0.303296 0.100350
Si Si3 0.309141 0.657018 0.338208
Si Si4 0.834950 0.719625 0.858873
Si Si5 0.530554 0.795953 0.648180
Si Si6 0.503330 0.142628 0.882414
Si Si7 0.185783 0.363043 0.666121
Si Si8 0.532226 0.278234 0.042569
O O1 0.241922 0.784401 0.485168
O O2 0.878557 0.514242 0.629909
O O3 0.999083 0.873017 0.755385
O O4 0.039147 0.078230 0.696030
O O5 0.049718 0.274444 0.160508
O O6 0.912394 0.444837 0.226082
O O7 0.258059 0.505920 0.012728
O O8 0.000000 0.000000 0.000000
O O9 0.403503 0.435465 0.210479
O O10 0.454334 0.920338 0.296520
O O11 0.690920 0.403312 0.825252
O O12 0.693031 0.880217 0.020995
O O13 0.338573 0.535361 0.670410
O O14 0.711198 0.723534 0.486835
O O15 0.526488 0.860107 0.741688
O O16 0.484160 0.170171 0.972382
O O17 0.500000 0.000000 0.000000
#
# Coordination Sequence:
#
# PCOD8039722 Si02
#       8
#     2   2   2   2   2   2   2   2
#     4  10  19  34  59  88 108 143 190 238 269 324
#     4  11  23  39  58  82 114 154 182 228 289 335
#     4  10  18  34  61  78 111 150 185 224 284 333
#     4  10  19  35  59  84 112 146 192 228 271 339
#     4  10  19  38  62  80 109 154 187 225 280 343
#     4  10  18  35  58  81 108 152 193 221 276 339
#     4  10  22  37  58  86 116 142 191 233 277 332
#     4  11  22  37  56  84 116 146 189 239 277 326
#
# _framework density 18.872723000000001
#
# number of rings (size 3 to 8) (size 9 to 14) (size 15 to 20)
#    0.000    1.750    2.500    3.750    0.000    0.000 
#    4.500    2.500    0.000    3.000    0.000    0.000 
#    0.000    0.000    0.000    0.000    0.000    0.000 
#
# Total GULP energy -198289.110678 kJ/mol
# GULP energy per Si atom -12393.069417 kJ/mol
# Density = 1.882977 g / cm^3
# Si number density = 18.872723 Si / 1000 Ang^3
#
#
#
# Elastic Constant Matrix: (Units=GPa)
#
#
# Indices 1 2 3 4 5 6 
#
# 1 68.5645 34.2627 65.8584 0.6857 0.8385 -11.7330
# 2 34.2627 76.6627 38.9855 7.2953 6.7123 -5.4015
# 3 65.8584 38.9855 138.4551 17.6836 2.3433 -6.7084
# 4 0.6857 7.2953 17.6836 31.7063 -3.0371 -1.4710
# 5 0.8385 6.7123 2.3433 -3.0371 27.5880 6.4838
# 6 -11.7330 -5.4015 -6.7084 -1.4710 6.4838 24.1273
#
#
#
# Elastic Compliance Matrix: (Units=1/GPa)
#
#
# Indices 1 2 3 4 5 6 
#
# 1 0.035051 -0.008192 -0.015118 0.010151 0.000637 0.011455
# 2 -0.008192 0.017808 -0.000476 -0.004064 -0.004699 0.000886
# 3 -0.015118 -0.000476 0.015473 -0.008435 -0.000859 -0.003440
# 4 0.010151 -0.004064 -0.008435 0.037553 0.004907 0.002652
# 5 0.000637 -0.004699 -0.000859 0.004907 0.040717 -0.011624
# 6 0.011455 0.000886 -0.003440 0.002652 -0.011624 0.049545
#
#
# Mechanical properties :
#
#
# Convention : Reuss Voigt Hill
#
# Bulk Modulus (GPa) = 48.17077 62.43283 55.30180
# Shear Modulus (GPa) = 19.94908 26.32269 23.13588
#
# Velocity S-wave (km/s) = 3.25473 3.73868 3.50507
# Velocity P-wave (km/s) = 6.30109 7.19651 6.76364
#
# Compressibility (1/GPa) = 0.02075948
#
# Stress axis : x y z
#
# Youngs Moduli (GPa) = 28.53002 56.15454 64.62831
#
# Poissons Ratio (x) = 0.46000 0.97706
# Poissons Ratio (y) = 0.23371 0.03078
# Poissons Ratio (z) = 0.43132 0.02675
#
# Static dielectric constant tensor:
#      x y z
#    x 6.608110 -0.667060 1.682600 
#    y -0.667060 3.641470 -0.346550 
#    z 1.682600 -0.346550 4.479000 
# 
# 
# High freq. dielectric constant tensor:
#      x y z
#    x 1.700040 0.004570 0.010130 
#    y 0.004570 1.734300 -0.000930 
#    z 0.010130 -0.000930 1.750030 
# 
# From -- ./inp_files/305711.got.cif
#   From: 2010.06.25/outbox.cif.g09.slc.cpg/sg2_153_cif.got.tgz:305711.got - 2010.06.27 13:26:56.
