data_PCOD8039961
_publ_section_title
;
Structure prediction by ZEFSAII (Michael W. Deem and Ramdas Pophale) SiO2 
 PCOD8039961
Probable space group: P -1
;
_chemical_formula_sum "Si O2"
_cell_formula_units_Z 14
_cell_length_a 14.905281
_cell_length_b 17.093414
_cell_length_c 5.190544
_cell_angle_alpha 97.971289
_cell_angle_beta 89.260207
_cell_angle_gamma 156.984069
_cell_volume 489.075044
_symmetry_space_group_name_H-M "P -1"
_symmetry_group_IT_number 2
_symmetry_cell_setting 'triclinic'
loop_
_space_group_symop_operation_xyz
x,y,z
-x,-y,-z
loop_
_atom_site_type_symbol
_atom_site_label
_atom_site_fract_x
_atom_site_fract_y
_atom_site_fract_z
Si Si1 0.497371 0.570663 0.718781
Si Si2 0.351736 0.846370 0.174944
Si Si3 0.167340 0.523377 0.939380
Si Si4 0.131586 0.229399 0.993599
Si Si5 0.744777 0.070489 0.479796
Si Si6 0.348393 0.103744 0.106581
Si Si7 0.769027 0.533051 0.601575
O O1 0.500000 0.500000 0.500000
O O2 0.737042 0.748618 0.960759
O O3 0.491470 0.652751 0.614991
O O4 0.249549 0.364990 0.797765
O O5 0.127327 0.723393 0.198289
O O6 0.547837 0.982181 0.454020
O O7 0.218859 0.657693 0.014154
O O8 0.500000 0.000000 0.000000
O O9 0.354133 0.643612 0.756666
O O10 0.258761 0.550323 0.200274
O O11 0.157092 0.317877 0.250918
O O12 0.841184 0.977768 0.888905
O O13 0.017305 0.323177 0.530471
O O14 0.743324 0.031815 0.741710
O O15 0.662647 0.944083 0.198540
#
# Coordination Sequence:
#
# PCOD8039961 Si02
#       7
#     2   2   2   2   2   2   2
#     4   9  17  32  60  92 121 164 216 258 321 390
#     4  10  20  40  66  93 133 170 220 269 326 380
#     4  10  22  38  63  96 129 171 221 268 324 387
#     4   9  18  33  59  90 125 169 211 263 320 386
#     4  10  20  38  63  87 128 173 211 265 325 382
#     4  10  21  39  60  94 127 171 214 261 325 390
#     4  10  18  35  59  92 127 169 218 264 321 386
#
# _framework density 28.625464000000001
#
# number of rings (size 3 to 8) (size 9 to 14) (size 15 to 20)
#    0.000    2.286    2.857    0.000    0.000    0.571 
#    5.143    3.571    0.000    7.714    0.000    0.000 
#    0.000    0.000    0.000    0.000    0.000    0.000 
#
# Total GULP energy -173439.538849 kJ/mol
# GULP energy per Si atom -12388.538489 kJ/mol
# Density = 2.856031 g / cm^3
# Si number density = 28.625464 Si / 1000 Ang^3
#
#
#
# Elastic Constant Matrix: (Units=GPa)
#
#
# Indices 1 2 3 4 5 6 
#
# 1 184.7379 70.7721 60.9733 -12.4628 10.0487 37.3947
# 2 70.7721 237.3671 60.3931 13.9816 3.7899 50.4111
# 3 60.9733 60.3931 109.7400 -17.9813 26.7452 19.7705
# 4 -12.4628 13.9816 -17.9813 56.0426 1.0959 -2.7084
# 5 10.0487 3.7899 26.7452 1.0959 56.7014 -6.9790
# 6 37.3947 50.4111 19.7705 -2.7084 -6.9790 60.0779
#
#
#
# Elastic Compliance Matrix: (Units=1/GPa)
#
#
# Indices 1 2 3 4 5 6 
#
# 1 0.007357 -0.000891 -0.002887 0.000798 -0.000252 -0.002874
# 2 -0.000891 0.006150 -0.002854 -0.002841 0.000691 -0.003714
# 3 -0.002887 -0.002854 0.014928 0.004928 -0.006590 -0.001264
# 4 0.000798 -0.002841 0.004928 0.020404 -0.002561 0.000888
# 5 -0.000252 0.000691 -0.006590 -0.002561 0.021298 0.004104
# 6 -0.002874 -0.003714 -0.001264 0.000888 0.004104 0.022484
#
#
# Mechanical properties :
#
#
# Convention : Reuss Voigt Hill
#
# Bulk Modulus (GPa) = 65.91877 101.79133 83.85505
# Shear Modulus (GPa) = 45.06865 57.21146 51.14005
#
# Velocity S-wave (km/s) = 3.97221 4.47544 4.23131
# Velocity P-wave (km/s) = 6.64198 7.89576 7.29585
#
# Compressibility (1/GPa) = 0.01517019
#
# Stress axis : x y z
#
# Youngs Moduli (GPa) = 135.92831 162.60337 66.98656
#
# Poissons Ratio (x) = 0.14496 0.19339
# Poissons Ratio (y) = 0.12118 0.19118
# Poissons Ratio (z) = 0.39243 0.46406
#
# Static dielectric constant tensor:
#      x y z
#    x -4.884710 -6.105330 1.626460 
#    y -6.105330 1.943300 1.641300 
#    z 1.626460 1.641300 5.412940 
# 
# 
# High freq. dielectric constant tensor:
#      x y z
#    x 2.230630 0.018390 -0.022570 
#    y 0.018390 2.207870 0.035920 
#    z -0.022570 0.035920 2.169120 
# 
# From -- ./inp_files/112205.got.cif
#   From: 2010.06.25/outbox.cif.g09.slc.cpg/sg2_57_cif.got.tgz:112205.got - 2010.06.27 13:26:56.
