data_PCOD8039856
_publ_section_title
;
Structure prediction by ZEFSAII (Michael W. Deem and Ramdas Pophale) SiO2 
 PCOD8039856
Probable space group: P -1
;
_chemical_formula_sum "Si O2"
_cell_formula_units_Z 16
_cell_length_a 11.487517
_cell_length_b 11.968857
_cell_length_c 12.858606
_cell_angle_alpha 76.236815
_cell_angle_beta 124.434135
_cell_angle_gamma 57.336061
_cell_volume 764.847184
_symmetry_space_group_name_H-M "P -1"
_symmetry_group_IT_number 2
_symmetry_cell_setting 'triclinic'
loop_
_space_group_symop_operation_xyz
x,y,z
-x,-y,-z
loop_
_atom_site_type_symbol
_atom_site_label
_atom_site_fract_x
_atom_site_fract_y
_atom_site_fract_z
Si Si1 0.742022 0.248054 0.687032
Si Si2 0.725577 0.064959 0.877194
Si Si3 0.245875 0.601371 0.841932
Si Si4 0.728604 0.547247 0.313451
Si Si5 0.414930 0.792387 0.783152
Si Si6 0.066921 0.968792 0.387415
Si Si7 0.425820 0.072358 0.118676
Si Si8 0.131732 0.306963 0.725439
O O1 0.500000 0.500000 0.500000
O O2 0.847547 0.148245 0.648952
O O3 0.664814 0.181333 0.718478
O O4 0.968219 0.151145 0.892912
O O5 0.612272 0.014042 0.809146
O O6 0.578041 0.220967 0.869463
O O7 0.215306 0.595635 0.704709
O O8 0.500000 0.500000 0.000000
O O9 0.308525 0.448822 0.980732
O O10 0.006047 0.845243 0.704734
O O11 0.866971 0.558117 0.323307
O O12 0.860137 0.438201 0.517696
O O13 0.319948 0.794434 0.629775
O O14 0.488923 0.875524 0.782053
O O15 0.178225 0.937090 0.714082
O O16 0.647068 0.907416 0.181118
O O17 0.160293 0.268255 0.872354
#
# Coordination Sequence:
#
# PCOD8039856 Si02
#       8
#     2   2   2   2   2   2   2   2
#     4  11  26  45  64  84 118 167 211 254 301 356
#     4  10  24  41  62  91 122 159 208 258 293 363
#     4  10  19  33  55  87 124 156 187 243 301 362
#     4  10  18  35  56  96 126 156 196 241 312 368
#     4  10  20  37  62  94 126 156 189 248 316 368
#     4  10  23  38  61  90 121 160 204 243 301 370
#     4  10  19  35  57  93 128 159 199 249 308 361
#     4   9  19  28  57  90 131 159 184 248 310 364
#
# _framework density 20.919211000000001
#
# number of rings (size 3 to 8) (size 9 to 14) (size 15 to 20)
#    0.000    2.000    1.250    2.250    5.250    5.000 
#    0.000    0.625    0.000    1.500    0.000    0.000 
#    0.000    0.000    0.000    0.000    0.000    0.000 
#
# Total GULP energy -198261.968083 kJ/mol
# GULP energy per Si atom -12391.373005 kJ/mol
# Density = 2.087160 g / cm^3
# Si number density = 20.919211 Si / 1000 Ang^3
#
#
#
# Elastic Constant Matrix: (Units=GPa)
#
#
# Indices 1 2 3 4 5 6 
#
# 1 97.4814 25.9700 27.5723 -0.7696 -12.9186 15.3704
# 2 25.9700 80.5116 26.6754 -2.6538 -4.5701 9.2053
# 3 27.5723 26.6754 112.0283 -2.2575 -5.8216 1.8089
# 4 -0.7696 -2.6538 -2.2575 28.7130 -0.6316 -0.4454
# 5 -12.9186 -4.5701 -5.8216 -0.6316 22.5343 1.4554
# 6 15.3704 9.2053 1.8089 -0.4454 1.4554 27.0830
#
#
#
# Elastic Compliance Matrix: (Units=1/GPa)
#
#
# Indices 1 2 3 4 5 6 
#
# 1 0.013629 -0.002411 -0.002291 0.000010 0.007195 -0.007149
# 2 -0.002411 0.014602 -0.002748 0.001040 0.001121 -0.003454
# 3 -0.002291 -0.002748 0.010165 0.000522 0.000671 0.001528
# 4 0.000010 0.001040 0.000522 0.034996 0.001325 0.000111
# 5 0.007195 0.001121 0.000671 0.001325 0.049401 -0.007142
# 6 -0.007149 -0.003454 0.001528 0.000111 -0.007142 0.042438
#
#
# Mechanical properties :
#
#
# Convention : Reuss Voigt Hill
#
# Bulk Modulus (GPa) = 42.56113 50.05073 46.30593
# Shear Modulus (GPa) = 26.60079 29.65296 28.12688
#
# Velocity S-wave (km/s) = 3.56981 3.76905 3.67079
# Velocity P-wave (km/s) = 6.11401 6.55124 6.33639
#
# Compressibility (1/GPa) = 0.02349561
#
# Stress axis : x y z
#
# Youngs Moduli (GPa) = 73.37035 68.48462 98.37375
#
# Poissons Ratio (x) = 0.16513 0.22536
# Poissons Ratio (y) = 0.17691 0.27037
# Poissons Ratio (z) = 0.16808 0.18823
#
# Static dielectric constant tensor:
#      x y z
#    x 4.085520 0.775580 -0.844000 
#    y 0.775580 4.068370 -0.887130 
#    z -0.844000 -0.887130 5.275300 
# 
# 
# High freq. dielectric constant tensor:
#      x y z
#    x 1.791610 0.033540 -0.009000 
#    y 0.033540 1.791360 0.000340 
#    z -0.009000 0.000340 1.836820 
# 
# From -- ./inp_files/426530.got.cif
#   From: 2010.06.25/outbox.cif.g09.slc.cpg/sg2_214_cif.got.tgz:426530.got - 2010.06.27 13:26:56.
