data_PCOD8039650
_publ_section_title
;
Structure prediction by ZEFSAII (Michael W. Deem and Ramdas Pophale) SiO2 
 PCOD8039650
Probable space group: P -1
;
_chemical_formula_sum "Si O2"
_cell_formula_units_Z 16
_cell_length_a 28.829232
_cell_length_b 10.237677
_cell_length_c 14.310430
_cell_angle_alpha 25.908224
_cell_angle_beta 157.098643
_cell_angle_gamma 147.065264
_cell_volume 716.722583
_symmetry_space_group_name_H-M "P -1"
_symmetry_group_IT_number 2
_symmetry_cell_setting 'triclinic'
loop_
_space_group_symop_operation_xyz
x,y,z
-x,-y,-z
loop_
_atom_site_type_symbol
_atom_site_label
_atom_site_fract_x
_atom_site_fract_y
_atom_site_fract_z
Si Si1 0.890083 0.613333 0.901639
Si Si2 0.696373 0.146936 0.510454
Si Si3 0.255085 0.724835 0.990883
Si Si4 0.098953 0.781381 0.286406
Si Si5 0.235602 0.393582 0.505299
Si Si6 0.501639 0.869182 0.435389
Si Si7 0.123840 0.681140 0.593544
Si Si8 0.494841 0.543548 0.827062
O O1 0.856857 0.476859 0.825883
O O2 0.883019 0.964849 0.644565
O O3 0.798258 0.495123 0.886803
O O4 0.024689 0.551276 0.226142
O O5 0.793546 0.039713 0.685671
O O6 0.767120 0.383121 0.557167
O O7 0.631766 0.868044 0.626865
O O8 0.590515 0.296431 0.163682
O O9 0.220505 0.596335 0.905698
O O10 0.203288 0.052881 0.698319
O O11 0.398361 0.736832 0.260161
O O12 0.155343 0.605349 0.591961
O O13 0.000000 0.000000 0.000000
O O14 0.363006 0.391480 0.690912
O O15 0.507974 0.690888 0.656227
O O16 0.477670 0.216778 0.192228
O O17 0.000000 0.500000 0.500000
#
# Coordination Sequence:
#
# PCOD8039650 Si02
#       8
#     2   2   2   2   2   2   2   2
#     4  10  21  36  63  88 119 156 199 250 297 367
#     4  11  21  38  60  89 129 159 201 246 295 367
#     4  11  18  34  63  90 123 153 190 248 307 360
#     4  10  23  45  61  80 115 167 216 255 291 345
#     4  10  19  33  61  96 125 157 187 241 312 367
#     4  10  19  33  60  93 126 162 186 239 311 368
#     4  10  21  39  64  83 103 164 216 245 296 344
#     4  10  18  34  58  93 130 159 192 231 304 382
#
# _framework density 22.323839
#
# number of rings (size 3 to 8) (size 9 to 14) (size 15 to 20)
#    0.000    1.750    5.000    0.750    0.000    0.500 
#    4.500    1.250    0.000    3.750    0.000    0.000 
#    0.000    0.000    0.000    0.000    0.000    0.000 
#
# Total GULP energy -198238.343041 kJ/mol
# GULP energy per Si atom -12389.896440 kJ/mol
# Density = 2.227303 g / cm^3
# Si number density = 22.323839 Si / 1000 Ang^3
#
#
#
# Elastic Constant Matrix: (Units=GPa)
#
#
# Indices 1 2 3 4 5 6 
#
# 1 116.5577 40.7808 45.3466 18.3521 -3.0294 30.6340
# 2 40.7808 96.1717 26.1526 16.5916 -9.7869 26.3172
# 3 45.3466 26.1526 58.8724 26.8018 -16.0844 -5.2172
# 4 18.3521 16.5916 26.8018 38.5234 -5.6952 -6.8759
# 5 -3.0294 -9.7869 -16.0844 -5.6952 39.2600 10.7213
# 6 30.6340 26.3172 -5.2172 -6.8759 10.7213 34.2069
#
#
#
# Elastic Compliance Matrix: (Units=1/GPa)
#
#
# Indices 1 2 3 4 5 6 
#
# 1 0.022695 0.004128 -0.019637 -0.003621 0.001798 -0.027786
# 2 0.004128 0.019504 -0.008556 -0.007609 0.007057 -0.023748
# 3 -0.019637 -0.008556 0.045960 -0.013298 0.005980 0.026631
# 4 -0.003621 -0.007609 -0.013298 0.042420 -0.006266 0.017560
# 5 0.001798 0.007057 0.005980 -0.006266 0.033822 -0.017987
# 6 -0.027786 -0.023748 0.026631 0.017560 -0.017987 0.085618
#
#
# Mechanical properties :
#
#
# Convention : Reuss Voigt Hill
#
# Bulk Modulus (GPa) = 24.98244 55.12909 40.05576
# Shear Modulus (GPa) = 16.05176 33.01951 24.53564
#
# Velocity S-wave (km/s) = 2.68440 3.85010 3.31883
# Velocity P-wave (km/s) = 4.56325 6.67182 5.71561
#
# Compressibility (1/GPa) = 0.04002812
#
# Stress axis : x y z
#
# Youngs Moduli (GPa) = 44.06311 51.27161 21.75803
#
# Poissons Ratio (x) = -0.21164 0.42726
# Poissons Ratio (y) = -0.18189 0.18616
# Poissons Ratio (z) = 0.86527 0.43868
#
# Static dielectric constant tensor:
#      x y z
#    x 4.364440 -0.019120 -0.930700 
#    y -0.019120 4.315130 0.573120 
#    z -0.930700 0.573120 4.411380 
# 
# 
# High freq. dielectric constant tensor:
#      x y z
#    x 1.870260 0.024260 -0.047360 
#    y 0.024260 1.882530 0.025190 
#    z -0.047360 0.025190 1.865130 
# 
# From -- ./inp_files/544952.got.cif
#   From: 2010.06.25/outbox.cif.g09.slc.cpg/sg2_273_cif.got.tgz:544952.got - 2010.06.27 13:26:56.
