data_PCOD8039397
_publ_section_title
;
Structure prediction by ZEFSAII (Michael W. Deem and Ramdas Pophale) SiO2 
 PCOD8039397
Probable space group: P -1
;
_chemical_formula_sum "Si O2"
_cell_formula_units_Z 16
_cell_length_a 9.200038
_cell_length_b 14.925771
_cell_length_c 12.181213
_cell_angle_alpha 126.517801
_cell_angle_beta 123.145753
_cell_angle_gamma 40.313972
_cell_volume 855.697101
_symmetry_space_group_name_H-M "P -1"
_symmetry_group_IT_number 2
_symmetry_cell_setting 'triclinic'
loop_
_space_group_symop_operation_xyz
x,y,z
-x,-y,-z
loop_
_atom_site_type_symbol
_atom_site_label
_atom_site_fract_x
_atom_site_fract_y
_atom_site_fract_z
Si Si1 0.672363 0.883558 0.076165
Si Si2 0.810490 0.271348 0.885318
Si Si3 0.631861 0.410576 0.137946
Si Si4 0.846704 0.544822 0.365837
Si Si5 0.949283 0.588624 0.215413
Si Si6 0.659483 0.638468 0.935841
Si Si7 0.404562 0.867171 0.368671
Si Si8 0.347307 0.087042 0.660442
O O1 0.599380 0.956153 0.220340
O O2 0.936736 0.801782 0.103050
O O3 0.634698 0.768110 0.966055
O O4 0.500000 0.000000 0.000000
O O5 0.619427 0.436483 0.883217
O O6 0.767980 0.160694 0.751726
O O7 0.788121 0.292710 0.021809
O O8 0.771746 0.448980 0.281728
O O9 0.580623 0.327657 0.137007
O O10 0.986124 0.502147 0.278585
O O11 0.638596 0.717655 0.401960
O O12 0.000000 0.500000 0.500000
O O13 0.883044 0.744373 0.325204
O O14 0.174732 0.503155 0.174679
O O15 0.749585 0.611318 0.079097
O O16 0.448634 0.927234 0.323969
O O17 0.304205 0.986291 0.510988
#
# Coordination Sequence:
#
# PCOD8039397 Si02
#       8
#     2   2   2   2   2   2   2   2
#     4  11  23  36  52  81 116 145 174 220 279 325
#     4  10  19  34  57  83 107 137 184 228 264 316
#     4  10  18  33  59  83 103 137 185 228 261 311
#     4  10  20  33  51  82 116 143 173 217 275 325
#     4   9  17  32  57  80 105 141 180 223 266 314
#     4  10  18  34  57  80 103 137 185 226 262 313
#     4   9  19  35  56  78 104 145 189 223 261 318
#     4   9  18  35  54  76 108 145 185 221 265 321
#
# _framework density 18.698202999999999
#
# number of rings (size 3 to 8) (size 9 to 14) (size 15 to 20)
#    0.000    2.250    0.000    6.750    0.000    2.500 
#    0.000    6.875    0.000    0.000    0.000    0.000 
#    0.000    0.000    0.000    0.000    0.000    0.000 
#
# Total GULP energy -198291.996512 kJ/mol
# GULP energy per Si atom -12393.249782 kJ/mol
# Density = 1.865565 g / cm^3
# Si number density = 18.698203 Si / 1000 Ang^3
#
#
#
# Elastic Constant Matrix: (Units=GPa)
#
#
# Indices 1 2 3 4 5 6 
#
# 1 128.8458 44.8027 75.3926 1.8886 7.6557 10.1701
# 2 44.8027 52.5788 62.5361 2.6744 -0.1171 5.5580
# 3 75.3926 62.5361 128.5664 13.4811 1.7223 4.5223
# 4 1.8886 2.6744 13.4811 42.2160 5.4355 -2.1085
# 5 7.6557 -0.1171 1.7223 5.4355 31.8743 6.1251
# 6 10.1701 5.5580 4.5223 -2.1085 6.1251 22.3179
#
#
#
# Elastic Compliance Matrix: (Units=1/GPa)
#
#
# Indices 1 2 3 4 5 6 
#
# 1 0.012773 -0.004078 -0.005545 0.001640 -0.002518 -0.002835
# 2 -0.004078 0.048278 -0.021243 0.003205 0.002983 -0.006376
# 3 -0.005545 -0.021243 0.021814 -0.005291 0.000444 0.002775
# 4 0.001640 0.003205 -0.005291 0.025936 -0.005172 0.003396
# 5 -0.002518 0.002983 0.000444 -0.005172 0.034711 -0.009700
# 6 -0.002835 -0.006376 0.002775 0.003396 -0.009700 0.050108
#
#
# Mechanical properties :
#
#
# Convention : Reuss Voigt Hill
#
# Bulk Modulus (GPa) = 47.32146 75.05041 61.18594
# Shear Modulus (GPa) = 19.05498 27.76560 23.41029
#
# Velocity S-wave (km/s) = 3.19577 3.85766 3.54221
# Velocity P-wave (km/s) = 6.24341 7.75029 7.03730
#
# Compressibility (1/GPa) = 0.02113206
#
# Stress axis : x y z
#
# Youngs Moduli (GPa) = 78.28727 20.71333 45.84177
#
# Poissons Ratio (x) = 0.08447 0.25421
# Poissons Ratio (y) = 0.31926 0.97383
# Poissons Ratio (z) = 0.43413 0.44002
#
# Static dielectric constant tensor:
#      x y z
#    x 3.583350 0.098210 -0.059290 
#    y 0.098210 3.238130 0.317460 
#    z -0.059290 0.317460 3.435110 
# 
# 
# High freq. dielectric constant tensor:
#      x y z
#    x 1.736840 0.011230 -0.006840 
#    y 0.011230 1.697840 0.031190 
#    z -0.006840 0.031190 1.718930 
# 
# From -- ./inp_files/399466.got.cif
#   From: 2010.06.25/outbox.cif.g09.slc.cpg/sg2_200_cif.got.tgz:399466.got - 2010.06.27 13:26:56.
