data_PCOD8039786
_publ_section_title
;
Structure prediction by ZEFSAII (Michael W. Deem and Ramdas Pophale) SiO2 
 PCOD8039786
Probable space group: P -1
;
_chemical_formula_sum "Si O2"
_cell_formula_units_Z 14
_cell_length_a 8.683829
_cell_length_b 9.440309
_cell_length_c 11.492491
_cell_angle_alpha 45.731874
_cell_angle_beta 122.517092
_cell_angle_gamma 110.431144
_cell_volume 568.346553
_symmetry_space_group_name_H-M "P -1"
_symmetry_group_IT_number 2
_symmetry_cell_setting 'triclinic'
loop_
_space_group_symop_operation_xyz
x,y,z
-x,-y,-z
loop_
_atom_site_type_symbol
_atom_site_label
_atom_site_fract_x
_atom_site_fract_y
_atom_site_fract_z
Si Si1 0.763026 0.359748 0.883642
Si Si2 0.787137 0.346959 0.273201
Si Si3 0.516639 0.941757 0.674771
Si Si4 0.688610 0.296630 0.626256
Si Si5 0.623464 0.638310 0.228598
Si Si6 0.840115 0.654367 0.927647
Si Si7 0.989806 0.734089 0.380773
O O1 0.750254 0.365834 0.736759
O O2 0.581854 0.259332 0.922027
O O3 0.959407 0.248599 0.059060
O O4 0.769586 0.581964 0.814438
O O5 0.653885 0.175256 0.280112
O O6 0.668796 0.509743 0.206453
O O7 0.867444 0.455045 0.132296
O O8 0.950975 0.235967 0.478133
O O9 0.500000 0.000000 0.500000
O O10 0.533632 0.133178 0.655084
O O11 0.700059 0.806258 0.844154
O O12 0.610693 0.492102 0.417799
O O13 0.861147 0.183708 0.694299
O O14 0.778857 0.800985 0.224070
O O15 0.000000 0.500000 0.500000
#
# Coordination Sequence:
#
# PCOD8039786 Si02
#       7
#     2   2   2   2   2   2   2
#     4  11  22  38  58  90 125 158 197 240 301 357
#     4  10  19  38  62  92 112 157 206 243 284 353
#     4  12  21  39  65  92 117 154 202 252 293 349
#     4  10  20  36  61  92 121 151 197 251 300 339
#     4  10  18  34  66  90 114 153 207 246 284 354
#     4  11  24  39  64  86 121 160 202 243 292 357
#     4   8  16  32  60  91 111 147 204 250 276 342
#
# _framework density 24.632857999999999
#
# number of rings (size 3 to 8) (size 9 to 14) (size 15 to 20)
#    0.000    2.000    4.286    3.429    0.000    0.571 
#    0.000    0.714    6.286    5.143    0.000    0.000 
#    0.000    0.000    0.000    0.000    0.000    0.000 
#
# Total GULP energy -173442.618274 kJ/mol
# GULP energy per Si atom -12388.758448 kJ/mol
# Density = 2.457679 g / cm^3
# Si number density = 24.632858 Si / 1000 Ang^3
#
#
#
# Elastic Constant Matrix: (Units=GPa)
#
#
# Indices 1 2 3 4 5 6 
#
# 1 89.9417 23.6370 28.6146 16.9560 24.4080 39.9055
# 2 23.6370 98.9946 34.1179 36.3846 -1.9605 21.2772
# 3 28.6146 34.1179 55.8887 27.4017 -5.7978 4.2789
# 4 16.9560 36.3846 27.4017 29.7618 1.6310 0.7673
# 5 24.4080 -1.9605 -5.7978 1.6310 37.9004 18.3765
# 6 39.9055 21.2772 4.2789 0.7673 18.3765 42.8469
#
#
#
# Elastic Compliance Matrix: (Units=1/GPa)
#
#
# Indices 1 2 3 4 5 6 
#
# 1 0.029050 0.008291 -0.010756 -0.015750 -0.006048 -0.027223
# 2 0.008291 0.028226 0.001410 -0.040444 0.010522 -0.025668
# 3 -0.010756 0.001410 0.040781 -0.033949 0.014976 -0.000571
# 4 -0.015750 -0.040444 -0.033949 0.123446 -0.025095 0.046696
# 5 -0.006048 0.010522 0.014976 -0.025095 0.043564 -0.019323
# 6 -0.027223 -0.025668 -0.000571 0.046696 -0.019323 0.068948
#
#
# Mechanical properties :
#
#
# Convention : Reuss Voigt Hill
#
# Bulk Modulus (GPa) = 10.42231 46.39599 28.40915
# Shear Modulus (GPa) = 13.58307 32.66551 23.12429
#
# Velocity S-wave (km/s) = 2.35078 3.64551 3.06724
# Velocity P-wave (km/s) = 3.40712 6.04942 4.90938
#
# Compressibility (1/GPa) = 0.09594799
#
# Stress axis : x y z
#
# Youngs Moduli (GPa) = 34.42319 35.42846 24.52134
#
# Poissons Ratio (x) = -0.29373 0.26374
# Poissons Ratio (y) = -0.28540 -0.03458
# Poissons Ratio (z) = 0.37024 -0.04996
#
# Static dielectric constant tensor:
#      x y z
#    x 5.165320 0.762200 0.434210 
#    y 0.762200 4.524190 0.554580 
#    z 0.434210 0.554580 4.354760 
# 
# 
# High freq. dielectric constant tensor:
#      x y z
#    x 1.981500 0.026650 0.006270 
#    y 0.026650 1.964960 0.041820 
#    z 0.006270 0.041820 1.948330 
# 
# From -- ./inp_files/389173.got.cif
#   From: 2010.06.25/outbox.cif.g09.slc.cpg/sg2_195_cif.got.tgz:389173.got - 2010.06.27 13:26:56.
