data_PCOD8039929
_publ_section_title
;
Structure prediction by ZEFSAII (Michael W. Deem and Ramdas Pophale) SiO2 
 PCOD8039929
Probable space group: P -1
;
_chemical_formula_sum "Si O2"
_cell_formula_units_Z 16
_cell_length_a 11.298878
_cell_length_b 20.189826
_cell_length_c 19.728857
_cell_angle_alpha 20.331497
_cell_angle_beta 33.631299
_cell_angle_gamma 30.947304
_cell_volume 793.919935
_symmetry_space_group_name_H-M "P -1"
_symmetry_group_IT_number 2
_symmetry_cell_setting 'triclinic'
loop_
_space_group_symop_operation_xyz
x,y,z
-x,-y,-z
loop_
_atom_site_type_symbol
_atom_site_label
_atom_site_fract_x
_atom_site_fract_y
_atom_site_fract_z
Si Si1 0.947717 0.447543 0.890633
Si Si2 0.403989 0.076834 0.066186
Si Si3 0.765444 0.147854 0.733051
Si Si4 0.852698 0.904444 0.249662
Si Si5 0.403518 0.142321 0.307701
Si Si6 0.806329 0.875008 0.146741
Si Si7 0.923538 0.461047 0.404297
Si Si8 0.266056 0.864315 0.728763
O O1 0.950724 0.509551 0.751250
O O2 0.829071 0.653582 0.795765
O O3 0.203890 0.307628 0.932491
O O4 0.778562 0.329293 0.091239
O O5 0.310579 0.897492 0.262589
O O6 0.527943 0.028736 0.127151
O O7 0.630658 0.048408 0.940215
O O8 0.719338 0.386200 0.546586
O O9 0.045826 0.024008 0.723213
O O10 0.875125 0.814057 0.249870
O O11 0.903776 0.715769 0.458682
O O12 0.587565 0.070970 0.227045
O O13 0.032887 0.014823 0.067320
O O14 0.514557 0.208555 0.256242
O O15 0.319143 0.962969 0.540701
O O16 0.825601 0.673531 0.288280
#
# Coordination Sequence:
#
# PCOD8039929 Si02
#       8
#     2   2   2   2   2   2   2   2
#     4  11  23  33  59  92 118 154 185 246 301 354
#     4  10  21  38  57  88 127 154 192 234 305 353
#     4  10  18  35  58  91 119 144 183 256 297 348
#     4  11  24  42  61  85 122 156 205 242 285 348
#     4  11  19  36  56  83 119 158 192 237 291 350
#     4  11  24  42  61  85 121 162 194 249 285 347
#     4  12  20  37  63  94 116 145 198 242 309 346
#     4  10  19  35  54  87 122 146 190 247 304 345
#
# _framework density 20.153165000000001
#
# number of rings (size 3 to 8) (size 9 to 14) (size 15 to 20)
#    0.000    1.250    3.750    4.500    0.000    3.000 
#    0.000    0.625    0.000    3.000    0.000    0.000 
#    0.000    0.000    0.000    0.000    0.000    0.000 
#
# Total GULP energy -198247.741299 kJ/mol
# GULP energy per Si atom -12390.483831 kJ/mol
# Density = 2.010730 g / cm^3
# Si number density = 20.153165 Si / 1000 Ang^3
#
#
#
# Elastic Constant Matrix: (Units=GPa)
#
#
# Indices 1 2 3 4 5 6 
#
# 1 79.2537 39.8205 44.2095 -5.9724 -2.9471 -16.8724
# 2 39.8205 105.6285 42.5062 -7.2846 0.8081 -10.6198
# 3 44.2095 42.5062 106.7370 -8.2722 -10.9350 -4.6438
# 4 -5.9724 -7.2846 -8.2722 21.1395 -1.1301 -3.9229
# 5 -2.9471 0.8081 -10.9350 -1.1301 24.8785 -3.8254
# 6 -16.8724 -10.6198 -4.6438 -3.9229 -3.8254 21.0331
#
#
#
# Elastic Compliance Matrix: (Units=1/GPa)
#
#
# Indices 1 2 3 4 5 6 
#
# 1 0.021822 -0.003817 -0.006131 0.005516 0.002685 0.015742
# 2 -0.003817 0.012713 -0.003363 0.002396 -0.001815 0.002731
# 3 -0.006131 -0.003363 0.013882 0.002425 0.005265 -0.002142
# 4 0.005516 0.002396 0.002425 0.054254 0.006801 0.017526
# 5 0.002685 -0.001815 0.005265 0.006801 0.045019 0.011857
# 6 0.015742 0.002731 -0.002142 0.017526 0.011857 0.066503
#
#
# Mechanical properties :
#
#
# Convention : Reuss Voigt Hill
#
# Bulk Modulus (GPa) = 45.88252 60.52130 53.20191
# Shear Modulus (GPa) = 20.15468 24.41574 22.28521
#
# Velocity S-wave (km/s) = 3.16583 3.48445 3.32895
# Velocity P-wave (km/s) = 6.01495 6.80326 6.42121
#
# Compressibility (1/GPa) = 0.02179479
#
# Stress axis : x y z
#
# Youngs Moduli (GPa) = 45.82443 78.65796 72.03649
#
# Poissons Ratio (x) = 0.30024 0.44167
# Poissons Ratio (y) = 0.17491 0.24227
# Poissons Ratio (z) = 0.28096 0.26454
#
# Static dielectric constant tensor:
#      x y z
#    x 3.669240 -0.225510 -0.177340 
#    y -0.225510 3.565600 -0.051930 
#    z -0.177340 -0.051930 3.813570 
# 
# 
# High freq. dielectric constant tensor:
#      x y z
#    x 1.762250 -0.020940 -0.014140 
#    y -0.020940 1.774820 -0.003870 
#    z -0.014140 -0.003870 1.794880 
# 
# From -- ./inp_files/472660.got.cif
#   From: 2010.06.25/outbox.cif.g09.slc.cpg/sg2_237_cif.got.tgz:472660.got - 2010.06.27 13:26:56.
