data_PCOD8039728
_publ_section_title
;
Structure prediction by ZEFSAII (Michael W. Deem and Ramdas Pophale) SiO2 
 PCOD8039728
Probable space group: P -1
;
_chemical_formula_sum "Si O2"
_cell_formula_units_Z 16
_cell_length_a 20.112650
_cell_length_b 6.786748
_cell_length_c 9.884529
_cell_angle_alpha 70.416947
_cell_angle_beta 42.415532
_cell_angle_gamma 77.446289
_cell_volume 856.458217
_symmetry_space_group_name_H-M "P -1"
_symmetry_group_IT_number 2
_symmetry_cell_setting 'triclinic'
loop_
_space_group_symop_operation_xyz
x,y,z
-x,-y,-z
loop_
_atom_site_type_symbol
_atom_site_label
_atom_site_fract_x
_atom_site_fract_y
_atom_site_fract_z
Si Si1 0.392455 0.224694 0.076673
Si Si2 0.303269 0.789561 0.721446
Si Si3 0.473758 0.018560 0.254408
Si Si4 0.783901 0.427592 0.341511
Si Si5 0.651180 0.306353 0.025903
Si Si6 0.855069 0.884530 0.162776
Si Si7 0.764400 0.125168 0.669597
Si Si8 0.066255 0.875787 0.762048
O O1 0.416415 0.174472 0.207934
O O2 0.293994 0.096095 0.207680
O O3 0.375671 0.467912 0.036824
O O4 0.482893 0.166388 0.857975
O O5 0.275919 0.601783 0.701537
O O6 0.321492 0.681490 0.861242
O O7 0.400639 0.920179 0.498534
O O8 0.212450 0.940220 0.835291
O O9 0.559146 0.145887 0.177134
O O10 0.789911 0.669318 0.316754
O O11 0.725701 0.287616 0.576229
O O12 0.894695 0.339679 0.182062
O O13 0.745993 0.225974 0.820242
O O14 0.895971 0.933876 0.240188
O O15 0.948494 0.865249 0.925743
O O16 0.880971 0.090361 0.472761
#
# Coordination Sequence:
#
# PCOD8039728 Si02
#       8
#     2   2   2   2   2   2   2   2
#     4  10  20  38  58  82 112 144 190 238 271 332
#     4  11  23  38  53  88 118 143 190 233 275 340
#     4  10  21  38  57  81 110 144 198 235 268 333
#     4   9  19  33  59  84 112 148 187 228 277 324
#     4  11  24  36  58  82 115 154 182 226 295 329
#     4  10  18  34  61  84 115 145 183 236 280 318
#     4   9  20  35  56  86 112 143 190 231 268 340
#     4   8  18  33  56  93 110 138 193 235 264 330
#
# _framework density 18.681588000000001
#
# number of rings (size 3 to 8) (size 9 to 14) (size 15 to 20)
#    0.750    1.500    1.250    1.125    3.500    3.500 
#    0.000    0.625    0.000    1.500    0.000    0.000 
#    0.000    0.000    0.000    0.000    0.000    0.000 
#
# Total GULP energy -198329.817736 kJ/mol
# GULP energy per Si atom -12395.613608 kJ/mol
# Density = 1.863907 g / cm^3
# Si number density = 18.681588 Si / 1000 Ang^3
#
#
#
# Elastic Constant Matrix: (Units=GPa)
#
#
# Indices 1 2 3 4 5 6 
#
# 1 25.3332 12.7167 22.2702 -0.7350 4.2686 7.4842
# 2 12.7167 72.0514 16.9562 -6.0476 -2.8444 8.2149
# 3 22.2702 16.9562 102.9047 14.7023 -2.6395 -4.8088
# 4 -0.7350 -6.0476 14.7023 16.4771 1.4315 -3.0069
# 5 4.2686 -2.8444 -2.6395 1.4315 28.1036 7.0528
# 6 7.4842 8.2149 -4.8088 -3.0069 7.0528 22.0400
#
#
#
# Elastic Compliance Matrix: (Units=1/GPa)
#
#
# Indices 1 2 3 4 5 6 
#
# 1 0.062696 -0.004465 -0.015666 0.012298 -0.007297 -0.019031
# 2 -0.004465 0.016728 -0.003018 0.007392 0.003053 -0.005346
# 3 -0.015666 -0.003018 0.016170 -0.015168 0.002590 0.007074
# 4 0.012298 0.007392 -0.015168 0.078629 -0.007254 0.002808
# 5 -0.007297 0.003053 0.002590 -0.007254 0.040647 -0.012092
# 6 -0.019031 -0.005346 0.007074 0.002808 -0.012092 0.059623
#
#
# Mechanical properties :
#
#
# Convention : Reuss Voigt Hill
#
# Bulk Modulus (GPa) = 20.28581 33.79729 27.04155
# Shear Modulus (GPa) = 14.82707 23.21388 19.02047
#
# Velocity S-wave (km/s) = 2.82028 3.52889 3.19429
# Velocity P-wave (km/s) = 4.63547 5.89360 5.30199
#
# Compressibility (1/GPa) = 0.04929555
#
# Stress axis : x y z
#
# Youngs Moduli (GPa) = 15.95010 59.78140 61.84456
#
# Poissons Ratio (x) = 0.26690 0.96887
# Poissons Ratio (y) = 0.07121 0.18663
# Poissons Ratio (z) = 0.24988 0.18041
#
# Static dielectric constant tensor:
#      x y z
#    x 3.139110 0.050110 -0.141230 
#    y 0.050110 3.347620 0.188530 
#    z -0.141230 0.188530 3.409630 
# 
# 
# High freq. dielectric constant tensor:
#      x y z
#    x 1.695750 0.010000 -0.014530 
#    y 0.010000 1.726840 0.010960 
#    z -0.014530 0.010960 1.723300 
# 
# From -- ./inp_files/339650.got.cif
#   From: 2010.06.25/outbox.cif.g09.slc.cpg/sg2_170_cif.got.tgz:339650.got - 2010.06.27 13:26:56.
