data_PCOD8039288
_publ_section_title
;
Structure prediction by ZEFSAII (Michael W. Deem and Ramdas Pophale) SiO2 
 PCOD8039288
Probable space group: P -1
;
_chemical_formula_sum "Si O2"
_cell_formula_units_Z 16
_cell_length_a 8.866214
_cell_length_b 23.328058
_cell_length_c 6.236329
_cell_angle_alpha 78.101873
_cell_angle_beta 75.092796
_cell_angle_gamma 36.368380
_cell_volume 739.116527
_symmetry_space_group_name_H-M "P -1"
_symmetry_group_IT_number 2
_symmetry_cell_setting 'triclinic'
loop_
_space_group_symop_operation_xyz
x,y,z
-x,-y,-z
loop_
_atom_site_type_symbol
_atom_site_label
_atom_site_fract_x
_atom_site_fract_y
_atom_site_fract_z
Si Si1 0.013262 0.779680 0.143899
Si Si2 0.314163 0.075189 0.196704
Si Si3 0.489699 0.919559 0.490538
Si Si4 0.168640 0.354922 0.098682
Si Si5 0.187993 0.492994 0.526519
Si Si6 0.475164 0.218806 0.465696
Si Si7 0.953702 0.358506 0.794583
Si Si8 0.552232 0.296051 0.692685
O O1 0.161802 0.672694 0.154932
O O2 0.195899 0.770902 0.204491
O O3 0.749450 0.851811 0.313407
O O4 0.951869 0.823100 0.893149
O O5 0.444464 0.088639 0.276940
O O6 0.273947 0.030600 0.401760
O O7 0.500000 0.000000 0.000000
O O8 0.374893 0.888187 0.525311
O O9 0.416130 0.260129 0.217907
O O10 0.938348 0.450932 0.245621
O O11 0.293920 0.361402 0.875158
O O12 0.031978 0.343713 0.025040
O O13 0.230807 0.535063 0.314259
O O14 0.473159 0.379706 0.534695
O O15 0.000000 0.500000 0.500000
O O16 0.619630 0.223484 0.556971
O O17 0.200499 0.286918 0.610593
#
# Coordination Sequence:
#
# PCOD8039288 Si02
#       8
#     2   2   2   2   2   2   2   2
#     4  10  21  36  52  83 113 133 173 219 275 317
#     4   9  18  35  60  83 104 138 173 212 261 323
#     4   9  18  36  62  80 104 138 176 216 257 318
#     4  10  18  33  56  73 101 145 185 221 255 304
#     4  11  19  35  54  76 102 144 193 217 255 309
#     4   9  18  33  53  81 102 138 183 214 256 314
#     4   9  19  33  54  75 102 140 182 224 254 313
#     4  11  22  33  52  80 111 142 173 225 269 307
#
# _framework density 21.647466999999999
#
# number of rings (size 3 to 8) (size 9 to 14) (size 15 to 20)
#    0.000    2.250    3.750    1.125    0.000    2.500 
#    0.000    1.250    0.000    7.500    0.000    0.000 
#    0.000    0.000    0.000    0.000    0.000    0.000 
#
# Total GULP energy -198252.030521 kJ/mol
# GULP energy per Si atom -12390.751908 kJ/mol
# Density = 2.159820 g / cm^3
# Si number density = 21.647467 Si / 1000 Ang^3
#
#
#
# Elastic Constant Matrix: (Units=GPa)
#
#
# Indices 1 2 3 4 5 6 
#
# 1 110.4910 54.8348 47.2606 -19.4728 32.2294 31.2129
# 2 54.8348 85.6630 37.6700 -35.3271 6.4095 30.3068
# 3 47.2606 37.6700 97.8010 -25.0872 33.9346 14.8626
# 4 -19.4728 -35.3271 -25.0872 30.3953 -6.7724 -5.3891
# 5 32.2294 6.4095 33.9346 -6.7724 26.6335 0.9216
# 6 31.2129 30.3068 14.8626 -5.3891 0.9216 35.0348
#
#
#
# Elastic Compliance Matrix: (Units=1/GPa)
#
#
# Indices 1 2 3 4 5 6 
#
# 1 0.029269 -0.015587 0.007362 -0.005356 -0.041875 -0.015438
# 2 -0.015587 0.044776 -0.006189 0.039921 0.026704 -0.016783
# 3 0.007362 -0.006189 0.025951 0.008743 -0.037920 -0.009872
# 4 -0.005356 0.039921 0.008743 0.080890 0.007037 -0.021213
# 5 -0.041875 0.026704 -0.037920 0.007037 0.130931 0.027932
# 6 -0.015438 -0.016783 -0.009872 -0.021213 0.027932 0.057005
#
#
# Mechanical properties :
#
#
# Convention : Reuss Voigt Hill
#
# Bulk Modulus (GPa) = 14.05128 63.72062 38.88595
# Shear Modulus (GPa) = 11.86597 28.69205 20.27901
#
# Velocity S-wave (km/s) = 2.34379 3.64459 3.06401
# Velocity P-wave (km/s) = 3.71881 6.87097 5.52448
#
# Compressibility (1/GPa) = 0.07116789
#
# Stress axis : x y z
#
# Youngs Moduli (GPa) = 34.16577 22.33363 38.53359
#
# Poissons Ratio (x) = 0.34811 -0.28367
# Poissons Ratio (y) = 0.53253 0.23849
# Poissons Ratio (z) = -0.25152 0.13822
#
# Static dielectric constant tensor:
#      x y z
#    x 3.843290 0.791530 0.240030 
#    y 0.791530 4.543670 -0.377920 
#    z 0.240030 -0.377920 4.406930 
# 
# 
# High freq. dielectric constant tensor:
#      x y z
#    x 1.822630 0.037270 0.025700 
#    y 0.037270 1.835670 -0.017820 
#    z 0.025700 -0.017820 1.857060 
# 
# From -- ./inp_files/37438.got.cif
#   From: 2010.06.25/outbox.cif.g09.slc.cpg/sg2_19_cif.got.tgz:37438.got - 2010.06.27 13:26:56.
