data_PCOD8039737
_publ_section_title
;
Structure prediction by ZEFSAII (Michael W. Deem and Ramdas Pophale) SiO2 
 PCOD8039737
Probable space group: P -1
;
_chemical_formula_sum "Si O2"
_cell_formula_units_Z 16
_cell_length_a 9.726804
_cell_length_b 11.841946
_cell_length_c 15.370399
_cell_angle_alpha 58.908459
_cell_angle_beta 38.299279
_cell_angle_gamma 77.391375
_cell_volume 879.386508
_symmetry_space_group_name_H-M "P -1"
_symmetry_group_IT_number 2
_symmetry_cell_setting 'triclinic'
loop_
_space_group_symop_operation_xyz
x,y,z
-x,-y,-z
loop_
_atom_site_type_symbol
_atom_site_label
_atom_site_fract_x
_atom_site_fract_y
_atom_site_fract_z
Si Si1 0.405173 0.940882 0.977710
Si Si2 0.416455 0.354738 0.715840
Si Si3 0.793687 0.064405 0.586531
Si Si4 0.947830 0.342315 0.695009
Si Si5 0.961267 0.929587 0.955160
Si Si6 0.525011 0.942650 0.417780
Si Si7 0.563516 0.657283 0.488775
Si Si8 0.895032 0.341795 0.525004
O O1 0.602641 0.984936 0.786797
O O2 0.295734 0.770335 0.102248
O O3 0.500000 0.000000 0.000000
O O4 0.197627 0.002907 0.045572
O O5 0.407037 0.510939 0.672082
O O6 0.499397 0.343098 0.581042
O O7 0.622258 0.330068 0.680720
O O8 0.164504 0.239456 0.909924
O O9 0.665373 0.050642 0.562369
O O10 0.915096 0.227522 0.490904
O O11 0.000000 0.000000 0.500000
O O12 0.986077 0.315297 0.584832
O O13 0.159864 0.318504 0.651552
O O14 0.948868 0.500508 0.648029
O O15 0.214782 0.958510 0.777572
O O16 0.000000 0.000000 0.000000
O O17 0.500714 0.782574 0.512553
O O18 0.500000 0.000000 0.500000
#
# Coordination Sequence:
#
# PCOD8039737 Si02
#       8
#     2   2   2   2   2   2   2   2
#     4  12  21  36  64  93 118 152 206 247 292 349
#     4  10  18  34  61  89 112 147 196 258 295 337
#     4  12  26  42  58  86 130 164 191 244 308 361
#     4  10  20  32  63  93 114 148 200 253 288 345
#     4  12  19  38  62  89 117 148 205 257 287 344
#     4  12  26  41  59  88 125 162 199 246 302 359
#     4  10  19  34  60  88 115 147 198 247 303 343
#     4  10  19  38  56  88 124 152 193 244 299 348
#
# _framework density 18.194503000000001
#
# number of rings (size 3 to 8) (size 9 to 14) (size 15 to 20)
#    0.000    1.000    7.500    0.000    3.500    0.000 
#    0.000    1.250    0.000    0.000    0.000    0.000 
#    0.000    0.000    0.000    0.000    0.000    0.000 
#
# Total GULP energy -198346.005669 kJ/mol
# GULP energy per Si atom -12396.625354 kJ/mol
# Density = 1.815309 g / cm^3
# Si number density = 18.194503 Si / 1000 Ang^3
#
#
#
# Elastic Constant Matrix: (Units=GPa)
#
#
# Indices 1 2 3 4 5 6 
#
# 1 97.7008 39.6651 29.5407 -2.7196 0.0244 7.9861
# 2 39.6651 139.1316 71.0376 -21.3875 0.0978 5.3234
# 3 29.5407 71.0376 108.4742 -23.5816 -6.6994 5.1981
# 4 -2.7196 -21.3875 -23.5816 38.3659 4.9592 0.2858
# 5 0.0244 0.0978 -6.6994 4.9592 23.8742 1.0836
# 6 7.9861 5.3234 5.1981 0.2858 1.0836 30.7641
#
#
#
# Elastic Compliance Matrix: (Units=1/GPa)
#
#
# Indices 1 2 3 4 5 6 
#
# 1 0.012007 -0.002695 -0.001769 -0.001716 -0.000035 -0.002335
# 2 -0.002695 0.011679 -0.006479 0.002649 -0.002406 -0.000167
# 3 -0.001769 -0.006479 0.015352 0.005282 0.003293 -0.001179
# 4 -0.001716 0.002649 0.005282 0.031319 -0.004986 -0.001021
# 5 -0.000035 -0.002406 0.003293 -0.004986 0.043930 -0.001632
# 6 -0.002335 -0.000167 -0.001179 -0.001021 -0.001632 0.033406
#
#
# Mechanical properties :
#
#
# Convention : Reuss Voigt Hill
#
# Bulk Modulus (GPa) = 58.29905 69.53260 63.91583
# Shear Modulus (GPa) = 28.52327 32.27172 30.39750
#
# Velocity S-wave (km/s) = 3.96370 4.21611 4.09185
# Velocity P-wave (km/s) = 7.28420 7.87401 7.58484
#
# Compressibility (1/GPa) = 0.01715294
#
# Stress axis : x y z
#
# Youngs Moduli (GPa) = 83.28393 85.62268 65.13964
#
# Poissons Ratio (x) = 0.23071 0.11521
# Poissons Ratio (y) = 0.22441 0.42206
# Poissons Ratio (z) = 0.14730 0.55477
#
# Static dielectric constant tensor:
#      x y z
#    x 3.566120 -0.067200 0.144410 
#    y -0.067200 3.271590 -0.195670 
#    z 0.144410 -0.195670 2.672540 
# 
# 
# High freq. dielectric constant tensor:
#      x y z
#    x 1.733280 0.002500 -0.004260 
#    y 0.002500 1.691650 -0.041380 
#    z -0.004260 -0.041380 1.685420 
# 
# From -- ./inp_files/279540.got.cif
#   From: 2010.06.25/outbox.cif.g09.slc.cpg/sg2_140_cif.got.tgz:279540.got - 2010.06.27 13:26:56.
