data_PCOD8039474
_publ_section_title
;
Structure prediction by ZEFSAII (Michael W. Deem and Ramdas Pophale) SiO2 
 PCOD8039474
Probable space group: P -1
;
_chemical_formula_sum "Si O2"
_cell_formula_units_Z 14
_cell_length_a 25.512838
_cell_length_b 16.328450
_cell_length_c 24.989559
_cell_angle_alpha 156.000524
_cell_angle_beta 11.331483
_cell_angle_gamma 157.093485
_cell_volume 788.808406
_symmetry_space_group_name_H-M "P -1"
_symmetry_group_IT_number 2
_symmetry_cell_setting 'triclinic'
loop_
_space_group_symop_operation_xyz
x,y,z
-x,-y,-z
loop_
_atom_site_type_symbol
_atom_site_label
_atom_site_fract_x
_atom_site_fract_y
_atom_site_fract_z
Si Si1 0.184033 0.521652 0.439330
Si Si2 0.454188 0.744157 0.093138
Si Si3 0.227217 0.943703 0.704094
Si Si4 0.537496 0.821367 0.175597
Si Si5 0.804637 0.633612 0.214608
Si Si6 0.840821 0.928459 0.266163
Si Si7 0.647202 0.221046 0.182759
O O1 0.149937 0.694897 0.619015
O O2 0.338454 0.632536 0.297449
O O3 0.876862 0.367436 0.641681
O O4 0.375619 0.383200 0.187864
O O5 0.572158 0.745071 0.035860
O O6 0.515366 0.981457 0.149968
O O7 0.500000 0.000000 0.500000
O O8 0.266707 0.087111 0.696561
O O9 0.000000 0.000000 0.000000
O O10 0.376975 0.995567 0.434605
O O11 0.841479 0.909407 0.952400
O O12 0.821187 0.698831 0.173988
O O13 0.755311 0.381457 0.119699
O O14 0.565724 0.697605 0.522064
O O15 0.096120 0.774126 0.032771
#
# Coordination Sequence:
#
# PCOD8039474 Si02
#       7
#     2   2   2   2   2   2   2
#     4  11  23  33  51  74 104 138 179 206 257 317
#     4  12  19  33  49  78 110 146 164 199 253 308
#     4  11  23  40  55  74  98 131 179 232 265 297
#     4  11  20  32  48  78 110 144 167 201 241 316
#     4  10  18  34  48  78 103 145 175 205 242 296
#     4  11  19  34  56  76 104 138 177 212 258 304
#     4  10  20  30  52  72 113 142 173 201 239 298
#
# _framework density 17.748287999999999
#
# number of rings (size 3 to 8) (size 9 to 14) (size 15 to 20)
#    0.000    1.143    2.857    6.857    0.000    0.000 
#    0.000    0.000    0.000    0.000    0.000    6.000 
#    0.000    0.000    0.000    0.000    0.000    0.000 
#
# Total GULP energy -173541.582710 kJ/mol
# GULP energy per Si atom -12395.827336 kJ/mol
# Density = 1.770789 g / cm^3
# Si number density = 17.748288 Si / 1000 Ang^3
#
#
#
# Elastic Constant Matrix: (Units=GPa)
#
#
# Indices 1 2 3 4 5 6 
#
# 1 85.6567 53.1183 29.7677 -0.2864 -13.6820 -9.9489
# 2 53.1183 112.3614 29.9044 4.2062 -6.4193 -13.0114
# 3 29.7677 29.9044 117.4491 -2.3599 -8.7572 3.4850
# 4 -0.2864 4.2062 -2.3599 37.6009 8.1472 -4.8496
# 5 -13.6820 -6.4193 -8.7572 8.1472 28.9827 3.9684
# 6 -9.9489 -13.0114 3.4850 -4.8496 3.9684 18.6483
#
#
#
# Elastic Compliance Matrix: (Units=1/GPa)
#
#
# Indices 1 2 3 4 5 6 
#
# 1 0.018435 -0.007252 -0.002515 0.000065 0.005766 0.004035
# 2 -0.007252 0.013466 -0.001910 -0.000523 -0.001707 0.006111
# 3 -0.002515 -0.001910 0.009945 -0.000307 0.002176 -0.005076
# 4 0.000065 -0.000523 -0.000307 0.030034 -0.009943 0.009653
# 5 0.005766 -0.001707 0.002176 -0.009943 0.041665 -0.009974
# 6 0.004035 0.006111 -0.005076 0.009653 -0.009974 0.065622
#
#
# Mechanical properties :
#
#
# Convention : Reuss Voigt Hill
#
# Bulk Modulus (GPa) = 54.07243 60.11644 57.09443
# Shear Modulus (GPa) = 23.95963 30.55817 27.25890
#
# Velocity S-wave (km/s) = 3.67818 4.15390 3.92326
# Velocity P-wave (km/s) = 6.96929 7.54664 7.26371
#
# Compressibility (1/GPa) = 0.01849371
#
# Stress axis : x y z
#
# Youngs Moduli (GPa) = 54.24376 74.26092 100.55703
#
# Poissons Ratio (x) = 0.53852 0.25286
# Poissons Ratio (y) = 0.39336 0.19205
# Poissons Ratio (z) = 0.13640 0.14183
#
# Static dielectric constant tensor:
#      x y z
#    x 3.203280 -0.233990 -0.116310 
#    y -0.233990 3.512120 0.147650 
#    z -0.116310 0.147650 3.578500 
# 
# 
# High freq. dielectric constant tensor:
#      x y z
#    x 1.642890 -0.020620 -0.016820 
#    y -0.020620 1.682180 -0.004970 
#    z -0.016820 -0.004970 1.717460 
# 
# From -- ./inp_files/82198.got.cif
#   From: 2010.06.25/outbox.cif.g09.slc.cpg/sg2_42_cif.got.tgz:82198.got - 2010.06.27 13:26:56.
