data_PCOD8039546
_publ_section_title
;
Structure prediction by ZEFSAII (Michael W. Deem and Ramdas Pophale) SiO2 
 PCOD8039546
Probable space group: P -1
;
_chemical_formula_sum "Si O2"
_cell_formula_units_Z 16
_cell_length_a 14.236187
_cell_length_b 12.391488
_cell_length_c 11.886048
_cell_angle_alpha 132.719163
_cell_angle_beta 107.769649
_cell_angle_gamma 112.083458
_cell_volume 811.006153
_symmetry_space_group_name_H-M "P -1"
_symmetry_group_IT_number 2
_symmetry_cell_setting 'triclinic'
loop_
_space_group_symop_operation_xyz
x,y,z
-x,-y,-z
loop_
_atom_site_type_symbol
_atom_site_label
_atom_site_fract_x
_atom_site_fract_y
_atom_site_fract_z
Si Si1 0.282990 0.956448 0.239804
Si Si2 0.807116 0.196624 0.243130
Si Si3 0.008795 0.630128 0.359232
Si Si4 0.781746 0.581171 0.621738
Si Si5 0.706265 0.351251 0.203466
Si Si6 0.418511 0.888313 0.622906
Si Si7 0.171325 0.786915 0.315979
Si Si8 0.799639 0.928974 0.889584
O O1 0.270687 0.988154 0.389882
O O2 0.302509 0.128563 0.295987
O O3 0.448726 0.052920 0.355580
O O4 0.105319 0.656350 0.914907
O O5 0.673866 0.150954 0.109822
O O6 0.000000 0.500000 0.500000
O O7 0.813084 0.192828 0.378252
O O8 0.764199 0.984918 0.025466
O O9 0.884235 0.585085 0.354647
O O10 0.095491 0.803344 0.397844
O O11 0.721421 0.490989 0.405030
O O12 0.697464 0.353982 0.507946
O O13 0.720394 0.668244 0.698292
O O14 0.991680 0.823105 0.883332
O O15 0.531941 0.151694 0.920819
O O16 0.296884 0.819160 0.439276
O O17 0.000000 0.500000 0.000000
#
# Coordination Sequence:
#
# PCOD8039546 Si02
#       8
#     2   2   2   2   2   2   2   2
#     4  10  19  35  51  79 111 146 176 228 266 313
#     4  10  14  30  56  75 109 144 177 217 265 316
#     4   9  16  29  55  77 101 140 183 220 260 306
#     4  11  22  32  53  88 116 143 177 219 276 329
#     4  10  18  33  52  80 115 140 172 231 269 323
#     4  11  21  33  54  82 111 141 184 221 278 323
#     4  10  20  33  56  82 104 137 190 235 260 310
#     4  11  20  35  55  81 117 147 177 220 271 323
#
# _framework density 19.728581999999999
#
# number of rings (size 3 to 8) (size 9 to 14) (size 15 to 20)
#    0.000    1.750    6.250    3.000    0.000    0.500 
#    0.000    0.000    0.000    1.500    6.500    0.000 
#    0.000    0.000    0.000    0.000    0.000    0.000 
#
# Total GULP energy -198224.077774 kJ/mol
# GULP energy per Si atom -12389.004861 kJ/mol
# Density = 1.968368 g / cm^3
# Si number density = 19.728582 Si / 1000 Ang^3
#
#
#
# Elastic Constant Matrix: (Units=GPa)
#
#
# Indices 1 2 3 4 5 6 
#
# 1 65.7844 19.6608 39.7902 -10.0253 -9.6080 -4.2771
# 2 19.6608 82.6033 33.8050 -27.8137 -2.2626 13.2141
# 3 39.7902 33.8050 70.1480 -22.5784 5.6682 -3.8078
# 4 -10.0253 -27.8137 -22.5784 29.2810 -3.7313 -1.9060
# 5 -9.6080 -2.2626 5.6682 -3.7313 34.8749 -8.1012
# 6 -4.2771 13.2141 -3.8078 -1.9060 -8.1012 30.7276
#
#
#
# Elastic Compliance Matrix: (Units=1/GPa)
#
#
# Indices 1 2 3 4 5 6 
#
# 1 0.026760 -0.001179 -0.016069 -0.002657 0.010765 0.004914
# 2 -0.001179 0.021025 -0.005141 0.015246 0.001533 -0.008493
# 3 -0.016069 -0.005141 0.030597 0.012369 -0.007837 0.002467
# 4 -0.002657 0.015246 0.012369 0.057761 0.004267 -0.000685
# 5 0.010765 0.001533 -0.007837 0.004267 0.035686 0.009541
# 6 0.004914 -0.008493 0.002467 -0.000685 0.009541 0.039659
#
#
# Mechanical properties :
#
#
# Convention : Reuss Voigt Hill
#
# Bulk Modulus (GPa) = 29.75944 45.00529 37.38236
# Shear Modulus (GPa) = 18.69398 27.32868 23.01133
#
# Velocity S-wave (km/s) = 3.08158 3.72591 3.41896
# Velocity P-wave (km/s) = 5.27055 6.43208 5.88007
#
# Compressibility (1/GPa) = 0.03360279
#
# Stress axis : x y z
#
# Youngs Moduli (GPa) = 37.36940 47.56332 32.68346
#
# Poissons Ratio (x) = 0.05607 0.52520
# Poissons Ratio (y) = 0.04405 0.16803
# Poissons Ratio (z) = 0.60050 0.24453
#
# Static dielectric constant tensor:
#      x y z
#    x 3.760790 0.353050 0.090710 
#    y 0.353050 4.146300 -0.554650 
#    z 0.090710 -0.554650 3.770220 
# 
# 
# High freq. dielectric constant tensor:
#      x y z
#    x 1.762730 0.029200 0.021040 
#    y 0.029200 1.743270 -0.031590 
#    z 0.021040 -0.031590 1.759700 
# 
# From -- ./inp_files/450660.got.cif
#   From: 2010.06.25/outbox.cif.g09.slc.cpg/sg2_226_cif.got.tgz:450660.got - 2010.06.27 13:26:56.
