data_PCOD8039718
_publ_section_title
;
Structure prediction by ZEFSAII (Michael W. Deem and Ramdas Pophale) SiO2 
 PCOD8039718
Probable space group: P -1
;
_chemical_formula_sum "Si O2"
_cell_formula_units_Z 16
_cell_length_a 9.697136
_cell_length_b 19.659106
_cell_length_c 11.696284
_cell_angle_alpha 150.299982
_cell_angle_beta 54.982840
_cell_angle_gamma 114.563591
_cell_volume 885.758399
_symmetry_space_group_name_H-M "P -1"
_symmetry_group_IT_number 2
_symmetry_cell_setting 'triclinic'
loop_
_space_group_symop_operation_xyz
x,y,z
-x,-y,-z
loop_
_atom_site_type_symbol
_atom_site_label
_atom_site_fract_x
_atom_site_fract_y
_atom_site_fract_z
Si Si1 0.082939 0.131857 0.124893
Si Si2 0.028494 0.643031 0.057550
Si Si3 0.474494 0.634324 0.552518
Si Si4 0.843825 0.676909 0.428245
Si Si5 0.622588 0.870344 0.195038
Si Si6 0.126560 0.345095 0.088213
Si Si7 0.602642 0.317602 0.090716
Si Si8 0.159481 0.636916 0.566170
O O1 0.137338 0.200112 0.314429
O O2 0.936579 0.244276 0.297956
O O3 0.249728 0.086770 0.898498
O O4 0.000000 0.000000 0.000000
O O5 0.930492 0.700912 0.303007
O O6 0.909903 0.699233 0.087862
O O7 0.072793 0.474216 0.779016
O O8 0.198922 0.706718 0.074247
O O9 0.645450 0.683143 0.503489
O O10 0.500285 0.470045 0.326138
O O11 0.404475 0.713715 0.817338
O O12 0.339355 0.675109 0.573629
O O13 0.500000 0.000000 0.500000
O O14 0.734285 0.780094 0.108248
O O15 0.490893 0.788351 0.082490
O O16 0.198145 0.488525 0.265087
O O17 0.947524 0.374033 0.283980
#
# Coordination Sequence:
#
# PCOD8039718 Si02
#       8
#     2   2   2   2   2   2   2   2
#     4  11  24  42  60  83 124 167 191 230 302 364
#     4  10  20  36  60  92 120 149 193 250 298 342
#     4  10  18  34  60  94 112 147 200 248 294 336
#     4  10  21  37  58  87 126 156 189 237 302 357
#     4  11  24  41  60  88 121 157 199 243 290 352
#     4  10  19  36  62  92 116 147 197 255 291 331
#     4  10  19  33  62  88 118 149 195 249 292 341
#     4  10  19  35  64  91 115 146 204 247 289 341
#
# _framework density 18.063616
#
# number of rings (size 3 to 8) (size 9 to 14) (size 15 to 20)
#    0.000    1.750    5.000    0.000    1.750    0.000 
#    2.250    3.125    0.000    0.000    0.000    0.000 
#    0.000    0.000    0.000    0.000    0.000    0.000 
#
# Total GULP energy -198422.568764 kJ/mol
# GULP energy per Si atom -12401.410548 kJ/mol
# Density = 1.802250 g / cm^3
# Si number density = 18.063616 Si / 1000 Ang^3
#
#
#
# Elastic Constant Matrix: (Units=GPa)
#
#
# Indices 1 2 3 4 5 6 
#
# 1 147.3873 54.2310 62.0026 -8.4560 8.0598 8.9623
# 2 54.2310 94.8404 58.9167 -16.8219 2.4802 9.4233
# 3 62.0026 58.9167 105.7174 -12.1396 2.5941 9.2846
# 4 -8.4560 -16.8219 -12.1396 24.9020 4.1285 0.1920
# 5 8.0598 2.4802 2.5941 4.1285 22.0956 0.9246
# 6 8.9623 9.4233 9.2846 0.1920 0.9246 26.1733
#
#
#
# Elastic Compliance Matrix: (Units=1/GPa)
#
#
# Indices 1 2 3 4 5 6 
#
# 1 0.009722 -0.003020 -0.003909 -0.000194 -0.002680 -0.000759
# 2 -0.003020 0.018663 -0.007373 0.008268 -0.001544 -0.003076
# 3 -0.003909 -0.007373 0.016194 0.001579 0.000131 -0.001768
# 4 -0.000194 0.008268 0.001579 0.048112 -0.009887 -0.003474
# 5 -0.002680 -0.001544 0.000131 -0.009887 0.048249 -0.000205
# 6 -0.000759 -0.003076 -0.001768 -0.003474 -0.000205 0.040234
#
#
# Mechanical properties :
#
#
# Convention : Reuss Voigt Hill
#
# Bulk Modulus (GPa) = 62.59145 77.58288 70.08717
# Shear Modulus (GPa) = 23.24480 26.15384 24.69932
#
# Velocity S-wave (km/s) = 3.59113 3.80922 3.70178
# Velocity P-wave (km/s) = 7.20561 7.89873 7.56012
#
# Compressibility (1/GPa) = 0.01597662
#
# Stress axis : x y z
#
# Youngs Moduli (GPa) = 102.86052 53.58132 61.75246
#
# Poissons Ratio (x) = 0.16181 0.24137
# Poissons Ratio (y) = 0.31062 0.45527
# Poissons Ratio (z) = 0.40205 0.39503
#
# Static dielectric constant tensor:
#      x y z
#    x 3.394090 0.091300 -0.085450 
#    y 0.091300 3.248170 -0.071850 
#    z -0.085450 -0.071850 2.615510 
# 
# 
# High freq. dielectric constant tensor:
#      x y z
#    x 1.716930 0.008370 0.006980 
#    y 0.008370 1.687410 -0.011820 
#    z 0.006980 -0.011820 1.683240 
# 
# From -- ./inp_files/217115.got.cif
#   From: 2010.06.25/outbox.cif.g09.slc.cpg/sg2_109_cif.got.tgz:217115.got - 2010.06.27 13:26:56.
