data_PCOD8039724
_publ_section_title
;
Structure prediction by ZEFSAII (Michael W. Deem and Ramdas Pophale) SiO2 
 PCOD8039724
Probable space group: P -1
;
_chemical_formula_sum "Si O2"
_cell_formula_units_Z 14
_cell_length_a 9.319456
_cell_length_b 12.171950
_cell_length_c 8.817075
_cell_angle_alpha 59.687002
_cell_angle_beta 95.454774
_cell_angle_gamma 66.394218
_cell_volume 733.229237
_symmetry_space_group_name_H-M "P -1"
_symmetry_group_IT_number 2
_symmetry_cell_setting 'triclinic'
loop_
_space_group_symop_operation_xyz
x,y,z
-x,-y,-z
loop_
_atom_site_type_symbol
_atom_site_label
_atom_site_fract_x
_atom_site_fract_y
_atom_site_fract_z
Si Si1 0.982682 0.380505 0.902163
Si Si2 0.090448 0.825693 0.134175
Si Si3 0.078100 0.152896 0.605762
Si Si4 0.683473 0.196499 0.071810
Si Si5 0.173319 0.387702 0.515051
Si Si6 0.691614 0.619707 0.159099
Si Si7 0.159653 0.670865 0.790986
O O1 0.009834 0.227014 0.944952
O O2 0.828812 0.525248 0.698043
O O3 0.163050 0.363848 0.915903
O O4 0.926241 0.393996 0.061387
O O5 0.079895 0.780298 0.337205
O O6 0.274390 0.763482 0.119117
O O7 0.000000 0.000000 0.000000
O O8 0.183475 0.234543 0.580490
O O9 0.993062 0.185895 0.409120
O O10 0.209719 0.978635 0.760773
O O11 0.723364 0.282471 0.143947
O O12 0.486537 0.253406 0.016103
O O13 0.316387 0.359209 0.672630
O O14 0.000000 0.500000 0.500000
O O15 0.727165 0.456519 0.232235
#
# Coordination Sequence:
#
# PCOD8039724 Si02
#       7
#     2   2   2   2   2   2   2
#     4  10  19  36  60  84 104 149 197 219 266 340
#     4   9  18  36  56  79 109 146 186 221 271 336
#     4  11  19  38  61  80 111 149 193 222 268 343
#     4  10  24  36  55  88 116 144 179 237 288 314
#     4  10  18  34  61  83 104 144 194 228 268 323
#     4  11  20  37  58  86 114 141 185 239 279 315
#     4  11  21  37  62  79 113 154 189 218 273 344
#
# _framework density 19.093620000000001
#
# number of rings (size 3 to 8) (size 9 to 14) (size 15 to 20)
#    0.000    1.714    5.714    1.286    0.000    0.571 
#    0.000    8.571    0.000    0.000    0.000    0.000 
#    0.000    0.000    0.000    0.000    0.000    0.000 
#
# Total GULP energy -173485.204895 kJ/mol
# GULP energy per Si atom -12391.800350 kJ/mol
# Density = 1.905016 g / cm^3
# Si number density = 19.093620 Si / 1000 Ang^3
#
#
#
# Elastic Constant Matrix: (Units=GPa)
#
#
# Indices 1 2 3 4 5 6 
#
# 1 80.7370 45.8283 56.3043 0.6456 16.3263 11.8586
# 2 45.8283 79.2166 38.9701 -4.6239 1.5971 17.2929
# 3 56.3043 38.9701 135.8964 9.4647 5.3183 -1.9468
# 4 0.6456 -4.6239 9.4647 31.3315 0.4378 -2.8444
# 5 16.3263 1.5971 5.3183 0.4378 30.7909 -1.9176
# 6 11.8586 17.2929 -1.9468 -2.8444 -1.9176 23.5087
#
#
#
# Elastic Compliance Matrix: (Units=1/GPa)
#
#
# Indices 1 2 3 4 5 6 
#
# 1 0.027619 -0.009822 -0.008221 -0.000120 -0.013242 -0.008482
# 2 -0.009822 0.022190 -0.002829 0.003289 0.003820 -0.010893
# 3 -0.008221 -0.002829 0.011785 -0.003209 0.002956 0.007057
# 4 -0.000120 0.003289 -0.003209 0.033503 0.000060 0.001434
# 5 -0.013242 0.003820 0.002956 0.000060 0.039245 0.007323
# 6 -0.008482 -0.010893 0.007057 0.001434 0.007323 0.056184
#
#
# Mechanical properties :
#
#
# Convention : Reuss Voigt Hill
#
# Bulk Modulus (GPa) = 50.37732 64.22838 57.30285
# Shear Modulus (GPa) = 20.93036 27.44272 24.18654
#
# Velocity S-wave (km/s) = 3.31448 3.79525 3.56298
# Velocity P-wave (km/s) = 6.41010 7.27440 6.85588
#
# Compressibility (1/GPa) = 0.01985020
#
# Stress axis : x y z
#
# Youngs Moduli (GPa) = 36.20683 45.06479 84.85461
#
# Poissons Ratio (x) = 0.44263 0.69763
# Poissons Ratio (y) = 0.35562 0.24002
# Poissons Ratio (z) = 0.29767 0.12747
#
# Static dielectric constant tensor:
#      x y z
#    x 3.425480 0.199990 -0.206520 
#    y 0.199990 3.656090 0.331080 
#    z -0.206520 0.331080 4.126880 
# 
# 
# High freq. dielectric constant tensor:
#      x y z
#    x 1.714280 0.025340 -0.015950 
#    y 0.025340 1.752940 0.008730 
#    z -0.015950 0.008730 1.741110 
# 
# From -- ./inp_files/167961.got.cif
#   From: 2010.06.25/outbox.cif.g09.slc.cpg/sg2_84_cif.got.tgz:167961.got - 2010.06.27 13:26:56.
