data_PCOD8039991
_publ_section_title
;
Structure prediction by ZEFSAII (Michael W. Deem and Ramdas Pophale) SiO2 
 PCOD8039991
Probable space group: P -1
;
_chemical_formula_sum "Si O2"
_cell_formula_units_Z 14
_cell_length_a 14.626169
_cell_length_b 16.787529
_cell_length_c 17.185001
_cell_angle_alpha 162.688923
_cell_angle_beta 136.245915
_cell_angle_gamma 35.744358
_cell_volume 699.141780
_symmetry_space_group_name_H-M "P -1"
_symmetry_group_IT_number 2
_symmetry_cell_setting 'triclinic'
loop_
_space_group_symop_operation_xyz
x,y,z
-x,-y,-z
loop_
_atom_site_type_symbol
_atom_site_label
_atom_site_fract_x
_atom_site_fract_y
_atom_site_fract_z
Si Si1 0.154722 0.596699 0.632562
Si Si2 0.422109 0.334823 0.433297
Si Si3 0.872646 0.669632 0.308365
Si Si4 0.853446 0.251154 0.785954
Si Si5 0.178760 0.598785 0.393395
Si Si6 0.636373 0.589646 0.821695
Si Si7 0.052534 0.637480 0.774170
O O1 0.333886 0.434303 0.555769
O O2 0.086698 0.406102 0.375988
O O3 0.172548 0.548212 0.691611
O O4 0.032206 0.986044 0.899139
O O5 0.290397 0.568457 0.504237
O O6 0.563513 0.385366 0.569266
O O7 0.496184 0.955552 0.106907
O O8 0.070805 0.471307 0.235389
O O9 0.837620 0.604696 0.313114
O O10 0.781501 0.061822 0.602358
O O11 0.802000 0.549955 0.090270
O O12 0.781653 0.392798 0.789429
O O13 0.051912 0.989515 0.656088
O O14 0.289056 0.383185 0.186720
#
# Coordination Sequence:
#
# PCOD8039991 Si02
#       7
#     2   2   2   2   2   2   2
#     4  10  20  34  59  86 123 146 186 240 306 337
#     4  12  24  39  59  88 126 151 189 245 301 351
#     4  10  20  35  65  83 115 140 207 246 285 320
#     4  10  23  39  61  82 118 160 202 242 274 346
#     4  10  24  38  64  85 114 159 204 244 277 345
#     4  12  26  39  57  86 126 159 194 233 301 347
#     4  10  18  35  60  92 110 147 194 249 283 343
#
# _framework density 20.024550000000001
#
# number of rings (size 3 to 8) (size 9 to 14) (size 15 to 20)
#    0.857    0.571    1.429    4.714    4.000    0.571 
#    0.000    0.000    0.000    5.143    0.000    0.000 
#    0.000    0.000    0.000    0.000    0.000    0.000 
#
# Total GULP energy -173604.370325 kJ/mol
# GULP energy per Si atom -12400.312166 kJ/mol
# Density = 1.997897 g / cm^3
# Si number density = 20.024550 Si / 1000 Ang^3
#
#
#
# Elastic Constant Matrix: (Units=GPa)
#
#
# Indices 1 2 3 4 5 6 
#
# 1 88.7811 36.4156 25.2875 -2.9156 -8.3694 26.6498
# 2 36.4156 95.4804 20.9087 -11.0536 -4.6751 4.3877
# 3 25.2875 20.9087 82.7263 -13.2627 6.0926 1.3214
# 4 -2.9156 -11.0536 -13.2627 28.2871 -1.8305 -3.0656
# 5 -8.3694 -4.6751 6.0926 -1.8305 28.8043 -4.5913
# 6 26.6498 4.3877 1.3214 -3.0656 -4.5913 25.3247
#
#
#
# Elastic Compliance Matrix: (Units=1/GPa)
#
#
# Indices 1 2 3 4 5 6 
#
# 1 0.022496 -0.006746 -0.005871 -0.005311 0.002786 -0.022335
# 2 -0.006746 0.013615 -0.000793 0.004975 0.001639 0.005681
# 3 -0.005871 -0.000793 0.015335 0.006643 -0.003757 0.005639
# 4 -0.005311 0.004975 0.006643 0.041046 0.002016 0.009714
# 5 0.002786 0.001639 -0.003757 0.002016 0.037352 0.003997
# 6 -0.022335 0.005681 0.005639 0.009714 0.003997 0.063613
#
#
# Mechanical properties :
#
#
# Convention : Reuss Voigt Hill
#
# Bulk Modulus (GPa) = 40.60866 48.02349 44.31608
# Shear Modulus (GPa) = 21.88318 28.77495 25.32907
#
# Velocity S-wave (km/s) = 3.30937 3.79487 3.56040
# Velocity P-wave (km/s) = 5.90982 6.57539 6.25147
#
# Compressibility (1/GPa) = 0.02462529
#
# Stress axis : x y z
#
# Youngs Moduli (GPa) = 44.45300 73.44830 65.21129
#
# Poissons Ratio (x) = 0.49548 0.38287
# Poissons Ratio (y) = 0.29988 0.05171
# Poissons Ratio (z) = 0.26099 0.05824
#
# Static dielectric constant tensor:
#      x y z
#    x 3.600660 0.225430 0.056680 
#    y 0.225430 3.422830 -0.097430 
#    z 0.056680 -0.097430 3.588900 
# 
# 
# High freq. dielectric constant tensor:
#      x y z
#    x 1.770000 0.023690 0.008800 
#    y 0.023690 1.768300 -0.013490 
#    z 0.008800 -0.013490 1.788150 
# 
# From -- ./inp_files/139339.got.cif
#   From: 2010.06.25/outbox.cif.g09.slc.cpg/sg2_70_cif.got.tgz:139339.got - 2010.06.27 13:26:56.
