data_PCOD8039100
_publ_section_title
;
Structure prediction by ZEFSAII (Michael W. Deem and Ramdas Pophale) SiO2 
 PCOD8039100
Probable space group: P -1
;
_chemical_formula_sum "Si O2"
_cell_formula_units_Z 12
_cell_length_a 9.721563
_cell_length_b 8.623722
_cell_length_c 13.865484
_cell_angle_alpha 139.947495
_cell_angle_beta 85.355024
_cell_angle_gamma 114.142471
_cell_volume 627.000650
_symmetry_space_group_name_H-M "P -1"
_symmetry_group_IT_number 2
_symmetry_cell_setting 'triclinic'
loop_
_space_group_symop_operation_xyz
x,y,z
-x,-y,-z
loop_
_atom_site_type_symbol
_atom_site_label
_atom_site_fract_x
_atom_site_fract_y
_atom_site_fract_z
Si Si1 0.564398 0.331940 0.138795
Si Si2 0.873771 0.003490 0.765752
Si Si3 0.230792 0.253457 0.145174
Si Si4 0.179919 0.545192 0.958728
Si Si5 0.018113 0.617126 0.813743
Si Si6 0.870955 0.725821 0.438014
O O1 0.422507 0.398280 0.181333
O O2 0.652220 0.417890 0.069721
O O3 0.693637 0.534881 0.308261
O O4 0.500000 0.000000 0.000000
O O5 0.070347 0.245251 0.879290
O O6 0.809056 0.797760 0.763320
O O7 0.835999 0.807168 0.582070
O O8 0.782365 0.179242 0.849304
O O9 0.169448 0.458747 0.209672
O O10 0.136107 0.956111 0.950797
O O11 0.066827 0.522936 0.863500
O O12 0.046758 0.462334 0.648647
O O13 0.000000 0.000000 0.500000
#
# Coordination Sequence:
#
# PCOD8039100 Si02
#       6
#     2   2   2   2   2   2
#     4  11  18  36  55  84 103 144 180 221 262 322
#     4  10  18  32  56  84 103 141 181 222 256 322
#     4  10  20  34  57  81 109 139 181 222 264 315
#     4   9  18  34  59  77 106 145 182 208 265 331
#     4   9  18  35  55  79 106 149 173 212 275 325
#     4  11  20  34  58  81 107 143 181 219 268 320
#
# _framework density 19.138736999999999
#
# number of rings (size 3 to 8) (size 9 to 14) (size 15 to 20)
#    0.000    2.000    8.333    0.000    0.000    1.333 
#    0.000    0.833    0.000   20.000    0.000    0.000 
#    0.000    0.000    0.000    0.000    0.000    0.000 
#
# Total GULP energy -148667.988715 kJ/mol
# GULP energy per Si atom -12388.999060 kJ/mol
# Density = 1.909518 g / cm^3
# Si number density = 19.138737 Si / 1000 Ang^3
#
#
#
# Elastic Constant Matrix: (Units=GPa)
#
#
# Indices 1 2 3 4 5 6 
#
# 1 149.0232 34.4721 45.3577 -4.1761 -20.5034 34.2879
# 2 34.4721 70.3979 20.5782 -12.8098 -8.6713 28.6997
# 3 45.3577 20.5782 145.0912 -21.6539 -19.0292 13.9534
# 4 -4.1761 -12.8098 -21.6539 26.9411 13.9955 -6.5106
# 5 -20.5034 -8.6713 -19.0292 13.9955 25.1527 -3.4429
# 6 34.2879 28.6997 13.9534 -6.5106 -3.4429 31.1049
#
#
#
# Elastic Compliance Matrix: (Units=1/GPa)
#
#
# Indices 1 2 3 4 5 6 
#
# 1 0.011448 -0.000343 -0.002275 -0.008637 0.010668 -0.011909
# 2 -0.000343 0.023897 -0.000299 0.005064 0.002145 -0.020240
# 3 -0.002275 -0.000299 0.008672 0.005808 0.001408 0.000264
# 4 -0.008637 0.005064 0.005808 0.063753 -0.034768 0.011739
# 5 0.010668 0.002145 0.001408 -0.034768 0.067666 -0.014158
# 6 -0.011909 -0.020240 0.000264 0.011739 -0.014158 0.064724
#
#
# Mechanical properties :
#
#
# Convention : Reuss Voigt Hill
#
# Bulk Modulus (GPa) = 26.18877 62.81427 44.50152
# Shear Modulus (GPa) = 19.32587 34.24667 26.78627
#
# Velocity S-wave (km/s) = 3.18115 4.23471 3.74516
# Velocity P-wave (km/s) = 5.21596 7.53671 6.48106
#
# Compressibility (1/GPa) = 0.03818430
#
# Stress axis : x y z
#
# Youngs Moduli (GPa) = 87.35106 41.84567 115.31808
#
# Poissons Ratio (x) = 0.01436 0.26231
# Poissons Ratio (y) = 0.02998 0.03442
# Poissons Ratio (z) = 0.19869 0.01249
#
# Static dielectric constant tensor:
#      x y z
#    x 3.722240 0.301900 -0.224310 
#    y 0.301900 3.420940 -0.115640 
#    z -0.224310 -0.115640 3.937730 
# 
# 
# High freq. dielectric constant tensor:
#      x y z
#    x 1.720370 0.025620 -0.024160 
#    y 0.025620 1.727570 -0.009370 
#    z -0.024160 -0.009370 1.745430 
# 
# From -- ./inp_files/290732.got.cif
#   From: 2010.06.25/outbox.cif.g09.slc.cpg/sg2_146_cif.got.tgz:290732.got - 2010.06.27 13:26:56.
