data_PCOD8039637
_publ_section_title
;
Structure prediction by ZEFSAII (Michael W. Deem and Ramdas Pophale) SiO2 
 PCOD8039637
Probable space group: P -1
;
_chemical_formula_sum "Si O2"
_cell_formula_units_Z 16
_cell_length_a 8.468946
_cell_length_b 10.288577
_cell_length_c 13.751106
_cell_angle_alpha 47.726250
_cell_angle_beta 116.306433
_cell_angle_gamma 107.195365
_cell_volume 794.758200
_symmetry_space_group_name_H-M "P -1"
_symmetry_group_IT_number 2
_symmetry_cell_setting 'triclinic'
loop_
_space_group_symop_operation_xyz
x,y,z
-x,-y,-z
loop_
_atom_site_type_symbol
_atom_site_label
_atom_site_fract_x
_atom_site_fract_y
_atom_site_fract_z
Si Si1 0.232264 0.709383 0.579513
Si Si2 0.689400 0.791850 0.859141
Si Si3 0.749318 0.180178 0.686491
Si Si4 0.595313 0.809600 0.619845
Si Si5 0.925399 0.489477 0.674292
Si Si6 0.720769 0.158025 0.269038
Si Si7 0.072280 0.524724 0.899606
Si Si8 0.340229 0.223237 0.556512
O O1 0.187908 0.801870 0.417753
O O2 0.440507 0.660818 0.657474
O O3 0.205471 0.838156 0.601195
O O4 0.112975 0.537852 0.651961
O O5 0.729327 0.786669 0.756699
O O6 0.480842 0.776814 0.823978
O O7 0.762616 0.977446 0.825755
O O8 0.789015 0.628326 0.016506
O O9 0.879149 0.290019 0.735350
O O10 0.548901 0.248863 0.615091
O O11 0.706335 0.788945 0.563964
O O12 0.500000 0.000000 0.500000
O O13 0.776133 0.613760 0.519282
O O14 0.926453 0.512264 0.780429
O O15 0.833718 0.286903 0.168215
O O16 0.730163 0.961242 0.325708
O O17 0.000000 0.500000 0.000000
#
# Coordination Sequence:
#
# PCOD8039637 Si02
#       8
#     2   2   2   2   2   2   2   2
#     4   9  17  31  52  81 106 126 166 219 266 303
#     4  10  18  34  58  73 102 140 176 211 249 315
#     4  10  19  35  56  77 103 142 177 208 257 319
#     4  10  14  32  57  81  99 130 179 214 261 312
#     4  11  23  33  49  80 114 137 171 216 264 309
#     4   9  18  35  56  80  98 131 180 215 259 309
#     4  11  24  36  49  77 108 139 171 217 269 305
#     4  10  18  33  56  79 105 134 168 225 266 303
#
# _framework density 20.131910999999999
#
# number of rings (size 3 to 8) (size 9 to 14) (size 15 to 20)
#    0.000    2.000    5.000    1.875    0.000    3.500 
#    0.000    0.000    0.000    3.000    0.000    0.000 
#    0.000    0.000    0.000    0.000    0.000    0.000 
#
# Total GULP energy -198229.387619 kJ/mol
# GULP energy per Si atom -12389.336726 kJ/mol
# Density = 2.008609 g / cm^3
# Si number density = 20.131911 Si / 1000 Ang^3
#
#
#
# Elastic Constant Matrix: (Units=GPa)
#
#
# Indices 1 2 3 4 5 6 
#
# 1 75.0226 40.5137 31.3859 -7.1407 -20.5831 18.9072
# 2 40.5137 84.4398 22.3396 -10.3154 -11.5375 30.1499
# 3 31.3859 22.3396 67.2660 -6.9573 -4.4478 8.0130
# 4 -7.1407 -10.3154 -6.9573 20.6803 -1.2753 -4.4718
# 5 -20.5831 -11.5375 -4.4478 -1.2753 34.8083 -4.6010
# 6 18.9072 30.1499 8.0130 -4.4718 -4.6010 29.3073
#
#
#
# Elastic Compliance Matrix: (Units=1/GPa)
#
#
# Indices 1 2 3 4 5 6 
#
# 1 0.024337 -0.005916 -0.007789 0.002323 0.010802 -0.005435
# 2 -0.005916 0.022255 -0.001952 0.004687 0.001475 -0.017598
# 3 -0.007789 -0.001952 0.019073 0.003011 -0.002455 0.001892
# 4 0.002323 0.004687 0.003011 0.053247 0.005507 0.001845
# 5 0.010802 0.001475 -0.002455 0.005507 0.035304 -0.001432
# 6 -0.005435 -0.017598 0.001892 0.001845 -0.001432 0.055271
#
#
# Mechanical properties :
#
#
# Convention : Reuss Voigt Hill
#
# Bulk Modulus (GPa) = 29.11116 46.13409 37.62262
# Shear Modulus (GPa) = 19.82162 25.79179 22.80670
#
# Velocity S-wave (km/s) = 3.14122 3.58318 3.36945
# Velocity P-wave (km/s) = 5.25813 6.33124 5.81947
#
# Compressibility (1/GPa) = 0.03435109
#
# Stress axis : x y z
#
# Youngs Moduli (GPa) = 41.09014 44.93323 52.43134
#
# Poissons Ratio (x) = 0.26581 0.40838
# Poissons Ratio (y) = 0.24308 0.10236
# Poissons Ratio (z) = 0.32004 0.08772
#
# Static dielectric constant tensor:
#      x y z
#    x 3.697200 0.239300 -0.077740 
#    y 0.239300 3.552820 -0.083360 
#    z -0.077740 -0.083360 3.578860 
# 
# 
# High freq. dielectric constant tensor:
#      x y z
#    x 1.781140 0.019810 -0.009290 
#    y 0.019810 1.766870 -0.008540 
#    z -0.009290 -0.008540 1.762060 
# 
# From -- ./inp_files/494431.got.cif
#   From: 2010.06.25/outbox.cif.g09.slc.cpg/sg2_248_cif.got.tgz:494431.got - 2010.06.27 13:26:56.
