data_PCOD8039032
_publ_section_title
;
Structure prediction by ZEFSAII (Michael W. Deem and Ramdas Pophale) SiO2 
 PCOD8039032
Probable space group: P -1
;
_chemical_formula_sum "Si O2"
_cell_formula_units_Z 16
_cell_length_a 10.980083
_cell_length_b 15.344544
_cell_length_c 13.679095
_cell_angle_alpha 142.798762
_cell_angle_beta 31.608807
_cell_angle_gamma 143.068205
_cell_volume 675.001223
_symmetry_space_group_name_H-M "P -1"
_symmetry_group_IT_number 2
_symmetry_cell_setting 'triclinic'
loop_
_space_group_symop_operation_xyz
x,y,z
-x,-y,-z
loop_
_atom_site_type_symbol
_atom_site_label
_atom_site_fract_x
_atom_site_fract_y
_atom_site_fract_z
Si Si1 0.654570 0.538632 0.529476
Si Si2 0.854677 0.171534 0.051137
Si Si3 0.452249 0.215401 0.478723
Si Si4 0.329256 0.612782 0.955016
Si Si5 0.131736 0.998575 0.806847
Si Si6 0.026280 0.741342 0.162986
Si Si7 0.841976 0.473655 0.807355
Si Si8 0.381545 0.774972 0.407718
O O1 0.500000 0.500000 0.500000
O O2 0.610129 0.387715 0.489501
O O3 0.951268 0.595809 0.357619
O O4 0.578346 0.656220 0.755360
O O5 0.586617 0.113714 0.240449
O O6 0.057192 0.338830 0.101393
O O7 0.969416 0.040477 0.872099
O O8 0.806849 0.185742 0.981889
O O9 0.158132 0.166015 0.605399
O O10 0.473707 0.211447 0.577236
O O11 0.377199 0.602163 0.028466
O O12 0.212539 0.743386 0.126007
O O13 0.144349 0.438634 0.897881
O O14 0.420760 0.121228 0.715532
O O15 0.146882 0.830225 0.628274
O O16 0.000000 0.000000 0.000000
O O17 0.731661 0.402806 0.713729
#
# Coordination Sequence:
#
# PCOD8039032 Si02
#       8
#     2   2   2   2   2   2   2   2
#     4  10  19  33  56  89 125 153 186 236 294 348
#     4  10  19  34  57  85 113 149 195 233 288 340
#     4  10  18  32  53  84 114 150 187 233 285 338
#     4   9  17  31  51  80 118 151 182 229 292 338
#     4  11  23  42  58  78 114 164 200 235 285 350
#     4   9  16  30  52  81 112 146 188 232 275 342
#     4  10  22  36  56  92 123 148 188 243 293 341
#     4  11  24  39  58  85 121 153 195 240 290 350
#
# _framework density 23.703659999999999
#
# number of rings (size 3 to 8) (size 9 to 14) (size 15 to 20)
#    0.000    2.000    2.500    3.750    0.000    3.500 
#    0.000    0.000    0.000    0.750    0.000    9.625 
#    0.000    0.000    0.000    0.000    0.000    0.000 
#
# Total GULP energy -198228.429745 kJ/mol
# GULP energy per Si atom -12389.276859 kJ/mol
# Density = 2.364971 g / cm^3
# Si number density = 23.703660 Si / 1000 Ang^3
#
#
#
# Elastic Constant Matrix: (Units=GPa)
#
#
# Indices 1 2 3 4 5 6 
#
# 1 42.6327 9.5839 22.6342 -0.6371 -5.8905 -23.7671
# 2 9.5839 31.3335 8.8388 -4.1932 10.3515 -18.2697
# 3 22.6342 8.8388 126.5637 -15.0224 -2.6628 -14.7723
# 4 -0.6371 -4.1932 -15.0224 32.1493 -15.8203 -0.7088
# 5 -5.8905 10.3515 -2.6628 -15.8203 35.7497 0.3101
# 6 -23.7671 -18.2697 -14.7723 -0.7088 0.3101 25.1756
#
#
#
# Elastic Compliance Matrix: (Units=1/GPa)
#
#
# Indices 1 2 3 4 5 6 
#
# 1 0.062251 0.024796 -0.003115 0.007347 0.005445 0.075074
# 2 0.024796 0.076843 -0.000510 0.003485 -0.017347 0.079186
# 3 -0.003115 -0.000510 0.009523 0.005796 0.002887 0.002405
# 4 0.007347 0.003485 0.005796 0.044707 0.020297 0.013875
# 5 0.005445 -0.017347 0.002887 0.020297 0.043139 -0.005714
# 6 0.075074 0.079186 0.002405 0.013875 -0.005714 0.169932
#
#
# Mechanical properties :
#
#
# Convention : Reuss Voigt Hill
#
# Bulk Modulus (GPa) = 5.23671 31.40485 18.32078
# Shear Modulus (GPa) = 11.69032 29.24645 20.46838
#
# Velocity S-wave (km/s) = 2.22319 3.51641 2.94174
# Velocity P-wave (km/s) = 2.96718 5.45569 4.39140
#
# Compressibility (1/GPa) = 0.19095948
#
# Stress axis : x y z
#
# Youngs Moduli (GPa) = 16.06407 13.01361 105.00668
#
# Poissons Ratio (x) = -0.32269 0.32712
# Poissons Ratio (y) = -0.39833 0.05353
# Poissons Ratio (z) = 0.05004 0.00663
#
# Static dielectric constant tensor:
#      x y z
#    x 3.935880 -0.464530 -0.215890 
#    y -0.464530 4.037810 -0.525560 
#    z -0.215890 -0.525560 5.736180 
# 
# 
# High freq. dielectric constant tensor:
#      x y z
#    x 1.912090 -0.043190 -0.011180 
#    y -0.043190 1.891390 -0.017760 
#    z -0.011180 -0.017760 1.965610 
# 
# From -- ./inp_files/521722.got.cif
#   From: 2010.06.25/outbox.cif.g09.slc.cpg/sg2_261_cif.got.tgz:521722.got - 2010.06.27 13:26:56.
