data_PCOD8039979
_publ_section_title
;
Structure prediction by ZEFSAII (Michael W. Deem and Ramdas Pophale) SiO2 
 PCOD8039979
Probable space group: P -1
;
_chemical_formula_sum "Si O2"
_cell_formula_units_Z 16
_cell_length_a 29.413610
_cell_length_b 23.121969
_cell_length_c 9.506755
_cell_angle_alpha 34.315327
_cell_angle_beta 26.573813
_cell_angle_gamma 17.264521
_cell_volume 838.937999
_symmetry_space_group_name_H-M "P -1"
_symmetry_group_IT_number 2
_symmetry_cell_setting 'triclinic'
loop_
_space_group_symop_operation_xyz
x,y,z
-x,-y,-z
loop_
_atom_site_type_symbol
_atom_site_label
_atom_site_fract_x
_atom_site_fract_y
_atom_site_fract_z
Si Si1 0.587814 0.814726 0.158646
Si Si2 0.017162 0.735531 0.877778
Si Si3 0.606284 0.169208 0.126808
Si Si4 0.380203 0.541770 0.134103
Si Si5 0.778116 0.235870 0.144135
Si Si6 0.014934 0.457325 0.707367
Si Si7 0.562932 0.607237 0.119542
Si Si8 0.255991 0.428013 0.060338
O O1 0.449625 0.875245 0.527370
O O2 0.611942 0.728566 0.120520
O O3 0.796320 0.655294 0.979875
O O4 0.500000 0.000000 0.000000
O O5 0.214569 0.608107 0.516920
O O6 0.077228 0.651405 0.040225
O O7 0.927126 0.712395 0.093509
O O8 0.844939 0.967794 0.872525
O O9 0.546151 0.332391 0.018965
O O10 0.499597 0.250846 0.105674
O O11 0.500000 0.500000 0.000000
O O12 0.285585 0.704631 0.961710
O O13 0.746061 0.377414 0.018747
O O14 0.637838 0.282394 0.525907
O O15 0.000000 0.000000 0.000000
O O16 0.170478 0.406943 0.435958
O O17 0.000000 0.500000 0.500000
O O18 0.616891 0.612319 0.107487
#
# Coordination Sequence:
#
# PCOD8039979 Si02
#       8
#     2   2   2   2   2   2   2   2
#     4  10  18  35  60  87 117 157 197 235 294 349
#     4  10  19  36  59  83 116 150 192 240 292 341
#     4  11  21  37  61  84 119 155 189 242 299 348
#     4  11  22  36  59  89 114 147 201 249 282 342
#     4  10  22  41  61  79 121 161 191 237 304 354
#     4   8  16  32  54  80 112 147 183 235 282 335
#     4  10  23  40  58  88 120 154 193 245 297 346
#     4  10  19  37  59  86 120 149 199 247 281 351
#
# _framework density 19.071729999999999
#
# number of rings (size 3 to 8) (size 9 to 14) (size 15 to 20)
#    0.000    2.250    2.500    3.750    0.000    1.500 
#    2.250    3.125    0.000    0.000    0.000    0.000 
#    0.000    0.000    0.000    0.000    0.000    0.000 
#
# Total GULP energy -198220.000034 kJ/mol
# GULP energy per Si atom -12388.750002 kJ/mol
# Density = 1.902832 g / cm^3
# Si number density = 19.071730 Si / 1000 Ang^3
#
#
#
# Elastic Constant Matrix: (Units=GPa)
#
#
# Indices 1 2 3 4 5 6 
#
# 1 94.8660 51.7559 26.8844 -4.3122 2.7556 -8.5068
# 2 51.7559 146.3051 31.8013 10.0925 1.0629 -10.9620
# 3 26.8844 31.8013 66.8740 -0.8280 -0.5092 2.2762
# 4 -4.3122 10.0925 -0.8280 32.0203 -2.4388 4.3121
# 5 2.7556 1.0629 -0.5092 -2.4388 18.7841 -2.5666
# 6 -8.5068 -10.9620 2.2762 4.3121 -2.5666 16.1763
#
#
#
# Elastic Compliance Matrix: (Units=1/GPa)
#
#
# Indices 1 2 3 4 5 6 
#
# 1 0.014442 -0.004051 -0.004014 0.002418 -0.001055 0.004603
# 2 -0.004051 0.009753 -0.003274 -0.004520 0.000211 0.006178
# 3 -0.004014 -0.003274 0.018404 0.002000 0.000526 -0.007369
# 4 0.002418 -0.004520 0.002000 0.034721 0.002980 -0.010856
# 5 -0.001055 0.000211 0.000526 0.002980 0.054793 0.007413
# 6 0.004603 0.006178 -0.007369 -0.010856 0.007413 0.073533
#
#
# Mechanical properties :
#
#
# Convention : Reuss Voigt Hill
#
# Bulk Modulus (GPa) = 50.19965 58.76982 54.48474
# Shear Modulus (GPa) = 21.27980 26.56971 23.92476
#
# Velocity S-wave (km/s) = 3.34395 3.73654 3.54568
# Velocity P-wave (km/s) = 6.42557 7.03546 6.73742
#
# Compressibility (1/GPa) = 0.01992046
#
# Stress axis : x y z
#
# Youngs Moduli (GPa) = 69.24249 102.53514 54.33614
#
# Poissons Ratio (x) = 0.41532 0.21813
# Poissons Ratio (y) = 0.28047 0.17790
# Poissons Ratio (z) = 0.27797 0.33571
#
# Static dielectric constant tensor:
#      x y z
#    x 3.751880 0.073940 0.065610 
#    y 0.073940 3.625430 -0.073260 
#    z 0.065610 -0.073260 4.037400 
# 
# 
# High freq. dielectric constant tensor:
#      x y z
#    x 1.704410 0.000540 0.002100 
#    y 0.000540 1.747750 -0.004950 
#    z 0.002100 -0.004950 1.754690 
# 
# From -- ./inp_files/357730.got.cif
#   From: 2010.06.25/outbox.cif.g09.slc.cpg/sg2_179_cif.got.tgz:357730.got - 2010.06.27 13:26:56.
