data_PCOD8039573
_publ_section_title
;
Structure prediction by ZEFSAII (Michael W. Deem and Ramdas Pophale) SiO2 
 PCOD8039573
Probable space group: P -1
;
_chemical_formula_sum "Si O2"
_cell_formula_units_Z 16
_cell_length_a 15.164414
_cell_length_b 12.550255
_cell_length_c 18.133306
_cell_angle_alpha 159.443177
_cell_angle_beta 45.374049
_cell_angle_gamma 136.014730
_cell_volume 835.683757
_symmetry_space_group_name_H-M "P -1"
_symmetry_group_IT_number 2
_symmetry_cell_setting 'triclinic'
loop_
_space_group_symop_operation_xyz
x,y,z
-x,-y,-z
loop_
_atom_site_type_symbol
_atom_site_label
_atom_site_fract_x
_atom_site_fract_y
_atom_site_fract_z
Si Si1 0.608830 0.681877 0.855267
Si Si2 0.870562 0.714874 0.648789
Si Si3 0.143357 0.159141 0.995380
Si Si4 0.256937 0.612049 0.618706
Si Si5 0.300386 0.738709 0.359013
Si Si6 0.129477 0.936677 0.703106
Si Si7 0.606317 0.365502 0.312463
Si Si8 0.469793 0.326326 0.574156
O O1 0.749948 0.799798 0.812996
O O2 0.614742 0.460552 0.777890
O O3 0.499961 0.487783 0.740000
O O4 0.562615 0.989838 0.101733
O O5 0.843827 0.667018 0.545532
O O6 0.892291 0.390430 0.454423
O O7 0.001284 0.972619 0.758400
O O8 0.186488 0.505994 0.229783
O O9 0.228365 0.949602 0.846364
O O10 0.161017 0.189948 0.915457
O O11 0.000000 0.000000 0.000000
O O12 0.261984 0.520965 0.643385
O O13 0.397728 0.660839 0.534648
O O14 0.242854 0.955976 0.590163
O O15 0.391766 0.967569 0.396902
O O16 0.500000 0.500000 0.500000
O O17 0.618482 0.489785 0.301716
#
# Coordination Sequence:
#
# PCOD8039573 Si02
#       8
#     2   2   2   2   2   2   2   2
#     4  10  18  34  57  79 106 149 189 223 282 331
#     4   8  15  30  54  78 105 137 179 239 265 324
#     4  11  20  33  59  86 111 147 188 236 281 328
#     4   9  18  34  53  82 108 142 190 226 274 335
#     4  11  21  36  56  87 118 150 178 237 290 330
#     4   9  18  32  50  85 116 136 184 228 286 331
#     4  10  20  36  52  81 111 150 194 226 264 342
#     4  10  22  36  54  80 120 149 182 230 284 335
#
# _framework density 19.146000000000001
#
# number of rings (size 3 to 8) (size 9 to 14) (size 15 to 20)
#    0.000    2.250    1.250    4.500    0.000    0.500 
#    4.500    0.000    0.000    3.750    0.000    0.000 
#    0.000    0.000    0.000    0.000    0.000    0.000 
#
# Total GULP energy -198267.366575 kJ/mol
# GULP energy per Si atom -12391.710411 kJ/mol
# Density = 1.910242 g / cm^3
# Si number density = 19.146000 Si / 1000 Ang^3
#
#
#
# Elastic Constant Matrix: (Units=GPa)
#
#
# Indices 1 2 3 4 5 6 
#
# 1 148.3939 41.9185 38.3483 9.2987 13.2196 -11.1031
# 2 41.9185 47.1677 28.4745 8.0980 1.7261 -7.6451
# 3 38.3483 28.4745 79.3738 -1.8436 7.6300 -1.7680
# 4 9.2987 8.0980 -1.8436 20.5884 -7.2326 -2.1338
# 5 13.2196 1.7261 7.6300 -7.2326 26.3731 -4.7073
# 6 -11.1031 -7.6451 -1.7680 -2.1338 -4.7073 17.8565
#
#
#
# Elastic Compliance Matrix: (Units=1/GPa)
#
#
# Indices 1 2 3 4 5 6 
#
# 1 0.009847 -0.006509 -0.002027 -0.003540 -0.004628 0.001492
# 2 -0.006509 0.036443 -0.010214 -0.010281 0.002808 0.010056
# 3 -0.002027 -0.010214 0.017531 0.005144 -0.002689 -0.003992
# 4 -0.003540 -0.010281 0.005144 0.062046 0.019110 0.006359
# 5 -0.004628 0.002808 -0.002689 0.019110 0.048411 0.013104
# 6 0.001492 0.010056 -0.003992 0.006359 0.013104 0.065055
#
#
# Mechanical properties :
#
#
# Convention : Reuss Voigt Hill
#
# Bulk Modulus (GPa) = 37.98937 54.71310 46.35124
# Shear Modulus (GPa) = 17.50668 24.04321 20.77494
#
# Velocity S-wave (km/s) = 3.02715 3.54755 3.29763
# Velocity P-wave (km/s) = 5.66597 6.73936 6.22584
#
# Compressibility (1/GPa) = 0.02632315
#
# Stress axis : x y z
#
# Youngs Moduli (GPa) = 101.55528 27.43981 57.04208
#
# Poissons Ratio (x) = 0.17859 0.11560
# Poissons Ratio (y) = 0.66098 0.58262
# Poissons Ratio (z) = 0.20581 0.28027
#
# Static dielectric constant tensor:
#      x y z
#    x 4.556210 -0.382890 0.140430 
#    y -0.382890 3.188080 -0.286240 
#    z 0.140430 -0.286240 3.511820 
# 
# 
# High freq. dielectric constant tensor:
#      x y z
#    x 1.770960 -0.006940 0.011940 
#    y -0.006940 1.690630 -0.029650 
#    z 0.011940 -0.029650 1.730720 
# 
# From -- ./inp_files/208742.got.cif
#   From: 2010.06.25/outbox.cif.g09.slc.cpg/sg2_105_cif.got.tgz:208742.got - 2010.06.27 13:26:56.
