data_PCOD8039846
_publ_section_title
;
Structure prediction by ZEFSAII (Michael W. Deem and Ramdas Pophale) SiO2 
 PCOD8039846
Probable space group: P -1
;
_chemical_formula_sum "Si O2"
_cell_formula_units_Z 16
_cell_length_a 8.672379
_cell_length_b 7.638903
_cell_length_c 14.346172
_cell_angle_alpha 82.399383
_cell_angle_beta 126.434878
_cell_angle_gamma 112.061695
_cell_volume 703.364666
_symmetry_space_group_name_H-M "P -1"
_symmetry_group_IT_number 2
_symmetry_cell_setting 'triclinic'
loop_
_space_group_symop_operation_xyz
x,y,z
-x,-y,-z
loop_
_atom_site_type_symbol
_atom_site_label
_atom_site_fract_x
_atom_site_fract_y
_atom_site_fract_z
Si Si1 0.457545 0.536984 0.203196
Si Si2 0.238686 0.792233 0.190127
Si Si3 0.830896 0.086818 0.451552
Si Si4 0.887614 0.174682 0.664079
Si Si5 0.572593 0.083778 0.192885
Si Si6 0.840594 0.799236 0.986846
Si Si7 0.306798 0.159589 0.877205
Si Si8 0.171223 0.549687 0.654839
O O1 0.343196 0.639580 0.219543
O O2 0.533165 0.650270 0.125474
O O3 0.664205 0.529711 0.329617
O O4 0.292757 0.325970 0.136569
O O5 0.273110 0.853747 0.307182
O O6 0.989998 0.696771 0.091010
O O7 0.329346 0.980617 0.140162
O O8 0.765861 0.051260 0.539611
O O9 0.654124 0.991207 0.318551
O O10 0.916594 0.322428 0.452655
O O11 0.000000 0.000000 0.500000
O O12 0.070544 0.105776 0.764921
O O13 0.986004 0.395767 0.654196
O O14 0.677402 0.310414 0.221207
O O15 0.631863 0.016973 0.120475
O O16 0.677794 0.817635 0.006296
O O17 0.000000 0.000000 0.000000
#
# Coordination Sequence:
#
# PCOD8039846 Si02
#       8
#     2   2   2   2   2   2   2   2
#     4  10  20  39  55  78 113 150 184 223 273 329
#     4  10  22  37  57  80 117 145 180 227 283 319
#     4  10  19  35  63  82 110 144 190 220 271 331
#     4  10  18  35  56  86 108 145 183 229 268 323
#     4   9  19  36  56  81 112 141 183 223 277 317
#     4  11  22  36  59  82 111 144 186 230 276 329
#     4   9  19  36  58  80 108 146 186 225 273 326
#     4   9  20  34  59  80 111 143 186 228 264 320
#
# _framework density 22.747803000000001
#
# number of rings (size 3 to 8) (size 9 to 14) (size 15 to 20)
#    0.750    1.500    1.250    1.875    0.000    1.500 
#    0.000    8.750    0.000    0.000    0.000    0.000 
#    0.000    0.000    0.000    0.000    0.000    0.000 
#
# Total GULP energy -198238.547320 kJ/mol
# GULP energy per Si atom -12389.909207 kJ/mol
# Density = 2.269603 g / cm^3
# Si number density = 22.747803 Si / 1000 Ang^3
#
#
#
# Elastic Constant Matrix: (Units=GPa)
#
#
# Indices 1 2 3 4 5 6 
#
# 1 157.1482 30.9829 31.1892 -3.8784 -22.8390 -18.3575
# 2 30.9829 55.5985 -10.1497 0.5897 -5.2287 -7.2442
# 3 31.1892 -10.1497 61.8052 -0.4800 -18.6970 -0.1611
# 4 -3.8784 0.5897 -0.4800 24.7612 -2.5185 1.0406
# 5 -22.8390 -5.2287 -18.6970 -2.5185 38.0322 0.0981
# 6 -18.3575 -7.2442 -0.1611 1.0406 0.0981 26.7392
#
#
#
# Elastic Compliance Matrix: (Units=1/GPa)
#
#
# Indices 1 2 3 4 5 6 
#
# 1 0.009320 -0.005186 -0.004728 0.001555 0.002649 0.004894
# 2 -0.005186 0.022953 0.007491 -0.000957 0.003654 0.002727
# 3 -0.004728 0.007491 0.022626 0.000518 0.009351 -0.001135
# 4 0.001555 -0.000957 0.000518 0.041080 0.003780 -0.000801
# 5 0.002649 0.003654 0.009351 0.003780 0.033227 0.002596
# 6 0.004894 0.002727 -0.001135 -0.000801 0.002596 0.041512
#
#
# Mechanical properties :
#
#
# Convention : Reuss Voigt Hill
#
# Bulk Modulus (GPa) = 19.97912 42.06629 31.02271
# Shear Modulus (GPa) = 26.00800 32.74182 29.37491
#
# Velocity S-wave (km/s) = 3.38497 3.79798 3.59741
# Velocity P-wave (km/s) = 4.90707 6.14536 5.56079
#
# Compressibility (1/GPa) = 0.05005225
#
# Stress axis : x y z
#
# Youngs Moduli (GPa) = 107.30135 43.56762 44.19673
#
# Poissons Ratio (x) = 0.22595 0.20898
# Poissons Ratio (y) = 0.55649 -0.33110
# Poissons Ratio (z) = 0.50736 -0.32639
#
# Static dielectric constant tensor:
#      x y z
#    x 4.265000 -0.169630 0.291880 
#    y -0.169630 3.963410 0.017250 
#    z 0.291880 0.017250 4.492380 
# 
# 
# High freq. dielectric constant tensor:
#      x y z
#    x 1.897700 -0.020500 0.016370 
#    y -0.020500 1.886060 -0.002320 
#    z 0.016370 -0.002320 1.905390 
# 
# From -- ./inp_files/493038.got.cif
#   From: 2010.06.25/outbox.cif.g09.slc.cpg/sg2_247_cif.got.tgz:493038.got - 2010.06.27 13:26:56.
