data_PCOD8039428
_publ_section_title
;
Structure prediction by ZEFSAII (Michael W. Deem and Ramdas Pophale) SiO2 
 PCOD8039428
Probable space group: P -1
;
_chemical_formula_sum "Si O2"
_cell_formula_units_Z 14
_cell_length_a 18.288952
_cell_length_b 11.934219
_cell_length_c 12.919711
_cell_angle_alpha 59.917239
_cell_angle_beta 40.670283
_cell_angle_gamma 28.037578
_cell_volume 721.958292
_symmetry_space_group_name_H-M "P -1"
_symmetry_group_IT_number 2
_symmetry_cell_setting 'triclinic'
loop_
_space_group_symop_operation_xyz
x,y,z
-x,-y,-z
loop_
_atom_site_type_symbol
_atom_site_label
_atom_site_fract_x
_atom_site_fract_y
_atom_site_fract_z
Si Si1 0.535368 0.312111 0.546942
Si Si2 0.362420 0.186116 0.166105
Si Si3 0.773453 0.627130 0.475320
Si Si4 0.166843 0.225581 0.060705
Si Si5 0.931575 0.738850 0.469334
Si Si6 0.921493 0.388713 0.056653
Si Si7 0.343956 0.971197 0.644799
O O1 0.500000 0.500000 0.500000
O O2 0.297424 0.489346 0.771160
O O3 0.788698 0.020415 0.473901
O O4 0.563419 0.236129 0.434255
O O5 0.292016 0.132870 0.334426
O O6 0.096598 0.534925 0.282364
O O7 0.500000 0.000000 0.000000
O O8 0.548135 0.093401 0.067989
O O9 0.682824 0.869473 0.467430
O O10 0.996665 0.385340 0.268424
O O11 0.874871 0.463846 0.549442
O O12 0.540848 0.783770 0.613231
O O13 0.082507 0.209701 0.071969
O O14 0.176565 0.364039 0.947899
O O15 0.086725 0.193196 0.869154
#
# Coordination Sequence:
#
# PCOD8039428 Si02
#       7
#     2   2   2   2   2   2   2
#     4  12  26  42  57  82 124 169 208 237 277 355
#     4  11  20  32  56  90 124 145 179 248 315 361
#     4  10  19  36  64  95 121 144 188 257 311 357
#     4  10  18  33  60  93 118 144 184 248 310 357
#     4  11  23  35  56  87 123 157 193 242 305 345
#     4  10  21  36  60  85 119 154 195 242 294 350
#     4  10  21  38  63  91 117 154 197 241 307 358
#
# _framework density 19.391701999999999
#
# number of rings (size 3 to 8) (size 9 to 14) (size 15 to 20)
#    0.000    1.429    4.286    2.571    4.000    0.571 
#    0.000    0.714    0.000    1.714    0.000    0.000 
#    0.000    0.000    0.000    0.000    0.000    0.000 
#
# Total GULP energy -173470.802633 kJ/mol
# GULP energy per Si atom -12390.771617 kJ/mol
# Density = 1.934757 g / cm^3
# Si number density = 19.391702 Si / 1000 Ang^3
#
#
#
# Elastic Constant Matrix: (Units=GPa)
#
#
# Indices 1 2 3 4 5 6 
#
# 1 92.0325 56.7528 43.6225 4.8568 4.2332 -4.3315
# 2 56.7528 117.6364 46.0855 8.8161 -4.9534 1.1469
# 3 43.6225 46.0855 128.7301 22.1407 4.1663 5.8660
# 4 4.8568 8.8161 22.1407 19.6403 -1.7345 -1.1556
# 5 4.2332 -4.9534 4.1663 -1.7345 28.6408 4.1854
# 6 -4.3315 1.1469 5.8660 -1.1556 4.1854 34.6661
#
#
#
# Elastic Compliance Matrix: (Units=1/GPa)
#
#
# Indices 1 2 3 4 5 6 
#
# 1 0.017362 -0.007285 -0.003882 0.003248 -0.003592 0.003609
# 2 -0.007285 0.013090 -0.001999 -0.001578 0.003757 -0.001511
# 3 -0.003882 -0.001999 0.012052 -0.012050 -0.001870 -0.002634
# 4 0.003248 -0.001578 -0.012050 0.065031 0.004333 0.004142
# 5 -0.003592 0.003757 -0.001870 0.004333 0.037305 -0.004616
# 6 0.003609 -0.001511 -0.002634 0.004142 -0.004616 0.030489
#
#
# Mechanical properties :
#
#
# Convention : Reuss Voigt Hill
#
# Bulk Modulus (GPa) = 61.83609 70.14676 65.99142
# Shear Modulus (GPa) = 24.14861 29.38532 26.76696
#
# Velocity S-wave (km/s) = 3.53272 3.89698 3.71931
# Velocity P-wave (km/s) = 6.97117 7.51670 7.24907
#
# Compressibility (1/GPa) = 0.01617179
#
# Stress axis : x y z
#
# Youngs Moduli (GPa) = 57.59709 76.39638 82.97172
#
# Poissons Ratio (x) = 0.55656 0.32212
# Poissons Ratio (y) = 0.41960 0.16583
# Poissons Ratio (z) = 0.22361 0.15269
#
# Static dielectric constant tensor:
#      x y z
#    x 3.570470 -0.436730 0.049890 
#    y -0.436730 3.386760 0.360380 
#    z 0.049890 0.360380 3.706310 
# 
# 
# High freq. dielectric constant tensor:
#      x y z
#    x 1.744480 -0.042210 0.013890 
#    y -0.042210 1.711970 0.038060 
#    z 0.013890 0.038060 1.772560 
# 
# From -- ./inp_files/422721.got.cif
#   From: 2010.06.25/outbox.cif.g09.slc.cpg/sg2_212_cif.got.tgz:422721.got - 2010.06.27 13:26:56.
