data_PCOD8039250
_publ_section_title
;
Structure prediction by ZEFSAII (Michael W. Deem and Ramdas Pophale) SiO2 
 PCOD8039250
Probable space group: P -1
;
_chemical_formula_sum "Si O2"
_cell_formula_units_Z 16
_cell_length_a 12.842007
_cell_length_b 8.631379
_cell_length_c 13.374883
_cell_angle_alpha 40.179860
_cell_angle_beta 63.225429
_cell_angle_gamma 46.799404
_cell_volume 688.917961
_symmetry_space_group_name_H-M "P -1"
_symmetry_group_IT_number 2
_symmetry_cell_setting 'triclinic'
loop_
_space_group_symop_operation_xyz
x,y,z
-x,-y,-z
loop_
_atom_site_type_symbol
_atom_site_label
_atom_site_fract_x
_atom_site_fract_y
_atom_site_fract_z
Si Si1 0.812612 0.875347 0.019209
Si Si2 0.168715 0.219973 0.708790
Si Si3 0.922432 0.162777 0.055803
Si Si4 0.708770 0.489686 0.261001
Si Si5 0.416920 0.240010 0.600714
Si Si6 0.717589 0.812785 0.776858
Si Si7 0.929288 0.871843 0.531885
Si Si8 0.408306 0.708267 0.237274
O O1 0.807217 0.885500 0.135222
O O2 0.792539 0.622152 0.119169
O O3 0.963797 0.806167 0.947914
O O4 0.679799 0.197249 0.875026
O O5 0.323466 0.133762 0.646896
O O6 0.051259 0.573646 0.567352
O O7 0.117112 0.035310 0.768455
O O8 0.771376 0.482730 0.945658
O O9 0.000000 0.000000 0.000000
O O10 0.660854 0.564788 0.361674
O O11 0.567527 0.620618 0.189687
O O12 0.814147 0.132856 0.377909
O O13 0.423406 0.434302 0.418201
O O14 0.579047 0.957095 0.693326
O O15 0.852224 0.776599 0.683977
O O16 0.680865 0.003136 0.797407
O O17 0.000000 0.000000 0.500000
#
# Coordination Sequence:
#
# PCOD8039250 Si02
#       8
#     2   2   2   2   2   2   2   2
#     4  10  20  33  53  81 111 142 175 218 277 319
#     4  10  21  37  59  77 104 147 190 217 253 320
#     4  10  20  37  54  76 105 147 188 220 252 321
#     4  10  18  33  54  81 111 142 179 215 266 328
#     4  10  19  34  55  81 108 141 178 223 266 316
#     4  11  19  33  55  82 107 140 179 222 268 314
#     4  12  16  31  59  81 103 133 188 219 254 311
#     4  11  20  32  53  85 118 134 165 233 285 312
#
# _framework density 23.224824999999999
#
# number of rings (size 3 to 8) (size 9 to 14) (size 15 to 20)
#    0.000    1.500    7.500    1.125    0.000    1.000 
#    0.000    0.625    0.000    6.750    0.000    0.000 
#    0.000    0.000    0.000    0.000    0.000    0.000 
#
# Total GULP energy -198331.580530 kJ/mol
# GULP energy per Si atom -12395.723783 kJ/mol
# Density = 2.317196 g / cm^3
# Si number density = 23.224825 Si / 1000 Ang^3
#
#
#
# Elastic Constant Matrix: (Units=GPa)
#
#
# Indices 1 2 3 4 5 6 
#
# 1 139.1761 30.9421 73.3131 -15.4552 -25.9513 -38.2619
# 2 30.9421 30.1197 13.5896 -14.9117 -2.9603 -19.0665
# 3 73.3131 13.5896 106.4092 -36.7889 -5.7888 -8.7091
# 4 -15.4552 -14.9117 -36.7889 32.3641 -3.6572 5.0242
# 5 -25.9513 -2.9603 -5.7888 -3.6572 53.5420 -1.2292
# 6 -38.2619 -19.0665 -8.7091 5.0242 -1.2292 21.0917
#
#
#
# Elastic Compliance Matrix: (Units=1/GPa)
#
#
# Indices 1 2 3 4 5 6 
#
# 1 0.053657 0.023950 -0.036160 -0.018728 0.024667 0.109955
# 2 0.023950 0.132936 -0.002756 0.048784 0.025490 0.152345
# 3 -0.036160 -0.002756 0.041899 0.037098 -0.012000 -0.060325
# 4 -0.018728 0.048784 0.037098 0.086219 0.003638 0.005118
# 5 0.024667 0.025490 -0.012000 0.003638 0.032459 0.063859
# 6 0.109955 0.152345 -0.060325 0.005118 0.063859 0.362189
#
#
# Mechanical properties :
#
#
# Convention : Reuss Voigt Hill
#
# Bulk Modulus (GPa) = 5.03631 56.82160 30.92896
# Shear Modulus (GPa) = 6.20748 31.92357 19.06553
#
# Velocity S-wave (km/s) = 1.63664 3.71151 2.86826
# Velocity P-wave (km/s) = 2.39680 6.54874 4.93106
#
# Compressibility (1/GPa) = 0.19855802
#
# Stress axis : x y z
#
# Youngs Moduli (GPa) = 18.63699 7.52240 23.86686
#
# Poissons Ratio (x) = -0.18016 0.86303
# Poissons Ratio (y) = -0.44635 0.06578
# Poissons Ratio (z) = 0.67392 0.02073
#
# Static dielectric constant tensor:
#      x y z
#    x 5.284460 -0.387940 -0.433470 
#    y -0.387940 3.760880 -0.267420 
#    z -0.433470 -0.267420 4.407190 
# 
# 
# High freq. dielectric constant tensor:
#      x y z
#    x 1.929070 -0.034200 -0.011090 
#    y -0.034200 1.872870 -0.017330 
#    z -0.011090 -0.017330 1.926570 
# 
# From -- ./inp_files/514901.got.cif
#   From: 2010.06.25/outbox.cif.g09.slc.cpg/sg2_258_cif.got.tgz:514901.got - 2010.06.27 13:26:56.
