data_PCOD8039557
_publ_section_title
;
Structure prediction by ZEFSAII (Michael W. Deem and Ramdas Pophale) SiO2 
 PCOD8039557
Probable space group: P -1
;
_chemical_formula_sum "Si O2"
_cell_formula_units_Z 16
_cell_length_a 12.985032
_cell_length_b 11.062330
_cell_length_c 9.701157
_cell_angle_alpha 78.544601
_cell_angle_beta 146.570189
_cell_angle_gamma 96.427423
_cell_volume 748.673035
_symmetry_space_group_name_H-M "P -1"
_symmetry_group_IT_number 2
_symmetry_cell_setting 'triclinic'
loop_
_space_group_symop_operation_xyz
x,y,z
-x,-y,-z
loop_
_atom_site_type_symbol
_atom_site_label
_atom_site_fract_x
_atom_site_fract_y
_atom_site_fract_z
Si Si1 0.788753 0.547015 0.292107
Si Si2 0.674726 0.009957 0.289962
Si Si3 0.473601 0.209665 0.400028
Si Si4 0.114635 0.248324 0.458321
Si Si5 0.378897 0.337249 0.536509
Si Si6 0.730747 0.177696 0.095918
Si Si7 0.559518 0.431043 0.291057
Si Si8 0.389905 0.997721 0.199281
O O1 0.785448 0.686124 0.318348
O O2 0.711594 0.453909 0.339241
O O3 0.000000 0.500000 0.500000
O O4 0.653830 0.549285 0.008957
O O5 0.747440 0.139874 0.286382
O O6 0.831293 0.897950 0.458282
O O7 0.599764 0.008374 0.364051
O O8 0.500000 0.000000 0.000000
O O9 0.370949 0.305724 0.373305
O O10 0.596523 0.290541 0.420280
O O11 0.605079 0.103579 0.649768
O O12 0.328691 0.134919 0.163485
O O13 0.172949 0.316235 0.368954
O O14 0.888894 0.267926 0.217021
O O15 0.424833 0.476963 0.582515
O O16 0.527132 0.244171 0.810707
O O17 0.756103 0.047565 0.065312
#
# Coordination Sequence:
#
# PCOD8039557 Si02
#       8
#     2   2   2   2   2   2   2   2
#     4  10  23  40  57  91 116 141 187 245 286 336
#     4  10  18  34  56  85 116 150 185 234 283 337
#     4  10  19  37  60  82 112 157 189 233 278 335
#     4  11  20  35  59  83 117 150 185 231 290 342
#     4  10  20  39  57  84 113 151 191 239 274 336
#     4  10  20  34  59  85 116 148 189 228 291 335
#     4  10  22  37  65  82 112 151 192 227 295 340
#     4   9  20  35  59  82 119 149 189 234 282 326
#
# _framework density 21.371144999999999
#
# number of rings (size 3 to 8) (size 9 to 14) (size 15 to 20)
#    0.000    2.000    3.750    1.500    3.500    2.000 
#    0.000    3.125    0.000    9.000    0.000    0.000 
#    0.000    0.000    0.000    0.000    0.000    0.000 
#
# Total GULP energy -198208.954740 kJ/mol
# GULP energy per Si atom -12388.059671 kJ/mol
# Density = 2.132250 g / cm^3
# Si number density = 21.371145 Si / 1000 Ang^3
#
#
#
# Elastic Constant Matrix: (Units=GPa)
#
#
# Indices 1 2 3 4 5 6 
#
# 1 105.0575 51.3517 41.2502 7.2816 2.9353 19.7922
# 2 51.3517 120.7787 25.0909 14.9334 -11.2379 18.3646
# 3 41.2502 25.0909 43.4245 11.1641 4.8690 13.1785
# 4 7.2816 14.9334 11.1641 33.1246 3.1289 -3.0966
# 5 2.9353 -11.2379 4.8690 3.1289 31.4163 3.9883
# 6 19.7922 18.3646 13.1785 -3.0966 3.9883 37.5494
#
#
#
# Elastic Compliance Matrix: (Units=1/GPa)
#
#
# Indices 1 2 3 4 5 6 
#
# 1 0.017466 -0.004768 -0.013983 0.002995 -0.001267 -0.001585
# 2 -0.004768 0.012304 -0.000566 -0.005286 0.006017 -0.004381
# 3 -0.013983 -0.000566 0.042286 -0.011334 -0.003334 -0.007774
# 4 0.002995 -0.005286 -0.011334 0.037027 -0.005192 0.008590
# 5 -0.001267 0.006017 -0.003334 -0.005192 0.035813 -0.005337
# 6 -0.001585 -0.004381 -0.007774 0.008590 -0.005337 0.033613
#
#
# Mechanical properties :
#
#
# Convention : Reuss Voigt Hill
#
# Bulk Modulus (GPa) = 29.92151 56.07181 42.99666
# Shear Modulus (GPa) = 21.90247 30.52258 26.21253
#
# Velocity S-wave (km/s) = 3.20482 3.78327 3.50600
# Velocity P-wave (km/s) = 5.26553 6.73634 6.04583
#
# Compressibility (1/GPa) = 0.03342077
#
# Stress axis : x y z
#
# Youngs Moduli (GPa) = 57.25305 81.27373 23.64871
#
# Poissons Ratio (x) = 0.38755 0.33069
# Poissons Ratio (y) = 0.27301 0.01338
# Poissons Ratio (z) = 0.80058 0.04600
#
# Static dielectric constant tensor:
#      x y z
#    x 4.548240 0.273870 -0.378350 
#    y 0.273870 4.308770 0.203300 
#    z -0.378350 0.203300 3.503790 
# 
# 
# High freq. dielectric constant tensor:
#      x y z
#    x 1.841410 0.012040 -0.019280 
#    y 0.012040 1.852540 0.019600 
#    z -0.019280 0.019600 1.785210 
# 
# From -- ./inp_files/258339.got.cif
#   From: 2010.06.25/outbox.cif.g09.slc.cpg/sg2_130_cif.got.tgz:258339.got - 2010.06.27 13:26:56.
