data_PCOD8039050
_publ_section_title
;
Structure prediction by ZEFSAII (Michael W. Deem and Ramdas Pophale) SiO2 
 PCOD8039050
Probable space group: P -1
;
_chemical_formula_sum "Si O2"
_cell_formula_units_Z 16
_cell_length_a 13.886734
_cell_length_b 9.351015
_cell_length_c 18.339521
_cell_angle_alpha 127.977910
_cell_angle_beta 41.635913
_cell_angle_gamma 94.063696
_cell_volume 834.933864
_symmetry_space_group_name_H-M "P -1"
_symmetry_group_IT_number 2
_symmetry_cell_setting 'triclinic'
loop_
_space_group_symop_operation_xyz
x,y,z
-x,-y,-z
loop_
_atom_site_type_symbol
_atom_site_label
_atom_site_fract_x
_atom_site_fract_y
_atom_site_fract_z
Si Si1 0.232511 0.594460 0.982418
Si Si2 0.535417 0.003996 0.586765
Si Si3 0.463976 0.738034 0.933436
Si Si4 0.836146 0.792685 0.219107
Si Si5 0.579893 0.928373 0.817550
Si Si6 0.744423 0.252226 0.721751
Si Si7 0.237833 0.465516 0.098148
Si Si8 0.229716 0.165553 0.456677
O O1 0.211427 0.492815 0.035574
O O2 0.991622 0.823368 0.153473
O O3 0.415508 0.313559 0.745155
O O4 0.288539 0.751630 0.013450
O O5 0.366302 0.000782 0.657950
O O6 0.739108 0.815944 0.358287
O O7 0.624779 0.875527 0.576384
O O8 0.676106 0.441973 0.752020
O O9 0.537164 0.777383 0.832632
O O10 0.362718 0.970476 0.123331
O O11 0.000000 0.500000 0.000000
O O12 0.773700 0.722019 0.583317
O O13 0.375730 0.169788 0.957940
O O14 0.669126 0.422314 0.892882
O O15 0.645864 0.142142 0.731339
O O16 0.000000 0.000000 0.500000
O O17 0.007202 0.652352 0.325134
#
# Coordination Sequence:
#
# PCOD8039050 Si02
#       8
#     2   2   2   2   2   2   2   2
#     4  11  18  32  56  81 106 136 181 224 267 313
#     4  10  18  32  54  83 108 132 172 224 281 318
#     4  10  20  35  53  75 114 154 179 220 261 309
#     4   9  20  33  51  85 110 129 164 230 283 326
#     4  10  21  36  49  75 117 152 183 213 256 313
#     4   9  18  31  50  79 106 136 182 224 258 308
#     4  10  19  31  51  80 106 140 181 219 264 312
#     4  11  18  32  55  78 104 143 181 222 267 316
#
# _framework density 19.163194000000001
#
# number of rings (size 3 to 8) (size 9 to 14) (size 15 to 20)
#    0.000    2.000    3.750    0.750    0.000    2.000 
#    0.000   13.750    0.000    0.750    0.000    5.250 
#    0.000    0.000    0.000    0.000    0.000    0.000 
#
# Total GULP energy -198244.391415 kJ/mol
# GULP energy per Si atom -12390.274463 kJ/mol
# Density = 1.911958 g / cm^3
# Si number density = 19.163194 Si / 1000 Ang^3
#
#
#
# Elastic Constant Matrix: (Units=GPa)
#
#
# Indices 1 2 3 4 5 6 
#
# 1 130.0488 42.4408 32.9817 -14.1984 -13.6536 3.0381
# 2 42.4408 87.1906 21.0113 -14.7879 0.6386 -1.9326
# 3 32.9817 21.0113 82.1603 -17.9610 7.3542 1.5869
# 4 -14.1984 -14.7879 -17.9610 22.8832 -6.9891 2.5890
# 5 -13.6536 0.6386 7.3542 -6.9891 30.0894 -9.3823
# 6 3.0381 -1.9326 1.5869 2.5890 -9.3823 18.6976
#
#
#
# Elastic Compliance Matrix: (Units=1/GPa)
#
#
# Indices 1 2 3 4 5 6 
#
# 1 0.010904 -0.003929 -0.003207 0.003730 0.007026 0.001103
# 2 -0.003929 0.014669 -0.000838 0.006225 -0.000022 0.001353
# 3 -0.003207 -0.000838 0.016208 0.009282 -0.004668 -0.004568
# 4 0.003730 0.006225 0.009282 0.061523 0.012675 -0.002909
# 5 0.007026 -0.000022 -0.004668 0.012675 0.047096 0.021130
# 6 0.001103 0.001353 -0.004568 -0.002909 0.021130 0.064837
#
#
# Mechanical properties :
#
#
# Convention : Reuss Voigt Hill
#
# Bulk Modulus (GPa) = 38.70879 54.69635 46.70257
# Shear Modulus (GPa) = 20.85095 27.86509 24.35802
#
# Velocity S-wave (km/s) = 3.30217 3.81740 3.56909
# Velocity P-wave (km/s) = 5.89767 6.93068 6.43494
#
# Compressibility (1/GPa) = 0.02583393
#
# Stress axis : x y z
#
# Youngs Moduli (GPa) = 91.70822 68.16901 61.69747
#
# Poissons Ratio (x) = 0.26785 0.19787
# Poissons Ratio (y) = 0.36034 0.05168
# Poissons Ratio (z) = 0.29412 0.05710
#
# Static dielectric constant tensor:
#      x y z
#    x 4.159440 -0.006170 -0.044430 
#    y -0.006170 3.170580 -0.145790 
#    z -0.044430 -0.145790 3.768990 
# 
# 
# High freq. dielectric constant tensor:
#      x y z
#    x 1.760410 -0.010320 -0.004100 
#    y -0.010320 1.685860 -0.018050 
#    z -0.004100 -0.018050 1.764720 
# 
# From -- ./inp_files/276897.got.cif
#   From: 2010.06.25/outbox.cif.g09.slc.cpg/sg2_139_cif.got.tgz:276897.got - 2010.06.27 13:26:56.
