data_PCOD8039622
_publ_section_title
;
Structure prediction by ZEFSAII (Michael W. Deem and Ramdas Pophale) SiO2 
 PCOD8039622
Probable space group: P -1
;
_chemical_formula_sum "Si O2"
_cell_formula_units_Z 16
_cell_length_a 9.482956
_cell_length_b 18.766644
_cell_length_c 8.226583
_cell_angle_alpha 46.155398
_cell_angle_beta 86.922713
_cell_angle_gamma 63.465500
_cell_volume 867.281100
_symmetry_space_group_name_H-M "P -1"
_symmetry_group_IT_number 2
_symmetry_cell_setting 'triclinic'
loop_
_space_group_symop_operation_xyz
x,y,z
-x,-y,-z
loop_
_atom_site_type_symbol
_atom_site_label
_atom_site_fract_x
_atom_site_fract_y
_atom_site_fract_z
Si Si1 0.543018 0.001805 0.177435
Si Si2 0.436204 0.777858 0.128817
Si Si3 0.043302 0.960495 0.877187
Si Si4 0.598781 0.251430 0.168382
Si Si5 0.104340 0.146466 0.460880
Si Si6 0.522817 0.633881 0.677709
Si Si7 0.247997 0.632583 0.868252
Si Si8 0.241573 0.014354 0.348274
O O1 0.420787 0.982920 0.321720
O O2 0.740820 0.892137 0.364757
O O3 0.516077 0.126450 0.026512
O O4 0.500000 0.000000 0.000000
O O5 0.520490 0.695207 0.413326
O O6 0.504675 0.705166 0.066767
O O7 0.232431 0.839556 0.046449
O O8 0.022329 0.070945 0.607789
O O9 0.903339 0.938254 0.855724
O O10 0.000000 0.000000 0.000000
O O11 0.479388 0.294997 0.271547
O O12 0.713329 0.305757 0.084268
O O13 0.722026 0.106630 0.381210
O O14 0.176475 0.120283 0.314958
O O15 0.955998 0.286569 0.280261
O O16 0.357391 0.625622 0.713523
O O17 0.696616 0.500137 0.877794
#
# Coordination Sequence:
#
# PCOD8039622 Si02
#       8
#     2   2   2   2   2   2   2   2
#     4  11  24  36  53  86 118 151 184 233 291 348
#     4  11  21  35  58  85 113 149 191 232 282 338
#     4  11  19  31  54  85 114 143 179 232 288 334
#     4  10  18  34  58  82 112 148 183 228 282 336
#     4  11  20  34  57  84 111 148 185 229 292 337
#     4   9  20  37  56  86 116 146 189 241 280 325
#     4   9  19  37  57  86 115 143 191 237 281 335
#     4  12  20  35  55  84 121 144 185 231 284 353
#
# _framework density 18.448457999999999
#
# number of rings (size 3 to 8) (size 9 to 14) (size 15 to 20)
#    0.750    0.750    3.750    5.250    0.000    0.500 
#    0.000    0.000    0.000    3.750    0.000    0.000 
#    0.000    0.000    0.000    0.000    0.000    0.000 
#
# Total GULP energy -198300.079174 kJ/mol
# GULP energy per Si atom -12393.754948 kJ/mol
# Density = 1.840647 g / cm^3
# Si number density = 18.448458 Si / 1000 Ang^3
#
#
#
# Elastic Constant Matrix: (Units=GPa)
#
#
# Indices 1 2 3 4 5 6 
#
# 1 85.4961 28.3128 29.5746 -1.0401 18.2084 1.8422
# 2 28.3128 94.5181 57.7367 10.3612 20.5487 3.3792
# 3 29.5746 57.7367 93.9058 -0.3929 19.2633 -2.2524
# 4 -1.0401 10.3612 -0.3929 40.9394 0.4676 10.3236
# 5 18.2084 20.5487 19.2633 0.4676 23.0600 3.6574
# 6 1.8422 3.3792 -2.2524 10.3236 3.6574 26.6580
#
#
#
# Elastic Compliance Matrix: (Units=1/GPa)
#
#
# Indices 1 2 3 4 5 6 
#
# 1 0.014714 -0.001379 -0.001998 0.000839 -0.008715 -0.000140
# 2 -0.001379 0.019202 -0.009822 -0.004841 -0.007681 -0.000240
# 3 -0.001998 -0.009822 0.018564 0.001925 -0.005690 0.002987
# 4 0.000839 -0.004841 0.001925 0.028352 0.003165 -0.010696
# 5 -0.008715 -0.007681 -0.005690 0.003165 0.063175 -0.008798
# 6 -0.000140 -0.000240 0.002987 -0.010696 -0.008798 0.043154
#
#
# Mechanical properties :
#
#
# Convention : Reuss Voigt Hill
#
# Bulk Modulus (GPa) = 38.34219 56.12980 47.23600
# Shear Modulus (GPa) = 22.49680 28.68453 25.59067
#
# Velocity S-wave (km/s) = 3.49584 3.94743 3.72848
# Velocity P-wave (km/s) = 6.09287 7.16014 6.64795
#
# Compressibility (1/GPa) = 0.02608093
#
# Stress axis : x y z
#
# Youngs Moduli (GPa) = 67.96459 52.07752 53.86685
#
# Poissons Ratio (x) = 0.07183 0.10763
# Poissons Ratio (y) = 0.09374 0.52909
# Poissons Ratio (z) = 0.13580 0.51152
#
# Static dielectric constant tensor:
#      x y z
#    x 2.998790 0.315140 0.139150 
#    y 0.315140 3.138690 0.075950 
#    z 0.139150 0.075950 3.259400 
# 
# 
# High freq. dielectric constant tensor:
#      x y z
#    x 1.690950 0.002680 0.007070 
#    y 0.002680 1.714250 0.015230 
#    z 0.007070 0.015230 1.699780 
# 
# From -- ./inp_files/223019.got.cif
#   From: 2010.06.25/outbox.cif.g09.slc.cpg/sg2_112_cif.got.tgz:223019.got - 2010.06.27 13:26:56.
