data_PCOD8039558
_publ_section_title
;
Structure prediction by ZEFSAII (Michael W. Deem and Ramdas Pophale) SiO2 
 PCOD8039558
Probable space group: P -1
;
_chemical_formula_sum "Si O2"
_cell_formula_units_Z 14
_cell_length_a 18.809100
_cell_length_b 12.187509
_cell_length_c 11.789786
_cell_angle_alpha 46.749320
_cell_angle_beta 145.392286
_cell_angle_gamma 156.125503
_cell_volume 593.918757
_symmetry_space_group_name_H-M "P -1"
_symmetry_group_IT_number 2
_symmetry_cell_setting 'triclinic'
loop_
_space_group_symop_operation_xyz
x,y,z
-x,-y,-z
loop_
_atom_site_type_symbol
_atom_site_label
_atom_site_fract_x
_atom_site_fract_y
_atom_site_fract_z
Si Si1 0.964618 0.742163 0.633044
Si Si2 0.059951 0.713793 0.547384
Si Si3 0.732433 0.510961 0.073419
Si Si4 0.502027 0.020084 0.822622
Si Si5 0.037011 0.393467 0.874452
Si Si6 0.375066 0.354255 0.818143
Si Si7 0.308603 0.829787 0.275992
O O1 0.725812 0.594127 0.402508
O O2 0.881373 0.500380 0.750035
O O3 0.102731 0.858414 0.613137
O O4 0.151257 0.010985 0.772893
O O5 0.964689 0.453054 0.648133
O O6 0.862629 0.598783 0.298063
O O7 0.291366 0.927795 0.621118
O O8 0.915386 0.709771 0.065504
O O9 0.565977 0.198351 0.040108
O O10 0.577821 0.502289 0.893281
O O11 0.555576 0.007281 0.777386
O O12 0.730665 0.329980 0.948909
O O13 0.834743 0.169508 0.863930
O O14 0.500000 0.500000 0.000000
O O15 0.500000 0.000000 0.500000
#
# Coordination Sequence:
#
# PCOD8039558 Si02
#       7
#     2   2   2   2   2   2   2
#     4  10  22  41  60  90 119 152 202 243 289 345
#     4  10  18  34  56  85 117 148 192 245 288 347
#     4  11  19  34  59  87 114 149 200 241 291 342
#     4  11  20  33  57  87 118 151 184 242 305 356
#     4  10  20  33  52  86 117 151 191 239 294 348
#     4  11  22  38  64  87 114 158 204 251 276 336
#     4  11  22  38  58  87 123 155 184 240 307 362
#
# _framework density 23.572247999999998
#
# number of rings (size 3 to 8) (size 9 to 14) (size 15 to 20)
#    0.000    1.429    1.429    9.000    0.000    0.000 
#    0.000    0.000    0.000   12.857    0.000    0.000 
#    0.000    0.000    0.000    0.000    0.000    0.000 
#
# Total GULP energy -173454.237445 kJ/mol
# GULP energy per Si atom -12389.588389 kJ/mol
# Density = 2.351860 g / cm^3
# Si number density = 23.572248 Si / 1000 Ang^3
#
#
#
# Elastic Constant Matrix: (Units=GPa)
#
#
# Indices 1 2 3 4 5 6 
#
# 1 191.2786 15.7550 55.3499 2.0104 38.2888 15.2007
# 2 15.7550 22.4398 -1.1292 11.4613 4.3785 2.7287
# 3 55.3499 -1.1292 96.2540 15.0341 21.1527 4.3415
# 4 2.0104 11.4613 15.0341 27.1744 -7.7393 -0.7946
# 5 38.2888 4.3785 21.1527 -7.7393 49.3717 7.1817
# 6 15.2007 2.7287 4.3415 -0.7946 7.1817 33.3660
#
#
#
# Elastic Compliance Matrix: (Units=1/GPa)
#
#
# Indices 1 2 3 4 5 6 
#
# 1 0.007721 -0.007077 -0.004544 0.004162 -0.002512 -0.001707
# 2 -0.007077 0.075831 0.015057 -0.043903 -0.014142 -0.002938
# 3 -0.004544 0.015057 0.017864 -0.018268 -0.008310 -0.000132
# 4 0.004162 -0.043903 -0.018268 0.070669 0.019339 0.001592
# 5 -0.002512 -0.014142 -0.008310 0.019339 0.030443 -0.002710
# 6 -0.001707 -0.002938 -0.000132 0.001592 -0.002710 0.031627
#
#
# Mechanical properties :
#
#
# Convention : Reuss Voigt Hill
#
# Bulk Modulus (GPa) = 9.23468 49.99156 29.61312
# Shear Modulus (GPa) = 18.98416 37.98221 28.48318
#
# Velocity S-wave (km/s) = 2.84097 4.01847 3.47988
# Velocity P-wave (km/s) = 3.83244 6.54100 5.36061
#
# Compressibility (1/GPa) = 0.10828743
#
# Stress axis : x y z
#
# Youngs Moduli (GPa) = 129.52525 13.18730 55.97876
#
# Poissons Ratio (x) = 0.09333 0.25434
# Poissons Ratio (y) = 0.91666 -0.84287
# Poissons Ratio (z) = 0.58851 -0.19856
#
# Static dielectric constant tensor:
#      x y z
#    x 6.008290 0.632740 0.286270 
#    y 0.632740 4.197260 0.302830 
#    z 0.286270 0.302830 4.345360 
# 
# 
# High freq. dielectric constant tensor:
#      x y z
#    x 1.968120 0.001470 0.009510 
#    y 0.001470 1.860970 0.038750 
#    z 0.009510 0.038750 1.944380 
# 
# From -- ./inp_files/252725.got.cif
#   From: 2010.06.25/outbox.cif.g09.slc.cpg/sg2_127_cif.got.tgz:252725.got - 2010.06.27 13:26:56.
