data_PCOD8039921
_publ_section_title
;
Structure prediction by ZEFSAII (Michael W. Deem and Ramdas Pophale) SiO2 
 PCOD8039921
Probable space group: P -1
;
_chemical_formula_sum "Si O2"
_cell_formula_units_Z 16
_cell_length_a 18.432127
_cell_length_b 11.480789
_cell_length_c 21.043761
_cell_angle_alpha 29.840493
_cell_angle_beta 157.346479
_cell_angle_gamma 148.938159
_cell_volume 816.043442
_symmetry_space_group_name_H-M "P -1"
_symmetry_group_IT_number 2
_symmetry_cell_setting 'triclinic'
loop_
_space_group_symop_operation_xyz
x,y,z
-x,-y,-z
loop_
_atom_site_type_symbol
_atom_site_label
_atom_site_fract_x
_atom_site_fract_y
_atom_site_fract_z
Si Si1 0.718299 0.544619 0.128295
Si Si2 0.901314 0.044098 0.081786
Si Si3 0.781701 0.819228 0.917089
Si Si4 0.047791 0.284873 0.212350
Si Si5 0.277664 0.976426 0.597929
Si Si6 0.452207 0.563422 0.338218
Si Si7 0.401315 0.870389 0.306358
Si Si8 0.222335 0.413653 0.105376
O O1 0.855437 0.750585 0.188305
O O2 0.786270 0.299672 0.297432
O O3 0.500000 0.500000 0.000000
O O4 0.749999 0.647899 0.034033
O O5 0.896215 0.162684 0.090892
O O6 0.120737 0.150198 0.180341
O O7 0.750001 0.117302 0.877566
O O8 0.713730 0.632830 0.891733
O O9 0.644563 0.999773 0.728241
O O10 0.000000 0.000000 0.000000
O O11 0.087626 0.072480 0.389060
O O12 0.250000 0.463551 0.262151
O O13 0.938501 0.435569 0.096323
O O14 0.438501 0.155399 0.689711
O O15 0.379263 0.979201 0.609860
O O16 0.603782 0.409398 0.551743
O O17 0.412372 0.549271 0.237021
#
# Coordination Sequence:
#
# PCOD8039921 Si02
#       8
#     2   2   2   2   2   2   2   2
#     4  11  22  37  63  86 118 154 194 238 293 353
#     4  10  18  35  58  88 113 151 197 242 282 341
#     4  11  22  37  63  86 118 154 194 238 293 353
#     4  10  21  33  61  87 120 151 200 245 280 344
#     4  11  20  36  58  88 116 155 196 242 289 339
#     4  10  21  33  61  87 120 151 200 245 280 344
#     4  10  18  35  58  88 113 151 197 242 282 341
#     4  11  20  36  58  88 116 155 196 242 289 339
#
# _framework density 19.606798000000001
#
# number of rings (size 3 to 8) (size 9 to 14) (size 15 to 20)
#    0.000    1.500    5.000    5.250    0.000    1.000 
#    0.000    1.250    0.000    0.000    0.000    0.000 
#    0.000    0.000    0.000    0.000    0.000    0.000 
#
# Total GULP energy -198288.996331 kJ/mol
# GULP energy per Si atom -12393.062271 kJ/mol
# Density = 1.956217 g / cm^3
# Si number density = 19.606798 Si / 1000 Ang^3
#
#
#
# Elastic Constant Matrix: (Units=GPa)
#
#
# Indices 1 2 3 4 5 6 
#
# 1 108.1727 44.9761 28.4892 -7.3514 6.9201 -22.5711
# 2 44.9761 131.8660 52.6566 -27.0718 0.9218 -16.3932
# 3 28.4892 52.6566 92.0692 -12.7571 -1.5034 -14.3136
# 4 -7.3514 -27.0718 -12.7571 31.3821 -4.2994 -2.1413
# 5 6.9201 0.9218 -1.5034 -4.2994 21.6540 -6.7804
# 6 -22.5711 -16.3932 -14.3136 -2.1413 -6.7804 39.1440
#
#
#
# Elastic Compliance Matrix: (Units=1/GPa)
#
#
# Indices 1 2 3 4 5 6 
#
# 1 0.011962 -0.003017 -0.001329 -0.000345 -0.002378 0.004717
# 2 -0.003017 0.012582 -0.004549 0.008869 0.002760 0.002830
# 3 -0.001329 -0.004549 0.014800 0.002455 0.003207 0.003430
# 4 -0.000345 0.008869 0.002455 0.042539 0.011060 0.008656
# 5 -0.002378 0.002760 0.003207 0.011060 0.052583 0.010671
# 6 0.004717 0.002830 0.003430 0.008656 0.010671 0.033028
#
#
# Mechanical properties :
#
#
# Convention : Reuss Voigt Hill
#
# Bulk Modulus (GPa) = 46.39363 64.92798 55.66081
# Shear Modulus (GPa) = 25.97827 32.16841 29.07334
#
# Velocity S-wave (km/s) = 3.64395 4.05492 3.85492
# Velocity P-wave (km/s) = 6.43567 7.42362 6.94723
#
# Compressibility (1/GPa) = 0.02155468
#
# Stress axis : x y z
#
# Youngs Moduli (GPa) = 83.59901 79.47799 67.56794
#
# Poissons Ratio (x) = 0.23977 0.08981
# Poissons Ratio (y) = 0.25220 0.30734
# Poissons Ratio (z) = 0.11112 0.36151
#
# Static dielectric constant tensor:
#      x y z
#    x 3.605160 -0.283260 -0.004840 
#    y -0.283260 3.868040 -0.164360 
#    z -0.004840 -0.164360 3.759270 
# 
# 
# High freq. dielectric constant tensor:
#      x y z
#    x 1.729770 -0.030590 0.002560 
#    y -0.030590 1.764000 -0.010730 
#    z 0.002560 -0.010730 1.760250 
# 
# From -- ./inp_files/613686.got.cif
#   From: 2010.06.25/outbox.cif.g09.slc.cpg/sg2_307_cif.got.tgz:613686.got - 2010.06.27 13:26:56.
