data_PCOD8039076
_publ_section_title
;
Structure prediction by ZEFSAII (Michael W. Deem and Ramdas Pophale) SiO2 
 PCOD8039076
Probable space group: P -1
;
_chemical_formula_sum "Si O2"
_cell_formula_units_Z 16
_cell_length_a 13.360508
_cell_length_b 20.220539
_cell_length_c 8.282247
_cell_angle_alpha 119.911582
_cell_angle_beta 58.940519
_cell_angle_gamma 157.827915
_cell_volume 721.838440
_symmetry_space_group_name_H-M "P -1"
_symmetry_group_IT_number 2
_symmetry_cell_setting 'triclinic'
loop_
_space_group_symop_operation_xyz
x,y,z
-x,-y,-z
loop_
_atom_site_type_symbol
_atom_site_label
_atom_site_fract_x
_atom_site_fract_y
_atom_site_fract_z
Si Si1 0.862805 0.642991 0.438451
Si Si2 0.699075 0.565568 0.132870
Si Si3 0.218287 0.246829 0.945736
Si Si4 0.220700 0.706059 0.194042
Si Si5 0.565418 0.367152 0.577278
Si Si6 0.736458 0.323911 0.222453
Si Si7 0.935836 0.310372 0.229762
Si Si8 0.782057 0.072462 0.259147
O O1 0.733876 0.605223 0.340656
O O2 0.612545 0.470370 0.551809
O O3 0.034290 0.669673 0.282011
O O4 0.053428 0.817436 0.578461
O O5 0.732054 0.655368 0.097453
O O6 0.403498 0.358517 0.088003
O O7 0.922986 0.634932 0.984868
O O8 0.303999 0.223356 0.737350
O O9 0.914392 0.077759 0.058388
O O10 0.044691 0.534548 0.206732
O O11 0.470647 0.869564 0.306015
O O12 0.355050 0.761444 0.979035
O O13 0.530736 0.270022 0.382340
O O14 0.843159 0.521955 0.633183
O O15 0.723371 0.249915 0.278341
O O16 0.784429 0.152229 0.251848
#
# Coordination Sequence:
#
# PCOD8039076 Si02
#       8
#     2   2   2   2   2   2   2   2
#     4  10  18  32  55  86 108 141 183 232 280 318
#     4   9  16  31  55  83 110 138 184 232 270 322
#     4   9  19  34  51  81 116 143 180 228 272 324
#     4  10  21  35  54  85 117 140 181 231 280 329
#     4   9  19  32  54  81 107 143 187 224 260 326
#     4  10  19  35  57  81 105 153 188 221 269 330
#     4   9  17  33  56  83 108 137 184 230 277 318
#     4  10  21  35  55  84 118 143 172 235 287 315
#
# _framework density 22.165624999999999
#
# number of rings (size 3 to 8) (size 9 to 14) (size 15 to 20)
#    0.000    2.500    1.250    3.000    0.000    2.500 
#    0.000    0.625    0.000    3.000    0.000    0.000 
#    0.000    0.000    0.000    0.000    0.000    0.000 
#
# Total GULP energy -198269.729530 kJ/mol
# GULP energy per Si atom -12391.858096 kJ/mol
# Density = 2.211517 g / cm^3
# Si number density = 22.165625 Si / 1000 Ang^3
#
#
#
# Elastic Constant Matrix: (Units=GPa)
#
#
# Indices 1 2 3 4 5 6 
#
# 1 59.7549 16.6177 24.9078 8.6811 15.6057 12.5880
# 2 16.6177 47.9467 18.5994 -0.4357 1.7370 7.6736
# 3 24.9078 18.5994 102.2257 12.7178 7.7259 8.7222
# 4 8.6811 -0.4357 12.7178 12.9884 5.5940 -2.5568
# 5 15.6057 1.7370 7.7259 5.5940 41.3909 1.8192
# 6 12.5880 7.6736 8.7222 -2.5568 1.8192 11.7692
#
#
#
# Elastic Compliance Matrix: (Units=1/GPa)
#
#
# Indices 1 2 3 4 5 6 
#
# 1 0.030465 -0.005147 -0.000142 -0.024159 -0.006512 -0.033365
# 2 -0.005147 0.025172 -0.003522 0.005859 0.001066 -0.007189
# 3 -0.000142 -0.003522 0.013245 -0.015211 0.000256 -0.010712
# 4 -0.024159 0.005859 -0.015211 0.123621 -0.007701 0.061339
# 5 -0.006512 0.001066 0.000256 -0.007701 0.027557 0.000148
# 6 -0.033365 -0.007189 -0.010712 0.061339 0.000148 0.146583
#
#
# Mechanical properties :
#
#
# Convention : Reuss Voigt Hill
#
# Bulk Modulus (GPa) = 19.50871 36.68635 28.09753
# Shear Modulus (GPa) = 12.45796 23.21652 17.83724
#
# Velocity S-wave (km/s) = 2.37331 3.23988 2.83985
# Velocity P-wave (km/s) = 4.04111 5.53017 4.84321
#
# Compressibility (1/GPa) = 0.05125915
#
# Stress axis : x y z
#
# Youngs Moduli (GPa) = 32.82477 39.72698 75.50243
#
# Poissons Ratio (x) = 0.20449 0.01071
# Poissons Ratio (y) = 0.16896 0.26590
# Poissons Ratio (z) = 0.00465 0.13991
#
# Static dielectric constant tensor:
#      x y z
#    x 3.739760 0.190350 -0.194990 
#    y 0.190350 3.562860 -0.250510 
#    z -0.194990 -0.250510 4.607950 
# 
# 
# High freq. dielectric constant tensor:
#      x y z
#    x 1.854640 0.019340 -0.006480 
#    y 0.019340 1.818890 -0.010750 
#    z -0.006480 -0.010750 1.894630 
# 
# From -- ./inp_files/262376.got.cif
#   From: 2010.06.25/outbox.cif.g09.slc.cpg/sg2_132_cif.got.tgz:262376.got - 2010.06.27 13:26:56.
