data_PCOD8039522
_publ_section_title
;
Structure prediction by ZEFSAII (Michael W. Deem and Ramdas Pophale) SiO2 
 PCOD8039522
Probable space group: P -1
;
_chemical_formula_sum "Si O2"
_cell_formula_units_Z 14
_cell_length_a 11.681175
_cell_length_b 23.298655
_cell_length_c 19.068435
_cell_angle_alpha 25.576190
_cell_angle_beta 145.810888
_cell_angle_gamma 160.261660
_cell_volume 748.112747
_symmetry_space_group_name_H-M "P -1"
_symmetry_group_IT_number 2
_symmetry_cell_setting 'triclinic'
loop_
_space_group_symop_operation_xyz
x,y,z
-x,-y,-z
loop_
_atom_site_type_symbol
_atom_site_label
_atom_site_fract_x
_atom_site_fract_y
_atom_site_fract_z
Si Si1 0.810608 0.246648 0.354667
Si Si2 0.821236 0.801982 0.473944
Si Si3 0.310361 0.157986 0.429427
Si Si4 0.790682 0.156920 0.685425
Si Si5 0.716115 0.508709 0.556448
Si Si6 0.639834 0.309791 0.065270
Si Si7 0.626728 0.536790 0.254315
O O1 0.675869 0.289591 0.187489
O O2 0.048281 0.271757 0.404504
O O3 0.029386 0.430893 0.326070
O O4 0.500000 0.000000 0.500000
O O5 0.565264 0.731603 0.362426
O O6 0.611430 0.659702 0.593743
O O7 0.136254 0.065283 0.364922
O O8 0.517199 0.130534 0.573100
O O9 0.568801 0.418565 0.284080
O O10 0.000000 0.000000 0.500000
O O11 0.056900 0.299722 0.598679
O O12 0.982704 0.265160 0.738534
O O13 0.598436 0.916071 0.849247
O O14 0.500000 0.500000 0.500000
O O15 0.468082 0.362574 0.919821
O O16 0.000000 0.500000 0.000000
#
# Coordination Sequence:
#
# PCOD8039522 Si02
#       7
#     2   2   2   2   2   2   2
#     4  11  18  33  55  80 109 148 192 224 276 335
#     4   9  17  33  53  79 109 142 188 231 267 333
#     4  10  18  34  55  80 113 153 189 223 280 341
#     4  11  20  36  56  84 115 148 189 234 275 343
#     4   9  19  32  56  87 107 141 192 237 268 325
#     4  12  21  35  55  83 120 146 182 241 289 322
#     4  10  21  33  52  84 116 145 180 234 289 327
#
# _framework density 18.713757999999999
#
# number of rings (size 3 to 8) (size 9 to 14) (size 15 to 20)
#    0.000    1.714    4.286    1.714    0.000    0.000 
#    0.000    0.000    0.000    4.286    0.000    0.000 
#    0.000    0.000    0.000    0.000    0.000    0.000 
#
# Total GULP energy -173432.710910 kJ/mol
# GULP energy per Si atom -12388.050779 kJ/mol
# Density = 1.867116 g / cm^3
# Si number density = 18.713758 Si / 1000 Ang^3
#
#
#
# Elastic Constant Matrix: (Units=GPa)
#
#
# Indices 1 2 3 4 5 6 
#
# 1 55.8105 51.5831 28.1490 -2.5416 7.0602 -16.7850
# 2 51.5831 187.5284 54.9657 -4.8529 10.5766 -54.3696
# 3 28.1490 54.9657 71.8946 -5.0122 14.4557 -22.0031
# 4 -2.5416 -4.8529 -5.0122 24.4423 -6.2027 6.9191
# 5 7.0602 10.5766 14.4557 -6.2027 29.6141 -6.5254
# 6 -16.7850 -54.3696 -22.0031 6.9191 -6.5254 50.0839
#
#
#
# Elastic Compliance Matrix: (Units=1/GPa)
#
#
# Indices 1 2 3 4 5 6 
#
# 1 0.025980 -0.005316 -0.005750 0.000042 -0.001432 0.000217
# 2 -0.005316 0.009990 -0.003409 -0.001281 0.000825 0.007850
# 3 -0.005750 -0.003409 0.021009 0.000520 -0.006980 0.002620
# 4 0.000042 -0.001281 0.000520 0.044609 0.008160 -0.006248
# 5 -0.001432 0.000825 -0.006980 0.008160 0.039225 0.001332
# 6 0.000217 0.007850 0.002620 -0.006248 0.001332 0.030750
#
#
# Mechanical properties :
#
#
# Convention : Reuss Voigt Hill
#
# Bulk Modulus (GPa) = 35.67863 64.95879 50.31871
# Shear Modulus (GPa) = 23.82591 32.86375 28.34483
#
# Velocity S-wave (km/s) = 3.57203 4.19516 3.89608
# Velocity P-wave (km/s) = 6.00994 7.63237 6.86922
#
# Compressibility (1/GPa) = 0.02802798
#
# Stress axis : x y z
#
# Youngs Moduli (GPa) = 38.49157 100.09613 47.59888
#
# Poissons Ratio (x) = 0.53210 0.27371
# Poissons Ratio (y) = 0.20462 0.16228
# Poissons Ratio (z) = 0.22134 0.34125
#
# Static dielectric constant tensor:
#      x y z
#    x 3.737770 -0.630490 -0.036490 
#    y -0.630490 4.419950 -0.079610 
#    z -0.036490 -0.079610 3.158400 
# 
# 
# High freq. dielectric constant tensor:
#      x y z
#    x 1.724080 -0.012210 0.009010 
#    y -0.012210 1.768450 -0.002990 
#    z 0.009010 -0.002990 1.666740 
# 
# From -- ./inp_files/154084.got.cif
#   From: 2010.06.25/outbox.cif.g09.slc.cpg/sg2_78_cif.got.tgz:154084.got - 2010.06.27 13:26:56.
