data_PCOD8039974
_publ_section_title
;
Structure prediction by ZEFSAII (Michael W. Deem and Ramdas Pophale) SiO2 
 PCOD8039974
Probable space group: P -1
;
_chemical_formula_sum "Si O2"
_cell_formula_units_Z 16
_cell_length_a 8.935234
_cell_length_b 11.345666
_cell_length_c 10.785837
_cell_angle_alpha 100.338967
_cell_angle_beta 124.687414
_cell_angle_gamma 88.818110
_cell_volume 879.990984
_symmetry_space_group_name_H-M "P -1"
_symmetry_group_IT_number 2
_symmetry_cell_setting 'triclinic'
loop_
_space_group_symop_operation_xyz
x,y,z
-x,-y,-z
loop_
_atom_site_type_symbol
_atom_site_label
_atom_site_fract_x
_atom_site_fract_y
_atom_site_fract_z
Si Si1 0.937562 0.209796 0.374566
Si Si2 0.823015 0.314865 0.586414
Si Si3 0.302654 0.182888 0.669951
Si Si4 0.691733 0.983627 0.147274
Si Si5 0.165686 0.253796 0.860517
Si Si6 0.854375 0.588942 0.640227
Si Si7 0.814312 0.555106 0.889867
Si Si8 0.521672 0.349202 0.632500
O O1 0.816669 0.245145 0.440628
O O2 0.818938 0.108272 0.221366
O O3 0.123127 0.157025 0.495274
O O4 0.983423 0.324562 0.329008
O O5 0.906088 0.452724 0.629425
O O6 0.619822 0.307238 0.546663
O O7 0.948905 0.256392 0.736795
O O8 0.264224 0.280993 0.777734
O O9 0.475503 0.234686 0.679348
O O10 0.339951 0.057689 0.730919
O O11 0.790880 0.880146 0.101447
O O12 0.500000 0.000000 0.000000
O O13 0.240824 0.351103 0.015575
O O14 0.836982 0.624902 0.782819
O O15 0.663461 0.595973 0.481385
O O16 0.651009 0.448867 0.785985
O O17 0.000000 0.500000 0.000000
#
# Coordination Sequence:
#
# PCOD8039974 Si02
#       8
#     2   2   2   2   2   2   2   2
#     4  10  20  38  63  77 110 156 186 232 281 333
#     4  10  18  35  60  86 113 147 187 229 284 338
#     4   8  20  38  58  80 113 143 198 225 279 334
#     4  10  22  39  58  83 112 147 197 241 270 328
#     4   9  20  37  57  82 113 151 192 221 284 339
#     4  10  21  35  56  90 114 142 192 229 279 339
#     4  11  19  34  58  82 123 150 176 229 294 331
#     4  10  20  35  57  87 117 144 182 240 274 336
#
# _framework density 18.182003000000002
#
# number of rings (size 3 to 8) (size 9 to 14) (size 15 to 20)
#    0.750    1.500    2.500    2.250    0.000    3.500 
#    0.000    1.250    0.000    0.000    0.000    0.000 
#    0.000    0.000    0.000    0.000    0.000    0.000 
#
# Total GULP energy -198327.548028 kJ/mol
# GULP energy per Si atom -12395.471752 kJ/mol
# Density = 1.814062 g / cm^3
# Si number density = 18.182003 Si / 1000 Ang^3
#
#
#
# Elastic Constant Matrix: (Units=GPa)
#
#
# Indices 1 2 3 4 5 6 
#
# 1 77.3406 42.7121 31.9137 19.4124 6.1162 6.9872
# 2 42.7121 95.5120 41.2713 5.1734 13.3919 -3.0536
# 3 31.9137 41.2713 96.5134 9.8517 12.7713 1.7241
# 4 19.4124 5.1734 9.8517 30.0973 1.0854 2.5956
# 5 6.1162 13.3919 12.7713 1.0854 17.5313 -5.7469
# 6 6.9872 -3.0536 1.7241 2.5956 -5.7469 26.5679
#
#
#
# Elastic Compliance Matrix: (Units=1/GPa)
#
#
# Indices 1 2 3 4 5 6 
#
# 1 0.021868 -0.008216 -0.002351 -0.011413 -0.000767 -0.005594
# 2 -0.008216 0.016633 -0.003990 0.003750 -0.006313 0.002600
# 3 -0.002351 -0.003990 0.013990 -0.001953 -0.006873 -0.002044
# 4 -0.011413 0.003750 -0.001953 0.040623 -0.000118 -0.000435
# 5 -0.000767 -0.006313 -0.006873 -0.000118 0.072246 0.015561
# 6 -0.005594 0.002600 -0.002044 -0.000435 0.015561 0.042951
#
#
# Mechanical properties :
#
#
# Convention : Reuss Voigt Hill
#
# Bulk Modulus (GPa) = 42.77689 55.68448 49.23068
# Shear Modulus (GPa) = 20.39000 25.07056 22.73028
#
# Velocity S-wave (km/s) = 3.35242 3.71734 3.53959
# Velocity P-wave (km/s) = 6.20992 7.00838 6.62120
#
# Compressibility (1/GPa) = 0.02337711
#
# Stress axis : x y z
#
# Youngs Moduli (GPa) = 45.72838 60.12017 71.47910
#
# Poissons Ratio (x) = 0.49398 0.16805
# Poissons Ratio (y) = 0.37573 0.28518
# Poissons Ratio (z) = 0.10751 0.23986
#
# Static dielectric constant tensor:
#      x y z
#    x 3.300740 0.026200 -0.089850 
#    y 0.026200 3.277470 -0.126640 
#    z -0.089850 -0.126640 3.319480 
# 
# 
# High freq. dielectric constant tensor:
#      x y z
#    x 1.692760 -0.001380 -0.000220 
#    y -0.001380 1.693770 -0.009290 
#    z -0.000220 -0.009290 1.702700 
# 
# From -- ./inp_files/390536.got.cif
#   From: 2010.06.25/outbox.cif.g09.slc.cpg/sg2_196_cif.got.tgz:390536.got - 2010.06.27 13:26:56.
