data_PCOD8039872
_publ_section_title
;
Structure prediction by ZEFSAII (Michael W. Deem and Ramdas Pophale) SiO2 
 PCOD8039872
Probable space group: P -1
;
_chemical_formula_sum "Si O2"
_cell_formula_units_Z 16
_cell_length_a 23.304560
_cell_length_b 18.378142
_cell_length_c 12.269733
_cell_angle_alpha 160.929046
_cell_angle_beta 140.991929
_cell_angle_gamma 28.920174
_cell_volume 787.326705
_symmetry_space_group_name_H-M "P -1"
_symmetry_group_IT_number 2
_symmetry_cell_setting 'triclinic'
loop_
_space_group_symop_operation_xyz
x,y,z
-x,-y,-z
loop_
_atom_site_type_symbol
_atom_site_label
_atom_site_fract_x
_atom_site_fract_y
_atom_site_fract_z
Si Si1 0.683308 0.265367 0.739362
Si Si2 0.892939 0.842915 0.104630
Si Si3 0.619346 0.403611 0.478548
Si Si4 0.948065 0.136176 0.774686
Si Si5 0.966926 0.722217 0.361969
Si Si6 0.670453 0.635618 0.060950
Si Si7 0.476663 0.261450 0.401116
Si Si8 0.545628 0.671733 0.300892
O O1 0.604320 0.170805 0.494285
O O2 0.822918 0.942416 0.493483
O O3 0.650162 0.448943 0.839244
O O4 0.657363 0.479534 0.105094
O O5 0.948535 0.852713 0.088207
O O6 0.744388 0.045998 0.169593
O O7 0.930512 0.961865 0.418360
O O8 0.952273 0.499845 0.730132
O O9 0.500000 0.500000 0.500000
O O10 0.601168 0.451430 0.389235
O O11 0.648160 0.597850 0.848835
O O12 0.992808 0.937892 0.671891
O O13 0.812349 0.485534 0.078838
O O14 0.000000 0.500000 0.000000
O O15 0.568414 0.993183 0.443418
O O16 0.407406 0.325179 0.505089
O O17 0.500000 0.000000 0.000000
O O18 0.500000 0.500000 0.000000
#
# Coordination Sequence:
#
# PCOD8039872 Si02
#       8
#     2   2   2   2   2   2   2   2
#     4  10  21  36  58  85 120 150 191 245 295 345
#     4   9  18  31  51  78 113 148 181 244 290 332
#     4  11  21  36  55  84 119 153 194 232 296 355
#     4   8  17  30  50  82 110 141 192 240 286 339
#     4   9  18  32  54  85 111 145 189 245 293 333
#     4  10  18  35  57  83 116 152 190 239 294 347
#     4  11  22  35  55  84 118 155 191 236 287 355
#     4  10  22  35  53  87 116 151 193 241 296 344
#
# _framework density 20.321932
#
# number of rings (size 3 to 8) (size 9 to 14) (size 15 to 20)
#    0.000    2.250    2.500    1.125    3.500    2.000 
#    0.000    0.000    0.000    0.750    0.000    7.000 
#    0.000    0.000    0.000    0.000    0.000    0.000 
#
# Total GULP energy -198233.784298 kJ/mol
# GULP energy per Si atom -12389.611519 kJ/mol
# Density = 2.027568 g / cm^3
# Si number density = 20.321932 Si / 1000 Ang^3
#
#
#
# Elastic Constant Matrix: (Units=GPa)
#
#
# Indices 1 2 3 4 5 6 
#
# 1 110.9762 60.6844 36.2495 17.5019 -7.8704 -4.8048
# 2 60.6844 103.9496 51.1110 34.9529 -3.5428 -1.2912
# 3 36.2495 51.1110 90.6033 27.8070 -16.2000 -2.4629
# 4 17.5019 34.9529 27.8070 41.0992 3.6969 -6.8712
# 5 -7.8704 -3.5428 -16.2000 3.6969 35.7863 2.4063
# 6 -4.8048 -1.2912 -2.4629 -6.8712 2.4063 30.4096
#
#
#
# Elastic Compliance Matrix: (Units=1/GPa)
#
#
# Indices 1 2 3 4 5 6 
#
# 1 0.013638 -0.007935 -0.001338 0.002081 0.001253 0.002081
# 2 -0.007935 0.020428 -0.005210 -0.010942 -0.000734 -0.003223
# 3 -0.001338 -0.005210 0.018678 -0.008676 0.008646 -0.001564
# 4 0.002081 -0.010942 -0.008676 0.040999 -0.009405 0.009170
# 5 0.001253 -0.000734 0.008646 -0.009405 0.033294 -0.003892
# 6 0.002081 -0.003223 -0.001564 0.009170 -0.003892 0.035329
#
#
# Mechanical properties :
#
#
# Convention : Reuss Voigt Hill
#
# Bulk Modulus (GPa) = 42.05657 66.84654 54.45156
# Shear Modulus (GPa) = 25.09309 31.95797 28.52553
#
# Velocity S-wave (km/s) = 3.51775 3.96989 3.75064
# Velocity P-wave (km/s) = 6.10242 7.34701 6.75345
#
# Compressibility (1/GPa) = 0.02377750
#
# Stress axis : x y z
#
# Youngs Moduli (GPa) = 73.32615 48.95231 53.53991
#
# Poissons Ratio (x) = 0.38842 0.07165
# Poissons Ratio (y) = 0.58182 0.27894
# Poissons Ratio (z) = 0.09813 0.25504
#
# Static dielectric constant tensor:
#      x y z
#    x 4.391690 0.667290 -0.354600 
#    y 0.667290 3.799520 0.340970 
#    z -0.354600 0.340970 3.656490 
# 
# 
# High freq. dielectric constant tensor:
#      x y z
#    x 1.803520 0.013920 0.000550 
#    y 0.013920 1.768050 0.037700 
#    z 0.000550 0.037700 1.767830 
# 
# From -- ./inp_files/261718.got.cif
#   From: 2010.06.25/outbox.cif.g09.slc.cpg/sg2_131_cif.got.tgz:261718.got - 2010.06.27 13:26:56.
