data_PCOD8039079
_publ_section_title
;
Structure prediction by ZEFSAII (Michael W. Deem and Ramdas Pophale) SiO2 
 PCOD8039079
Probable space group: P -1
;
_chemical_formula_sum "Si O2"
_cell_formula_units_Z 14
_cell_length_a 12.223435
_cell_length_b 10.857709
_cell_length_c 12.103338
_cell_angle_alpha 83.147338
_cell_angle_beta 117.290917
_cell_angle_gamma 44.232159
_cell_volume 688.546107
_symmetry_space_group_name_H-M "P -1"
_symmetry_group_IT_number 2
_symmetry_cell_setting 'triclinic'
loop_
_space_group_symop_operation_xyz
x,y,z
-x,-y,-z
loop_
_atom_site_type_symbol
_atom_site_label
_atom_site_fract_x
_atom_site_fract_y
_atom_site_fract_z
Si Si1 0.570186 0.661748 0.092308
Si Si2 0.884198 0.597466 0.318072
Si Si3 0.849059 0.520648 0.805249
Si Si4 0.271129 0.072506 0.467973
Si Si5 0.931529 0.409160 0.097174
Si Si6 0.941829 0.194696 0.454410
Si Si7 0.052243 0.196246 0.739597
O O1 0.641037 0.722273 0.189319
O O2 0.685194 0.444875 0.238222
O O3 0.688009 0.573081 0.034119
O O4 0.267572 0.911703 0.914214
O O5 0.797258 0.810887 0.221522
O O6 0.000000 0.500000 0.500000
O O7 0.117871 0.338557 0.379843
O O8 0.568965 0.827940 0.641617
O O9 0.052407 0.453356 0.899929
O O10 0.862814 0.403327 0.728346
O O11 0.896692 0.404030 0.953897
O O12 0.179026 0.119254 0.295028
O O13 0.173557 0.063492 0.517527
O O14 0.907240 0.268122 0.558482
O O15 0.000000 0.000000 0.500000
#
# Coordination Sequence:
#
# PCOD8039079 Si02
#       7
#     2   2   2   2   2   2   2
#     4  10  21  36  58  84 114 148 182 233 279 332
#     4  10  18  32  55  87 117 149 179 225 280 335
#     4  11  21  31  52  86 120 153 172 211 281 348
#     4  10  20  37  55  79 117 150 178 227 278 331
#     4   9  20  32  49  81 118 151 174 205 270 349
#     4  10  23  43  62  79 101 147 205 244 279 315
#     4  12  21  34  57  87 117 145 186 232 279 335
#
# _framework density 20.332699000000002
#
# number of rings (size 3 to 8) (size 9 to 14) (size 15 to 20)
#    0.000    2.000    5.714    1.714    0.000    2.857 
#    0.000    0.714    0.000    4.286    0.000    0.000 
#    0.000    0.000    0.000    0.000    0.000    0.000 
#
# Total GULP energy -173433.933124 kJ/mol
# GULP energy per Si atom -12388.138080 kJ/mol
# Density = 2.028642 g / cm^3
# Si number density = 20.332699 Si / 1000 Ang^3
#
#
#
# Elastic Constant Matrix: (Units=GPa)
#
#
# Indices 1 2 3 4 5 6 
#
# 1 25.7800 31.0662 16.8743 1.0801 -13.1357 5.6531
# 2 31.0662 88.9624 46.4795 11.7821 -15.3828 0.1582
# 3 16.8743 46.4795 122.2800 3.0178 -25.4963 -14.0445
# 4 1.0801 11.7821 3.0178 44.6354 -10.0797 -5.9759
# 5 -13.1357 -15.3828 -25.4963 -10.0797 25.1593 -5.4454
# 6 5.6531 0.1582 -14.0445 -5.9759 -5.4454 26.4638
#
#
#
# Elastic Compliance Matrix: (Units=1/GPa)
#
#
# Indices 1 2 3 4 5 6 
#
# 1 0.092466 -0.030443 0.006442 0.013956 0.040786 -0.004607
# 2 -0.030443 0.024997 -0.008007 -0.008502 -0.012655 -0.002420
# 3 0.006442 -0.008007 0.015835 0.007159 0.020162 0.012841
# 4 0.013956 -0.008502 0.007159 0.031121 0.024617 0.012962
# 5 0.040786 -0.012655 0.020162 0.024617 0.089221 0.025981
# 6 -0.004607 -0.002420 0.012841 0.012962 0.025981 0.053874
#
#
# Mechanical properties :
#
#
# Convention : Reuss Voigt Hill
#
# Bulk Modulus (GPa) = 14.43393 47.31807 30.87600
# Shear Modulus (GPa) = 12.67026 28.75852 20.71439
#
# Velocity S-wave (km/s) = 2.49900 3.76493 3.19528
# Velocity P-wave (km/s) = 3.92950 6.49785 5.36950
#
# Compressibility (1/GPa) = 0.06928119
#
# Stress axis : x y z
#
# Youngs Moduli (GPa) = 10.81473 40.00427 63.15266
#
# Poissons Ratio (x) = 1.21787 -0.40684
# Poissons Ratio (y) = 0.32924 0.50569
# Poissons Ratio (z) = -0.06967 0.32033
#
# Static dielectric constant tensor:
#      x y z
#    x 3.860230 -0.191720 -0.668190 
#    y -0.191720 3.389240 0.178220 
#    z -0.668190 0.178220 4.077870 
# 
# 
# High freq. dielectric constant tensor:
#      x y z
#    x 1.746830 -0.014030 -0.029980 
#    y -0.014030 1.768170 0.011630 
#    z -0.029980 0.011630 1.818610 
# 
# From -- ./inp_files/421133.got.cif
#   From: 2010.06.25/outbox.cif.g09.slc.cpg/sg2_211_cif.got.tgz:421133.got - 2010.06.27 13:26:56.
