data_PCOD8039688
_publ_section_title
;
Structure prediction by ZEFSAII (Michael W. Deem and Ramdas Pophale) SiO2 
 PCOD8039688
Probable space group: P -1
;
_chemical_formula_sum "Si O2"
_cell_formula_units_Z 14
_cell_length_a 8.246230
_cell_length_b 16.319165
_cell_length_c 17.453052
_cell_angle_alpha 35.142706
_cell_angle_beta 45.093373
_cell_angle_gamma 30.338283
_cell_volume 682.869680
_symmetry_space_group_name_H-M "P -1"
_symmetry_group_IT_number 2
_symmetry_cell_setting 'triclinic'
loop_
_space_group_symop_operation_xyz
x,y,z
-x,-y,-z
loop_
_atom_site_type_symbol
_atom_site_label
_atom_site_fract_x
_atom_site_fract_y
_atom_site_fract_z
Si Si1 0.487278 0.147961 0.939147
Si Si2 0.051587 0.821893 0.411654
Si Si3 0.778427 0.555512 0.325100
Si Si4 0.223275 0.266268 0.103604
Si Si5 0.101343 0.014770 0.373547
Si Si6 0.852361 0.674860 0.357789
Si Si7 0.121389 0.043624 0.799752
O O1 0.247715 0.363989 0.811929
O O2 0.851646 0.043483 0.904587
O O3 0.345478 0.174806 0.048202
O O4 0.500000 0.000000 0.000000
O O5 0.422359 0.680048 0.377516
O O6 0.010945 0.680749 0.568471
O O7 0.844506 0.928663 0.322088
O O8 0.930158 0.992584 0.382585
O O9 0.938181 0.594378 0.303373
O O10 0.016101 0.219788 0.236923
O O11 0.530808 0.165308 0.131348
O O12 0.000000 0.500000 0.000000
O O13 0.478252 0.837949 0.373958
O O14 0.000000 0.000000 0.500000
O O15 0.990922 0.770923 0.254771
O O16 0.000000 0.500000 0.500000
#
# Coordination Sequence:
#
# PCOD8039688 Si02
#       7
#     2   2   2   2   2   2   2
#     4  11  22  40  64  90 127 167 212 260 316 377
#     4   9  17  34  59  88 115 155 205 254 302 356
#     4   9  18  31  58  90 119 153 199 256 307 360
#     4  11  25  42  60  92 130 168 210 258 318 380
#     4  10  23  40  60  83 125 168 206 251 309 370
#     4  10  18  34  59  97 122 148 206 262 306 360
#     4  10  20  38  65  91 123 164 208 262 310 370
#
# _framework density 20.501714
#
# number of rings (size 3 to 8) (size 9 to 14) (size 15 to 20)
#    0.000    2.000    1.429    3.857    4.000    0.000 
#    0.000    7.143    0.000    0.000    0.000    0.000 
#    0.000    0.000    0.000    0.000    0.000    0.000 
#
# Total GULP energy -173589.311549 kJ/mol
# GULP energy per Si atom -12399.236539 kJ/mol
# Density = 2.045505 g / cm^3
# Si number density = 20.501714 Si / 1000 Ang^3
#
#
#
# Elastic Constant Matrix: (Units=GPa)
#
#
# Indices 1 2 3 4 5 6 
#
# 1 154.8323 39.5945 66.2115 -11.1770 -3.7518 15.6352
# 2 39.5945 50.2162 45.6196 -16.7055 -6.4356 12.5639
# 3 66.2115 45.6196 151.2308 -12.6082 -1.4496 9.1044
# 4 -11.1770 -16.7055 -12.6082 39.2427 5.5028 2.7668
# 5 -3.7518 -6.4356 -1.4496 5.5028 43.0253 -1.8450
# 6 15.6352 12.5639 9.1044 2.7668 -1.8450 19.5742
#
#
#
# Elastic Compliance Matrix: (Units=1/GPa)
#
#
# Indices 1 2 3 4 5 6 
#
# 1 0.008870 -0.003659 -0.002527 0.000422 -0.000069 -0.003627
# 2 -0.003659 0.040846 -0.008171 0.014846 0.002702 -0.021338
# 3 -0.002527 -0.008171 0.009921 -0.001083 -0.000853 0.002721
# 4 0.000422 0.014846 -0.001083 0.032946 -0.002604 -0.014265
# 5 -0.000069 0.002702 -0.000853 -0.002604 0.024002 0.001348
# 6 -0.003627 -0.021338 0.002721 -0.014265 0.001348 0.068559
#
#
# Mechanical properties :
#
#
# Convention : Reuss Voigt Hill
#
# Bulk Modulus (GPa) = 32.33824 73.23673 52.78748
# Shear Modulus (GPa) = 22.30492 34.02536 28.16514
#
# Velocity S-wave (km/s) = 3.30199 4.07828 3.71049
# Velocity P-wave (km/s) = 5.50865 7.61422 6.64536
#
# Compressibility (1/GPa) = 0.03092314
#
# Stress axis : x y z
#
# Youngs Moduli (GPa) = 112.74024 24.48216 100.79356
#
# Poissons Ratio (x) = 0.08958 0.25468
# Poissons Ratio (y) = 0.41254 0.82360
# Poissons Ratio (z) = 0.28486 0.20005
#
# Static dielectric constant tensor:
#      x y z
#    x 4.238750 0.168910 0.163580 
#    y 0.168910 3.319270 -0.158290 
#    z 0.163580 -0.158290 4.113320 
# 
# 
# High freq. dielectric constant tensor:
#      x y z
#    x 1.821460 0.012080 0.004980 
#    y 0.012080 1.756010 -0.015430 
#    z 0.004980 -0.015430 1.814920 
# 
# From -- ./inp_files/205050.got.cif
#   From: 2010.06.25/outbox.cif.g09.slc.cpg/sg2_103_cif.got.tgz:205050.got - 2010.06.27 13:26:56.
