data_PCOD8039071
_publ_section_title
;
Structure prediction by ZEFSAII (Michael W. Deem and Ramdas Pophale) SiO2 
 PCOD8039071
Probable space group: P -1
;
_chemical_formula_sum "Si O2"
_cell_formula_units_Z 14
_cell_length_a 13.914933
_cell_length_b 9.049197
_cell_length_c 14.648872
_cell_angle_alpha 48.670150
_cell_angle_beta 141.105508
_cell_angle_gamma 138.004165
_cell_volume 760.022661
_symmetry_space_group_name_H-M "P -1"
_symmetry_group_IT_number 2
_symmetry_cell_setting 'triclinic'
loop_
_space_group_symop_operation_xyz
x,y,z
-x,-y,-z
loop_
_atom_site_type_symbol
_atom_site_label
_atom_site_fract_x
_atom_site_fract_y
_atom_site_fract_z
Si Si1 0.770628 0.560633 0.193000
Si Si2 0.587731 0.837777 0.949790
Si Si3 0.070593 0.191383 0.620244
Si Si4 0.716824 0.316660 0.877932
Si Si5 0.886747 0.287659 0.287472
Si Si6 0.613149 0.840124 0.184239
Si Si7 0.036716 0.301706 0.215065
O O1 0.589430 0.328202 0.165643
O O2 0.878260 0.615956 0.344320
O O3 0.876083 0.513856 0.210315
O O4 0.732032 0.764581 0.057357
O O5 0.646550 0.090466 0.856649
O O6 0.566776 0.838502 0.044094
O O7 0.244048 0.245353 0.666945
O O8 0.923191 0.187650 0.447426
O O9 0.999275 0.952976 0.717913
O O10 0.563730 0.316766 0.826773
O O11 0.785185 0.530434 0.773731
O O12 0.874840 0.332899 0.048712
O O13 0.048263 0.358253 0.308476
O O14 0.703689 0.095183 0.187264
#
# Coordination Sequence:
#
# PCOD8039071 Si02
#       7
#     2   2   2   2   2   2   2
#     4  10  19  31  56  78 103 136 175 214 261 298
#     4  10  18  32  55  84 104 126 177 224 253 313
#     4  10  21  36  52  79 106 138 182 209 246 313
#     4  11  18  33  56  80 110 127 168 226 271 300
#     4  11  19  35  55  77 105 142 178 212 246 308
#     4  10  18  32  56  80  98 136 178 214 256 301
#     4  10  21  33  54  80 109 132 169 223 265 303
#
# _framework density 18.420503
#
# number of rings (size 3 to 8) (size 9 to 14) (size 15 to 20)
#    0.000    1.714    5.714    3.429    0.000    0.000 
#    0.000    3.571    9.429    0.857    0.000    0.000 
#    0.000    0.000    0.000    0.000    0.000    0.000 
#
# Total GULP energy -173478.676084 kJ/mol
# GULP energy per Si atom -12391.334006 kJ/mol
# Density = 1.837858 g / cm^3
# Si number density = 18.420503 Si / 1000 Ang^3
#
#
#
# Elastic Constant Matrix: (Units=GPa)
#
#
# Indices 1 2 3 4 5 6 
#
# 1 100.5311 62.6232 17.7159 -1.3009 -3.5320 -0.6612
# 2 62.6232 102.0872 31.5924 1.9583 -10.8445 -6.3149
# 3 17.7159 31.5924 50.4384 -1.0862 -7.1637 -1.2931
# 4 -1.3009 1.9583 -1.0862 15.7131 -2.6040 -7.0374
# 5 -3.5320 -10.8445 -7.1637 -2.6040 21.4707 1.0715
# 6 -0.6612 -6.3149 -1.2931 -7.0374 1.0715 42.1490
#
#
#
# Elastic Compliance Matrix: (Units=1/GPa)
#
#
# Indices 1 2 3 4 5 6 
#
# 1 0.016348 -0.010526 0.000562 0.001932 -0.002159 -0.000926
# 2 -0.010526 0.019338 -0.007680 -0.002057 0.005123 0.002023
# 3 0.000562 -0.007680 0.025241 0.003639 0.005071 0.000111
# 4 0.001932 -0.002057 0.003639 0.070846 0.008514 0.011446
# 5 -0.002159 0.005123 0.005071 0.008514 0.051482 0.001002
# 6 -0.000926 0.002023 0.000111 0.011446 0.001002 0.025903
#
#
# Mechanical properties :
#
#
# Convention : Reuss Voigt Hill
#
# Bulk Modulus (GPa) = 39.00376 52.99108 45.99742
# Shear Modulus (GPa) = 19.76350 25.27492 22.51921
#
# Velocity S-wave (km/s) = 3.27908 3.70822 3.50023
# Velocity P-wave (km/s) = 5.96293 6.86763 6.43121
#
# Compressibility (1/GPa) = 0.02563855
#
# Stress axis : x y z
#
# Youngs Moduli (GPa) = 61.16923 51.71148 39.61871
#
# Poissons Ratio (x) = 0.54432 -0.02227
# Poissons Ratio (y) = 0.64387 0.30428
# Poissons Ratio (z) = -0.03439 0.39716
#
# Static dielectric constant tensor:
#      x y z
#    x 3.524360 -0.200990 0.072510 
#    y -0.200990 3.497160 0.099800 
#    z 0.072510 0.099800 3.287190 
# 
# 
# High freq. dielectric constant tensor:
#      x y z
#    x 1.701340 -0.025430 0.016450 
#    y -0.025430 1.701500 0.016190 
#    z 0.016450 0.016190 1.700710 
# 
# From -- ./inp_files/171369.got.cif
#   From: 2010.06.25/outbox.cif.g09.slc.cpg/sg2_86_cif.got.tgz:171369.got - 2010.06.27 13:26:56.
