data_PCOD8039934
_publ_section_title
;
Structure prediction by ZEFSAII (Michael W. Deem and Ramdas Pophale) SiO2 
 PCOD8039934
Probable space group: P -1
;
_chemical_formula_sum "Si O2"
_cell_formula_units_Z 16
_cell_length_a 11.216307
_cell_length_b 9.426640
_cell_length_c 16.313877
_cell_angle_alpha 67.076144
_cell_angle_beta 146.645708
_cell_angle_gamma 100.352257
_cell_volume 836.565419
_symmetry_space_group_name_H-M "P -1"
_symmetry_group_IT_number 2
_symmetry_cell_setting 'triclinic'
loop_
_space_group_symop_operation_xyz
x,y,z
-x,-y,-z
loop_
_atom_site_type_symbol
_atom_site_label
_atom_site_fract_x
_atom_site_fract_y
_atom_site_fract_z
Si Si1 0.038977 0.158709 0.023716
Si Si2 0.762312 0.911881 0.668017
Si Si3 0.784426 0.615413 0.029285
Si Si4 0.551350 0.404499 0.678136
Si Si5 0.185465 0.967318 0.856899
Si Si6 0.260080 0.387821 0.371207
Si Si7 0.424122 0.226031 0.969314
Si Si8 0.428993 0.631852 0.123758
O O1 0.159310 0.125138 0.186707
O O2 0.210181 0.225358 0.052306
O O3 0.801695 0.292294 0.860910
O O4 0.000000 0.000000 0.000000
O O5 0.816671 0.755222 0.678837
O O6 0.911634 0.015462 0.685399
O O7 0.500000 0.000000 0.500000
O O8 0.034498 0.531866 0.228198
O O9 0.604013 0.673050 0.986232
O O10 0.707556 0.490987 0.955647
O O11 0.393194 0.331138 0.545971
O O12 0.570804 0.565441 0.607747
O O13 0.447830 0.434030 0.704243
O O14 0.321730 0.901877 0.864660
O O15 0.260219 0.814803 0.997952
O O16 0.242434 0.125643 0.885905
O O17 0.387676 0.352733 0.843535
#
# Coordination Sequence:
#
# PCOD8039934 Si02
#       8
#     2   2   2   2   2   2   2   2
#     4  11  21  34  54  85 115 152 195 233 286 351
#     4  12  22  37  58  84 119 149 188 239 295 341
#     4  11  20  33  60  85 114 147 194 240 284 337
#     4  10  20  35  56  77 116 152 189 232 289 339
#     4   9  19  36  58  82 113 150 191 233 285 336
#     4  10  21  36  52  86 116 151 183 240 291 337
#     4   9  19  35  59  86 110 153 194 238 277 338
#     4  10  18  35  59  80 106 151 194 236 274 337
#
# _framework density 19.125820000000001
#
# number of rings (size 3 to 8) (size 9 to 14) (size 15 to 20)
#    0.750    1.000    2.500    2.625    0.000    4.000 
#    0.000    0.625    0.000    4.500    0.000    0.000 
#    0.000    0.000    0.000    0.000    0.000    0.000 
#
# Total GULP energy -198240.791696 kJ/mol
# GULP energy per Si atom -12390.049481 kJ/mol
# Density = 1.908229 g / cm^3
# Si number density = 19.125820 Si / 1000 Ang^3
#
#
#
# Elastic Constant Matrix: (Units=GPa)
#
#
# Indices 1 2 3 4 5 6 
#
# 1 123.4109 46.3726 50.9385 17.5502 -9.3278 3.4106
# 2 46.3726 97.5167 32.9210 20.1744 -11.6293 16.7378
# 3 50.9385 32.9210 97.8275 21.3306 -7.0450 -4.3014
# 4 17.5502 20.1744 21.3306 25.0430 -6.2022 2.5250
# 5 -9.3278 -11.6293 -7.0450 -6.2022 35.4787 6.3259
# 6 3.4106 16.7378 -4.3014 2.5250 6.3259 32.4699
#
#
#
# Elastic Compliance Matrix: (Units=1/GPa)
#
#
# Indices 1 2 3 4 5 6 
#
# 1 0.011543 -0.003656 -0.004474 -0.001152 0.000742 0.000024
# 2 -0.003656 0.016041 -0.002110 -0.006664 0.004223 -0.008469
# 3 -0.004474 -0.002110 0.015331 -0.008976 -0.001199 0.004520
# 4 -0.001152 -0.006664 -0.008976 0.055552 0.005999 -0.003122
# 5 0.000742 0.004223 -0.001199 0.005999 0.032208 -0.009155
# 6 0.000024 -0.008469 0.004520 -0.003122 -0.009155 0.037786
#
#
# Mechanical properties :
#
#
# Convention : Reuss Voigt Hill
#
# Bulk Modulus (GPa) = 44.57284 64.35771 54.46528
# Shear Modulus (GPa) = 25.45554 31.16652 28.31103
#
# Velocity S-wave (km/s) = 3.65218 4.04115 3.85158
# Velocity P-wave (km/s) = 6.41406 7.44965 6.95117
#
# Compressibility (1/GPa) = 0.02243518
#
# Stress axis : x y z
#
# Youngs Moduli (GPa) = 86.63436 62.33901 65.22533
#
# Poissons Ratio (x) = 0.22790 0.29184
# Poissons Ratio (y) = 0.31672 0.13762
# Poissons Ratio (z) = 0.38764 0.13153
#
# Static dielectric constant tensor:
#      x y z
#    x 3.662630 0.118440 -0.028900 
#    y 0.118440 3.493690 0.031090 
#    z -0.028900 0.031090 3.272710 
# 
# 
# High freq. dielectric constant tensor:
#      x y z
#    x 1.749190 0.005100 0.004530 
#    y 0.005100 1.750470 0.012590 
#    z 0.004530 0.012590 1.707760 
# 
# From -- ./inp_files/566703.got.cif
#   From: 2010.06.25/outbox.cif.g09.slc.cpg/sg2_284_cif.got.tgz:566703.got - 2010.06.27 13:26:56.
