data_PCOD8039565
_publ_section_title
;
Structure prediction by ZEFSAII (Michael W. Deem and Ramdas Pophale) SiO2 
 PCOD8039565
Probable space group: P -1
;
_chemical_formula_sum "Si O2"
_cell_formula_units_Z 14
_cell_length_a 10.253995
_cell_length_b 13.274690
_cell_length_c 9.548689
_cell_angle_alpha 26.481980
_cell_angle_beta 91.385439
_cell_angle_gamma 99.754989
_cell_volume 546.642131
_symmetry_space_group_name_H-M "P -1"
_symmetry_group_IT_number 2
_symmetry_cell_setting 'triclinic'
loop_
_space_group_symop_operation_xyz
x,y,z
-x,-y,-z
loop_
_atom_site_type_symbol
_atom_site_label
_atom_site_fract_x
_atom_site_fract_y
_atom_site_fract_z
Si Si1 0.013212 0.632374 0.183114
Si Si2 0.430040 0.729882 0.288261
Si Si3 0.678057 0.067892 0.204221
Si Si4 0.873298 0.873862 0.055745
Si Si5 0.342196 0.388100 0.424424
Si Si6 0.772697 0.287835 0.471286
Si Si7 0.437538 0.704889 0.784986
O O1 0.930431 0.817123 0.979923
O O2 0.934366 0.457999 0.270003
O O3 0.000000 0.500000 0.500000
O O4 0.164149 0.782922 0.939421
O O5 0.528609 0.573337 0.515035
O O6 0.294662 0.614844 0.522707
O O7 0.385025 0.744189 0.108267
O O8 0.500000 0.000000 0.000000
O O9 0.677203 0.848033 0.376749
O O10 0.572337 0.952554 0.475866
O O11 0.787787 0.645888 0.433149
O O12 0.769579 0.019160 0.836586
O O13 0.000000 0.000000 0.000000
O O14 0.365047 0.627181 0.031523
O O15 0.686767 0.290610 0.325868
O O16 0.500000 0.500000 0.000000
#
# Coordination Sequence:
#
# PCOD8039565 Si02
#       7
#     2   2   2   2   2   2   2
#     4  12  23  36  64 100 123 156 208 263 313 358
#     4  10  14  30  61  87 113 154 210 252 296 352
#     4  10  17  33  60  89 119 159 204 253 306 361
#     4  12  21  38  66  92 130 159 204 261 307 370
#     4  10  18  34  62  92 116 164 214 240 307 370
#     4  12  21  38  65  96 122 163 208 255 312 362
#     4  10  20  36  68  88 120 174 209 243 311 378
#
# _framework density 25.610907000000001
#
# number of rings (size 3 to 8) (size 9 to 14) (size 15 to 20)
#    0.000    1.143   11.429    0.000    0.000    0.000 
#    0.000    4.286    0.000    3.429    0.000    0.000 
#    0.000    0.000    0.000    0.000    0.000    0.000 
#
# Total GULP energy -173520.290967 kJ/mol
# GULP energy per Si atom -12394.306498 kJ/mol
# Density = 2.555262 g / cm^3
# Si number density = 25.610907 Si / 1000 Ang^3
#
#
#
# Elastic Constant Matrix: (Units=GPa)
#
#
# Indices 1 2 3 4 5 6 
#
# 1 151.4348 42.9286 94.1657 8.4515 -30.1811 26.3333
# 2 42.9286 89.2201 63.4985 8.5140 -19.6910 26.7079
# 3 94.1657 63.4985 184.1979 5.1249 -16.9985 24.1806
# 4 8.4515 8.5140 5.1249 48.4169 -0.3713 -6.5319
# 5 -30.1811 -19.6910 -16.9985 -0.3713 49.8617 4.6452
# 6 26.3333 26.7079 24.1806 -6.5319 4.6452 45.6093
#
#
#
# Elastic Compliance Matrix: (Units=1/GPa)
#
#
# Indices 1 2 3 4 5 6 
#
# 1 0.011853 0.001388 -0.005078 -0.002534 0.006531 -0.005992
# 2 0.001388 0.019723 -0.005206 -0.004590 0.007849 -0.011047
# 3 -0.005078 -0.005206 0.009431 0.000967 -0.002031 0.001326
# 4 -0.002534 -0.004590 0.000967 0.022753 -0.003523 0.007255
# 5 0.006531 0.007849 -0.002031 -0.003523 0.027375 -0.010583
# 6 -0.005992 -0.011047 0.001326 0.007255 -0.010583 0.033268
#
#
# Mechanical properties :
#
#
# Convention : Reuss Voigt Hill
#
# Bulk Modulus (GPa) = 43.07729 91.78204 67.42966
# Shear Modulus (GPa) = 33.34794 43.72826 38.53810
#
# Velocity S-wave (km/s) = 3.61238 4.13656 3.88332
# Velocity P-wave (km/s) = 5.85281 7.66353 6.81855
#
# Compressibility (1/GPa) = 0.02321409
#
# Stress axis : x y z
#
# Youngs Moduli (GPa) = 84.36996 50.70180 106.02921
#
# Poissons Ratio (x) = -0.07037 0.53841
# Poissons Ratio (y) = -0.11709 0.55203
# Poissons Ratio (z) = 0.42843 0.26397
#
# Static dielectric constant tensor:
#      x y z
#    x 5.118330 -0.280970 0.036820 
#    y -0.280970 6.144410 -0.046010 
#    z 0.036820 -0.046010 5.590300 
# 
# 
# High freq. dielectric constant tensor:
#      x y z
#    x 2.045400 -0.014040 0.002010 
#    y -0.014040 2.045260 -0.037340 
#    z 0.002010 -0.037340 2.020910 
# 
# From -- ./inp_files/271385.got.cif
#   From: 2010.06.25/outbox.cif.g09.slc.cpg/sg2_136_cif.got.tgz:271385.got - 2010.06.27 13:26:56.
