data_PCOD8039914
_publ_section_title
;
Structure prediction by ZEFSAII (Michael W. Deem and Ramdas Pophale) SiO2 
 PCOD8039914
Probable space group: P -1
;
_chemical_formula_sum "Si O2"
_cell_formula_units_Z 16
_cell_length_a 12.893094
_cell_length_b 10.613921
_cell_length_c 18.140207
_cell_angle_alpha 131.837136
_cell_angle_beta 29.081160
_cell_angle_gamma 120.039112
_cell_volume 875.407507
_symmetry_space_group_name_H-M "P -1"
_symmetry_group_IT_number 2
_symmetry_cell_setting 'triclinic'
loop_
_space_group_symop_operation_xyz
x,y,z
-x,-y,-z
loop_
_atom_site_type_symbol
_atom_site_label
_atom_site_fract_x
_atom_site_fract_y
_atom_site_fract_z
Si Si1 0.369041 0.856533 0.043381
Si Si2 0.294904 0.268111 0.871782
Si Si3 0.622084 0.424275 0.967587
Si Si4 0.872896 0.170703 0.104856
Si Si5 0.457558 0.116106 0.403942
Si Si6 0.199604 0.702132 0.952749
Si Si7 0.729694 0.678124 0.261527
Si Si8 0.002045 0.125955 0.616654
O O1 0.492066 0.714615 0.972548
O O2 0.357358 0.757683 0.935731
O O3 0.125440 0.940816 0.260895
O O4 0.500000 0.000000 0.000000
O O5 0.385461 0.419778 0.910869
O O6 0.338884 0.263748 0.755872
O O7 0.426921 0.086015 0.750774
O O8 0.033084 0.304591 0.067338
O O9 0.500000 0.500000 0.000000
O O10 0.869802 0.321293 0.753052
O O11 0.626454 0.228088 0.311595
O O12 0.851817 0.150205 0.021224
O O13 0.000000 0.000000 0.000000
O O14 0.411209 0.182234 0.541483
O O15 0.244566 0.139993 0.494125
O O16 0.311625 0.514587 0.773936
O O17 0.982676 0.677641 0.120327
O O18 0.000000 0.000000 0.500000
#
# Coordination Sequence:
#
# PCOD8039914 Si02
#       8
#     2   2   2   2   2   2   2   2
#     4  10  22  38  62  87 115 162 211 242 301 361
#     4  10  20  38  60  85 122 157 200 240 306 365
#     4  10  21  40  66  87 115 164 208 246 306 366
#     4   9  22  35  56  87 125 156 193 242 308 357
#     4  11  21  36  59  91 121 154 199 252 302 357
#     4  10  19  36  59  83 119 155 199 243 300 366
#     4  10  18  35  58  86 115 155 195 245 295 365
#     4  10  22  38  58  89 117 157 208 251 299 356
#
# _framework density 18.277203
#
# number of rings (size 3 to 8) (size 9 to 14) (size 15 to 20)
#    0.750    1.250    2.500    1.125    5.250    1.500 
#    0.000    0.000    0.000    1.500    0.000    0.000 
#    0.000    0.000    0.000    0.000    0.000    0.000 
#
# Total GULP energy -198216.603070 kJ/mol
# GULP energy per Si atom -12388.537692 kJ/mol
# Density = 1.823560 g / cm^3
# Si number density = 18.277203 Si / 1000 Ang^3
#
#
#
# Elastic Constant Matrix: (Units=GPa)
#
#
# Indices 1 2 3 4 5 6 
#
# 1 130.4986 62.5175 40.6782 -2.6913 -5.5416 -2.2465
# 2 62.5175 112.7535 46.2293 -6.8250 2.5402 -1.0543
# 3 40.6782 46.2293 97.1589 -3.2361 -1.2752 10.1136
# 4 -2.6913 -6.8250 -3.2361 31.1429 2.9032 1.9455
# 5 -5.5416 2.5402 -1.2752 2.9032 29.9117 6.2088
# 6 -2.2465 -1.0543 10.1136 1.9455 6.2088 33.0342
#
#
#
# Elastic Compliance Matrix: (Units=1/GPa)
#
#
# Indices 1 2 3 4 5 6 
#
# 1 0.010962 -0.005278 -0.002160 -0.000699 0.002278 0.000851
# 2 -0.005278 0.013887 -0.004559 0.002271 -0.002967 0.001904
# 3 -0.002160 -0.004559 0.013907 0.000419 0.001549 -0.004866
# 4 -0.000699 0.002271 0.000419 0.032980 -0.003206 -0.001443
# 5 0.002278 -0.002967 0.001549 -0.003206 0.035932 -0.006979
# 6 0.000851 0.001904 -0.004866 -0.001443 -0.006979 0.033277
#
#
# Mechanical properties :
#
#
# Convention : Reuss Voigt Hill
#
# Bulk Modulus (GPa) = 67.74678 71.02900 69.38789
# Shear Modulus (GPa) = 29.43631 31.55014 30.49322
#
# Velocity S-wave (km/s) = 4.01752 4.15927 4.08901
# Velocity P-wave (km/s) = 7.65946 7.87480 7.76787
#
# Compressibility (1/GPa) = 0.01476085
#
# Stress axis : x y z
#
# Youngs Moduli (GPa) = 91.22683 72.01136 71.90642
#
# Poissons Ratio (x) = 0.38007 0.15533
# Poissons Ratio (y) = 0.48148 0.32784
# Poissons Ratio (z) = 0.19706 0.32832
#
# Static dielectric constant tensor:
#      x y z
#    x 3.434270 -0.045830 0.019220 
#    y -0.045830 3.462960 -0.091190 
#    z 0.019220 -0.091190 3.325390 
# 
# 
# High freq. dielectric constant tensor:
#      x y z
#    x 1.716060 -0.004990 0.004400 
#    y -0.004990 1.703710 0.001040 
#    z 0.004400 0.001040 1.688820 
# 
# From -- ./inp_files/438186.got.cif
#   From: 2010.06.25/outbox.cif.g09.slc.cpg/sg2_220_cif.got.tgz:438186.got - 2010.06.27 13:26:56.
