data_PCOD8039618
_publ_section_title
;
Structure prediction by ZEFSAII (Michael W. Deem and Ramdas Pophale) SiO2 
 PCOD8039618
Probable space group: P -1
;
_chemical_formula_sum "Si O2"
_cell_formula_units_Z 10
_cell_length_a 7.330031
_cell_length_b 9.612200
_cell_length_c 8.977819
_cell_angle_alpha 65.059094
_cell_angle_beta 109.108084
_cell_angle_gamma 131.153776
_cell_volume 430.711928
_symmetry_space_group_name_H-M "P -1"
_symmetry_group_IT_number 2
_symmetry_cell_setting 'triclinic'
loop_
_space_group_symop_operation_xyz
x,y,z
-x,-y,-z
loop_
_atom_site_type_symbol
_atom_site_label
_atom_site_fract_x
_atom_site_fract_y
_atom_site_fract_z
Si Si1 0.648962 0.880689 0.180012
Si Si2 0.430923 0.046627 0.195233
Si Si3 0.466653 0.587674 0.808340
Si Si4 0.298819 0.460666 0.350146
Si Si5 0.954395 0.740829 0.358307
O O1 0.642157 0.026393 0.219859
O O2 0.384160 0.668105 0.217610
O O3 0.870646 0.878535 0.287603
O O4 0.693310 0.952074 0.989620
O O5 0.230307 0.863928 0.323849
O O6 0.545294 0.239802 0.232423
O O7 0.699673 0.659976 0.732096
O O8 0.216293 0.426654 0.731204
O O9 0.500000 0.500000 0.000000
O O10 0.500000 0.500000 0.500000
O O11 0.055454 0.343471 0.440223
#
# Coordination Sequence:
#
# PCOD8039618 Si02
#       5
#     2   2   2   2   2
#     4   9  19  35  54  82 111 137 178 227 261 313
#     4  11  20  34  59  82 105 143 182 220 265 316
#     4  10  18  34  58  81 106 141 183 218 261 324
#     4   8  17  36  54  76 113 143 168 222 274 309
#     4  10  21  38  57  77 112 146 171 220 278 311
#
# _framework density 23.217374
#
# number of rings (size 3 to 8) (size 9 to 14) (size 15 to 20)
#    0.000    2.800    4.000    0.600    0.000    1.600 
#    0.000   17.000    0.000    0.000    0.000    0.000 
#    0.000    0.000    0.000    0.000    0.000    0.000 
#
# Total GULP energy -123917.250974 kJ/mol
# GULP energy per Si atom -12391.725097 kJ/mol
# Density = 2.316453 g / cm^3
# Si number density = 23.217374 Si / 1000 Ang^3
#
#
#
# Elastic Constant Matrix: (Units=GPa)
#
#
# Indices 1 2 3 4 5 6 
#
# 1 56.6676 36.1847 19.5766 8.7971 -22.8105 -17.1725
# 2 36.1847 119.7992 16.7249 11.5614 -20.9014 -37.4892
# 3 19.5766 16.7249 96.6656 -1.2181 -46.5826 -3.5939
# 4 8.7971 11.5614 -1.2181 30.7698 -0.4692 -12.6681
# 5 -22.8105 -20.9014 -46.5826 -0.4692 35.0581 0.3830
# 6 -17.1725 -37.4892 -3.5939 -12.6681 0.3830 38.0040
#
#
#
# Elastic Compliance Matrix: (Units=1/GPa)
#
#
# Indices 1 2 3 4 5 6 
#
# 1 0.033455 -0.000628 0.011277 -0.002403 0.036188 0.014398
# 2 -0.000628 0.015429 0.006186 0.001396 0.016855 0.015817
# 3 0.011277 0.006186 0.035688 0.002911 0.058320 0.014955
# 4 -0.002403 0.001396 0.002911 0.038306 0.003504 0.013300
# 5 0.036188 0.016855 0.058320 0.003504 0.139239 0.038259
# 6 0.014398 0.015817 0.014955 0.013300 0.038259 0.053884
#
#
# Mechanical properties :
#
#
# Convention : Reuss Voigt Hill
#
# Bulk Modulus (GPa) = 8.45731 46.45611 27.45671
# Shear Modulus (GPa) = 15.54030 34.14279 24.84154
#
# Velocity S-wave (km/s) = 2.58997 3.83896 3.27457
# Velocity P-wave (km/s) = 3.54887 6.30102 5.11357
#
# Compressibility (1/GPa) = 0.11824085
#
# Stress axis : x y z
#
# Youngs Moduli (GPa) = 29.89105 64.81336 28.02090
#
# Poissons Ratio (x) = 0.04070 -0.31599
# Poissons Ratio (y) = 0.01877 -0.17333
# Poissons Ratio (z) = -0.33708 -0.40091
#
# Static dielectric constant tensor:
#      x y z
#    x 4.224490 -0.208420 -0.954970 
#    y -0.208420 4.522700 -0.366990 
#    z -0.954970 -0.366990 5.097530 
# 
# 
# High freq. dielectric constant tensor:
#      x y z
#    x 1.892500 -0.031970 -0.033350 
#    y -0.031970 1.901000 -0.013710 
#    z -0.033350 -0.013710 1.929110 
# 
# From -- ./inp_files/144335.got.cif
#   From: 2010.06.25/outbox.cif.g09.slc.cpg/sg2_73_cif.got.tgz:144335.got - 2010.06.27 13:26:56.
