data_PCOD8040772
_publ_section_title
;
Structure prediction by ZEFSAII (Michael W. Deem and Ramdas Pophale) SiO2 
 PCOD8040772
Probable space group: P -1
;
_chemical_formula_sum "Si O2"
_cell_formula_units_Z 16
_cell_length_a 8.858927
_cell_length_b 14.920115
_cell_length_c 15.140728
_cell_angle_alpha 58.214397
_cell_angle_beta 66.239376
_cell_angle_gamma 26.892752
_cell_volume 757.724653
_symmetry_space_group_name_H-M "P -1"
_symmetry_group_IT_number 2
_symmetry_cell_setting 'triclinic'
loop_
_space_group_symop_operation_xyz
x,y,z
-x,-y,-z
loop_
_atom_site_type_symbol
_atom_site_label
_atom_site_fract_x
_atom_site_fract_y
_atom_site_fract_z
Si Si1 0.649317 0.761360 0.848299
Si Si2 0.630164 0.008021 0.721807
Si Si3 0.555569 0.681990 0.074238
Si Si4 0.352802 0.552463 0.600851
Si Si5 0.609391 0.206961 0.274882
Si Si6 0.561607 0.450108 0.229584
Si Si7 0.767706 0.030764 0.509963
Si Si8 0.372034 0.819093 0.235082
O O1 0.484606 0.970471 0.778335
O O2 0.604830 0.733251 0.778674
O O3 0.043378 0.542817 0.889661
O O4 0.453788 0.802847 0.947793
O O5 0.515494 0.138712 0.593748
O O6 0.033906 0.777770 0.744609
O O7 0.504785 0.141725 0.768140
O O8 0.430233 0.630668 0.120354
O O9 0.369199 0.840057 0.119602
O O10 0.500000 0.500000 0.500000
O O11 0.558635 0.486362 0.671634
O O12 0.356992 0.423793 0.679277
O O13 0.974936 0.808219 0.556809
O O14 0.441848 0.416653 0.218230
O O15 0.561445 0.174561 0.396276
O O16 0.003685 0.990042 0.268006
O O17 0.000000 0.000000 0.500000
#
# Coordination Sequence:
#
# PCOD8040772 Si02
#       8
#     2   2   2   2   2   2   2   2
#     4  10  22  38  56  76 112 148 181 222 280 325
#     4   9  18  34  53  78 109 148 181 208 268 342
#     4   9  20  40  57  76 106 150 183 223 277 327
#     4  10  15  26  51  81 103 137 171 217 258 315
#     4  11  20  33  56  88 108 139 185 230 265 315
#     4   8  17  31  53  79 104 136 185 218 258 325
#     4  11  17  32  57  83 109 147 180 214 266 333
#     4  10  19  33  58  82 104 141 192 224 258 320
#
# _framework density 21.115848
#
# number of rings (size 3 to 8) (size 9 to 14) (size 15 to 20)
#    0.000    2.250    5.000    0.750    0.000    2.000 
#    0.000    2.500    0.000    1.500    0.000    0.000 
#    0.000    0.000    0.000    0.000    0.000    0.000 
#
# Total GULP energy -198285.578691 kJ/mol
# GULP energy per Si atom -12392.848668 kJ/mol
# Density = 2.106779 g / cm^3
# Si number density = 21.115848 Si / 1000 Ang^3
#
#
#
# Elastic Constant Matrix: (Units=GPa)
#
#
# Indices 1 2 3 4 5 6 
#
# 1 120.2163 25.2396 62.4733 -5.8693 -5.4737 51.9785
# 2 25.2396 47.3741 19.8358 8.4821 -4.4893 33.9222
# 3 62.4733 19.8358 148.6797 12.7464 -10.4360 27.4031
# 4 -5.8693 8.4821 12.7464 17.9914 5.6869 4.8656
# 5 -5.4737 -4.4893 -10.4360 5.6869 28.0474 -0.6078
# 6 51.9785 33.9222 27.4031 4.8656 -0.6078 38.5141
#
#
#
# Elastic Compliance Matrix: (Units=1/GPa)
#
#
# Indices 1 2 3 4 5 6 
#
# 1 0.059259 0.061212 -0.011254 0.030957 0.008089 -0.129667
# 2 0.061212 0.131412 -0.006283 0.007141 0.024982 -0.194394
# 3 -0.011254 -0.006283 0.011054 -0.013777 0.004022 0.014661
# 4 0.030957 0.007141 -0.013777 0.091147 -0.017508 -0.050057
# 5 0.008089 0.024982 0.004022 -0.017508 0.045566 -0.032852
# 6 -0.129667 -0.194394 0.014661 -0.050057 -0.032852 0.367554
#
#
# Mechanical properties :
#
#
# Convention : Reuss Voigt Hill
#
# Bulk Modulus (GPa) = 3.45929 59.04084 31.25007
# Shear Modulus (GPa) = 6.99301 30.82534 18.90917
#
# Velocity S-wave (km/s) = 1.82179 3.82490 2.99573
# Velocity P-wave (km/s) = 2.46313 6.89403 5.17662
#
# Compressibility (1/GPa) = 0.28907633
#
# Stress axis : x y z
#
# Youngs Moduli (GPa) = 16.87493 7.60967 90.46356
#
# Poissons Ratio (x) = -0.46580 1.01808
# Poissons Ratio (y) = -1.03295 0.56834
# Poissons Ratio (z) = 0.18991 0.04781
#
# Static dielectric constant tensor:
#      x y z
#    x 3.828770 0.590110 -0.299590 
#    y 0.590110 3.792880 0.221620 
#    z -0.299590 0.221620 4.263490 
# 
# 
# High freq. dielectric constant tensor:
#      x y z
#    x 1.804150 0.043510 -0.011490 
#    y 0.043510 1.804380 0.016300 
#    z -0.011490 0.016300 1.835050 
# 
# From -- ./inp_files/212065.got.cif
#   From: 2010.06.25/outbox.cif.g09.slc.cpg/sg2_107_cif.got.tgz:212065.got - 2010.06.27 13:26:56.
