data_PCOD8040351
_publ_section_title
;
Structure prediction by ZEFSAII (Michael W. Deem and Ramdas Pophale) SiO2 
 PCOD8040351
Probable space group: P -1
;
_chemical_formula_sum "Si O2"
_cell_formula_units_Z 14
_cell_length_a 8.661899
_cell_length_b 9.024792
_cell_length_c 9.465814
_cell_angle_alpha 108.601976
_cell_angle_beta 87.857369
_cell_angle_gamma 100.852176
_cell_volume 688.556354
_symmetry_space_group_name_H-M "P -1"
_symmetry_group_IT_number 2
_symmetry_cell_setting 'triclinic'
loop_
_space_group_symop_operation_xyz
x,y,z
-x,-y,-z
loop_
_atom_site_type_symbol
_atom_site_label
_atom_site_fract_x
_atom_site_fract_y
_atom_site_fract_z
Si Si1 0.808598 0.395678 0.562743
Si Si2 0.510880 0.821892 0.416806
Si Si3 0.325825 0.284359 0.356491
Si Si4 0.395406 0.113225 0.874584
Si Si5 0.605466 0.238143 0.152237
Si Si6 0.122082 0.152023 0.085222
Si Si7 0.925082 0.394124 0.258551
O O1 0.665893 0.277386 0.601522
O O2 0.752232 0.561261 0.580124
O O3 0.868166 0.324494 0.395320
O O4 0.962831 0.431856 0.672350
O O5 0.633139 0.767914 0.505181
O O6 0.580817 0.808582 0.255760
O O7 0.500000 0.000000 0.500000
O O8 0.485659 0.322888 0.270993
O O9 0.207910 0.143599 0.233076
O O10 0.364277 0.920048 0.812800
O O11 0.550797 0.181028 0.980613
O O12 0.251454 0.180785 0.967241
O O13 0.761925 0.375423 0.171897
O O14 0.031042 0.296108 0.136635
O O15 0.000000 0.000000 0.000000
#
# Coordination Sequence:
#
# PCOD8040351 Si02
#       7
#     2   2   2   2   2   2   2
#     4  10  22  38  63  89 118 156 197 244 296 351
#     4  12  22  37  61  92 121 148 200 252 295 339
#     4  10  21  38  63  90 114 161 200 236 291 358
#     4  10  21  35  59  90 122 150 197 250 290 346
#     4  10  18  36  62  89 111 161 202 235 290 356
#     4  10  20  36  62  87 118 158 201 236 290 358
#     4  10  19  36  64  84 115 159 205 234 284 359
#
# _framework density 20.332395999999999
#
# number of rings (size 3 to 8) (size 9 to 14) (size 15 to 20)
#    0.000    1.714    4.286    0.429    0.000    0.000 
#    0.000    7.857    9.429    0.000    0.000    0.000 
#    0.000    0.000    0.000    0.000    0.000    0.000 
#
# Total GULP energy -173461.169995 kJ/mol
# GULP energy per Si atom -12390.083571 kJ/mol
# Density = 2.028612 g / cm^3
# Si number density = 20.332396 Si / 1000 Ang^3
#
#
#
# Elastic Constant Matrix: (Units=GPa)
#
#
# Indices 1 2 3 4 5 6 
#
# 1 124.0252 40.1873 47.7592 4.5406 11.0384 31.5650
# 2 40.1873 73.2274 43.6722 0.7519 12.4451 22.2023
# 3 47.7592 43.6722 117.4253 -6.0747 3.1924 21.2266
# 4 4.5406 0.7519 -6.0747 30.5418 1.7479 3.6616
# 5 11.0384 12.4451 3.1924 1.7479 46.5265 13.8719
# 6 31.5650 22.2023 21.2266 3.6616 13.8719 33.6358
#
#
#
# Elastic Compliance Matrix: (Units=1/GPa)
#
#
# Indices 1 2 3 4 5 6 
#
# 1 0.011912 -0.002740 -0.002485 -0.001283 0.000467 -0.007855
# 2 -0.002740 0.020828 -0.005359 -0.000220 -0.002541 -0.006724
# 3 -0.002485 -0.005359 0.012165 0.003164 0.001951 -0.002957
# 4 -0.001283 -0.000220 0.003164 0.034088 0.000188 -0.004436
# 5 0.000467 -0.002541 0.001951 0.000188 0.024999 -0.010323
# 6 -0.007855 -0.006724 -0.002957 -0.004436 -0.010323 0.048146
#
#
# Mechanical properties :
#
#
# Convention : Reuss Voigt Hill
#
# Bulk Modulus (GPa) = 42.12712 64.21281 53.16996
# Shear Modulus (GPa) = 27.59093 34.34476 30.96785
#
# Velocity S-wave (km/s) = 3.68774 4.11440 3.90690
# Velocity P-wave (km/s) = 6.23672 7.36350 6.82341
#
# Compressibility (1/GPa) = 0.02373768
#
# Stress axis : x y z
#
# Youngs Moduli (GPa) = 83.94815 48.01141 82.20383
#
# Poissons Ratio (x) = 0.13155 0.20427
# Poissons Ratio (y) = 0.23002 0.44052
# Poissons Ratio (z) = 0.20861 0.25729
#
# Static dielectric constant tensor:
#      x y z
#    x 4.124130 0.295880 0.138540 
#    y 0.295880 3.061130 0.167170 
#    z 0.138540 0.167170 4.127430 
# 
# 
# High freq. dielectric constant tensor:
#      x y z
#    x 1.813090 0.022680 -0.003560 
#    y 0.022680 1.740160 0.035730 
#    z -0.003560 0.035730 1.812010 
# 
# From -- ./inp_files/155311.got.cif
#   From: 2010.06.25/outbox.cif.g09.slc.cpg/sg2_78_cif.got.tgz:155311.got - 2010.06.27 13:26:56.
