data_PCOD8040342
_publ_section_title
;
Structure prediction by ZEFSAII (Michael W. Deem and Ramdas Pophale) SiO2 
 PCOD8040342
Probable space group: P -1
;
_chemical_formula_sum "Si O2"
_cell_formula_units_Z 14
_cell_length_a 14.389338
_cell_length_b 9.337175
_cell_length_c 9.873172
_cell_angle_alpha 97.668960
_cell_angle_beta 153.569819
_cell_angle_gamma 83.746754
_cell_volume 584.992810
_symmetry_space_group_name_H-M "P -1"
_symmetry_group_IT_number 2
_symmetry_cell_setting 'triclinic'
loop_
_space_group_symop_operation_xyz
x,y,z
-x,-y,-z
loop_
_atom_site_type_symbol
_atom_site_label
_atom_site_fract_x
_atom_site_fract_y
_atom_site_fract_z
Si Si1 0.816654 0.257519 0.803586
Si Si2 0.527685 0.401373 0.268002
Si Si3 0.460411 0.275589 0.679769
Si Si4 0.028975 0.516719 0.259137
Si Si5 0.169971 0.901163 0.920416
Si Si6 0.846558 0.791711 0.967952
Si Si7 0.798304 0.707746 0.380692
O O1 0.581687 0.306257 0.459967
O O2 0.796027 0.149302 0.887092
O O3 0.954100 0.402434 0.032640
O O4 0.935884 0.180556 0.826135
O O5 0.447414 0.562712 0.213737
O O6 0.745880 0.415259 0.474660
O O7 0.360813 0.311450 0.951144
O O8 0.338938 0.219151 0.382766
O O9 0.317500 0.273421 0.624927
O O10 0.649766 0.168906 0.943479
O O11 0.053127 0.432420 0.423315
O O12 0.862865 0.646827 0.065787
O O13 0.945052 0.848182 0.562006
O O14 0.186412 0.074087 0.957606
#
# Coordination Sequence:
#
# PCOD8040342 Si02
#       7
#     2   2   2   2   2   2   2
#     4  10  18  36  62  87 111 153 196 240 285 330
#     4  10  18  36  63  86 112 152 197 236 285 341
#     4  11  20  36  62  87 114 148 199 236 290 335
#     4   9  16  34  62  85 105 151 196 236 280 327
#     4  11  24  35  59  89 119 152 187 237 294 344
#     4  11  18  36  60  87 118 145 193 245 283 340
#     4  10  22  39  62  84 116 155 190 239 287 341
#
# _framework density 23.931916000000001
#
# number of rings (size 3 to 8) (size 9 to 14) (size 15 to 20)
#    0.000    1.714    5.714    3.429    0.000    1.143 
#    0.000    2.857    6.286    7.714    0.000    0.000 
#    0.000    0.000    0.000    0.000    0.000    0.000 
#
# Total GULP energy -173577.959647 kJ/mol
# GULP energy per Si atom -12398.425689 kJ/mol
# Density = 2.387745 g / cm^3
# Si number density = 23.931916 Si / 1000 Ang^3
#
#
#
# Elastic Constant Matrix: (Units=GPa)
#
#
# Indices 1 2 3 4 5 6 
#
# 1 18.7959 11.6323 15.7006 1.5960 -0.4410 -5.2402
# 2 11.6323 141.5652 54.0981 3.7348 4.5659 -18.4580
# 3 15.7006 54.0981 162.8008 14.1125 -18.6316 -17.1585
# 4 1.5960 3.7348 14.1125 32.3610 -5.8388 4.4931
# 5 -0.4410 4.5659 -18.6316 -5.8388 16.6265 -5.9034
# 6 -5.2402 -18.4580 -17.1585 4.4931 -5.9034 23.6410
#
#
#
# Elastic Compliance Matrix: (Units=1/GPa)
#
#
# Indices 1 2 3 4 5 6 
#
# 1 0.060647 -0.002230 -0.003865 -0.002279 0.000442 0.009441
# 2 -0.002230 0.008977 -0.002884 -0.001025 -0.004913 0.003389
# 3 -0.003865 -0.002884 0.010189 -0.002516 0.014172 0.008303
# 4 -0.002279 -0.001025 -0.002516 0.034550 0.006684 -0.008029
# 5 0.000442 -0.004913 0.014172 0.006684 0.089547 0.027638
# 6 0.009441 0.003389 0.008303 -0.008029 0.027638 0.061492
#
#
# Mechanical properties :
#
#
# Convention : Reuss Voigt Hill
#
# Bulk Modulus (GPa) = 16.16673 54.00267 35.08470
# Shear Modulus (GPa) = 16.44862 30.64109 23.54486
#
# Velocity S-wave (km/s) = 2.62450 3.58207 3.14000
# Velocity P-wave (km/s) = 3.99424 6.30257 5.27619
#
# Compressibility (1/GPa) = 0.06185542
#
# Stress axis : x y z
#
# Youngs Moduli (GPa) = 16.48882 111.40072 98.14892
#
# Poissons Ratio (x) = 0.24838 0.37933
# Poissons Ratio (y) = 0.03676 0.28306
# Poissons Ratio (z) = 0.06373 0.32128
#
# Static dielectric constant tensor:
#      x y z
#    x 3.885210 0.020690 0.022520 
#    y 0.020690 4.354170 -0.329160 
#    z 0.022520 -0.329160 4.483030 
# 
# 
# High freq. dielectric constant tensor:
#      x y z
#    x 1.919560 -0.000470 0.011680 
#    y -0.000470 1.936940 -0.010850 
#    z 0.011680 -0.010850 1.958450 
# 
# From -- ./inp_files/155612.got.cif
#   From: 2010.06.25/outbox.cif.g09.slc.cpg/sg2_78_cif.got.tgz:155612.got - 2010.06.27 13:26:56.
