data_PCOD8040804
_publ_section_title
;
Structure prediction by ZEFSAII (Michael W. Deem and Ramdas Pophale) SiO2 
 PCOD8040804
Probable space group: P -1
;
_chemical_formula_sum "Si O2"
_cell_formula_units_Z 16
_cell_length_a 18.275455
_cell_length_b 8.808398
_cell_length_c 14.491283
_cell_angle_alpha 38.828369
_cell_angle_beta 32.764135
_cell_angle_gamma 40.046479
_cell_volume 748.449551
_symmetry_space_group_name_H-M "P -1"
_symmetry_group_IT_number 2
_symmetry_cell_setting 'triclinic'
loop_
_space_group_symop_operation_xyz
x,y,z
-x,-y,-z
loop_
_atom_site_type_symbol
_atom_site_label
_atom_site_fract_x
_atom_site_fract_y
_atom_site_fract_z
Si Si1 0.899005 0.283880 0.660843
Si Si2 0.866240 0.965162 0.606255
Si Si3 0.286321 0.221235 0.476179
Si Si4 0.010510 0.819687 0.188689
Si Si5 0.456454 0.251636 0.640064
Si Si6 0.228695 0.153337 0.049097
Si Si7 0.015173 0.643498 0.075872
Si Si8 0.270169 0.471541 0.557601
O O1 0.775295 0.535115 0.640260
O O2 0.934634 0.339550 0.701533
O O3 0.831305 0.055593 0.834460
O O4 0.051530 0.228168 0.471057
O O5 0.750215 0.225040 0.566352
O O6 0.777906 0.858637 0.825716
O O7 0.000000 0.000000 0.500000
O O8 0.158451 0.110231 0.685679
O O9 0.348061 0.320283 0.455142
O O10 0.407735 0.991695 0.409713
O O11 0.086700 0.670348 0.087196
O O12 0.040931 0.086384 0.044241
O O13 0.500000 0.500000 0.500000
O O14 0.352947 0.326933 0.626544
O O15 0.383699 0.143989 0.852028
O O16 0.131133 0.438938 0.987049
O O17 0.890034 0.527859 0.277797
#
# Coordination Sequence:
#
# PCOD8040804 Si02
#       8
#     2   2   2   2   2   2   2   2
#     4  11  21  39  71 100 122 164 209 272 319 374
#     4  10  18  38  68  99 123 149 207 269 324 365
#     4  11  23  43  62  90 133 171 208 251 318 383
#     4  10  22  36  64 100 132 160 205 269 322 367
#     4  12  29  44  62  91 128 178 217 257 306 386
#     4  11  22  41  65  93 127 163 212 261 316 375
#     4  10  20  38  64  99 129 160 208 268 323 371
#     4  11  21  43  69  89 124 171 212 263 319 371
#
# _framework density 21.377526
#
# number of rings (size 3 to 8) (size 9 to 14) (size 15 to 20)
#    0.000    1.250    5.000    3.000    3.500    1.500 
#    0.000    1.875    0.000    0.000    0.000    0.000 
#    0.000    0.000    0.000    0.000    0.000    0.000 
#
# Total GULP energy -198263.212440 kJ/mol
# GULP energy per Si atom -12391.450778 kJ/mol
# Density = 2.132887 g / cm^3
# Si number density = 21.377526 Si / 1000 Ang^3
#
#
#
# Elastic Constant Matrix: (Units=GPa)
#
#
# Indices 1 2 3 4 5 6 
#
# 1 79.9852 35.2309 24.6328 -10.8029 19.3429 -2.1177
# 2 35.2309 161.0935 37.6348 3.8527 4.3316 4.0251
# 3 24.6328 37.6348 95.3147 -0.6323 13.1172 2.2403
# 4 -10.8029 3.8527 -0.6323 26.2526 -1.0225 1.5154
# 5 19.3429 4.3316 13.1172 -1.0225 26.4255 -9.2114
# 6 -2.1177 4.0251 2.2403 1.5154 -9.2114 21.1684
#
#
#
# Elastic Compliance Matrix: (Units=1/GPa)
#
#
# Indices 1 2 3 4 5 6 
#
# 1 0.018681 -0.003477 -0.001479 0.007855 -0.013351 -0.003685
# 2 -0.003477 0.007535 -0.002399 -0.002485 0.002280 -0.000357
# 3 -0.001479 -0.002399 0.012755 0.000026 -0.006152 -0.003720
# 4 0.007855 -0.002485 0.000026 0.041718 -0.005121 -0.003959
# 5 -0.013351 0.002280 -0.006152 -0.005121 0.058745 0.024812
# 6 -0.003685 -0.000357 -0.003720 -0.003959 0.024812 0.058413
#
#
# Mechanical properties :
#
#
# Convention : Reuss Voigt Hill
#
# Bulk Modulus (GPa) = 41.21550 59.04339 50.12944
# Shear Modulus (GPa) = 22.66084 30.69560 26.67822
#
# Velocity S-wave (km/s) = 3.25934 3.79341 3.53648
# Velocity P-wave (km/s) = 5.78672 6.84587 6.33846
#
# Compressibility (1/GPa) = 0.02426272
#
# Stress axis : x y z
#
# Youngs Moduli (GPa) = 53.52986 132.70761 78.40005
#
# Poissons Ratio (x) = 0.46140 0.11595
# Poissons Ratio (y) = 0.18611 0.18805
# Poissons Ratio (z) = 0.07917 0.31832
#
# Static dielectric constant tensor:
#      x y z
#    x 3.947040 0.351130 0.364370 
#    y 0.351130 4.099210 -0.038790 
#    z 0.364370 -0.038790 3.999640 
# 
# 
# High freq. dielectric constant tensor:
#      x y z
#    x 1.827270 0.016510 0.022030 
#    y 0.016510 1.851580 -0.021630 
#    z 0.022030 -0.021630 1.824850 
# 
# From -- ./inp_files/406709.got.cif
#   From: 2010.06.25/outbox.cif.g09.slc.cpg/sg2_204_cif.got.tgz:406709.got - 2010.06.27 13:26:56.
