data_PCOD8040939
_publ_section_title
;
Structure prediction by ZEFSAII (Michael W. Deem and Ramdas Pophale) SiO2 
 PCOD8040939
Probable space group: P -1
;
_chemical_formula_sum "Si O2"
_cell_formula_units_Z 14
_cell_length_a 9.469226
_cell_length_b 20.114958
_cell_length_c 10.435097
_cell_angle_alpha 26.507252
_cell_angle_beta 123.682673
_cell_angle_gamma 132.221247
_cell_volume 650.331625
_symmetry_space_group_name_H-M "P -1"
_symmetry_group_IT_number 2
_symmetry_cell_setting 'triclinic'
loop_
_space_group_symop_operation_xyz
x,y,z
-x,-y,-z
loop_
_atom_site_type_symbol
_atom_site_label
_atom_site_fract_x
_atom_site_fract_y
_atom_site_fract_z
Si Si1 0.927330 0.586175 0.685803
Si Si2 0.144819 0.369306 0.692728
Si Si3 0.660622 0.705760 0.867124
Si Si4 0.728463 0.453596 0.191780
Si Si5 0.764521 0.229389 0.291160
Si Si6 0.623881 0.015021 0.342744
Si Si7 0.250494 0.718562 0.256851
O O1 0.081584 0.533852 0.794942
O O2 0.032982 0.724890 0.612019
O O3 0.851101 0.663012 0.402649
O O4 0.758575 0.407420 0.961644
O O5 0.191212 0.562911 0.398779
O O6 0.932766 0.255669 0.841442
O O7 0.300972 0.325608 0.911533
O O8 0.435135 0.596709 0.910261
O O9 0.726817 0.904082 0.541781
O O10 0.780223 0.639477 0.953161
O O11 0.653614 0.314681 0.510293
O O12 0.752651 0.139381 0.305774
O O13 0.590623 0.109834 0.502055
O O14 0.605314 0.115082 0.037249
#
# Coordination Sequence:
#
# PCOD8040939 Si02
#       7
#     2   2   2   2   2   2   2
#     4  10  18  40  63  81 104 161 199 218 257 365
#     4   9  18  35  58  85 108 150 187 230 279 343
#     4  10  20  34  57  89 121 136 179 243 300 320
#     4   9  19  37  61  86 109 149 188 231 282 344
#     4  10  22  35  61  80 114 154 199 220 265 337
#     4  11  21  37  56  91 114 145 186 243 280 321
#     4   9  18  34  60  82 112 145 193 228 276 338
#
# _framework density 21.527480000000001
#
# number of rings (size 3 to 8) (size 9 to 14) (size 15 to 20)
#    0.000    2.286    2.857    0.857    0.000    1.143 
#    0.000    1.429    0.000    0.000    0.000    0.000 
#    0.000    0.000    0.000    0.000    0.000    0.000 
#
# Total GULP energy -173475.053496 kJ/mol
# GULP energy per Si atom -12391.075250 kJ/mol
# Density = 2.147848 g / cm^3
# Si number density = 21.527480 Si / 1000 Ang^3
#
#
#
# Elastic Constant Matrix: (Units=GPa)
#
#
# Indices 1 2 3 4 5 6 
#
# 1 35.0768 5.1688 34.1857 1.8285 -1.6623 -2.6406
# 2 5.1688 123.8008 39.7165 16.6744 -2.1547 -0.5723
# 3 34.1857 39.7165 115.8640 4.4680 -13.5758 -0.6023
# 4 1.8285 16.6744 4.4680 42.6896 -2.6584 3.0954
# 5 -1.6623 -2.1547 -13.5758 -2.6584 34.1211 -2.3681
# 6 -2.6406 -0.5723 -0.6023 3.0954 -2.3681 23.3069
#
#
#
# Elastic Compliance Matrix: (Units=1/GPa)
#
#
# Indices 1 2 3 4 5 6 
#
# 1 0.041509 0.002822 -0.013468 -0.001975 -0.003008 0.004381
# 2 0.002822 0.009771 -0.004170 -0.003631 -0.001131 0.000819
# 3 -0.013468 -0.004170 0.014562 0.001051 0.004894 -0.000894
# 4 -0.001975 -0.003631 0.001051 0.025180 0.001815 -0.003446
# 5 -0.003008 -0.001131 0.004894 0.001815 0.031366 0.002704
# 6 0.004381 0.000819 -0.000894 -0.003446 0.002704 0.044131
#
#
# Mechanical properties :
#
#
# Convention : Reuss Voigt Hill
#
# Bulk Modulus (GPa) = 27.61725 48.09815 37.85770
# Shear Modulus (GPa) = 24.01286 33.06824 28.54055
#
# Velocity S-wave (km/s) = 3.34346 3.92356 3.64507
# Velocity P-wave (km/s) = 5.26893 6.55110 5.94468
#
# Compressibility (1/GPa) = 0.03620925
#
# Stress axis : x y z
#
# Youngs Moduli (GPa) = 24.09109 102.34853 68.67103
#
# Poissons Ratio (x) = -0.28878 0.92486
# Poissons Ratio (y) = -0.06797 0.28635
# Poissons Ratio (z) = 0.32446 0.42678
#
# Static dielectric constant tensor:
#      x y z
#    x 3.614280 -0.317270 -0.045930 
#    y -0.317270 4.221270 0.136280 
#    z -0.045930 0.136280 3.841960 
# 
# 
# High freq. dielectric constant tensor:
#      x y z
#    x 1.809480 -0.018190 -0.013400 
#    y -0.018190 1.858830 0.011440 
#    z -0.013400 0.011440 1.829610 
# 
# From -- ./inp_files/182773.got.cif
#   From: 2010.06.25/outbox.cif.g09.slc.cpg/sg2_92_cif.got.tgz:182773.got - 2010.06.27 13:26:56.
