data_PCOD8040512
_publ_section_title
;
Structure prediction by ZEFSAII (Michael W. Deem and Ramdas Pophale) SiO2 
 PCOD8040512
Probable space group: P -1
;
_chemical_formula_sum "Si O2"
_cell_formula_units_Z 14
_cell_length_a 19.672988
_cell_length_b 15.771022
_cell_length_c 9.421352
_cell_angle_alpha 36.658115
_cell_angle_beta 28.101075
_cell_angle_gamma 25.291404
_cell_volume 588.069235
_symmetry_space_group_name_H-M "P -1"
_symmetry_group_IT_number 2
_symmetry_cell_setting 'triclinic'
loop_
_space_group_symop_operation_xyz
x,y,z
-x,-y,-z
loop_
_atom_site_type_symbol
_atom_site_label
_atom_site_fract_x
_atom_site_fract_y
_atom_site_fract_z
Si Si1 0.740144 0.632031 0.145958
Si Si2 0.764053 0.638365 0.769205
Si Si3 0.150754 0.215316 0.047416
Si Si4 0.084330 0.746501 0.052714
Si Si5 0.711425 0.940057 0.295026
Si Si6 0.577299 0.304049 0.189650
Si Si7 0.971930 0.913073 0.322258
O O1 0.572572 0.628712 0.494858
O O2 0.966861 0.422623 0.033599
O O3 0.699497 0.703401 0.963380
O O4 0.717724 0.783960 0.085392
O O5 0.641016 0.839419 0.633966
O O6 0.000000 0.500000 0.500000
O O7 0.733229 0.495270 0.963886
O O8 0.062742 0.140396 0.394053
O O9 0.298942 0.069032 0.843680
O O10 0.953948 0.821477 0.340952
O O11 0.171550 0.848021 0.741246
O O12 0.938511 0.817552 0.092458
O O13 0.566481 0.173305 0.282473
O O14 0.500000 0.500000 0.000000
O O15 0.804613 0.174578 0.992203
#
# Coordination Sequence:
#
# PCOD8040512 Si02
#       7
#     2   2   2   2   2   2   2
#     4  11  23  37  62  91 121 160 202 248 301 357
#     4  10  18  37  60  87 119 153 203 252 285 352
#     4  11  21  37  65  92 112 162 214 243 286 361
#     4   9  19  36  60  89 114 159 205 242 292 351
#     4  10  22  37  64  91 121 159 201 253 298 353
#     4  11  24  41  57  91 133 156 188 254 319 350
#     4  10  21  38  63  88 124 160 198 249 300 359
#
# _framework density 23.806719000000001
#
# number of rings (size 3 to 8) (size 9 to 14) (size 15 to 20)
#    0.000    1.714    4.286    1.714    2.000    4.571 
#    0.000    0.714    0.000    0.000    0.000    0.000 
#    0.000    0.000    0.000    0.000    0.000    0.000 
#
# Total GULP energy -173477.789455 kJ/mol
# GULP energy per Si atom -12391.270675 kJ/mol
# Density = 2.375253 g / cm^3
# Si number density = 23.806719 Si / 1000 Ang^3
#
#
#
# Elastic Constant Matrix: (Units=GPa)
#
#
# Indices 1 2 3 4 5 6 
#
# 1 90.7175 40.8273 52.7211 -6.5678 30.0243 32.0186
# 2 40.8273 131.9286 35.4007 -29.5960 10.8819 30.0048
# 3 52.7211 35.4007 138.0928 -5.4717 29.8492 9.5417
# 4 -6.5678 -29.5960 -5.4717 32.8914 3.5429 -4.1270
# 5 30.0243 10.8819 29.8492 3.5429 44.1503 10.8226
# 6 32.0186 30.0048 9.5417 -4.1270 10.8226 31.3222
#
#
#
# Elastic Compliance Matrix: (Units=1/GPa)
#
#
# Indices 1 2 3 4 5 6 
#
# 1 0.024432 -0.000336 -0.006137 0.001885 -0.007659 -0.019889
# 2 -0.000336 0.012670 -0.002085 0.009721 0.000171 -0.009936
# 3 -0.006137 -0.002085 0.010536 -0.000111 -0.004003 0.006430
# 4 0.001885 0.009721 -0.000111 0.039635 -0.005809 -0.003976
# 5 -0.007659 0.000171 -0.004003 -0.005809 0.031681 -0.002827
# 6 -0.019889 -0.009936 0.006430 -0.003976 -0.002827 0.060271
#
#
# Mechanical properties :
#
#
# Convention : Reuss Voigt Hill
#
# Bulk Modulus (GPa) = 32.76386 68.73745 50.75065
# Shear Modulus (GPa) = 24.21130 37.12544 30.66837
#
# Velocity S-wave (km/s) = 3.19249 3.95327 3.59308
# Velocity P-wave (km/s) = 5.23275 7.05504 6.21109
#
# Compressibility (1/GPa) = 0.03052144
#
# Stress axis : x y z
#
# Youngs Moduli (GPa) = 40.92939 78.92715 94.91695
#
# Poissons Ratio (x) = 0.02653 0.58252
# Poissons Ratio (y) = 0.01376 0.19788
# Poissons Ratio (z) = 0.25119 0.16455
#
# Static dielectric constant tensor:
#      x y z
#    x 4.213370 0.454610 -0.010430 
#    y 0.454610 5.356660 -0.473840 
#    z -0.010430 -0.473840 4.253810 
# 
# 
# High freq. dielectric constant tensor:
#      x y z
#    x 1.933550 0.016530 0.013090 
#    y 0.016530 1.948190 -0.020220 
#    z 0.013090 -0.020220 1.934070 
# 
# From -- ./inp_files/157474.got.cif
#   From: 2010.06.25/outbox.cif.g09.slc.cpg/sg2_79_cif.got.tgz:157474.got - 2010.06.27 13:26:56.
