data_PCOD8040275
_publ_section_title
;
Structure prediction by ZEFSAII (Michael W. Deem and Ramdas Pophale) SiO2 
 PCOD8040275
Probable space group: P -1
;
_chemical_formula_sum "Si O2"
_cell_formula_units_Z 16
_cell_length_a 20.948508
_cell_length_b 9.503078
_cell_length_c 6.641754
_cell_angle_alpha 54.453524
_cell_angle_beta 107.695268
_cell_angle_gamma 132.531318
_cell_volume 783.980380
_symmetry_space_group_name_H-M "P -1"
_symmetry_group_IT_number 2
_symmetry_cell_setting 'triclinic'
loop_
_space_group_symop_operation_xyz
x,y,z
-x,-y,-z
loop_
_atom_site_type_symbol
_atom_site_label
_atom_site_fract_x
_atom_site_fract_y
_atom_site_fract_z
Si Si1 0.573027 0.316468 0.983553
Si Si2 0.918934 0.520014 0.197559
Si Si3 0.381848 0.924195 0.060276
Si Si4 0.719645 0.694395 0.579349
Si Si5 0.114845 0.809454 0.218328
Si Si6 0.673796 0.423005 0.375120
Si Si7 0.169884 0.278994 0.015263
Si Si8 0.786513 0.136139 0.112735
O O1 0.602119 0.189305 0.003755
O O2 0.593393 0.339154 0.221736
O O3 0.631091 0.568196 0.733717
O O4 0.470384 0.181741 0.966807
O O5 0.883803 0.341170 0.492277
O O6 0.905851 0.702851 0.074049
O O7 0.865351 0.388095 0.053772
O O8 0.021173 0.657254 0.142914
O O9 0.306154 0.924280 0.917382
O O10 0.353182 0.794254 0.352699
O O11 0.691800 0.604009 0.401354
O O12 0.775694 0.962044 0.405673
O O13 0.780564 0.648463 0.781081
O O14 0.191019 0.894756 0.061920
O O15 0.130851 0.025028 0.146905
O O16 0.761969 0.541767 0.235481
#
# Coordination Sequence:
#
# PCOD8040275 Si02
#       8
#     2   2   2   2   2   2   2   2
#     4   9  20  38  58  89 120 157 204 249 293 358
#     4  11  24  41  64  90 121 160 204 251 306 359
#     4  10  21  36  61  89 119 157 206 246 299 360
#     4  10  21  36  60  84 125 156 198 248 296 357
#     4  11  24  42  62  92 124 154 205 257 300 362
#     4  10  18  36  60  85 116 160 197 246 294 354
#     4  11  21  41  64  88 122 166 200 246 306 356
#     4  12  22  40  60  89 124 160 199 254 303 357
#
# _framework density 20.408674000000001
#
# number of rings (size 3 to 8) (size 9 to 14) (size 15 to 20)
#    0.000    1.500    2.500    4.125    0.000    0.500 
#    0.000    1.250    0.000    0.000    0.000    0.000 
#    0.000    0.000    0.000    0.000    0.000    0.000 
#
# Total GULP energy -198379.719257 kJ/mol
# GULP energy per Si atom -12398.732454 kJ/mol
# Density = 2.036222 g / cm^3
# Si number density = 20.408674 Si / 1000 Ang^3
#
#
#
# Elastic Constant Matrix: (Units=GPa)
#
#
# Indices 1 2 3 4 5 6 
#
# 1 88.8439 34.0848 28.5137 2.8298 7.8320 9.3036
# 2 34.0848 89.7620 28.0706 8.6996 6.6703 7.4286
# 3 28.5137 28.0706 90.0427 3.7535 -1.9913 -3.2927
# 4 2.8298 8.6996 3.7535 39.4174 2.5463 1.9786
# 5 7.8320 6.6703 -1.9913 2.5463 20.0822 -3.0769
# 6 9.3036 7.4286 -3.2927 1.9786 -3.0769 32.4903
#
#
#
# Elastic Compliance Matrix: (Units=1/GPa)
#
#
# Indices 1 2 3 4 5 6 
#
# 1 0.014861 -0.003717 -0.003863 0.000710 -0.005705 -0.004380
# 2 -0.003717 0.014336 -0.003386 -0.002190 -0.003796 -0.002783
# 3 -0.003863 -0.003386 0.013657 -0.000765 0.004657 0.003752
# 4 0.000710 -0.002190 -0.000765 0.026166 -0.003200 -0.001677
# 5 -0.005705 -0.003796 0.004657 -0.003200 0.055439 0.008419
# 6 -0.004380 -0.002783 0.003752 -0.001677 0.008419 0.033949
#
#
# Mechanical properties :
#
#
# Convention : Reuss Voigt Hill
#
# Bulk Modulus (GPa) = 47.80119 49.99853 48.89986
# Shear Modulus (GPa) = 26.69334 30.26329 28.47832
#
# Velocity S-wave (km/s) = 3.62047 3.85498 3.73956
# Velocity P-wave (km/s) = 6.39921 6.66080 6.53132
#
# Compressibility (1/GPa) = 0.02091998
#
# Stress axis : x y z
#
# Youngs Moduli (GPa) = 67.29185 69.75583 73.22283
#
# Poissons Ratio (x) = 0.25930 0.28286
# Poissons Ratio (y) = 0.25014 0.24796
# Poissons Ratio (z) = 0.25995 0.23622
#
# Static dielectric constant tensor:
#      x y z
#    x 3.444600 0.199970 -0.040790 
#    y 0.199970 3.850780 -0.070800 
#    z -0.040790 -0.070800 3.764870 
# 
# 
# High freq. dielectric constant tensor:
#      x y z
#    x 1.774140 0.014640 -0.003210 
#    y 0.014640 1.811080 -0.001620 
#    z -0.003210 -0.001620 1.804640 
# 
# From -- ./inp_files/39366.got.cif
#   From: 2010.06.25/outbox.cif.g09.slc.cpg/sg2_20_cif.got.tgz:39366.got - 2010.06.27 13:26:56.
