data_PCOD8040114
_publ_section_title
;
Structure prediction by ZEFSAII (Michael W. Deem and Ramdas Pophale) SiO2 
 PCOD8040114
Probable space group: P -1
;
_chemical_formula_sum "Si O2"
_cell_formula_units_Z 14
_cell_length_a 8.402745
_cell_length_b 7.217960
_cell_length_c 11.561295
_cell_angle_alpha 72.450791
_cell_angle_beta 92.716485
_cell_angle_gamma 126.114418
_cell_volume 532.307706
_symmetry_space_group_name_H-M "P -1"
_symmetry_group_IT_number 2
_symmetry_cell_setting 'triclinic'
loop_
_space_group_symop_operation_xyz
x,y,z
-x,-y,-z
loop_
_atom_site_type_symbol
_atom_site_label
_atom_site_fract_x
_atom_site_fract_y
_atom_site_fract_z
Si Si1 0.299492 0.779463 0.473302
Si Si2 0.007303 0.211298 0.401888
Si Si3 0.390077 0.499912 0.226404
Si Si4 0.250182 0.756037 0.052995
Si Si5 0.771573 0.021678 0.777334
Si Si6 0.823433 0.287964 0.190668
Si Si7 0.766701 0.584459 0.303224
O O1 0.090112 0.708682 0.529351
O O2 0.306705 0.853144 0.326554
O O3 0.277992 0.531437 0.545662
O O4 0.500000 0.000000 0.500000
O O5 0.874995 0.128549 0.293812
O O6 0.235163 0.436296 0.337005
O O7 0.000000 0.000000 0.500000
O O8 0.391103 0.675604 0.101659
O O9 0.611539 0.642427 0.259802
O O10 0.323677 0.251205 0.210140
O O11 0.295158 0.974677 0.095321
O O12 0.022748 0.535822 0.105807
O O13 0.301953 0.852721 0.903321
O O14 0.010381 0.170771 0.746347
O O15 0.717401 0.367425 0.255117
#
# Coordination Sequence:
#
# PCOD8040114 Si02
#       7
#     2   2   2   2   2   2   2
#     4  11  20  39  65  92 133 169 209 272 330 377
#     4  10  18  35  64  93 128 170 209 261 327 374
#     4  11  22  41  64  95 131 166 214 271 314 383
#     4   9  20  41  61  92 127 171 218 262 321 381
#     4  11  22  41  66  92 128 174 213 263 329 386
#     4   8  18  37  63  86 133 171 203 275 320 365
#     4  10  21  38  62  95 127 172 211 265 331 379
#
# _framework density 26.300574999999998
#
# number of rings (size 3 to 8) (size 9 to 14) (size 15 to 20)
#    0.000    2.000    2.857    1.286    0.000    0.571 
#    2.571   13.571    0.000    0.000    0.000    3.000 
#    0.000    0.000    0.000    0.000    0.000    0.000 
#
# Total GULP energy -173491.179118 kJ/mol
# GULP energy per Si atom -12392.227080 kJ/mol
# Density = 2.624071 g / cm^3
# Si number density = 26.300575 Si / 1000 Ang^3
#
#
#
# Elastic Constant Matrix: (Units=GPa)
#
#
# Indices 1 2 3 4 5 6 
#
# 1 128.0300 13.1939 30.6218 1.1961 38.5640 19.3695
# 2 13.1939 57.7080 -11.6019 10.9056 -4.3498 12.8506
# 3 30.6218 -11.6019 125.0442 17.9806 16.4511 3.2286
# 4 1.1961 10.9056 17.9806 26.3464 -4.6455 -1.9586
# 5 38.5640 -4.3498 16.4511 -4.6455 29.1940 2.0340
# 6 19.3695 12.8506 3.2286 -1.9586 2.0340 35.2363
#
#
#
# Elastic Compliance Matrix: (Units=1/GPa)
#
#
# Indices 1 2 3 4 5 6 
#
# 1 0.015501 -0.003346 -0.000841 -0.002823 -0.020518 -0.006196
# 2 -0.003346 0.023450 0.004482 -0.012514 0.003959 -0.008047
# 3 -0.000841 0.004482 0.010973 -0.010528 -0.005911 -0.002421
# 4 -0.002823 -0.012514 -0.010528 0.053905 0.015736 0.009168
# 5 -0.020518 0.003959 -0.005911 0.015736 0.067268 0.007368
# 6 -0.006196 -0.008047 -0.002421 0.009168 0.007368 0.035027
#
#
# Mechanical properties :
#
#
# Convention : Reuss Voigt Hill
#
# Bulk Modulus (GPa) = 19.79747 41.68999 30.74373
# Shear Modulus (GPa) = 22.48481 36.72656 29.60568
#
# Velocity S-wave (km/s) = 2.92707 3.74092 3.35874
# Velocity P-wave (km/s) = 4.35515 5.87751 5.17264
#
# Compressibility (1/GPa) = 0.05051149
#
# Stress axis : x y z
#
# Youngs Moduli (GPa) = 64.51360 42.64416 91.13251
#
# Poissons Ratio (x) = 0.14271 0.07666
# Poissons Ratio (y) = 0.21589 -0.40842
# Poissons Ratio (z) = 0.05427 -0.19111
#
# Static dielectric constant tensor:
#      x y z
#    x 4.535440 0.439700 -0.192730 
#    y 0.439700 4.193450 0.514250 
#    z -0.192730 0.514250 5.326190 
# 
# 
# High freq. dielectric constant tensor:
#      x y z
#    x 2.061050 0.015980 0.006490 
#    y 0.015980 2.041200 0.005380 
#    z 0.006490 0.005380 2.061550 
# 
# From -- ./inp_files/294093.got.cif
#   From: 2010.06.25/outbox.cif.g09.slc.cpg/sg2_148_cif.got.tgz:294093.got - 2010.06.27 13:26:56.
