data_PCOD8040658
_publ_section_title
;
Structure prediction by ZEFSAII (Michael W. Deem and Ramdas Pophale) SiO2 
 PCOD8040658
Probable space group: P -1
;
_chemical_formula_sum "Si O2"
_cell_formula_units_Z 16
_cell_length_a 9.079799
_cell_length_b 11.166242
_cell_length_c 11.372102
_cell_angle_alpha 51.802971
_cell_angle_beta 98.998537
_cell_angle_gamma 116.972502
_cell_volume 794.786365
_symmetry_space_group_name_H-M "P -1"
_symmetry_group_IT_number 2
_symmetry_cell_setting 'triclinic'
loop_
_space_group_symop_operation_xyz
x,y,z
-x,-y,-z
loop_
_atom_site_type_symbol
_atom_site_label
_atom_site_fract_x
_atom_site_fract_y
_atom_site_fract_z
Si Si1 0.844335 0.329224 0.857799
Si Si2 0.284389 0.005669 0.816593
Si Si3 0.198387 0.127259 0.950372
Si Si4 0.083996 0.899277 0.633390
Si Si5 0.660741 0.094198 0.773008
Si Si6 0.225081 0.479200 0.823071
Si Si7 0.855245 0.547973 0.916757
Si Si8 0.331098 0.838153 0.537165
O O1 0.749693 0.263349 0.762839
O O2 0.763293 0.431447 0.861103
O O3 0.039627 0.451956 0.783656
O O4 0.839000 0.175331 0.030073
O O5 0.218251 0.023568 0.669851
O O6 0.280868 0.146771 0.819231
O O7 0.464307 0.012893 0.822241
O O8 0.250485 0.322488 0.871321
O O9 0.280169 0.048054 0.101180
O O10 0.000000 0.000000 0.000000
O O11 0.174369 0.829647 0.595830
O O12 0.931524 0.746034 0.773643
O O13 0.000000 0.000000 0.500000
O O14 0.706195 0.150469 0.610735
O O15 0.348599 0.664044 0.668915
O O16 0.264903 0.491766 0.960833
O O17 0.000000 0.500000 0.000000
O O18 0.500000 0.000000 0.500000
#
# Coordination Sequence:
#
# PCOD8040658 Si02
#       8
#     2   2   2   2   2   2   2   2
#     4  10  18  37  68  95 116 170 219 258 313 387
#     4  11  21  43  65  93 136 168 207 268 332 387
#     4  11  21  40  69 102 124 160 225 277 309 382
#     4  12  24  40  69  98 123 171 221 270 320 384
#     4  11  25  40  66  94 136 174 206 260 342 392
#     4  11  21  40  68  97 129 168 220 273 313 384
#     4  10  18  39  66  92 122 162 220 266 310 379
#     4  12  26  45  64  92 138 175 209 268 341 386
#
# _framework density 20.131195999999999
#
# number of rings (size 3 to 8) (size 9 to 14) (size 15 to 20)
#    0.000    1.000    8.750    1.500    3.500    0.500 
#    2.250    3.750    0.000    0.000    0.000    0.000 
#    0.000    0.000    0.000    0.000    0.000    0.000 
#
# Total GULP energy -198357.535499 kJ/mol
# GULP energy per Si atom -12397.345969 kJ/mol
# Density = 2.008538 g / cm^3
# Si number density = 20.131196 Si / 1000 Ang^3
#
#
#
# Elastic Constant Matrix: (Units=GPa)
#
#
# Indices 1 2 3 4 5 6 
#
# 1 80.9007 40.6714 49.7430 2.5266 10.3397 -11.4006
# 2 40.6714 155.0063 78.3736 10.6817 11.4085 -21.1070
# 3 49.7430 78.3736 138.5309 10.3758 8.9047 -10.0959
# 4 2.5266 10.6817 10.3758 45.9958 -3.5529 -1.0285
# 5 10.3397 11.4085 8.9047 -3.5529 26.7228 2.0738
# 6 -11.4006 -21.1070 -10.0959 -1.0285 2.0738 39.7249
#
#
#
# Elastic Compliance Matrix: (Units=1/GPa)
#
#
# Indices 1 2 3 4 5 6 
#
# 1 0.017037 -0.001216 -0.004905 0.000165 -0.004668 0.003245
# 2 -0.001216 0.009923 -0.004624 -0.001317 -0.002699 0.003855
# 3 -0.004905 -0.004624 0.011633 -0.001310 -0.000106 -0.000937
# 4 0.000165 -0.001317 -0.001310 0.022628 0.003990 -0.000608
# 5 -0.004668 -0.002699 -0.000106 0.003990 0.041322 -0.004855
# 6 0.003245 0.003855 -0.000937 -0.000608 -0.004855 0.028152
#
#
# Mechanical properties :
#
#
# Convention : Reuss Voigt Hill
#
# Bulk Modulus (GPa) = 58.47454 79.11264 68.79359
# Shear Modulus (GPa) = 31.66833 36.19869 33.93351
#
# Velocity S-wave (km/s) = 3.97053 4.24505 4.11008
# Velocity P-wave (km/s) = 7.08025 7.96311 7.53462
#
# Compressibility (1/GPa) = 0.01710146
#
# Stress axis : x y z
#
# Youngs Moduli (GPa) = 58.69562 100.77879 85.96424
#
# Poissons Ratio (x) = 0.12254 0.42170
# Poissons Ratio (y) = 0.07137 0.39751
# Poissons Ratio (z) = 0.28793 0.46601
#
# Static dielectric constant tensor:
#      x y z
#    x 3.509400 -0.308520 -0.145560 
#    y -0.308520 4.105330 0.442130 
#    z -0.145560 0.442130 3.272020 
# 
# 
# High freq. dielectric constant tensor:
#      x y z
#    x 1.764320 -0.013530 -0.009430 
#    y -0.013530 1.803210 0.009480 
#    z -0.009430 0.009480 1.776620 
# 
# From -- ./inp_files/389119.got.cif
#   From: 2010.06.25/outbox.cif.g09.slc.cpg/sg2_195_cif.got.tgz:389119.got - 2010.06.27 13:26:56.
