data_PCOD8040283
_publ_section_title
;
Structure prediction by ZEFSAII (Michael W. Deem and Ramdas Pophale) SiO2 
 PCOD8040283
Probable space group: P -1
;
_chemical_formula_sum "Si O2"
_cell_formula_units_Z 16
_cell_length_a 9.664017
_cell_length_b 10.073613
_cell_length_c 11.391332
_cell_angle_alpha 95.750107
_cell_angle_beta 123.769561
_cell_angle_gamma 110.407626
_cell_volume 800.116007
_symmetry_space_group_name_H-M "P -1"
_symmetry_group_IT_number 2
_symmetry_cell_setting 'triclinic'
loop_
_space_group_symop_operation_xyz
x,y,z
-x,-y,-z
loop_
_atom_site_type_symbol
_atom_site_label
_atom_site_fract_x
_atom_site_fract_y
_atom_site_fract_z
Si Si1 0.326523 0.247743 0.333051
Si Si2 0.506091 0.419150 0.635576
Si Si3 0.394039 0.142497 0.108031
Si Si4 0.057328 0.815471 0.877939
Si Si5 0.699942 0.649887 0.087462
Si Si6 0.159302 0.381848 0.616907
Si Si7 0.861046 0.565949 0.952218
Si Si8 0.180065 0.697904 0.710663
O O1 0.448162 0.267828 0.512266
O O2 0.364551 0.421987 0.357790
O O3 0.397248 0.199752 0.247130
O O4 0.099483 0.139519 0.242294
O O5 0.318363 0.417812 0.597263
O O6 0.649696 0.428149 0.805856
O O7 0.603907 0.165014 0.187299
O O8 0.336030 0.227845 0.989895
O O9 0.250864 0.963666 0.017471
O O10 0.099330 0.711958 0.799328
O O11 0.949685 0.722127 0.934541
O O12 0.807403 0.711039 0.269106
O O13 0.500000 0.500000 0.000000
O O14 0.842873 0.611238 0.079490
O O15 0.183639 0.539804 0.693774
O O16 0.949464 0.287435 0.452159
O O17 0.000000 0.500000 0.000000
#
# Coordination Sequence:
#
# PCOD8040283 Si02
#       8
#     2   2   2   2   2   2   2   2
#     4  10  19  35  61  85 112 152 202 242 293 347
#     4  10  18  36  60  89 117 149 200 251 294 346
#     4  12  23  40  63  87 123 164 197 248 292 361
#     4  11  23  39  61  89 120 158 206 237 295 364
#     4  12  21  39  59  89 123 158 196 244 307 349
#     4  11  21  36  63  88 122 153 201 252 295 351
#     4  11  23  37  62  92 119 152 198 254 300 346
#     4  11  22  38  61  91 118 160 203 248 295 345
#
# _framework density 19.9971
#
# number of rings (size 3 to 8) (size 9 to 14) (size 15 to 20)
#    0.000    1.000    7.500    1.500    0.000    1.000 
#    0.000    0.625    2.750    1.500    0.000    0.000 
#    0.000    0.000    0.000    0.000    0.000    0.000 
#
# Total GULP energy -198257.388624 kJ/mol
# GULP energy per Si atom -12391.086789 kJ/mol
# Density = 1.995159 g / cm^3
# Si number density = 19.997100 Si / 1000 Ang^3
#
#
#
# Elastic Constant Matrix: (Units=GPa)
#
#
# Indices 1 2 3 4 5 6 
#
# 1 116.3804 21.4019 36.7133 -3.2663 2.8069 15.6404
# 2 21.4019 46.4035 34.7992 4.2397 -0.0310 7.6733
# 3 36.7133 34.7992 119.5506 1.0713 5.0443 9.6585
# 4 -3.2663 4.2397 1.0713 20.7646 2.3425 6.2435
# 5 2.8069 -0.0310 5.0443 2.3425 46.8918 1.2216
# 6 15.6404 7.6733 9.6585 6.2435 1.2216 22.0427
#
#
#
# Elastic Compliance Matrix: (Units=1/GPa)
#
#
# Indices 1 2 3 4 5 6 
#
# 1 0.010815 -0.002754 -0.001965 0.004560 -0.000480 -0.007119
# 2 -0.002754 0.029483 -0.007450 -0.005116 0.001337 -0.003669
# 3 -0.001965 -0.007450 0.011272 0.001120 -0.001124 -0.001206
# 4 0.004560 -0.005116 0.001120 0.055429 -0.002710 -0.017495
# 5 -0.000480 0.001337 -0.001124 -0.002710 0.021613 -0.000062
# 6 -0.007119 -0.003669 -0.001206 -0.017495 -0.000062 0.057183
#
#
# Mechanical properties :
#
#
# Convention : Reuss Voigt Hill
#
# Bulk Modulus (GPa) = 36.72353 52.01814 44.37084
# Shear Modulus (GPa) = 22.80920 30.56783 26.68851
#
# Velocity S-wave (km/s) = 3.38098 3.91399 3.65721
# Velocity P-wave (km/s) = 5.80049 6.81873 6.33012
#
# Compressibility (1/GPa) = 0.02723050
#
# Stress axis : x y z
#
# Youngs Moduli (GPa) = 92.46285 33.91836 88.71872
#
# Poissons Ratio (x) = 0.09342 0.17434
# Poissons Ratio (y) = 0.25466 0.66097
# Poissons Ratio (z) = 0.18169 0.25270
#
# Static dielectric constant tensor:
#      x y z
#    x 4.244440 -0.883200 2.420140 
#    y -0.883200 5.509530 -5.130820 
#    z 2.420140 -5.130820 15.563570 
# 
# 
# High freq. dielectric constant tensor:
#      x y z
#    x 1.800710 0.014950 0.000790 
#    y 0.014950 1.718520 0.004220 
#    z 0.000790 0.004220 1.800040 
# 
# From -- ./inp_files/390499.got.cif
#   From: 2010.06.25/outbox.cif.g09.slc.cpg/sg2_196_cif.got.tgz:390499.got - 2010.06.27 13:26:56.
