data_PCOD8040330
_publ_section_title
;
Structure prediction by ZEFSAII (Michael W. Deem and Ramdas Pophale) SiO2 
 PCOD8040330
Probable space group: P -1
;
_chemical_formula_sum "Si O2"
_cell_formula_units_Z 16
_cell_length_a 14.286116
_cell_length_b 11.796208
_cell_length_c 13.727580
_cell_angle_alpha 125.638787
_cell_angle_beta 139.517684
_cell_angle_gamma 30.812598
_cell_volume 751.792850
_symmetry_space_group_name_H-M "P -1"
_symmetry_group_IT_number 2
_symmetry_cell_setting 'triclinic'
loop_
_space_group_symop_operation_xyz
x,y,z
-x,-y,-z
loop_
_atom_site_type_symbol
_atom_site_label
_atom_site_fract_x
_atom_site_fract_y
_atom_site_fract_z
Si Si1 0.549045 0.828460 0.089845
Si Si2 0.663185 0.998438 0.802214
Si Si3 0.329783 0.325324 0.349879
Si Si4 0.825395 0.727483 0.092292
Si Si5 0.574969 0.269381 0.696578
Si Si6 0.630462 0.287048 0.192001
Si Si7 0.971234 0.117803 0.833014
Si Si8 0.608794 0.628059 0.774053
O O1 0.561205 0.840485 0.221434
O O2 0.721770 0.801503 0.157623
O O3 0.572881 0.645601 0.993190
O O4 0.285628 0.066048 0.958726
O O5 0.591417 0.127876 0.711779
O O6 0.722531 0.793826 0.720838
O O7 0.868759 0.921925 0.982634
O O8 0.409255 0.351288 0.517845
O O9 0.497735 0.228194 0.340164
O O10 0.091496 0.567028 0.235601
O O11 0.780016 0.613249 0.949517
O O12 0.447579 0.493022 0.764025
O O13 0.835257 0.104036 0.781704
O O14 0.613477 0.241551 0.267496
O O15 0.881550 0.072885 0.231263
O O16 0.767165 0.370042 0.753609
#
# Coordination Sequence:
#
# PCOD8040330 Si02
#       8
#     2   2   2   2   2   2   2   2
#     4   9  19  35  65  95 112 149 211 256 291 359
#     4  11  21  41  64  86 119 166 210 250 287 357
#     4  12  22  38  62  92 125 161 193 254 315 358
#     4  10  18  36  61  96 121 146 198 259 313 349
#     4  11  26  42  56  88 133 165 203 242 299 368
#     4   9  21  40  60  88 120 156 198 255 302 355
#     4  10  21  42  67  90 112 162 212 252 300 357
#     4  10  19  37  66  92 117 147 205 258 307 359
#
# _framework density 21.28246
#
# number of rings (size 3 to 8) (size 9 to 14) (size 15 to 20)
#    0.000    1.750    2.500    2.625    0.000    4.000 
#    4.500    3.750    0.000    0.000    0.000    0.000 
#    0.000    0.000    0.000    0.000    0.000    0.000 
#
# Total GULP energy -198259.313186 kJ/mol
# GULP energy per Si atom -12391.207074 kJ/mol
# Density = 2.123402 g / cm^3
# Si number density = 21.282460 Si / 1000 Ang^3
#
#
#
# Elastic Constant Matrix: (Units=GPa)
#
#
# Indices 1 2 3 4 5 6 
#
# 1 115.6126 32.5145 9.1050 -4.6611 -16.5924 -4.3534
# 2 32.5145 75.7494 16.6767 9.9628 -2.5553 -14.0953
# 3 9.1050 16.6767 53.0797 5.3471 -6.3344 -7.2373
# 4 -4.6611 9.9628 5.3471 10.5824 4.6655 -5.0213
# 5 -16.5924 -2.5553 -6.3344 4.6655 22.3232 2.0537
# 6 -4.3534 -14.0953 -7.2373 -5.0213 2.0537 34.0483
#
#
#
# Elastic Compliance Matrix: (Units=1/GPa)
#
#
# Indices 1 2 3 4 5 6 
#
# 1 0.011470 -0.005712 -0.000235 0.007725 0.006207 -0.000183
# 2 -0.005712 0.019346 -0.002702 -0.017662 0.000519 0.004068
# 3 -0.000235 -0.002702 0.022046 -0.011627 0.008079 0.001335
# 4 0.007725 -0.017662 -0.011627 0.140188 -0.030138 0.013697
# 5 0.006207 0.000519 0.008079 -0.030138 0.058544 -0.005250
# 6 -0.000183 0.004068 0.001335 0.013697 -0.005250 0.033651
#
#
# Mechanical properties :
#
#
# Convention : Reuss Voigt Hill
#
# Bulk Modulus (GPa) = 28.11978 40.11490 34.11734
# Shear Modulus (GPa) = 15.90337 25.80048 20.85192
#
# Velocity S-wave (km/s) = 2.73656 3.48557 3.13352
# Velocity P-wave (km/s) = 4.81937 5.92357 5.39977
#
# Compressibility (1/GPa) = 0.03556216
#
# Stress axis : x y z
#
# Youngs Moduli (GPa) = 87.18398 51.69092 45.35871
#
# Poissons Ratio (x) = 0.29528 0.01067
# Poissons Ratio (y) = 0.49802 0.12258
# Poissons Ratio (z) = 0.02051 0.13969
#
# Static dielectric constant tensor:
#      x y z
#    x 4.289210 -0.187210 0.028340 
#    y -0.187210 3.748910 0.268800 
#    z 0.028340 0.268800 3.435870 
# 
# 
# High freq. dielectric constant tensor:
#      x y z
#    x 1.863110 -0.003430 0.003030 
#    y -0.003430 1.817110 0.030580 
#    z 0.003030 0.030580 1.791290 
# 
# From -- ./inp_files/532679.got.cif
#   From: 2010.06.25/outbox.cif.g09.slc.cpg/sg2_267_cif.got.tgz:532679.got - 2010.06.27 13:26:56.
