data_PCOD8040365
_publ_section_title
;
Structure prediction by ZEFSAII (Michael W. Deem and Ramdas Pophale) SiO2 
 PCOD8040365
Probable space group: P -1
;
_chemical_formula_sum "Si O2"
_cell_formula_units_Z 16
_cell_length_a 9.712003
_cell_length_b 11.905866
_cell_length_c 8.972694
_cell_angle_alpha 93.326769
_cell_angle_beta 55.075651
_cell_angle_gamma 125.759177
_cell_volume 627.854181
_symmetry_space_group_name_H-M "P -1"
_symmetry_group_IT_number 2
_symmetry_cell_setting 'triclinic'
loop_
_space_group_symop_operation_xyz
x,y,z
-x,-y,-z
loop_
_atom_site_type_symbol
_atom_site_label
_atom_site_fract_x
_atom_site_fract_y
_atom_site_fract_z
Si Si1 0.433302 0.384283 0.822319
Si Si2 0.259333 0.522760 0.105726
Si Si3 0.043028 0.186113 0.860010
Si Si4 0.370609 0.707552 0.795934
Si Si5 0.148358 0.164736 0.484002
Si Si6 0.457083 0.994216 0.850207
Si Si7 0.191882 0.478192 0.637981
Si Si8 0.069439 0.701749 0.477293
O O1 0.568661 0.367835 0.856233
O O2 0.191602 0.218244 0.914857
O O3 0.584532 0.466823 0.584428
O O4 0.378378 0.479991 0.932020
O O5 0.018286 0.374231 0.311919
O O6 0.207228 0.604574 0.031977
O O7 0.119465 0.140976 0.676470
O O8 0.095823 0.341270 0.800945
O O9 0.776173 0.046323 0.042282
O O10 0.589593 0.732869 0.707681
O O11 0.439621 0.868592 0.763622
O O12 0.258980 0.619738 0.701876
O O13 0.062069 0.244061 0.481711
O O14 0.000000 0.000000 0.500000
O O15 0.661201 0.159385 0.667578
O O16 0.500000 0.000000 0.000000
O O17 0.000459 0.418478 0.621660
#
# Coordination Sequence:
#
# PCOD8040365 Si02
#       8
#     2   2   2   2   2   2   2   2
#     4  10  18  36  62  99 126 163 210 265 332 360
#     4  10  21  36  65  98 132 164 210 275 323 380
#     4  11  20  35  63  93 129 167 208 267 316 375
#     4  12  22  38  69 106 119 160 228 272 314 376
#     4  11  19  34  64  96 122 161 217 270 303 371
#     4  12  24  43  63  93 135 173 210 259 327 393
#     4  10  19  34  67  95 123 157 223 279 296 365
#     4  10  22  40  63  93 132 174 207 265 335 370
#
# _framework density 25.483623000000001
#
# number of rings (size 3 to 8) (size 9 to 14) (size 15 to 20)
#    0.000    1.250    6.250    3.375    0.000    0.500 
#    0.000    1.250    0.000   19.500    0.000    0.000 
#    0.000    0.000    0.000    0.000    0.000    0.000 
#
# Total GULP energy -198368.050385 kJ/mol
# GULP energy per Si atom -12398.003149 kJ/mol
# Density = 2.542562 g / cm^3
# Si number density = 25.483623 Si / 1000 Ang^3
#
#
#
# Elastic Constant Matrix: (Units=GPa)
#
#
# Indices 1 2 3 4 5 6 
#
# 1 55.3759 28.8349 23.2647 -11.7923 12.7928 25.8332
# 2 28.8349 168.5396 60.4779 7.3505 5.1371 36.3672
# 3 23.2647 60.4779 127.5621 -18.2803 11.9632 16.2605
# 4 -11.7923 7.3505 -18.2803 48.8674 13.4707 -13.3999
# 5 12.7928 5.1371 11.9632 13.4707 18.9183 -1.6211
# 6 25.8332 36.3672 16.2605 -13.3999 -1.6211 36.8023
#
#
#
# Elastic Compliance Matrix: (Units=1/GPa)
#
#
# Indices 1 2 3 4 5 6 
#
# 1 0.044786 -0.002753 0.003462 0.018475 -0.047075 -0.025593
# 2 -0.002753 0.010340 -0.005276 -0.008782 0.007890 -0.008804
# 3 0.003462 -0.005276 0.012861 0.011254 -0.017015 0.000450
# 4 0.018475 -0.008782 0.011254 0.045388 -0.049106 0.005101
# 5 -0.047075 0.007890 -0.017015 -0.049106 0.130041 0.020614
# 6 -0.025593 -0.008804 0.000450 0.005101 0.020614 0.056404
#
#
# Mechanical properties :
#
#
# Convention : Reuss Voigt Hill
#
# Bulk Modulus (GPa) = 16.99178 64.07028 40.53103
# Shear Modulus (GPa) = 15.21740 36.84428 26.03084
#
# Velocity S-wave (km/s) = 2.44630 3.80650 3.19952
# Velocity P-wave (km/s) = 3.82902 6.67200 5.43953
#
# Compressibility (1/GPa) = 0.05885199
#
# Stress axis : x y z
#
# Youngs Moduli (GPa) = 22.32826 96.71192 77.75678
#
# Poissons Ratio (x) = 0.26626 -0.26919
# Poissons Ratio (y) = 0.06147 0.41027
# Poissons Ratio (z) = -0.07730 0.51028
#
# Static dielectric constant tensor:
#      x y z
#    x 3.361130 1.402460 0.176350 
#    y 1.402460 3.835460 -0.262570 
#    z 0.176350 -0.262570 4.754130 
# 
# 
# High freq. dielectric constant tensor:
#      x y z
#    x 1.997800 0.021150 -0.022320 
#    y 0.021150 2.020840 0.009240 
#    z -0.022320 0.009240 2.032900 
# 
# From -- ./inp_files/273594.got.cif
#   From: 2010.06.25/outbox.cif.g09.slc.cpg/sg2_137_cif.got.tgz:273594.got - 2010.06.27 13:26:56.
