data_PCOD8040120
_publ_section_title
;
Structure prediction by ZEFSAII (Michael W. Deem and Ramdas Pophale) SiO2 
 PCOD8040120
Probable space group: P -1
;
_chemical_formula_sum "Si O2"
_cell_formula_units_Z 16
_cell_length_a 12.029633
_cell_length_b 13.026305
_cell_length_c 11.347880
_cell_angle_alpha 47.376996
_cell_angle_beta 144.403212
_cell_angle_gamma 135.280444
_cell_volume 706.542135
_symmetry_space_group_name_H-M "P -1"
_symmetry_group_IT_number 2
_symmetry_cell_setting 'triclinic'
loop_
_space_group_symop_operation_xyz
x,y,z
-x,-y,-z
loop_
_atom_site_type_symbol
_atom_site_label
_atom_site_fract_x
_atom_site_fract_y
_atom_site_fract_z
Si Si1 0.249813 0.329284 0.356797
Si Si2 0.698697 0.936361 0.507080
Si Si3 0.171494 0.675837 0.068838
Si Si4 0.474094 0.316403 0.779827
Si Si5 0.067363 0.089368 0.868953
Si Si6 0.354294 0.414949 0.834920
Si Si7 0.621838 0.364531 0.500269
Si Si8 0.377774 0.013094 0.036237
O O1 0.189628 0.154254 0.403649
O O2 0.296409 0.342045 0.526944
O O3 0.543512 0.575915 0.618292
O O4 0.063929 0.386959 0.128282
O O5 0.509925 0.808835 0.515206
O O6 0.598289 0.028268 0.268833
O O7 0.864574 0.053565 0.642718
O O8 0.305800 0.607901 0.155179
O O9 0.192146 0.627834 0.258722
O O10 0.263948 0.854553 0.998986
O O11 0.480780 0.363667 0.885458
O O12 0.417817 0.136638 0.873039
O O13 0.163507 0.270894 0.830377
O O14 0.234299 0.033962 0.999499
O O15 0.000000 0.000000 0.000000
O O16 0.281410 0.535625 0.609135
O O17 0.500000 0.500000 0.000000
#
# Coordination Sequence:
#
# PCOD8040120 Si02
#       8
#     2   2   2   2   2   2   2   2
#     4   9  19  35  65  97 127 163 196 260 318 375
#     4   9  19  37  65  94 124 163 204 257 319 367
#     4  10  18  35  64  97 130 162 201 260 317 381
#     4  10  22  35  59  98 127 170 205 253 321 378
#     4  11  23  40  67  93 122 169 215 257 313 373
#     4  11  24  44  65  86 130 175 212 260 306 369
#     4   8  19  39  62  91 127 168 205 246 317 370
#     4  10  19  36  59  96 134 157 201 263 322 375
#
# _framework density 22.645499000000001
#
# number of rings (size 3 to 8) (size 9 to 14) (size 15 to 20)
#    0.750    1.500    2.500    1.125    0.000    5.000 
#    0.000    6.250    0.000   12.000    0.000    0.000 
#    0.000    0.000    0.000    0.000    0.000    0.000 
#
# Total GULP energy -198302.805782 kJ/mol
# GULP energy per Si atom -12393.925361 kJ/mol
# Density = 2.259396 g / cm^3
# Si number density = 22.645499 Si / 1000 Ang^3
#
#
#
# Elastic Constant Matrix: (Units=GPa)
#
#
# Indices 1 2 3 4 5 6 
#
# 1 65.4997 24.8433 50.9381 10.6645 -15.5267 14.8528
# 2 24.8433 143.6154 72.1611 20.8801 -21.5460 14.7492
# 3 50.9381 72.1611 184.3834 17.3760 0.2188 20.3634
# 4 10.6645 20.8801 17.3760 33.4383 2.1308 -7.0402
# 5 -15.5267 -21.5460 0.2188 2.1308 43.6392 -4.1083
# 6 14.8528 14.7492 20.3634 -7.0402 -4.1083 25.8561
#
#
#
# Elastic Compliance Matrix: (Units=1/GPa)
#
#
# Indices 1 2 3 4 5 6 
#
# 1 0.025655 0.002763 -0.005777 -0.010267 0.009798 -0.013002
# 2 0.002763 0.010980 -0.003704 -0.007468 0.006224 -0.005978
# 3 -0.005777 -0.003704 0.008790 -0.000639 -0.004115 -0.002320
# 4 -0.010267 -0.007468 -0.000639 0.043117 -0.007445 0.021218
# 5 0.009798 0.006224 -0.004115 -0.007445 0.029551 -0.003270
# 6 -0.013002 -0.005978 -0.002320 0.021218 -0.003270 0.056639
#
#
# Mechanical properties :
#
#
# Convention : Reuss Voigt Hill
#
# Bulk Modulus (GPa) = 31.26088 76.59818 53.92953
# Shear Modulus (GPa) = 25.14718 36.95712 31.05215
#
# Velocity S-wave (km/s) = 3.33599 4.04417 3.70703
# Velocity P-wave (km/s) = 5.35470 7.46360 6.49531
#
# Compressibility (1/GPa) = 0.03198886
#
# Stress axis : x y z
#
# Youngs Moduli (GPa) = 38.97947 91.07860 113.76411
#
# Poissons Ratio (x) = -0.25163 0.65718
# Poissons Ratio (y) = -0.10769 0.42135
# Poissons Ratio (z) = 0.22517 0.33733
#
# Static dielectric constant tensor:
#      x y z
#    x 3.742510 0.003470 0.073290 
#    y 0.003470 4.444120 -0.313460 
#    z 0.073290 -0.313460 4.111140 
# 
# 
# High freq. dielectric constant tensor:
#      x y z
#    x 1.853760 -0.002560 -0.002020 
#    y -0.002560 1.924460 -0.017620 
#    z -0.002020 -0.017620 1.895770 
# 
# From -- ./inp_files/454578.got.cif
#   From: 2010.06.25/outbox.cif.g09.slc.cpg/sg2_228_cif.got.tgz:454578.got - 2010.06.27 13:26:56.
