data_PCOD8040845
_publ_section_title
;
Structure prediction by ZEFSAII (Michael W. Deem and Ramdas Pophale) SiO2 
 PCOD8040845
Probable space group: P -1
;
_chemical_formula_sum "Si O2"
_cell_formula_units_Z 16
_cell_length_a 9.913409
_cell_length_b 15.207757
_cell_length_c 22.619669
_cell_angle_alpha 19.071012
_cell_angle_beta 45.651617
_cell_angle_gamma 45.331357
_cell_volume 783.592817
_symmetry_space_group_name_H-M "P -1"
_symmetry_group_IT_number 2
_symmetry_cell_setting 'triclinic'
loop_
_space_group_symop_operation_xyz
x,y,z
-x,-y,-z
loop_
_atom_site_type_symbol
_atom_site_label
_atom_site_fract_x
_atom_site_fract_y
_atom_site_fract_z
Si Si1 0.009975 0.177960 0.205387
Si Si2 0.860590 0.098096 0.533811
Si Si3 0.613086 0.988610 0.148045
Si Si4 0.415771 0.187985 0.605796
Si Si5 0.629011 0.560899 0.758699
Si Si6 0.713154 0.286958 0.622161
Si Si7 0.358860 0.013178 0.609683
Si Si8 0.072857 0.424060 0.722939
O O1 0.804447 0.101988 0.302973
O O2 0.077499 0.080783 0.312544
O O3 0.159512 0.017003 0.212639
O O4 0.000000 0.500000 0.000000
O O5 0.642361 0.092013 0.587104
O O6 0.876626 0.413712 0.338280
O O7 0.000000 0.000000 0.500000
O O8 0.652242 0.978461 0.212830
O O9 0.474462 0.767098 0.321258
O O10 0.809280 0.886714 0.115406
O O11 0.522838 0.296977 0.959513
O O12 0.353300 0.519551 0.423736
O O13 0.307636 0.094351 0.641316
O O14 0.546744 0.774497 0.699819
O O15 0.848082 0.430662 0.786890
O O16 0.598068 0.712149 0.609258
O O17 0.854815 0.435442 0.446282
#
# Coordination Sequence:
#
# PCOD8040845 Si02
#       8
#     2   2   2   2   2   2   2   2
#     4  11  23  44  65  89 124 167 207 247 308 373
#     4  11  21  39  66  89 122 160 208 250 302 368
#     4  11  20  39  67  92 118 160 214 258 294 361
#     4  11  22  40  65  94 118 161 212 257 299 359
#     4  11  23  40  60  88 128 167 196 248 318 367
#     4  10  19  40  67  86 122 165 209 248 302 365
#     4  11  25  41  59  89 134 164 194 250 322 367
#     4  10  18  39  62  88 120 161 208 245 308 361
#
# _framework density 20.418768
#
# number of rings (size 3 to 8) (size 9 to 14) (size 15 to 20)
#    0.000    1.250    6.250    2.625    1.750    1.000 
#    2.250    1.875    0.000    0.000    0.000    0.000 
#    0.000    0.000    0.000    0.000    0.000    0.000 
#
# Total GULP energy -198272.594570 kJ/mol
# GULP energy per Si atom -12392.037161 kJ/mol
# Density = 2.037229 g / cm^3
# Si number density = 20.418768 Si / 1000 Ang^3
#
#
#
# Elastic Constant Matrix: (Units=GPa)
#
#
# Indices 1 2 3 4 5 6 
#
# 1 61.7068 34.5699 24.4515 -7.2534 -2.5165 7.4757
# 2 34.5699 151.1497 46.4575 -21.0665 7.7658 5.0551
# 3 24.4515 46.4575 115.9884 -31.0571 0.3818 11.4948
# 4 -7.2534 -21.0665 -31.0571 29.4923 -5.3908 -1.6472
# 5 -2.5165 7.7658 0.3818 -5.3908 17.2842 -1.2182
# 6 7.4757 5.0551 11.4948 -1.6472 -1.2182 35.0716
#
#
#
# Elastic Compliance Matrix: (Units=1/GPa)
#
#
# Indices 1 2 3 4 5 6 
#
# 1 0.019876 -0.003947 -0.002244 0.000402 0.004648 -0.002752
# 2 -0.003947 0.008651 -0.001983 0.002470 -0.003631 0.000234
# 3 -0.002244 -0.001983 0.013646 0.012986 0.004105 -0.002956
# 4 0.000402 0.002470 0.012986 0.052049 0.014773 -0.001740
# 5 0.004648 -0.003631 0.004105 0.014773 0.064761 0.001130
# 6 -0.002752 0.000234 -0.002956 -0.001740 0.001130 0.029992
#
#
# Mechanical properties :
#
#
# Convention : Reuss Voigt Hill
#
# Bulk Modulus (GPa) = 38.72249 59.97806 49.35027
# Shear Modulus (GPa) = 23.37201 31.26072 27.31636
#
# Velocity S-wave (km/s) = 3.38691 3.91702 3.66157
# Velocity P-wave (km/s) = 5.85664 7.06365 6.48827
#
# Compressibility (1/GPa) = 0.02582479
#
# Stress axis : x y z
#
# Youngs Moduli (GPa) = 50.31115 115.59187 73.28423
#
# Poissons Ratio (x) = 0.45624 0.16447
# Poissons Ratio (y) = 0.19858 0.14531
# Poissons Ratio (z) = 0.11291 0.22920
#
# Static dielectric constant tensor:
#      x y z
#    x 3.441290 -0.224820 -0.084570 
#    y -0.224820 4.236890 -0.378570 
#    z -0.084570 -0.378570 3.615770 
# 
# 
# High freq. dielectric constant tensor:
#      x y z
#    x 1.775430 -0.018240 -0.018510 
#    y -0.018240 1.820870 -0.023120 
#    z -0.018510 -0.023120 1.782150 
# 
# From -- ./inp_files/590382.got.cif
#   From: 2010.06.25/outbox.cif.g09.slc.cpg/sg2_296_cif.got.tgz:590382.got - 2010.06.27 13:26:56.
