data_PCOD8040255
_publ_section_title
;
Structure prediction by ZEFSAII (Michael W. Deem and Ramdas Pophale) SiO2 
 PCOD8040255
Probable space group: P -1
;
_chemical_formula_sum "Si O2"
_cell_formula_units_Z 16
_cell_length_a 11.581245
_cell_length_b 6.930677
_cell_length_c 12.288840
_cell_angle_alpha 128.513816
_cell_angle_beta 88.902488
_cell_angle_gamma 99.685212
_cell_volume 756.095622
_symmetry_space_group_name_H-M "P -1"
_symmetry_group_IT_number 2
_symmetry_cell_setting 'triclinic'
loop_
_space_group_symop_operation_xyz
x,y,z
-x,-y,-z
loop_
_atom_site_type_symbol
_atom_site_label
_atom_site_fract_x
_atom_site_fract_y
_atom_site_fract_z
Si Si1 0.375790 0.276417 0.317110
Si Si2 0.118377 0.282128 0.348148
Si Si3 0.258921 0.376023 0.758549
Si Si4 0.710156 0.092174 0.995146
Si Si5 0.915432 0.485146 0.346292
Si Si6 0.038325 0.786272 0.065732
Si Si7 0.560515 0.775529 0.458735
Si Si8 0.804331 0.933733 0.133754
O O1 0.255428 0.381032 0.355565
O O2 0.475530 0.504372 0.355565
O O3 0.399979 0.172865 0.398976
O O4 0.364928 0.042311 0.151395
O O5 0.086548 0.331316 0.488593
O O6 0.047668 0.428030 0.314564
O O7 0.082907 0.978928 0.231876
O O8 0.129895 0.385888 0.713477
O O9 0.327834 0.231336 0.622242
O O10 0.241395 0.238870 0.825033
O O11 0.335118 0.655590 0.881700
O O12 0.852360 0.183627 0.008253
O O13 0.702096 0.902647 0.032037
O O14 0.827232 0.219895 0.277706
O O15 0.919932 0.864564 0.049402
O O16 0.000000 0.500000 0.000000
O O17 0.500000 0.000000 0.500000
#
# Coordination Sequence:
#
# PCOD8040255 Si02
#       8
#     2   2   2   2   2   2   2   2
#     4  10  23  46  66  90 127 169 211 270 318 364
#     4   9  18  37  64  92 129 161 208 253 316 377
#     4  11  22  40  65  96 129 166 213 264 315 373
#     4  10  22  40  67  90 126 168 214 257 312 386
#     4   9  19  37  61  94 128 161 203 254 315 379
#     4  10  18  36  59  92 132 169 202 247 312 380
#     4  11  26  44  68  91 123 168 219 272 321 371
#     4  10  21  35  62  91 132 170 202 255 313 375
#
# _framework density 21.161342999999999
#
# number of rings (size 3 to 8) (size 9 to 14) (size 15 to 20)
#    0.000    2.000    2.500    0.375    1.750    3.500 
#    0.000    8.125    0.000    0.000    0.000    0.000 
#    0.000    0.000    0.000    0.000    0.000    0.000 
#
# Total GULP energy -198285.667770 kJ/mol
# GULP energy per Si atom -12392.854236 kJ/mol
# Density = 2.111318 g / cm^3
# Si number density = 21.161343 Si / 1000 Ang^3
#
#
#
# Elastic Constant Matrix: (Units=GPa)
#
#
# Indices 1 2 3 4 5 6 
#
# 1 70.1008 34.3767 29.7419 -7.5662 7.6337 -13.0236
# 2 34.3767 116.1568 46.9126 -16.2195 1.8442 -19.1064
# 3 29.7419 46.9126 112.6029 -5.9943 3.8628 -21.3910
# 4 -7.5662 -16.2195 -5.9943 29.9400 -6.3563 -1.8528
# 5 7.6337 1.8442 3.8628 -6.3563 28.7064 -0.5250
# 6 -13.0236 -19.1064 -21.3910 -1.8528 -0.5250 24.0563
#
#
#
# Elastic Compliance Matrix: (Units=1/GPa)
#
#
# Indices 1 2 3 4 5 6 
#
# 1 0.018491 -0.003351 -0.002219 0.001927 -0.003877 0.005440
# 2 -0.003351 0.012634 -0.002954 0.006201 0.001962 0.006114
# 3 -0.002219 -0.002954 0.012131 0.000593 -0.000588 0.007272
# 4 0.001927 0.006201 0.000593 0.039659 0.007969 0.009723
# 5 -0.003877 0.001962 -0.000588 0.007969 0.037591 0.000370
# 6 0.005440 0.006114 0.007272 0.009723 0.000370 0.056593
#
#
# Mechanical properties :
#
#
# Convention : Reuss Voigt Hill
#
# Bulk Modulus (GPa) = 38.15700 57.88034 48.01867
# Shear Modulus (GPa) = 24.64481 29.06249 26.85365
#
# Velocity S-wave (km/s) = 3.41635 3.70993 3.56616
# Velocity P-wave (km/s) = 5.79936 6.76482 6.30061
#
# Compressibility (1/GPa) = 0.02620751
#
# Stress axis : x y z
#
# Youngs Moduli (GPa) = 54.08156 79.14954 82.43422
#
# Poissons Ratio (x) = 0.26521 0.18292
# Poissons Ratio (y) = 0.18121 0.24354
# Poissons Ratio (z) = 0.12001 0.23384
#
# Static dielectric constant tensor:
#      x y z
#    x 3.879700 -0.261950 -0.059880 
#    y -0.261950 3.681270 0.062850 
#    z -0.059880 0.062850 4.053110 
# 
# 
# High freq. dielectric constant tensor:
#      x y z
#    x 1.814930 -0.017740 -0.005270 
#    y -0.017740 1.814090 0.003090 
#    z -0.005270 0.003090 1.846840 
# 
# From -- ./inp_files/108885.got.cif
#   From: 2010.06.25/outbox.cif.g09.slc.cpg/sg2_55_cif.got.tgz:108885.got - 2010.06.27 13:26:56.
