data_PCOD8040773
_publ_section_title
;
Structure prediction by ZEFSAII (Michael W. Deem and Ramdas Pophale) SiO2 
 PCOD8040773
Probable space group: P -1
;
_chemical_formula_sum "Si O2"
_cell_formula_units_Z 16
_cell_length_a 8.943648
_cell_length_b 14.869795
_cell_length_c 8.711019
_cell_angle_alpha 58.326185
_cell_angle_beta 64.764176
_cell_angle_gamma 101.903346
_cell_volume 739.637154
_symmetry_space_group_name_H-M "P -1"
_symmetry_group_IT_number 2
_symmetry_cell_setting 'triclinic'
loop_
_space_group_symop_operation_xyz
x,y,z
-x,-y,-z
loop_
_atom_site_type_symbol
_atom_site_label
_atom_site_fract_x
_atom_site_fract_y
_atom_site_fract_z
Si Si1 0.586320 0.384808 0.423605
Si Si2 0.538147 0.278179 0.212372
Si Si3 0.446781 0.916271 0.949356
Si Si4 0.164777 0.648788 0.450499
Si Si5 0.208603 0.031680 0.442437
Si Si6 0.207574 0.839973 0.842403
Si Si7 0.747130 0.495319 0.692771
Si Si8 0.757403 0.636250 0.291096
O O1 0.540210 0.349843 0.297811
O O2 0.718095 0.328981 0.462104
O O3 0.711477 0.538069 0.261291
O O4 0.392453 0.315864 0.687498
O O5 0.314122 0.153065 0.401507
O O6 0.700076 0.240614 0.175013
O O7 0.577816 0.374773 0.969663
O O8 0.649654 0.930349 0.801317
O O9 0.355016 0.944775 0.814110
O O10 0.268091 0.773808 0.191010
O O11 0.500000 0.000000 0.000000
O O12 0.166608 0.540667 0.454392
O O13 0.932988 0.593614 0.634648
O O14 0.187823 0.911176 0.643278
O O15 0.000000 0.000000 0.500000
O O16 0.987745 0.747841 0.090846
O O17 0.677877 0.571869 0.556458
#
# Coordination Sequence:
#
# PCOD8040773 Si02
#       8
#     2   2   2   2   2   2   2   2
#     4  10  24  36  62  95 130 160 205 256 323 370
#     4  11  22  43  65  94 125 166 209 265 311 371
#     4  11  23  41  66  96 122 169 214 258 308 376
#     4  10  19  36  62  91 123 161 207 254 305 377
#     4  11  27  45  63  93 129 170 209 263 320 369
#     4  11  23  44  67  87 131 167 216 257 312 373
#     4  10  18  38  66  87 123 163 211 254 309 370
#     4  10  22  42  60  94 125 172 201 257 319 376
#
# _framework density 21.632228999999999
#
# number of rings (size 3 to 8) (size 9 to 14) (size 15 to 20)
#    0.000    1.500    3.750    3.000    5.250    4.500 
#    0.000    1.250    0.000    0.000    0.000    0.000 
#    0.000    0.000    0.000    0.000    0.000    0.000 
#
# Total GULP energy -198213.138309 kJ/mol
# GULP energy per Si atom -12388.321144 kJ/mol
# Density = 2.158299 g / cm^3
# Si number density = 21.632229 Si / 1000 Ang^3
#
#
#
# Elastic Constant Matrix: (Units=GPa)
#
#
# Indices 1 2 3 4 5 6 
#
# 1 82.1150 35.7716 24.0043 -14.3302 -14.5685 18.5267
# 2 35.7716 102.7415 28.5870 15.6580 -3.0337 21.1576
# 3 24.0043 28.5870 84.1842 -17.8960 -6.0885 4.3410
# 4 -14.3302 15.6580 -17.8960 23.8937 5.0643 5.1298
# 5 -14.5685 -3.0337 -6.0885 5.0643 42.1402 -6.5446
# 6 18.5267 21.1576 4.3410 5.1298 -6.5446 22.8629
#
#
#
# Elastic Compliance Matrix: (Units=1/GPa)
#
#
# Indices 1 2 3 4 5 6 
#
# 1 0.024306 -0.009885 0.003040 0.026325 0.002430 -0.016338
# 2 -0.009885 0.020353 -0.009349 -0.025321 -0.000819 -0.003603
# 3 0.003040 -0.009349 0.019182 0.022872 -0.000001 -0.002586
# 4 0.026325 -0.025321 0.022872 0.097984 -0.005186 -0.025712
# 5 0.002430 -0.000819 -0.000001 -0.005186 0.026296 0.007480
# 6 -0.016338 -0.003603 -0.002586 -0.025712 0.007480 0.068714
#
#
# Mechanical properties :
#
#
# Convention : Reuss Voigt Hill
#
# Bulk Modulus (GPa) = 31.79195 49.52961 40.66078
# Shear Modulus (GPa) = 16.68297 29.82453 23.25375
#
# Velocity S-wave (km/s) = 2.78008 3.71712 3.28221
# Velocity P-wave (km/s) = 5.00336 6.43184 5.76204
#
# Compressibility (1/GPa) = 0.03145450
#
# Stress axis : x y z
#
# Youngs Moduli (GPa) = 41.14126 49.13355 52.13194
#
# Poissons Ratio (x) = 0.48566 -0.15849
# Poissons Ratio (y) = 0.40666 0.48738
# Poissons Ratio (z) = -0.12508 0.45935
#
# Static dielectric constant tensor:
#      x y z
#    x 4.353670 0.249740 -0.004150 
#    y 0.249740 3.561420 -0.135020 
#    z -0.004150 -0.135020 3.789490 
# 
# 
# High freq. dielectric constant tensor:
#      x y z
#    x 1.867140 0.016150 -0.003480 
#    y 0.016150 1.823480 -0.005770 
#    z -0.003480 -0.005770 1.842320 
# 
# From -- ./inp_files/205855.got.cif
#   From: 2010.06.25/outbox.cif.g09.slc.cpg/sg2_103_cif.got.tgz:205855.got - 2010.06.27 13:26:56.
