data_PCOD8040945
_publ_section_title
;
Structure prediction by ZEFSAII (Michael W. Deem and Ramdas Pophale) SiO2 
 PCOD8040945
Probable space group: P -1
;
_chemical_formula_sum "Si O2"
_cell_formula_units_Z 14
_cell_length_a 10.993810
_cell_length_b 20.552635
_cell_length_c 8.467768
_cell_angle_alpha 149.964264
_cell_angle_beta 42.991880
_cell_angle_gamma 136.905973
_cell_volume 626.110451
_symmetry_space_group_name_H-M "P -1"
_symmetry_group_IT_number 2
_symmetry_cell_setting 'triclinic'
loop_
_space_group_symop_operation_xyz
x,y,z
-x,-y,-z
loop_
_atom_site_type_symbol
_atom_site_label
_atom_site_fract_x
_atom_site_fract_y
_atom_site_fract_z
Si Si1 0.101298 0.791664 0.662399
Si Si2 0.670854 0.104446 0.638366
Si Si3 0.652481 0.375105 0.768485
Si Si4 0.010232 0.046308 0.269184
Si Si5 0.264634 0.370993 0.201722
Si Si6 0.120818 0.332054 0.903885
Si Si7 0.703063 0.340480 0.300917
O O1 0.181728 0.805491 0.437997
O O2 0.224680 0.722842 0.506649
O O3 0.885399 0.702551 0.678821
O O4 0.097436 0.938312 0.048464
O O5 0.791513 0.032800 0.486912
O O6 0.500000 0.000000 0.500000
O O7 0.590436 0.205939 0.031336
O O8 0.597533 0.347111 0.578301
O O9 0.461192 0.337779 0.971607
O O10 0.760483 0.534320 0.021314
O O11 0.133399 0.198679 0.514980
O O12 0.000000 0.000000 0.000000
O O13 0.299082 0.530631 0.530912
O O14 0.189781 0.324873 0.000889
O O15 0.912450 0.340198 0.134635
#
# Coordination Sequence:
#
# PCOD8040945 Si02
#       7
#     2   2   2   2   2   2   2
#     4  11  23  43  63  96 131 156 215 269 302 369
#     4  10  24  43  66  88 127 175 211 247 325 385
#     4  11  22  39  69  98 122 164 216 259 308 371
#     4   9  22  41  61  84 127 175 199 248 322 370
#     4  11  22  37  67  98 127 160 211 263 317 362
#     4  10  18  40  64  90 128 170 202 253 321 375
#     4  10  19  42  65  92 129 172 201 259 320 373
#
# _framework density 22.360271999999998
#
# number of rings (size 3 to 8) (size 9 to 14) (size 15 to 20)
#    0.000    1.714    2.857    2.571    2.000    5.714 
#    2.571    2.143    0.000    0.000    0.000    0.000 
#    0.000    0.000    0.000    0.000    0.000    0.000 
#
# Total GULP energy -173488.714310 kJ/mol
# GULP energy per Si atom -12392.051022 kJ/mol
# Density = 2.230938 g / cm^3
# Si number density = 22.360272 Si / 1000 Ang^3
#
#
#
# Elastic Constant Matrix: (Units=GPa)
#
#
# Indices 1 2 3 4 5 6 
#
# 1 59.0071 32.1080 42.9195 20.8400 -7.2465 19.1227
# 2 32.1080 90.3947 41.3119 1.0817 -21.0072 15.9622
# 3 42.9195 41.3119 157.4300 38.9925 -7.6788 17.4525
# 4 20.8400 1.0817 38.9925 43.3918 5.3571 -5.5927
# 5 -7.2465 -21.0072 -7.6788 5.3571 40.6958 5.0188
# 6 19.1227 15.9622 17.4525 -5.5927 5.0188 30.7110
#
#
#
# Elastic Compliance Matrix: (Units=1/GPa)
#
#
# Indices 1 2 3 4 5 6 
#
# 1 0.038120 -0.006528 0.000476 -0.023194 0.009822 -0.026442
# 2 -0.006528 0.016881 -0.002943 0.004068 0.006883 -0.003421
# 3 0.000476 -0.002943 0.010696 -0.011077 0.002948 -0.007344
# 4 -0.023194 0.004068 -0.011077 0.049680 -0.014361 0.030016
# 5 0.009822 0.006883 0.002948 -0.014361 0.034746 -0.019662
# 6 -0.026442 -0.003421 -0.007344 0.030016 -0.019662 0.063657
#
#
# Mechanical properties :
#
#
# Convention : Reuss Voigt Hill
#
# Bulk Modulus (GPa) = 20.96144 59.94561 40.45352
# Shear Modulus (GPa) = 20.18786 35.65922 27.92354
#
# Velocity S-wave (km/s) = 3.00800 3.99777 3.53767
# Velocity P-wave (km/s) = 4.63237 6.94095 5.90066
#
# Compressibility (1/GPa) = 0.04770665
#
# Stress axis : x y z
#
# Youngs Moduli (GPa) = 26.23261 59.23756 93.49137
#
# Poissons Ratio (x) = 0.38672 -0.04446
# Poissons Ratio (y) = 0.17125 0.27513
# Poissons Ratio (z) = -0.01248 0.17433
#
# Static dielectric constant tensor:
#      x y z
#    x 3.981310 -0.030130 -0.391970 
#    y -0.030130 4.036210 0.248030 
#    z -0.391970 0.248030 4.645410 
# 
# 
# High freq. dielectric constant tensor:
#      x y z
#    x 1.863640 0.012210 -0.020260 
#    y 0.012210 1.861010 0.006540 
#    z -0.020260 0.006540 1.902370 
# 
# From -- ./inp_files/181758.got.cif
#   From: 2010.06.25/outbox.cif.g09.slc.cpg/sg2_91_cif.got.tgz:181758.got - 2010.06.27 13:26:56.
