data_PCOD8040559
_publ_section_title
;
Structure prediction by ZEFSAII (Michael W. Deem and Ramdas Pophale) SiO2 
 PCOD8040559
Probable space group: P -1
;
_chemical_formula_sum "Si O2"
_cell_formula_units_Z 14
_cell_length_a 11.901068
_cell_length_b 8.903048
_cell_length_c 9.445226
_cell_angle_alpha 133.473889
_cell_angle_beta 93.292947
_cell_angle_gamma 74.758193
_cell_volume 689.730385
_symmetry_space_group_name_H-M "P -1"
_symmetry_group_IT_number 2
_symmetry_cell_setting 'triclinic'
loop_
_space_group_symop_operation_xyz
x,y,z
-x,-y,-z
loop_
_atom_site_type_symbol
_atom_site_label
_atom_site_fract_x
_atom_site_fract_y
_atom_site_fract_z
Si Si1 0.291849 0.608542 0.241455
Si Si2 0.521950 0.847704 0.039182
Si Si3 0.048579 0.145129 0.204419
Si Si4 0.871704 0.458102 0.591380
Si Si5 0.420452 0.803512 0.579117
Si Si6 0.332754 0.526142 0.611402
Si Si7 0.278522 0.779584 0.046278
O O1 0.168662 0.602979 0.297903
O O2 0.334837 0.800652 0.439129
O O3 0.274395 0.639744 0.094377
O O4 0.394931 0.389687 0.149776
O O5 0.400517 0.833914 0.085684
O O6 0.588540 0.947288 0.227419
O O7 0.500000 0.000000 0.000000
O O8 0.066940 0.353719 0.260226
O O9 0.958529 0.237052 0.386669
O O10 0.171244 0.001338 0.187339
O O11 0.000000 0.000000 0.000000
O O12 0.757624 0.550817 0.542025
O O13 0.378735 0.705186 0.652109
O O14 0.557089 0.679349 0.472463
O O15 0.264594 0.634549 0.818214
#
# Coordination Sequence:
#
# PCOD8040559 Si02
#       7
#     2   2   2   2   2   2   2
#     4  11  25  40  57  95 132 152 197 254 308 358
#     4  12  21  38  65  90 124 169 206 237 295 364
#     4  11  23  43  69  89 111 159 215 251 295 362
#     4  10  23  42  66  89 115 158 211 248 294 367
#     4  10  20  36  60  89 121 167 197 240 294 363
#     4  10  18  37  62  89 121 157 206 242 290 363
#     4  12  23  39  61  91 129 158 196 262 304 347
#
# _framework density 20.297789000000002
#
# number of rings (size 3 to 8) (size 9 to 14) (size 15 to 20)
#    0.000    1.143    4.286    3.857    0.000    1.143 
#    2.571    0.714    0.000    0.000    0.000    0.000 
#    0.000    0.000    0.000    0.000    0.000    0.000 
#
# Total GULP energy -173647.638130 kJ/mol
# GULP energy per Si atom -12403.402724 kJ/mol
# Density = 2.025159 g / cm^3
# Si number density = 20.297789 Si / 1000 Ang^3
#
#
#
# Elastic Constant Matrix: (Units=GPa)
#
#
# Indices 1 2 3 4 5 6 
#
# 1 110.1562 25.1076 47.9050 7.1456 -19.5806 14.4755
# 2 25.1076 65.5346 42.1559 -8.7083 -20.0649 12.5815
# 3 47.9050 42.1559 111.4806 0.9641 1.3347 14.4065
# 4 7.1456 -8.7083 0.9641 28.7727 9.3119 -6.0416
# 5 -19.5806 -20.0649 1.3347 9.3119 44.5655 5.3000
# 6 14.4755 12.5815 14.4065 -6.0416 5.3000 25.6993
#
#
#
# Elastic Compliance Matrix: (Units=1/GPa)
#
#
# Indices 1 2 3 4 5 6 
#
# 1 0.015038 0.002331 -0.006047 -0.008543 0.010868 -0.010472
# 2 0.002331 0.028079 -0.010218 0.000730 0.015284 -0.012312
# 3 -0.006047 -0.010218 0.015301 0.000877 -0.008102 0.001708
# 4 -0.008543 0.000730 0.000877 0.045705 -0.015121 0.017826
# 5 0.010868 0.015284 -0.008102 -0.015121 0.039979 -0.020862
# 6 -0.010472 -0.012312 0.001708 0.017826 -0.020862 0.058373
#
#
# Mechanical properties :
#
#
# Convention : Reuss Voigt Hill
#
# Bulk Modulus (GPa) = 32.73178 57.50094 45.11636
# Shear Modulus (GPa) = 20.78770 31.27436 26.03103
#
# Velocity S-wave (km/s) = 3.20368 3.92953 3.58502
# Velocity P-wave (km/s) = 5.46311 6.99846 6.27790
#
# Compressibility (1/GPa) = 0.03055135
#
# Stress axis : x y z
#
# Youngs Moduli (GPa) = 66.49605 35.61372 65.35482
#
# Poissons Ratio (x) = -0.08301 0.39518
# Poissons Ratio (y) = -0.15499 0.66779
# Poissons Ratio (z) = 0.40208 0.36390
#
# Static dielectric constant tensor:
#      x y z
#    x 3.894580 0.046050 -0.054040 
#    y 0.046050 3.304870 0.102800 
#    z -0.054040 0.102800 3.887840 
# 
# 
# High freq. dielectric constant tensor:
#      x y z
#    x 1.800140 0.005570 -0.004070 
#    y 0.005570 1.755270 0.007290 
#    z -0.004070 0.007290 1.808170 
# 
# From -- ./inp_files/168314.got.cif
#   From: 2010.06.25/outbox.cif.g09.slc.cpg/sg2_85_cif.got.tgz:168314.got - 2010.06.27 13:26:56.
