data_PCOD8040851
_publ_section_title
;
Structure prediction by ZEFSAII (Michael W. Deem and Ramdas Pophale) SiO2 
 PCOD8040851
Probable space group: P -1
;
_chemical_formula_sum "Si O2"
_cell_formula_units_Z 14
_cell_length_a 15.820263
_cell_length_b 8.896904
_cell_length_c 6.093038
_cell_angle_alpha 124.521332
_cell_angle_beta 95.443410
_cell_angle_gamma 65.722500
_cell_volume 633.115358
_symmetry_space_group_name_H-M "P -1"
_symmetry_group_IT_number 2
_symmetry_cell_setting 'triclinic'
loop_
_space_group_symop_operation_xyz
x,y,z
-x,-y,-z
loop_
_atom_site_type_symbol
_atom_site_label
_atom_site_fract_x
_atom_site_fract_y
_atom_site_fract_z
Si Si1 0.285238 0.586810 0.399055
Si Si2 0.843784 0.432185 0.007855
Si Si3 0.562088 0.527420 0.350656
Si Si4 0.961362 0.863676 0.249137
Si Si5 0.206692 0.140450 0.511732
Si Si6 0.387377 0.758902 0.259132
Si Si7 0.841089 0.088629 0.041479
O O1 0.353386 0.433740 0.479298
O O2 0.352347 0.613792 0.258706
O O3 0.225136 0.799572 0.678326
O O4 0.215967 0.514766 0.191372
O O5 0.803878 0.631491 0.314235
O O6 0.839533 0.246556 0.986528
O O7 0.953763 0.364152 0.921405
O O8 0.500000 0.500000 0.500000
O O9 0.493256 0.713872 0.332532
O O10 0.608490 0.314204 0.051731
O O11 0.867999 0.866379 0.336328
O O12 0.941266 0.950305 0.066530
O O13 0.000000 0.000000 0.500000
O O14 0.315426 0.992426 0.476403
O O15 0.189384 0.071528 0.211784
#
# Coordination Sequence:
#
# PCOD8040851 Si02
#       7
#     2   2   2   2   2   2   2
#     4  11  19  40  65  90 126 169 212 259 316 376
#     4  12  26  40  63  97 130 168 219 265 314 378
#     4   9  19  32  69  96 121 164 214 257 317 384
#     4  12  23  44  66  89 129 174 216 264 316 373
#     4  12  25  41  65  96 131 167 214 267 317 379
#     4  10  18  39  62  97 125 165 212 261 317 380
#     4  12  22  42  65  87 129 172 213 260 320 373
#
# _framework density 22.112874000000001
#
# number of rings (size 3 to 8) (size 9 to 14) (size 15 to 20)
#    0.000    0.857    7.143    0.857    0.000    1.714 
#    0.000    0.714    0.000   12.000    0.000    0.000 
#    0.000    0.000    0.000    0.000    0.000    0.000 
#
# Total GULP energy -173446.159985 kJ/mol
# GULP energy per Si atom -12389.011428 kJ/mol
# Density = 2.206254 g / cm^3
# Si number density = 22.112874 Si / 1000 Ang^3
#
#
#
# Elastic Constant Matrix: (Units=GPa)
#
#
# Indices 1 2 3 4 5 6 
#
# 1 78.9451 48.0596 47.0564 -0.1875 -2.0512 -37.3674
# 2 48.0596 91.7183 53.6013 -1.3367 21.3508 -45.5730
# 3 47.0564 53.6013 154.1954 6.8899 5.1664 -20.2713
# 4 -0.1875 -1.3367 6.8899 40.1314 -8.8126 -4.3089
# 5 -2.0512 21.3508 5.1664 -8.8126 44.2377 -9.4093
# 6 -37.3674 -45.5730 -20.2713 -4.3089 -9.4093 41.7463
#
#
#
# Elastic Compliance Matrix: (Units=1/GPa)
#
#
# Indices 1 2 3 4 5 6 
#
# 1 0.028333 -0.002509 -0.005344 0.005378 0.009031 0.022618
# 2 -0.002509 0.031761 -0.006500 0.003366 -0.008104 0.027791
# 3 -0.005344 -0.006500 0.009509 -0.002782 -0.000400 -0.007639
# 4 0.005378 0.003366 -0.002782 0.028338 0.007074 0.011657
# 5 0.009031 -0.008104 -0.000400 0.007074 0.029770 0.006482
# 6 0.022618 0.027791 -0.007639 0.011657 0.006482 0.073493
#
#
# Mechanical properties :
#
#
# Convention : Reuss Voigt Hill
#
# Bulk Modulus (GPa) = 24.45165 69.14370 46.79768
# Shear Modulus (GPa) = 20.53038 36.96586 28.74812
#
# Velocity S-wave (km/s) = 3.05033 4.09307 3.60955
# Velocity P-wave (km/s) = 4.84641 7.32625 6.21135
#
# Compressibility (1/GPa) = 0.04089703
#
# Stress axis : x y z
#
# Youngs Moduli (GPa) = 35.29500 31.48530 105.16195
#
# Poissons Ratio (x) = 0.07898 0.56196
# Poissons Ratio (y) = 0.08854 0.68360
# Poissons Ratio (z) = 0.18861 0.20467
#
# Static dielectric constant tensor:
#      x y z
#    x 4.413800 -0.821570 -0.180550 
#    y -0.821570 4.252180 -0.269590 
#    z -0.180550 -0.269590 4.159150 
# 
# 
# High freq. dielectric constant tensor:
#      x y z
#    x 1.866100 -0.046440 -0.023260 
#    y -0.046440 1.852130 -0.024660 
#    z -0.023260 -0.024660 1.875280 
# 
# From -- ./inp_files/45674.got.cif
#   From: 2010.06.25/outbox.cif.g09.slc.cpg/sg2_23_cif.got.tgz:45674.got - 2010.06.27 13:26:56.
