data_PCOD8040745
_publ_section_title
;
Structure prediction by ZEFSAII (Michael W. Deem and Ramdas Pophale) SiO2 
 PCOD8040745
Probable space group: P -1
;
_chemical_formula_sum "Si O2"
_cell_formula_units_Z 16
_cell_length_a 8.115228
_cell_length_b 15.840780
_cell_length_c 13.858502
_cell_angle_alpha 133.016313
_cell_angle_beta 133.818821
_cell_angle_gamma 82.902933
_cell_volume 705.127675
_symmetry_space_group_name_H-M "P -1"
_symmetry_group_IT_number 2
_symmetry_cell_setting 'triclinic'
loop_
_space_group_symop_operation_xyz
x,y,z
-x,-y,-z
loop_
_atom_site_type_symbol
_atom_site_label
_atom_site_fract_x
_atom_site_fract_y
_atom_site_fract_z
Si Si1 0.207873 0.813908 0.642534
Si Si2 0.345351 0.715048 0.096230
Si Si3 0.815204 0.666064 0.745784
Si Si4 0.173249 0.423349 0.850906
Si Si5 0.124458 0.413551 0.495026
Si Si6 0.328269 0.299589 0.960559
Si Si7 0.940817 0.971113 0.646383
Si Si8 0.148297 0.063516 0.006569
O O1 0.572976 0.932271 0.893208
O O2 0.102201 0.686855 0.420738
O O3 0.054520 0.724519 0.609571
O O4 0.104866 0.905552 0.635261
O O5 0.465694 0.698757 0.032883
O O6 0.613602 0.869070 0.382990
O O7 0.196978 0.568574 0.992925
O O8 0.081387 0.717394 0.967072
O O9 0.500000 0.500000 0.500000
O O10 0.922451 0.679400 0.690909
O O11 0.727119 0.766254 0.813400
O O12 0.106440 0.319089 0.834437
O O13 0.500000 0.500000 0.000000
O O14 0.000000 0.500000 0.500000
O O15 0.473136 0.551163 0.773489
O O16 0.140811 0.144613 0.825102
O O17 0.908915 0.965343 0.745370
O O18 0.000000 0.000000 0.000000
#
# Coordination Sequence:
#
# PCOD8040745 Si02
#       8
#     2   2   2   2   2   2   2   2
#     4  12  23  44  73  97 133 180 239 291 332 397
#     4  11  22  41  71 101 141 173 230 284 341 401
#     4  12  26  45  68 100 146 183 221 282 349 411
#     4  10  18  38  64 104 130 159 219 298 336 372
#     4  12  21  40  73  98 127 178 241 286 328 397
#     4  11  21  37  68 112 130 161 228 300 331 387
#     4  12  25  43  72 102 132 183 235 283 339 405
#     4  12  30  47  63  99 147 186 224 276 353 420
#
# _framework density 22.690926999999999
#
# number of rings (size 3 to 8) (size 9 to 14) (size 15 to 20)
#    0.000    0.500    6.250    4.500    1.750    0.500 
#    0.000    1.250    0.000    6.000    0.000    0.000 
#    0.000    0.000    0.000    0.000    0.000    0.000 
#
# Total GULP energy -198367.150181 kJ/mol
# GULP energy per Si atom -12397.946886 kJ/mol
# Density = 2.263928 g / cm^3
# Si number density = 22.690927 Si / 1000 Ang^3
#
#
#
# Elastic Constant Matrix: (Units=GPa)
#
#
# Indices 1 2 3 4 5 6 
#
# 1 56.6056 35.3519 36.8142 -7.1890 -1.9296 1.5277
# 2 35.3519 132.4921 47.3659 -1.8878 17.5297 15.5605
# 3 36.8142 47.3659 144.2125 -17.8553 0.5232 10.5296
# 4 -7.1890 -1.8878 -17.8553 43.6396 1.1816 -0.3655
# 5 -1.9296 17.5297 0.5232 1.1816 29.9193 0.9459
# 6 1.5277 15.5605 10.5296 -0.3655 0.9459 25.8031
#
#
#
# Elastic Compliance Matrix: (Units=1/GPa)
#
#
# Indices 1 2 3 4 5 6 
#
# 1 0.024613 -0.006107 -0.004339 0.001911 0.005045 0.003839
# 2 -0.006107 0.011386 -0.001897 -0.001151 -0.006812 -0.005497
# 3 -0.004339 -0.001897 0.009196 0.002929 0.000629 -0.002333
# 4 0.001911 -0.001151 0.002929 0.024382 -0.000208 -0.000261
# 5 0.005045 -0.006812 0.000629 -0.000208 0.037669 0.002169
# 6 0.003839 -0.005497 -0.002333 -0.000261 0.002169 0.042712
#
#
# Mechanical properties :
#
#
# Convention : Reuss Voigt Hill
#
# Bulk Modulus (GPa) = 48.76190 63.59711 56.17950
# Shear Modulus (GPa) = 27.55121 34.12428 30.83774
#
# Velocity S-wave (km/s) = 3.48831 3.88219 3.69051
# Velocity P-wave (km/s) = 6.14497 6.94144 6.55531
#
# Compressibility (1/GPa) = 0.02050782
#
# Stress axis : x y z
#
# Youngs Moduli (GPa) = 40.62831 87.82810 108.74553
#
# Poissons Ratio (x) = 0.53638 0.47189
# Poissons Ratio (y) = 0.24812 0.20630
# Poissons Ratio (z) = 0.17630 0.16662
#
# Static dielectric constant tensor:
#      x y z
#    x 3.960660 0.173600 -0.377570 
#    y 0.173600 4.521080 -0.114240 
#    z -0.377570 -0.114240 4.296450 
# 
# 
# High freq. dielectric constant tensor:
#      x y z
#    x 1.861140 -0.000150 -0.017840 
#    y -0.000150 1.918450 -0.002730 
#    z -0.017840 -0.002730 1.907570 
# 
# From -- ./inp_files/505517.got.cif
#   From: 2010.06.25/outbox.cif.g09.slc.cpg/sg2_253_cif.got.tgz:505517.got - 2010.06.27 13:26:56.
