data_PCOD8040308
_publ_section_title
;
Structure prediction by ZEFSAII (Michael W. Deem and Ramdas Pophale) SiO2 
 PCOD8040308
Probable space group: P -1
;
_chemical_formula_sum "Si O2"
_cell_formula_units_Z 12
_cell_length_a 13.150310
_cell_length_b 9.279620
_cell_length_c 18.017274
_cell_angle_alpha 52.408294
_cell_angle_beta 22.018639
_cell_angle_gamma 50.548662
_cell_volume 634.818174
_symmetry_space_group_name_H-M "P -1"
_symmetry_group_IT_number 2
_symmetry_cell_setting 'triclinic'
loop_
_space_group_symop_operation_xyz
x,y,z
-x,-y,-z
loop_
_atom_site_type_symbol
_atom_site_label
_atom_site_fract_x
_atom_site_fract_y
_atom_site_fract_z
Si Si1 0.657974 0.277099 0.389871
Si Si2 0.164803 0.150268 0.576464
Si Si3 0.087277 0.651439 0.445502
Si Si4 0.074585 0.447452 0.794495
Si Si5 0.821513 0.485530 0.796723
Si Si6 0.601029 0.374614 0.229526
O O1 0.365622 0.304863 0.622380
O O2 0.871957 0.364980 0.264151
O O3 0.612737 0.377160 0.309650
O O4 0.787210 0.058113 0.360205
O O5 0.459472 0.209734 0.348401
O O6 0.999450 0.160783 0.605077
O O7 0.990770 0.285290 0.714249
O O8 0.416147 0.580208 0.264369
O O9 0.000000 0.500000 0.500000
O O10 0.909682 0.656914 0.639801
O O11 0.883000 0.507668 0.833856
O O12 0.909097 0.343895 0.996437
O O13 0.500000 0.500000 0.000000
#
# Coordination Sequence:
#
# PCOD8040308 Si02
#       6
#     2   2   2   2   2   2
#     4  11  23  39  55  89 122 148 186 240 288 339
#     4  10  20  37  59  86 119 144 194 248 272 327
#     4   8  16  33  55  80 110 145 184 236 278 325
#     4  11  22  37  62  82 118 158 187 226 297 348
#     4  10  18  36  61  85 110 153 198 229 281 346
#     4  10  19  38  61  80 114 156 193 227 286 344
#
# _framework density 18.903051000000001
#
# number of rings (size 3 to 8) (size 9 to 14) (size 15 to 20)
#    0.000    2.333    3.333    4.000    0.000    0.667 
#    3.000    4.167    0.000    0.000    0.000    0.000 
#    0.000    0.000    0.000    0.000    0.000    0.000 
#
# Total GULP energy -148732.476181 kJ/mol
# GULP energy per Si atom -12394.373015 kJ/mol
# Density = 1.886003 g / cm^3
# Si number density = 18.903051 Si / 1000 Ang^3
#
#
#
# Elastic Constant Matrix: (Units=GPa)
#
#
# Indices 1 2 3 4 5 6 
#
# 1 115.9087 46.3548 52.9766 1.2372 -8.7149 -3.4299
# 2 46.3548 55.7760 38.7102 -2.9023 -9.3048 1.2969
# 3 52.9766 38.7102 125.3630 5.6174 8.3935 0.4538
# 4 1.2372 -2.9023 5.6174 11.7762 1.6283 -1.0477
# 5 -8.7149 -9.3048 8.3935 1.6283 34.0051 3.4160
# 6 -3.4299 1.2969 0.4538 -1.0477 3.4160 18.2818
#
#
#
# Elastic Compliance Matrix: (Units=1/GPa)
#
#
# Indices 1 2 3 4 5 6 
#
# 1 0.014032 -0.009509 -0.003003 -0.002336 0.001550 0.002958
# 2 -0.009509 0.032863 -0.007156 0.010934 0.008286 -0.004859
# 3 -0.003003 -0.007156 0.012107 -0.006446 -0.005437 0.000290
# 4 -0.002336 0.010934 -0.006446 0.091433 -0.000830 0.004341
# 5 0.001550 0.008286 -0.005437 -0.000830 0.034115 -0.006584
# 6 0.002958 -0.004859 0.000290 0.004341 -0.006584 0.057071
#
#
# Mechanical properties :
#
#
# Convention : Reuss Voigt Hill
#
# Bulk Modulus (GPa) = 50.85195 63.68121 57.26658
# Shear Modulus (GPa) = 17.39045 23.41303 20.40174
#
# Velocity S-wave (km/s) = 3.03641 3.52317 3.28881
# Velocity P-wave (km/s) = 6.26521 7.09308 6.69196
#
# Compressibility (1/GPa) = 0.01966493
#
# Stress axis : x y z
#
# Youngs Moduli (GPa) = 71.26448 30.42946 82.59354
#
# Poissons Ratio (x) = 0.28937 0.24805
# Poissons Ratio (y) = 0.67769 0.59105
# Poissons Ratio (z) = 0.21403 0.21776
#
# Static dielectric constant tensor:
#      x y z
#    x 4.169010 -0.434040 0.024100 
#    y -0.434040 3.245820 0.048300 
#    z 0.024100 0.048300 3.578840 
# 
# 
# High freq. dielectric constant tensor:
#      x y z
#    x 1.756150 -0.012580 -0.000480 
#    y -0.012580 1.684720 0.010500 
#    z -0.000480 0.010500 1.736690 
# 
# From -- ./inp_files/161965.got.cif
#   From: 2010.06.25/outbox.cif.g09.slc.cpg/sg2_81_cif.got.tgz:161965.got - 2010.06.27 13:26:56.
