data_PCOD8040438
_publ_section_title
;
Structure prediction by ZEFSAII (Michael W. Deem and Ramdas Pophale) SiO2 
 PCOD8040438
Probable space group: P -1
;
_chemical_formula_sum "Si O2"
_cell_formula_units_Z 16
_cell_length_a 10.111863
_cell_length_b 14.275094
_cell_length_c 11.151869
_cell_angle_alpha 148.817799
_cell_angle_beta 78.770229
_cell_angle_gamma 109.982661
_cell_volume 767.362301
_symmetry_space_group_name_H-M "P -1"
_symmetry_group_IT_number 2
_symmetry_cell_setting 'triclinic'
loop_
_space_group_symop_operation_xyz
x,y,z
-x,-y,-z
loop_
_atom_site_type_symbol
_atom_site_label
_atom_site_fract_x
_atom_site_fract_y
_atom_site_fract_z
Si Si1 0.729260 0.621783 0.371712
Si Si2 0.553963 0.528088 0.887506
Si Si3 0.809225 0.813911 0.798626
Si Si4 0.764551 0.907148 0.173006
Si Si5 0.912507 0.244898 0.238814
Si Si6 0.944547 0.005898 0.649269
Si Si7 0.936924 0.400037 0.147198
Si Si8 0.765562 0.309349 0.562042
O O1 0.577823 0.502843 0.211701
O O2 0.698346 0.675568 0.572222
O O3 0.820797 0.481771 0.204791
O O4 0.812939 0.811184 0.486717
O O5 0.630497 0.377170 0.673067
O O6 0.500000 0.500000 0.000000
O O7 0.661759 0.747363 0.102595
O O8 0.944460 0.739130 0.693768
O O9 0.743715 0.813324 0.941003
O O10 0.851265 0.025238 0.962671
O O11 0.930252 0.963252 0.241088
O O12 0.723504 0.098684 0.398750
O O13 0.941091 0.390706 0.282090
O O14 0.799073 0.290989 0.396022
O O15 0.000000 0.000000 0.500000
O O16 0.893518 0.189239 0.866475
O O17 0.096200 0.537404 0.228983
#
# Coordination Sequence:
#
# PCOD8040438 Si02
#       8
#     2   2   2   2   2   2   2   2
#     4  12  26  42  67 108 132 173 230 288 333 392
#     4  12  29  49  65  92 142 186 224 273 347 405
#     4  10  18  39  69 101 142 165 219 287 336 397
#     4  11  23  45  69 101 133 179 222 277 342 401
#     4  10  18  36  68 105 139 170 215 276 347 395
#     4  12  24  42  69 100 137 175 228 282 322 397
#     4  12  22  39  72 106 132 174 228 278 338 397
#     4  11  23  41  72  97 129 185 225 267 339 412
#
# _framework density 20.850645
#
# number of rings (size 3 to 8) (size 9 to 14) (size 15 to 20)
#    0.000    0.750    6.250    1.875    1.750    3.500 
#    0.000    1.250    0.000    0.000    0.000    0.000 
#    0.000    0.000    0.000    0.000    0.000    0.000 
#
# Total GULP energy -198446.807073 kJ/mol
# GULP energy per Si atom -12402.925442 kJ/mol
# Density = 2.080319 g / cm^3
# Si number density = 20.850645 Si / 1000 Ang^3
#
#
#
# Elastic Constant Matrix: (Units=GPa)
#
#
# Indices 1 2 3 4 5 6 
#
# 1 113.6924 18.5552 42.7026 -1.4563 -16.5947 -5.0128
# 2 18.5552 94.7417 37.4482 3.8838 -20.5883 5.3744
# 3 42.7026 37.4482 92.9138 11.2034 -25.3466 -8.8719
# 4 -1.4563 3.8838 11.2034 37.1739 -6.1096 2.2782
# 5 -16.5947 -20.5883 -25.3466 -6.1096 36.6169 2.3527
# 6 -5.0128 5.3744 -8.8719 2.2782 2.3527 25.4739
#
#
#
# Elastic Compliance Matrix: (Units=1/GPa)
#
#
# Indices 1 2 3 4 5 6 
#
# 1 0.010892 0.000093 -0.004733 0.002178 0.002070 0.000089
# 2 0.000093 0.013785 -0.004884 0.001162 0.004937 -0.005151
# 3 -0.004733 -0.004884 0.017719 -0.004360 0.006256 0.006082
# 4 0.002178 0.001162 -0.004360 0.029056 0.003746 -0.004280
# 5 0.002070 0.004937 0.006256 0.003746 0.036116 -0.002126
# 6 0.000089 -0.005151 0.006082 -0.004280 -0.002126 0.043058
#
#
# Mechanical properties :
#
#
# Convention : Reuss Voigt Hill
#
# Bulk Modulus (GPa) = 42.82815 55.41777 49.12296
# Shear Modulus (GPa) = 28.17599 33.36241 30.76920
#
# Velocity S-wave (km/s) = 3.68002 4.00442 3.84565
# Velocity P-wave (km/s) = 6.21625 6.92941 6.58249
#
# Compressibility (1/GPa) = 0.02334913
#
# Stress axis : x y z
#
# Youngs Moduli (GPa) = 91.80955 72.54505 56.43546
#
# Poissons Ratio (x) = -0.00675 0.26710
# Poissons Ratio (y) = -0.00854 0.27561
# Poissons Ratio (z) = 0.43451 0.35428
#
# Static dielectric constant tensor:
#      x y z
#    x 3.519520 -0.096960 -0.114190 
#    y -0.096960 3.785370 0.145620 
#    z -0.114190 0.145620 3.995760 
# 
# 
# High freq. dielectric constant tensor:
#      x y z
#    x 1.788070 -0.010160 -0.016830 
#    y -0.010160 1.820190 0.007980 
#    z -0.016830 0.007980 1.836120 
# 
# From -- ./inp_files/208142.got.cif
#   From: 2010.06.25/outbox.cif.g09.slc.cpg/sg2_105_cif.got.tgz:208142.got - 2010.06.27 13:26:56.
