data_PCOD8040246
_publ_section_title
;
Structure prediction by ZEFSAII (Michael W. Deem and Ramdas Pophale) SiO2 
 PCOD8040246
Probable space group: P -1
;
_chemical_formula_sum "Si O2"
_cell_formula_units_Z 16
_cell_length_a 10.250516
_cell_length_b 9.393779
_cell_length_c 16.563246
_cell_angle_alpha 108.283690
_cell_angle_beta 122.572462
_cell_angle_gamma 117.887771
_cell_volume 773.084568
_symmetry_space_group_name_H-M "P -1"
_symmetry_group_IT_number 2
_symmetry_cell_setting 'triclinic'
loop_
_space_group_symop_operation_xyz
x,y,z
-x,-y,-z
loop_
_atom_site_type_symbol
_atom_site_label
_atom_site_fract_x
_atom_site_fract_y
_atom_site_fract_z
Si Si1 0.943706 0.605156 0.917514
Si Si2 0.644599 0.311265 0.907867
Si Si3 0.725007 0.371771 0.125662
Si Si4 0.039619 0.857899 0.405773
Si Si5 0.419894 0.776955 0.406288
Si Si6 0.820515 0.091617 0.090629
Si Si7 0.925552 0.100289 0.390523
Si Si8 0.249371 0.406900 0.404551
O O1 0.752922 0.508514 0.909407
O O2 0.795082 0.383466 0.763782
O O3 0.051337 0.829373 0.941682
O O4 0.192053 0.714187 0.056454
O O5 0.348529 0.041755 0.749473
O O6 0.691654 0.409201 0.030420
O O7 0.795349 0.250782 0.130549
O O8 0.943935 0.637433 0.287808
O O9 0.457615 0.196872 0.051464
O O10 0.996846 0.794398 0.474705
O O11 0.335799 0.118763 0.531559
O O12 0.894455 0.896187 0.335766
O O13 0.319655 0.619722 0.426091
O O14 0.500000 0.000000 0.500000
O O15 0.009142 0.155419 0.228459
O O16 0.147313 0.340965 0.450444
O O17 0.500000 0.500000 0.500000
#
# Coordination Sequence:
#
# PCOD8040246 Si02
#       8
#     2   2   2   2   2   2   2   2
#     4   9  19  34  60  84 117 158 195 249 307 356
#     4  10  18  36  59  86 114 154 207 243 297 360
#     4  10  20  38  60  87 118 157 204 250 304 362
#     4  11  23  39  60  90 127 164 202 253 315 366
#     4  11  21  39  61  92 126 161 203 258 315 362
#     4   9  19  36  61  84 120 160 196 251 311 354
#     4  11  23  40  61  89 124 165 205 252 309 368
#     4  11  21  39  62  87 120 164 206 246 305 372
#
# _framework density 20.696313
#
# number of rings (size 3 to 8) (size 9 to 14) (size 15 to 20)
#    0.000    1.750    3.750    2.250    0.000    0.500 
#    0.000    8.750    0.000    1.500    0.000    0.000 
#    0.000    0.000    0.000    0.000    0.000    0.000 
#
# Total GULP energy -198294.283259 kJ/mol
# GULP energy per Si atom -12393.392704 kJ/mol
# Density = 2.064921 g / cm^3
# Si number density = 20.696313 Si / 1000 Ang^3
#
#
#
# Elastic Constant Matrix: (Units=GPa)
#
#
# Indices 1 2 3 4 5 6 
#
# 1 65.0268 46.7576 33.4176 -0.1199 11.1473 30.9429
# 2 46.7576 112.9956 44.5209 -7.4772 -2.5908 44.3029
# 3 33.4176 44.5209 96.8203 -6.8074 23.4430 7.7218
# 4 -0.1199 -7.4772 -6.8074 30.6227 5.5412 2.6618
# 5 11.1473 -2.5908 23.4430 5.5412 36.8440 2.2410
# 6 30.9429 44.3029 7.7218 2.6618 2.2410 51.7025
#
#
#
# Elastic Compliance Matrix: (Units=1/GPa)
#
#
# Indices 1 2 3 4 5 6 
#
# 1 0.028020 -0.005265 -0.005237 -0.000502 -0.004756 -0.011244
# 2 -0.005265 0.019673 -0.008073 0.002578 0.008516 -0.013003
# 3 -0.005237 -0.008073 0.018299 0.003515 -0.011620 0.007641
# 4 -0.000502 0.002578 0.003515 0.035681 -0.007028 -0.003966
# 5 -0.004756 0.008516 -0.011620 -0.007028 0.037873 -0.003995
# 6 -0.011244 -0.013003 0.007641 -0.003966 -0.003995 0.036448
#
#
# Mechanical properties :
#
#
# Convention : Reuss Voigt Hill
#
# Bulk Modulus (GPa) = 34.67081 58.24830 46.45956
# Shear Modulus (GPa) = 22.44575 33.84361 28.14468
#
# Velocity S-wave (km/s) = 3.29679 4.04821 3.69167
# Velocity P-wave (km/s) = 5.59288 7.07503 6.37716
#
# Compressibility (1/GPa) = 0.02884271
#
# Stress axis : x y z
#
# Youngs Moduli (GPa) = 35.68830 50.83043 54.64691
#
# Poissons Ratio (x) = 0.26764 0.28619
# Poissons Ratio (y) = 0.18791 0.44115
# Poissons Ratio (z) = 0.18690 0.41034
#
# Static dielectric constant tensor:
#      x y z
#    x 3.783820 0.632260 0.471830 
#    y 0.632260 4.025160 -0.134160 
#    z 0.471830 -0.134160 3.792900 
# 
# 
# High freq. dielectric constant tensor:
#      x y z
#    x 1.790570 0.043220 0.038440 
#    y 0.043220 1.808610 -0.016300 
#    z 0.038440 -0.016300 1.809740 
# 
# From -- ./inp_files/469285.got.cif
#   From: 2010.06.25/outbox.cif.g09.slc.cpg/sg2_235_cif.got.tgz:469285.got - 2010.06.27 13:26:56.
