data_PCOD8040551
_publ_section_title
;
Structure prediction by ZEFSAII (Michael W. Deem and Ramdas Pophale) SiO2 
 PCOD8040551
Probable space group: P -1
;
_chemical_formula_sum "Si O2"
_cell_formula_units_Z 14
_cell_length_a 11.515171
_cell_length_b 12.427607
_cell_length_c 9.239673
_cell_angle_alpha 111.951090
_cell_angle_beta 142.300637
_cell_angle_gamma 54.794085
_cell_volume 651.647251
_symmetry_space_group_name_H-M "P -1"
_symmetry_group_IT_number 2
_symmetry_cell_setting 'triclinic'
loop_
_space_group_symop_operation_xyz
x,y,z
-x,-y,-z
loop_
_atom_site_type_symbol
_atom_site_label
_atom_site_fract_x
_atom_site_fract_y
_atom_site_fract_z
Si Si1 0.232941 0.809215 0.045934
Si Si2 0.299195 0.205699 0.981601
Si Si3 0.571068 0.064931 0.910779
Si Si4 0.145513 0.594889 0.753389
Si Si5 0.939918 0.471684 0.660673
Si Si6 0.401250 0.257185 0.407400
Si Si7 0.782882 0.855571 0.613032
O O1 0.293114 0.883316 0.020436
O O2 0.361582 0.790961 0.312576
O O3 0.297084 0.658908 0.978669
O O4 0.968195 0.896582 0.853551
O O5 0.441656 0.174531 0.961606
O O6 0.054346 0.330033 0.784817
O O7 0.424112 0.237574 0.248211
O O8 0.272314 0.077722 0.932587
O O9 0.406555 0.043039 0.630325
O O10 0.201463 0.531009 0.617397
O O11 0.142327 0.493179 0.818605
O O12 0.891791 0.715089 0.562760
O O13 0.769596 0.586839 0.655174
O O14 0.312535 0.162909 0.339459
#
# Coordination Sequence:
#
# PCOD8040551 Si02
#       7
#     2   2   2   2   2   2   2
#     4   9  19  39  63  89 109 150 203 238 277 340
#     4  11  22  38  57  88 120 157 185 232 299 349
#     4  10  21  40  63  79 117 158 196 231 281 347
#     4   8  17  34  63  85 107 142 204 231 274 334
#     4  10  18  37  62  84 117 153 185 243 285 340
#     4  10  21  36  61  88 118 149 187 242 300 329
#     4   8  17  39  61  84 111 146 199 236 272 336
#
# _framework density 21.484014999999999
#
# number of rings (size 3 to 8) (size 9 to 14) (size 15 to 20)
#    0.857    1.714    1.429    0.429    2.000    2.857 
#    0.000   12.857    0.000    0.000    0.000    0.000 
#    0.000    0.000    0.000    0.000    0.000    0.000 
#
# Total GULP energy -173478.519133 kJ/mol
# GULP energy per Si atom -12391.322795 kJ/mol
# Density = 2.143512 g / cm^3
# Si number density = 21.484015 Si / 1000 Ang^3
#
#
#
# Elastic Constant Matrix: (Units=GPa)
#
#
# Indices 1 2 3 4 5 6 
#
# 1 65.3638 20.7637 61.2008 -2.9220 6.8914 1.8191
# 2 20.7637 62.1937 22.7171 -18.9042 7.7495 6.2228
# 3 61.2008 22.7171 112.3872 3.3086 13.7728 8.1363
# 4 -2.9220 -18.9042 3.3086 36.5410 5.5494 0.9302
# 5 6.8914 7.7495 13.7728 5.5494 28.9083 9.2035
# 6 1.8191 6.2228 8.1363 0.9302 9.2035 25.8835
#
#
#
# Elastic Compliance Matrix: (Units=1/GPa)
#
#
# Indices 1 2 3 4 5 6 
#
# 1 0.033005 -0.004540 -0.017407 0.001765 -0.000031 0.004191
# 2 -0.004540 0.023075 -0.001633 0.012677 -0.005766 -0.003121
# 3 -0.017407 -0.001633 0.019409 -0.003463 -0.002939 -0.003316
# 4 0.001765 0.012677 -0.003463 0.035747 -0.008975 -0.000177
# 5 -0.000031 -0.005766 -0.002939 -0.008975 0.043335 -0.012774
# 6 0.004191 -0.003121 -0.003316 -0.000177 -0.012774 0.044681
#
#
# Mechanical properties :
#
#
# Convention : Reuss Voigt Hill
#
# Bulk Modulus (GPa) = 35.29836 49.92308 42.61072
# Shear Modulus (GPa) = 19.54238 27.28410 23.41324
#
# Velocity S-wave (km/s) = 3.01927 3.56753 3.30479
# Velocity P-wave (km/s) = 5.34980 6.34488 5.86847
#
# Compressibility (1/GPa) = 0.02832993
#
# Stress axis : x y z
#
# Youngs Moduli (GPa) = 30.29864 43.33718 51.52264
#
# Poissons Ratio (x) = 0.19674 0.89684
# Poissons Ratio (y) = 0.13755 0.08412
# Poissons Ratio (z) = 0.52740 0.07076
#
# Static dielectric constant tensor:
#      x y z
#    x 3.569290 -0.033320 -0.151130 
#    y -0.033320 3.951670 0.003350 
#    z -0.151130 0.003350 3.633060 
# 
# 
# High freq. dielectric constant tensor:
#      x y z
#    x 1.817860 -0.012250 -0.017890 
#    y -0.012250 1.860690 0.002260 
#    z -0.017890 0.002260 1.824590 
# 
# From -- ./inp_files/259715.got.cif
#   From: 2010.06.25/outbox.cif.g09.slc.cpg/sg2_130_cif.got.tgz:259715.got - 2010.06.27 13:26:56.
