data_PCOD8040449
_publ_section_title
;
Structure prediction by ZEFSAII (Michael W. Deem and Ramdas Pophale) SiO2 
 PCOD8040449
Probable space group: P -1
;
_chemical_formula_sum "Si O2"
_cell_formula_units_Z 16
_cell_length_a 10.993857
_cell_length_b 13.807737
_cell_length_c 20.264736
_cell_angle_alpha 29.673703
_cell_angle_beta 25.638106
_cell_angle_gamma 42.950563
_cell_volume 639.705004
_symmetry_space_group_name_H-M "P -1"
_symmetry_group_IT_number 2
_symmetry_cell_setting 'triclinic'
loop_
_space_group_symop_operation_xyz
x,y,z
-x,-y,-z
loop_
_atom_site_type_symbol
_atom_site_label
_atom_site_fract_x
_atom_site_fract_y
_atom_site_fract_z
Si Si1 0.054839 0.374190 0.612530
Si Si2 0.070120 0.059555 0.074781
Si Si3 0.476709 0.542344 0.755319
Si Si4 0.562319 0.178391 0.177038
Si Si5 0.496999 0.467032 0.599340
Si Si6 0.034026 0.778985 0.840454
Si Si7 0.854390 0.222323 0.363198
Si Si8 0.507948 0.442974 0.937505
O O1 0.341490 0.315654 0.472990
O O2 0.178234 0.487299 0.553909
O O3 0.000000 0.500000 0.500000
O O4 0.847659 0.151719 0.857259
O O5 0.827611 0.097217 0.121366
O O6 0.949600 0.045937 0.217784
O O7 0.357417 0.233555 0.820989
O O8 0.238797 0.637208 0.852737
O O9 0.655362 0.468836 0.775137
O O10 0.301342 0.340345 0.924844
O O11 0.675000 0.311439 0.977619
O O12 0.298340 0.986763 0.402155
O O13 0.455706 0.331164 0.188065
O O14 0.500000 0.500000 0.500000
O O15 0.310205 0.604604 0.643901
O O16 0.151558 0.844511 0.671455
O O17 0.179675 0.311879 0.174949
#
# Coordination Sequence:
#
# PCOD8040449 Si02
#       8
#     2   2   2   2   2   2   2   2
#     4  12  28  48  68 100 137 181 241 286 326 410
#     4  12  23  44  74  98 131 178 230 283 352 401
#     4  10  18  39  65  95 135 165 214 279 343 387
#     4  11  21  36  64  98 138 169 213 266 350 412
#     4  12  26  48  69  94 137 188 234 276 332 412
#     4  10  18  36  75  99 124 168 215 283 349 398
#     4  11  21  42  65  97 137 172 222 274 347 406
#     4  10  22  36  61 102 141 166 208 284 336 423
#
# _framework density 25.011528999999999
#
# number of rings (size 3 to 8) (size 9 to 14) (size 15 to 20)
#    0.000    1.000    6.250    1.125    1.750    3.000 
#    2.250    1.250    0.000    0.000    0.000    0.000 
#    0.000    0.000    0.000    0.000    0.000    0.000 
#
# Total GULP energy -198240.504992 kJ/mol
# GULP energy per Si atom -12390.031562 kJ/mol
# Density = 2.495460 g / cm^3
# Si number density = 25.011529 Si / 1000 Ang^3
#
#
#
# Elastic Constant Matrix: (Units=GPa)
#
#
# Indices 1 2 3 4 5 6 
#
# 1 133.1652 39.2993 22.9043 -11.0400 8.6944 10.8560
# 2 39.2993 66.4771 36.8948 -22.8069 2.4674 4.1399
# 3 22.9043 36.8948 107.7644 -33.3139 -1.6393 13.0362
# 4 -11.0400 -22.8069 -33.3139 44.3870 6.4281 7.7567
# 5 8.6944 2.4674 -1.6393 6.4281 39.2748 -2.2129
# 6 10.8560 4.1399 13.0362 7.7567 -2.2129 31.1555
#
#
#
# Elastic Compliance Matrix: (Units=1/GPa)
#
#
# Indices 1 2 3 4 5 6 
#
# 1 0.009446 -0.005262 0.000369 0.000757 -0.002043 -0.003080
# 2 -0.005262 0.023470 -0.004222 0.008154 -0.001915 -0.001685
# 3 0.000369 -0.004222 0.015067 0.010966 -0.001473 -0.008707
# 4 0.000757 0.008154 0.010966 0.039058 -0.007527 -0.016194
# 5 -0.002043 -0.001915 -0.001473 -0.007527 0.027509 0.005411
# 6 -0.003080 -0.001685 -0.008707 -0.016194 0.005411 0.041454
#
#
# Mechanical properties :
#
#
# Convention : Reuss Voigt Hill
#
# Bulk Modulus (GPa) = 33.60758 56.17815 44.89287
# Shear Modulus (GPa) = 27.15178 36.85069 32.00124
#
# Velocity S-wave (km/s) = 3.29837 3.84259 3.58083
# Velocity P-wave (km/s) = 5.28883 6.49592 5.92320
#
# Compressibility (1/GPa) = 0.02975519
#
# Stress axis : x y z
#
# Youngs Moduli (GPa) = 105.86435 42.60794 66.36937
#
# Poissons Ratio (x) = 0.22420 -0.02452
# Poissons Ratio (y) = 0.55704 0.28018
# Poissons Ratio (z) = -0.03911 0.17987
#
# Static dielectric constant tensor:
#      x y z
#    x 4.960290 -0.057770 -0.155630 
#    y -0.057770 5.209300 0.744370 
#    z -0.155630 0.744370 5.222960 
# 
# 
# High freq. dielectric constant tensor:
#      x y z
#    x 2.020730 0.001870 0.001300 
#    y 0.001870 1.984570 0.005460 
#    z 0.001300 0.005460 2.003570 
# 
# From -- ./inp_files/595458.got.cif
#   From: 2010.06.25/outbox.cif.g09.slc.cpg/sg2_298_cif.got.tgz:595458.got - 2010.06.27 13:26:56.
