data_PCOD8040877
_publ_section_title
;
Structure prediction by ZEFSAII (Michael W. Deem and Ramdas Pophale) SiO2 
 PCOD8040877
Probable space group: P -1
;
_chemical_formula_sum "Si O2"
_cell_formula_units_Z 16
_cell_length_a 9.790012
_cell_length_b 9.506167
_cell_length_c 18.462132
_cell_angle_alpha 113.095645
_cell_angle_beta 119.849825
_cell_angle_gamma 117.262657
_cell_volume 786.800177
_symmetry_space_group_name_H-M "P -1"
_symmetry_group_IT_number 2
_symmetry_cell_setting 'triclinic'
loop_
_space_group_symop_operation_xyz
x,y,z
-x,-y,-z
loop_
_atom_site_type_symbol
_atom_site_label
_atom_site_fract_x
_atom_site_fract_y
_atom_site_fract_z
Si Si1 0.754942 0.763735 0.442668
Si Si2 0.101096 0.550937 0.115614
Si Si3 0.176099 0.865449 0.402488
Si Si4 0.535470 0.083936 0.406402
Si Si5 0.867059 0.149953 0.169410
Si Si6 0.164178 0.270074 0.134156
Si Si7 0.723949 0.565937 0.536794
Si Si8 0.256613 0.625681 0.886290
O O1 0.490316 0.496089 0.273491
O O2 0.829079 0.700183 0.511929
O O3 0.691005 0.864941 0.492472
O O4 0.000000 0.000000 0.500000
O O5 0.119006 0.383901 0.097286
O O6 0.879974 0.456345 0.089072
O O7 0.399211 0.867775 0.266081
O O8 0.000000 0.500000 0.000000
O O9 0.186246 0.773345 0.461001
O O10 0.863265 0.615474 0.239289
O O11 0.338983 0.916904 0.390418
O O12 0.580016 0.288317 0.429680
O O13 0.811961 0.283114 0.164139
O O14 0.571186 0.834506 0.025829
O O15 0.057041 0.214846 0.175306
O O16 0.010217 0.242314 0.303527
O O17 0.000000 0.000000 0.000000
O O18 0.500000 0.500000 0.500000
#
# Coordination Sequence:
#
# PCOD8040877 Si02
#       8
#     2   2   2   2   2   2   2   2
#     4  12  27  43  62  95 136 169 209 273 336 385
#     4  10  22  38  62  92 129 166 210 263 325 385
#     4  10  18  39  66  91 120 168 216 261 323 374
#     4  10  19  37  69  91 118 168 223 266 305 386
#     4  10  20  40  64  94 121 164 218 271 307 382
#     4  11  24  42  62  89 132 176 207 258 334 392
#     4  12  22  40  67  97 123 164 224 263 315 392
#     4   9  20  37  65  93 122 162 216 268 315 369
#
# _framework density 20.335532000000001
#
# number of rings (size 3 to 8) (size 9 to 14) (size 15 to 20)
#    0.000    1.500    5.000    0.000    3.500    1.000 
#    0.000    1.250    0.000    0.000    0.000    0.000 
#    0.000    0.000    0.000    0.000    0.000    0.000 
#
# Total GULP energy -198295.436441 kJ/mol
# GULP energy per Si atom -12393.464778 kJ/mol
# Density = 2.028925 g / cm^3
# Si number density = 20.335532 Si / 1000 Ang^3
#
#
#
# Elastic Constant Matrix: (Units=GPa)
#
#
# Indices 1 2 3 4 5 6 
#
# 1 38.1810 34.5461 43.3702 0.2339 -0.1833 -4.6068
# 2 34.5461 136.2969 75.8326 -9.6446 -9.2609 -2.5988
# 3 43.3702 75.8326 195.8608 4.9219 -5.1269 2.2838
# 4 0.2339 -9.6446 4.9219 42.0431 -2.7124 -8.6755
# 5 -0.1833 -9.2609 -5.1269 -2.7124 32.7921 12.3778
# 6 -4.6068 -2.5988 2.2838 -8.6755 12.3778 31.9560
#
#
#
# Elastic Compliance Matrix: (Units=1/GPa)
#
#
# Indices 1 2 3 4 5 6 
#
# 1 0.040935 -0.006897 -0.006648 0.000273 -0.005808 0.008139
# 2 -0.006897 0.011019 -0.002734 0.003030 0.002986 -0.000237
# 3 -0.006648 -0.002734 0.007752 -0.001987 0.001285 -0.002772
# 4 0.000273 0.003030 -0.001987 0.026274 -0.000157 0.007622
# 5 -0.005808 0.002986 0.001285 -0.000157 0.037209 -0.015141
# 6 0.008139 -0.000237 -0.002772 0.007622 -0.015141 0.040579
#
#
# Mechanical properties :
#
#
# Convention : Reuss Voigt Hill
#
# Bulk Modulus (GPa) = 36.83464 75.31515 56.07489
# Shear Modulus (GPa) = 24.34550 35.79759 30.07154
#
# Velocity S-wave (km/s) = 3.46380 4.20020 3.84965
# Velocity P-wave (km/s) = 5.84380 7.78710 6.88436
#
# Compressibility (1/GPa) = 0.02714836
#
# Stress axis : x y z
#
# Youngs Moduli (GPa) = 24.42877 90.75120 128.99392
#
# Poissons Ratio (x) = 0.62590 0.85755
# Poissons Ratio (y) = 0.16848 0.35272
# Poissons Ratio (z) = 0.16240 0.24815
#
# Static dielectric constant tensor:
#      x y z
#    x 3.448290 -0.067470 -0.021610 
#    y -0.067470 3.664520 0.134420 
#    z -0.021610 0.134420 4.113360 
# 
# 
# High freq. dielectric constant tensor:
#      x y z
#    x 1.764450 -0.005920 -0.005280 
#    y -0.005920 1.789580 0.003770 
#    z -0.005280 0.003770 1.816750 
# 
# From -- ./inp_files/566037.got.cif
#   From: 2010.06.25/outbox.cif.g09.slc.cpg/sg2_284_cif.got.tgz:566037.got - 2010.06.27 13:26:56.
