data_PCOD8040827
_publ_section_title
;
Structure prediction by ZEFSAII (Michael W. Deem and Ramdas Pophale) SiO2 
 PCOD8040827
Probable space group: P -1
;
_chemical_formula_sum "Si O2"
_cell_formula_units_Z 14
_cell_length_a 14.454016
_cell_length_b 8.295992
_cell_length_c 8.018000
_cell_angle_alpha 74.206474
_cell_angle_beta 103.774661
_cell_angle_gamma 136.377362
_cell_volume 637.040267
_symmetry_space_group_name_H-M "P -1"
_symmetry_group_IT_number 2
_symmetry_cell_setting 'triclinic'
loop_
_space_group_symop_operation_xyz
x,y,z
-x,-y,-z
loop_
_atom_site_type_symbol
_atom_site_label
_atom_site_fract_x
_atom_site_fract_y
_atom_site_fract_z
Si Si1 0.406484 0.897455 0.646643
Si Si2 0.217321 0.910655 0.378593
Si Si3 0.350599 0.647067 0.224861
Si Si4 0.576385 0.599258 0.829662
Si Si5 0.087036 0.517592 0.170705
Si Si6 0.336278 0.472175 0.626755
Si Si7 0.094046 0.968847 0.594470
O O1 0.294652 0.895932 0.555426
O O2 0.344350 0.633398 0.723208
O O3 0.500000 0.000000 0.500000
O O4 0.504885 0.075745 0.790260
O O5 0.115235 0.670515 0.298112
O O6 0.138495 0.946838 0.443546
O O7 0.308212 0.116776 0.219682
O O8 0.362233 0.508189 0.141461
O O9 0.228049 0.618757 0.128749
O O10 0.313086 0.527717 0.422622
O O11 0.468870 0.521045 0.665415
O O12 0.500000 0.500000 0.000000
O O13 0.986434 0.251363 0.259646
O O14 0.000000 0.500000 0.000000
O O15 0.216282 0.195700 0.692572
O O16 0.000000 0.000000 0.500000
#
# Coordination Sequence:
#
# PCOD8040827 Si02
#       7
#     2   2   2   2   2   2   2
#     4  10  18  38  76  94 121 164 224 291 320 385
#     4  12  22  45  69  97 130 175 231 274 330 405
#     4  11  20  46  69  95 134 177 225 271 336 405
#     4  12  25  40  67 106 137 169 213 294 352 390
#     4  12  27  46  65 100 142 181 220 281 335 393
#     4  11  20  41  70  99 127 168 233 273 334 396
#     4  12  24  44  72  96 130 182 235 268 316 412
#
# _framework density 21.976631000000001
#
# number of rings (size 3 to 8) (size 9 to 14) (size 15 to 20)
#    0.000    0.571    8.571    1.714    2.000    0.000 
#    5.143    2.857    0.000    0.000    0.000    0.000 
#    0.000    0.000    0.000    0.000    0.000    0.000 
#
# Total GULP energy -173531.184501 kJ/mol
# GULP energy per Si atom -12395.084607 kJ/mol
# Density = 2.192661 g / cm^3
# Si number density = 21.976631 Si / 1000 Ang^3
#
#
#
# Elastic Constant Matrix: (Units=GPa)
#
#
# Indices 1 2 3 4 5 6 
#
# 1 155.2488 55.3053 47.7682 5.1792 21.0582 -6.0402
# 2 55.3053 176.9924 38.5512 3.9984 5.8870 -18.7756
# 3 47.7682 38.5512 79.0273 -1.4384 23.5299 4.8581
# 4 5.1792 3.9984 -1.4384 24.4259 10.6590 7.2916
# 5 21.0582 5.8870 23.5299 10.6590 28.1953 4.7622
# 6 -6.0402 -18.7756 4.8581 7.2916 4.7622 31.6660
#
#
#
# Elastic Compliance Matrix: (Units=1/GPa)
#
#
# Indices 1 2 3 4 5 6 
#
# 1 0.008661 -0.001555 -0.003748 -0.001122 -0.002931 0.002005
# 2 -0.001555 0.007628 -0.004399 -0.004541 0.004055 0.005337
# 3 -0.003748 -0.004399 0.023745 0.013819 -0.020120 -0.007123
# 4 -0.001122 -0.004541 0.013819 0.060136 -0.030056 -0.014354
# 5 -0.002931 0.004055 -0.020120 -0.030056 0.064601 0.002138
# 6 0.002005 0.005337 -0.007123 -0.014354 0.002138 0.039203
#
#
# Mechanical properties :
#
#
# Convention : Reuss Voigt Hill
#
# Bulk Modulus (GPa) = 48.47219 77.16866 62.82042
# Shear Modulus (GPa) = 21.71501 34.83369 28.27435
#
# Velocity S-wave (km/s) = 3.14681 3.98557 3.59076
# Velocity P-wave (km/s) = 5.94200 7.50799 6.77042
#
# Compressibility (1/GPa) = 0.02063039
#
# Stress axis : x y z
#
# Youngs Moduli (GPa) = 115.45688 131.09878 42.11331
#
# Poissons Ratio (x) = 0.20380 0.15784
# Poissons Ratio (y) = 0.17949 0.18528
# Poissons Ratio (z) = 0.43273 0.57677
#
# Static dielectric constant tensor:
#      x y z
#    x 4.342010 -0.301420 0.266690 
#    y -0.301420 5.144340 0.156200 
#    z 0.266690 0.156200 3.543670 
# 
# 
# High freq. dielectric constant tensor:
#      x y z
#    x 1.873980 -0.009420 0.018180 
#    y -0.009420 1.885300 -0.000760 
#    z 0.018180 -0.000760 1.830420 
# 
# From -- ./inp_files/294938.got.cif
#   From: 2010.06.25/outbox.cif.g09.slc.cpg/sg2_148_cif.got.tgz:294938.got - 2010.06.27 13:26:56.
