data_PCOD8040626
_publ_section_title
;
Structure prediction by ZEFSAII (Michael W. Deem and Ramdas Pophale) SiO2 
 PCOD8040626
Probable space group: P -1
;
_chemical_formula_sum "Si O2"
_cell_formula_units_Z 14
_cell_length_a 14.063785
_cell_length_b 9.517447
_cell_length_c 9.347386
_cell_angle_alpha 79.751249
_cell_angle_beta 73.983365
_cell_angle_gamma 32.718259
_cell_volume 646.461949
_symmetry_space_group_name_H-M "P -1"
_symmetry_group_IT_number 2
_symmetry_cell_setting 'triclinic'
loop_
_space_group_symop_operation_xyz
x,y,z
-x,-y,-z
loop_
_atom_site_type_symbol
_atom_site_label
_atom_site_fract_x
_atom_site_fract_y
_atom_site_fract_z
Si Si1 0.930033 0.954975 0.850908
Si Si2 0.425090 0.217062 0.084152
Si Si3 0.531231 0.812371 0.600158
Si Si4 0.457298 0.640975 0.128565
Si Si5 0.328966 0.779715 0.639126
Si Si6 0.960399 0.235596 0.860957
Si Si7 0.177836 0.723332 0.546994
O O1 0.760959 0.097894 0.803532
O O2 0.880706 0.172198 0.889755
O O3 0.114627 0.730774 0.722002
O O4 0.967227 0.815029 0.000840
O O5 0.513826 0.121759 0.223822
O O6 0.209929 0.455603 0.155004
O O7 0.470579 0.289638 0.944270
O O8 0.500000 0.000000 0.000000
O O9 0.408004 0.841816 0.567277
O O10 0.735435 0.504870 0.547086
O O11 0.500000 0.000000 0.500000
O O12 0.561984 0.440134 0.249197
O O13 0.500000 0.500000 0.000000
O O14 0.321277 0.681868 0.521605
O O15 0.121129 0.063429 0.714280
O O16 0.000000 0.000000 0.500000
#
# Coordination Sequence:
#
# PCOD8040626 Si02
#       7
#     2   2   2   2   2   2   2
#     4  10  19  34  66 100 122 162 220 290 323 379
#     4  12  26  43  66  95 137 180 225 277 341 397
#     4  12  27  46  63 101 147 177 219 284 350 407
#     4  12  19  40  73 100 126 166 237 287 323 387
#     4  11  22  42  75  98 126 182 230 280 333 403
#     4  10  18  37  65  95 125 161 227 280 325 381
#     4  11  24  42  68  97 136 179 233 273 335 418
#
# _framework density 21.656341000000001
#
# number of rings (size 3 to 8) (size 9 to 14) (size 15 to 20)
#    0.000    0.857    4.286    4.714    4.000    0.000 
#    2.571    2.857    0.000    0.000    0.000    0.000 
#    0.000    0.000    0.000    0.000    0.000    0.000 
#
# Total GULP energy -173544.971618 kJ/mol
# GULP energy per Si atom -12396.069401 kJ/mol
# Density = 2.160705 g / cm^3
# Si number density = 21.656341 Si / 1000 Ang^3
#
#
#
# Elastic Constant Matrix: (Units=GPa)
#
#
# Indices 1 2 3 4 5 6 
#
# 1 111.1853 58.3335 34.2829 -6.0677 -3.6226 8.5396
# 2 58.3335 116.3582 30.1237 2.2932 3.2111 11.3351
# 3 34.2829 30.1237 75.1834 2.4492 5.0341 18.3171
# 4 -6.0677 2.2932 2.4492 37.7487 4.5200 6.4079
# 5 -3.6226 3.2111 5.0341 4.5200 37.1247 -0.8711
# 6 8.5396 11.3351 18.3171 6.4079 -0.8711 37.0584
#
#
#
# Elastic Compliance Matrix: (Units=1/GPa)
#
#
# Indices 1 2 3 4 5 6 
#
# 1 0.013509 -0.005845 -0.004119 0.002488 0.002087 0.000330
# 2 -0.005845 0.012169 -0.001763 -0.001187 -0.001270 -0.001328
# 3 -0.004119 -0.001763 0.017881 -0.000121 -0.002833 -0.007395
# 4 0.002488 -0.001187 -0.000121 0.028220 -0.003194 -0.005105
# 5 0.002087 -0.001270 -0.002833 -0.003194 0.028082 0.002520
# 6 0.000330 -0.001328 -0.007395 -0.005105 0.002520 0.031912
#
#
# Mechanical properties :
#
#
# Convention : Reuss Voigt Hill
#
# Bulk Modulus (GPa) = 49.74053 60.91190 55.32622
# Shear Modulus (GPa) = 30.87789 34.38550 32.63170
#
# Velocity S-wave (km/s) = 3.78009 3.98902 3.88596
# Velocity P-wave (km/s) = 6.48615 7.02880 6.76292
#
# Compressibility (1/GPa) = 0.02010433
#
# Stress axis : x y z
#
# Youngs Moduli (GPa) = 74.02447 82.17893 55.92540
#
# Poissons Ratio (x) = 0.48032 0.23037
# Poissons Ratio (y) = 0.43266 0.09860
# Poissons Ratio (z) = 0.30493 0.14489
#
# Static dielectric constant tensor:
#      x y z
#    x 3.364530 -0.191040 0.056820 
#    y -0.191040 3.930270 0.317880 
#    z 0.056820 0.317880 4.119540 
# 
# 
# High freq. dielectric constant tensor:
#      x y z
#    x 1.837260 -0.026440 0.007610 
#    y -0.026440 1.846860 0.014030 
#    z 0.007610 0.014030 1.856420 
# 
# From -- ./inp_files/243452.got.cif
#   From: 2010.06.25/outbox.cif.g09.slc.cpg/sg2_122_cif.got.tgz:243452.got - 2010.06.27 13:26:56.
