data_PCOD8040431
_publ_section_title
;
Structure prediction by ZEFSAII (Michael W. Deem and Ramdas Pophale) SiO2 
 PCOD8040431
Probable space group: P -1
;
_chemical_formula_sum "Si O2"
_cell_formula_units_Z 16
_cell_length_a 16.855164
_cell_length_b 11.202525
_cell_length_c 8.736014
_cell_angle_alpha 52.732736
_cell_angle_beta 54.168806
_cell_angle_gamma 35.013346
_cell_volume 738.608157
_symmetry_space_group_name_H-M "P -1"
_symmetry_group_IT_number 2
_symmetry_cell_setting 'triclinic'
loop_
_space_group_symop_operation_xyz
x,y,z
-x,-y,-z
loop_
_atom_site_type_symbol
_atom_site_label
_atom_site_fract_x
_atom_site_fract_y
_atom_site_fract_z
Si Si1 0.355791 0.743289 0.011067
Si Si2 0.909383 0.293966 0.359719
Si Si3 0.452791 0.945661 0.732378
Si Si4 0.224484 0.975609 0.276871
Si Si5 0.110323 0.783790 0.219438
Si Si6 0.249528 0.285520 0.942860
Si Si7 0.200645 0.800039 0.690990
Si Si8 0.296991 0.446029 0.046070
O O1 0.355757 0.913257 0.806129
O O2 0.500000 0.500000 0.000000
O O3 0.344305 0.783220 0.176891
O O4 0.219379 0.803150 0.060313
O O5 0.866891 0.324677 0.560582
O O6 0.877934 0.496225 0.175529
O O7 0.815684 0.286366 0.372263
O O8 0.073498 0.070760 0.324102
O O9 0.582193 0.716375 0.842616
O O10 0.500000 0.000000 0.500000
O O11 0.379461 0.129953 0.799254
O O12 0.259463 0.890048 0.480722
O O13 0.202904 0.176446 0.141744
O O14 0.149573 0.616747 0.175004
O O15 0.949273 0.014131 0.197203
O O16 0.295880 0.323377 0.011867
O O17 0.312745 0.595643 0.834632
#
# Coordination Sequence:
#
# PCOD8040431 Si02
#       8
#     2   2   2   2   2   2   2   2
#     4  11  21  36  64  91 115 149 207 254 278 346
#     4  10  18  36  67  87 118 159 199 250 284 353
#     4  11  24  43  63  83 119 161 204 243 293 358
#     4  10  19  38  60  93 119 153 205 240 293 350
#     4  11  19  38  64  91 118 151 208 243 297 345
#     4  10  23  37  59  89 124 162 192 242 300 355
#     4  10  20  37  65  89 119 157 193 256 297 344
#     4  11  23  39  58  86 125 160 192 242 307 356
#
# _framework density 21.662365999999999
#
# number of rings (size 3 to 8) (size 9 to 14) (size 15 to 20)
#    0.000    1.500    3.750    2.625    0.000    0.000 
#    2.250    5.000    0.000    0.000    0.000    0.000 
#    0.000    0.000    0.000    0.000    0.000    0.000 
#
# Total GULP energy -198287.244328 kJ/mol
# GULP energy per Si atom -12392.952771 kJ/mol
# Density = 2.161306 g / cm^3
# Si number density = 21.662366 Si / 1000 Ang^3
#
#
#
# Elastic Constant Matrix: (Units=GPa)
#
#
# Indices 1 2 3 4 5 6 
#
# 1 51.5285 23.9919 37.0911 1.3941 -3.0761 12.3249
# 2 23.9919 122.1306 58.6022 0.7847 8.8003 14.0023
# 3 37.0911 58.6022 166.5204 -10.6859 -5.3567 2.2265
# 4 1.3941 0.7847 -10.6859 45.3758 -3.5913 11.1636
# 5 -3.0761 8.8003 -5.3567 -3.5913 27.2472 0.4002
# 6 12.3249 14.0023 2.2265 11.1636 0.4002 36.1722
#
#
#
# Elastic Compliance Matrix: (Units=1/GPa)
#
#
# Indices 1 2 3 4 5 6 
#
# 1 0.025876 -0.002075 -0.004823 0.000251 0.002791 -0.007825
# 2 -0.002075 0.010978 -0.003540 -0.000552 -0.004503 -0.003105
# 3 -0.004823 -0.003540 0.008506 0.001953 0.002501 0.001860
# 4 0.000251 -0.000552 0.001953 0.024697 0.003958 -0.007658
# 5 0.002791 -0.004503 0.002501 0.003958 0.039499 -0.001020
# 6 -0.007825 -0.003105 0.001860 -0.007658 -0.001020 0.033774
#
#
# Mechanical properties :
#
#
# Convention : Reuss Voigt Hill
#
# Bulk Modulus (GPa) = 40.84147 64.39441 52.61794
# Shear Modulus (GPa) = 29.00780 36.45867 32.73323
#
# Velocity S-wave (km/s) = 3.66332 4.10694 3.89146
# Velocity P-wave (km/s) = 6.06530 7.23051 6.67338
#
# Compressibility (1/GPa) = 0.02448492
#
# Stress axis : x y z
#
# Youngs Moduli (GPa) = 38.64609 91.09013 117.55915
#
# Poissons Ratio (x) = 0.18897 0.56699
# Poissons Ratio (y) = 0.08017 0.41618
# Poissons Ratio (z) = 0.18639 0.32247
#
# Static dielectric constant tensor:
#      x y z
#    x 3.668650 0.217220 -0.026510 
#    y 0.217220 4.089730 -0.105080 
#    z -0.026510 -0.105080 4.413490 
# 
# 
# High freq. dielectric constant tensor:
#      x y z
#    x 1.817440 0.019290 0.006020 
#    y 0.019290 1.862700 -0.000600 
#    z 0.006020 -0.000600 1.866530 
# 
# From -- ./inp_files/180204.got.cif
#   From: 2010.06.25/outbox.cif.g09.slc.cpg/sg2_91_cif.got.tgz:180204.got - 2010.06.27 13:26:56.
