data_PCOD8040064
_publ_section_title
;
Structure prediction by ZEFSAII (Michael W. Deem and Ramdas Pophale) SiO2 
 PCOD8040064
Probable space group: P -1
;
_chemical_formula_sum "Si O2"
_cell_formula_units_Z 16
_cell_length_a 14.987255
_cell_length_b 9.230674
_cell_length_c 14.601650
_cell_angle_alpha 37.495013
_cell_angle_beta 39.163238
_cell_angle_gamma 60.522858
_cell_volume 735.630387
_symmetry_space_group_name_H-M "P -1"
_symmetry_group_IT_number 2
_symmetry_cell_setting 'triclinic'
loop_
_space_group_symop_operation_xyz
x,y,z
-x,-y,-z
loop_
_atom_site_type_symbol
_atom_site_label
_atom_site_fract_x
_atom_site_fract_y
_atom_site_fract_z
Si Si1 0.176913 0.116462 0.454780
Si Si2 0.308763 0.991899 0.247112
Si Si3 0.141493 0.212372 0.947214
Si Si4 0.033023 0.436553 0.118320
Si Si5 0.353996 0.461635 0.491030
Si Si6 0.979156 0.362895 0.399237
Si Si7 0.863606 0.748812 0.382314
Si Si8 0.324111 0.349143 0.899310
O O1 0.129986 0.331886 0.331904
O O2 0.214163 0.216557 0.478063
O O3 0.317142 0.088530 0.298438
O O4 0.042111 0.856834 0.696879
O O5 0.366352 0.753177 0.316196
O O6 0.135878 0.913117 0.392802
O O7 0.382997 0.213390 0.004451
O O8 0.270965 0.361860 0.700860
O O9 0.231451 0.154338 0.992184
O O10 0.045889 0.396412 0.963685
O O11 0.020920 0.964282 0.128095
O O12 0.001846 0.511834 0.209771
O O13 0.213496 0.507983 0.934303
O O14 0.262963 0.268246 0.583295
O O15 0.523709 0.457021 0.360615
O O16 0.907427 0.494746 0.467533
#
# Coordination Sequence:
#
# PCOD8040064 Si02
#       8
#     2   2   2   2   2   2   2   2
#     4  11  18  36  65  96 119 157 218 262 297 361
#     4  10  19  39  64  91 122 165 206 260 305 369
#     4  12  23  42  65  92 123 171 213 253 300 375
#     4  11  20  37  67  89 120 162 216 254 294 362
#     4  11  25  42  62  91 134 163 202 260 319 368
#     4  10  18  35  62  93 125 155 209 261 306 351
#     4  11  23  37  64  91 128 165 208 250 316 369
#     4  12  23  39  66  97 121 163 213 260 309 365
#
# _framework density 21.750053000000001
#
# number of rings (size 3 to 8) (size 9 to 14) (size 15 to 20)
#    0.000    1.000    7.500    2.625    0.000    1.000 
#    0.000    1.250    2.750    0.000    0.000    0.000 
#    0.000    0.000    0.000    0.000    0.000    0.000 
#
# Total GULP energy -198234.568168 kJ/mol
# GULP energy per Si atom -12389.660511 kJ/mol
# Density = 2.170055 g / cm^3
# Si number density = 21.750053 Si / 1000 Ang^3
#
#
#
# Elastic Constant Matrix: (Units=GPa)
#
#
# Indices 1 2 3 4 5 6 
#
# 1 73.2593 33.3395 26.0294 9.5152 4.2134 14.8995
# 2 33.3395 93.8420 26.6171 16.6823 2.2933 28.5920
# 3 26.0294 26.6171 77.5098 21.6524 -1.4168 4.5262
# 4 9.5152 16.6823 21.6524 29.8517 -1.6192 2.9096
# 5 4.2134 2.2933 -1.4168 -1.6192 31.9363 -1.8800
# 6 14.8995 28.5920 4.5262 2.9096 -1.8800 27.2979
#
#
#
# Elastic Compliance Matrix: (Units=1/GPa)
#
#
# Indices 1 2 3 4 5 6 
#
# 1 0.018154 -0.003228 -0.004639 -0.000188 -0.002727 -0.005926
# 2 -0.003228 0.018938 -0.002789 -0.005990 -0.002370 -0.017136
# 3 -0.004639 -0.002789 0.018133 -0.010400 0.001304 0.003645
# 4 -0.000188 -0.005990 -0.010400 0.044236 0.002446 0.003554
# 5 -0.002727 -0.002370 0.001304 0.002446 0.032361 0.005723
# 6 -0.005926 -0.017136 0.003645 0.003554 0.005723 0.057227
#
#
# Mechanical properties :
#
#
# Convention : Reuss Voigt Hill
#
# Bulk Modulus (GPa) = 29.48687 46.28701 37.88694
# Shear Modulus (GPa) = 22.55647 28.39218 25.47433
#
# Velocity S-wave (km/s) = 3.22386 3.61693 3.42604
# Velocity P-wave (km/s) = 5.23873 6.22659 5.75390
#
# Compressibility (1/GPa) = 0.03391340
#
# Stress axis : x y z
#
# Youngs Moduli (GPa) = 55.08391 52.80430 55.14674
#
# Poissons Ratio (x) = 0.17046 0.25584
# Poissons Ratio (y) = 0.17782 0.15378
# Poissons Ratio (z) = 0.25555 0.14725
#
# Static dielectric constant tensor:
#      x y z
#    x 3.908500 0.218360 0.205910 
#    y 0.218360 3.889090 0.276030 
#    z 0.205910 0.276030 3.746550 
# 
# 
# High freq. dielectric constant tensor:
#      x y z
#    x 1.847810 0.010610 0.025570 
#    y 0.010610 1.853920 0.025690 
#    z 0.025570 0.025690 1.833780 
# 
# From -- ./inp_files/528057.got.cif
#   From: 2010.06.25/outbox.cif.g09.slc.cpg/sg2_265_cif.got.tgz:528057.got - 2010.06.27 13:26:56.
