data_PCOD8040892
_publ_section_title
;
Structure prediction by ZEFSAII (Michael W. Deem and Ramdas Pophale) SiO2 
 PCOD8040892
Probable space group: P -1
;
_chemical_formula_sum "Si O2"
_cell_formula_units_Z 14
_cell_length_a 8.718530
_cell_length_b 14.005456
_cell_length_c 11.506218
_cell_angle_alpha 151.840905
_cell_angle_beta 84.598594
_cell_angle_gamma 85.726405
_cell_volume 621.899431
_symmetry_space_group_name_H-M "P -1"
_symmetry_group_IT_number 2
_symmetry_cell_setting 'triclinic'
loop_
_space_group_symop_operation_xyz
x,y,z
-x,-y,-z
loop_
_atom_site_type_symbol
_atom_site_label
_atom_site_fract_x
_atom_site_fract_y
_atom_site_fract_z
Si Si1 0.369103 0.967646 0.686862
Si Si2 0.703252 0.030046 0.732418
Si Si3 0.877382 0.205777 0.089019
Si Si4 0.343192 0.699849 0.196875
Si Si5 0.992622 0.769845 0.288977
Si Si6 0.834654 0.231642 0.376057
Si Si7 0.083621 0.386579 0.116456
O O1 0.349983 0.904239 0.487769
O O2 0.330490 0.794537 0.588462
O O3 0.552597 0.950437 0.683991
O O4 0.246505 0.210320 0.966242
O O5 0.742558 0.125025 0.951455
O O6 0.656066 0.228602 0.859340
O O7 0.855799 0.821036 0.455004
O O8 0.807063 0.316855 0.336528
O O9 0.037432 0.004808 0.883273
O O10 0.925733 0.373359 0.183518
O O11 0.179649 0.641649 0.178216
O O12 0.500000 0.500000 0.000000
O O13 0.946549 0.637270 0.045132
O O14 0.000000 0.000000 0.500000
O O15 0.897562 0.384467 0.616905
#
# Coordination Sequence:
#
# PCOD8040892 Si02
#       7
#     2   2   2   2   2   2   2
#     4  11  24  40  61  97 141 168 218 277 323 391
#     4  11  22  42  68  93 136 182 202 277 339 379
#     4  10  21  45  67  94 136 168 228 278 317 389
#     4  11  23  39  67  99 132 169 219 271 333 390
#     4  10  18  39  67  95 130 168 217 267 331 387
#     4  10  24  40  68 100 125 181 225 267 326 390
#     4  11  20  41  70  94 131 174 223 270 332 384
#
# _framework density 22.511679000000001
#
# number of rings (size 3 to 8) (size 9 to 14) (size 15 to 20)
#    0.000    1.429    5.714    1.714    2.000    1.714 
#    0.000    2.857    0.000    0.000    0.000    0.000 
#    0.000    0.000    0.000    0.000    0.000    0.000 
#
# Total GULP energy -173595.671056 kJ/mol
# GULP energy per Si atom -12399.690790 kJ/mol
# Density = 2.246044 g / cm^3
# Si number density = 22.511679 Si / 1000 Ang^3
#
#
#
# Elastic Constant Matrix: (Units=GPa)
#
#
# Indices 1 2 3 4 5 6 
#
# 1 197.1741 44.0671 43.4491 -12.3970 14.0346 5.1477
# 2 44.0671 68.0965 13.9556 -23.5895 4.6413 -4.7068
# 3 43.4491 13.9556 80.9438 -14.3377 14.7210 -4.9309
# 4 -12.3970 -23.5895 -14.3377 33.7042 -11.1767 5.6928
# 5 14.0346 4.6413 14.7210 -11.1767 36.9645 5.5038
# 6 5.1477 -4.7068 -4.9309 5.6928 5.5038 28.4030
#
#
#
# Elastic Compliance Matrix: (Units=1/GPa)
#
#
# Indices 1 2 3 4 5 6 
#
# 1 0.006767 -0.004498 -0.003135 -0.002033 -0.001088 -0.001898
# 2 -0.004498 0.022618 0.000737 0.015329 0.003057 0.001026
# 3 -0.003135 0.000737 0.015630 0.003949 -0.004450 0.003475
# 4 -0.002033 0.015329 0.003949 0.046940 0.012699 -0.008275
# 5 -0.001088 0.003057 -0.004450 0.012699 0.034067 -0.009215
# 6 -0.001898 0.001026 0.003475 -0.008275 -0.009215 0.039769
#
#
# Mechanical properties :
#
#
# Convention : Reuss Voigt Hill
#
# Bulk Modulus (GPa) = 32.02713 61.01753 46.52233
# Shear Modulus (GPa) = 26.31726 36.13051 31.22388
#
# Velocity S-wave (km/s) = 3.42285 4.01055 3.72830
# Velocity P-wave (km/s) = 5.46616 6.97207 6.26453
#
# Compressibility (1/GPa) = 0.03122353
#
# Stress axis : x y z
#
# Youngs Moduli (GPa) = 147.78019 44.21342 63.97793
#
# Poissons Ratio (x) = 0.19886 0.20054
# Poissons Ratio (y) = 0.66468 -0.04714
# Poissons Ratio (z) = 0.46323 -0.03257
#
# Static dielectric constant tensor:
#      x y z
#    x 4.383290 0.205700 -0.048580 
#    y 0.205700 4.246560 -0.132640 
#    z -0.048580 -0.132640 4.137930 
# 
# 
# High freq. dielectric constant tensor:
#      x y z
#    x 1.893010 0.007020 0.011810 
#    y 0.007020 1.881240 -0.002420 
#    z 0.011810 -0.002420 1.878650 
# 
# From -- ./inp_files/315871.got.cif
#   From: 2010.06.25/outbox.cif.g09.slc.cpg/sg2_158_cif.got.tgz:315871.got - 2010.06.27 13:26:56.
