data_PCOD8040317
_publ_section_title
;
Structure prediction by ZEFSAII (Michael W. Deem and Ramdas Pophale) SiO2 
 PCOD8040317
Probable space group: P -1
;
_chemical_formula_sum "Si O2"
_cell_formula_units_Z 16
_cell_length_a 21.990554
_cell_length_b 12.089524
_cell_length_c 15.593560
_cell_angle_alpha 132.945189
_cell_angle_beta 27.963880
_cell_angle_gamma 151.720055
_cell_volume 829.533422
_symmetry_space_group_name_H-M "P -1"
_symmetry_group_IT_number 2
_symmetry_cell_setting 'triclinic'
loop_
_space_group_symop_operation_xyz
x,y,z
-x,-y,-z
loop_
_atom_site_type_symbol
_atom_site_label
_atom_site_fract_x
_atom_site_fract_y
_atom_site_fract_z
Si Si1 0.178376 0.571248 0.863749
Si Si2 0.771687 0.182652 0.924115
Si Si3 0.718646 0.389188 0.789670
Si Si4 0.319770 0.314933 0.053239
Si Si5 0.941905 0.772033 0.295540
Si Si6 0.529572 0.283622 0.646325
Si Si7 0.358208 0.923152 0.527206
Si Si8 0.979840 0.476067 0.651878
O O1 0.129923 0.356062 0.777934
O O2 0.416173 0.855965 0.688865
O O3 0.170108 0.595901 0.989598
O O4 0.000000 0.500000 0.000000
O O5 0.853405 0.254723 0.762808
O O6 0.886766 0.168492 0.833482
O O7 0.509355 0.907340 0.107552
O O8 0.688995 0.541005 0.914763
O O9 0.802338 0.409927 0.788055
O O10 0.897509 0.523433 0.564020
O O11 0.500000 0.500000 0.000000
O O12 0.386736 0.236612 0.869305
O O13 0.074742 0.053251 0.261581
O O14 0.712951 0.571696 0.528982
O O15 0.667089 0.270617 0.505211
O O16 0.355097 0.049684 0.671103
O O17 0.152827 0.753639 0.629173
#
# Coordination Sequence:
#
# PCOD8040317 Si02
#       8
#     2   2   2   2   2   2   2   2
#     4   9  18  31  57  91 120 140 185 248 292 339
#     4  11  19  36  62  88 115 150 197 242 294 337
#     4  11  25  42  54  87 120 159 201 235 290 351
#     4  12  24  38  59  82 127 158 185 235 296 361
#     4  10  21  34  57  92 118 148 183 239 301 349
#     4  10  21  35  59  91 116 150 190 242 294 348
#     4  10  18  36  61  89 119 145 195 246 295 331
#     4  11  23  39  63  83 115 158 201 249 282 339
#
# _framework density 19.287951
#
# number of rings (size 3 to 8) (size 9 to 14) (size 15 to 20)
#    0.000    1.500    3.750    2.625    3.500    1.500 
#    0.000    0.625    0.000    1.500    0.000    0.000 
#    0.000    0.000    0.000    0.000    0.000    0.000 
#
# Total GULP energy -198317.333811 kJ/mol
# GULP energy per Si atom -12394.833363 kJ/mol
# Density = 1.924405 g / cm^3
# Si number density = 19.287951 Si / 1000 Ang^3
#
#
#
# Elastic Constant Matrix: (Units=GPa)
#
#
# Indices 1 2 3 4 5 6 
#
# 1 87.0295 39.1118 24.6809 5.5116 -0.1959 16.2799
# 2 39.1118 96.7900 26.4416 -9.9161 -1.4634 6.8208
# 3 24.6809 26.4416 57.7497 1.4812 7.5873 -0.5273
# 4 5.5116 -9.9161 1.4812 30.4789 4.2832 5.8443
# 5 -0.1959 -1.4634 7.5873 4.2832 29.5077 -2.7078
# 6 16.2799 6.8208 -0.5273 5.8443 -2.7078 22.4563
#
#
#
# Elastic Compliance Matrix: (Units=1/GPa)
#
#
# Indices 1 2 3 4 5 6 
#
# 1 0.017385 -0.005138 -0.005186 -0.002658 0.000626 -0.010397
# 2 -0.005138 0.014513 -0.004733 0.006214 0.000788 -0.002316
# 3 -0.005186 -0.004733 0.022492 -0.002037 -0.005241 0.005624
# 4 -0.002658 0.006214 -0.002037 0.038257 -0.005717 -0.010654
# 5 0.000626 0.000788 -0.005241 -0.005717 0.036576 0.005082
# 6 -0.010397 -0.002316 0.005624 -0.010654 0.005082 0.056290
#
#
# Mechanical properties :
#
#
# Convention : Reuss Voigt Hill
#
# Bulk Modulus (GPa) = 41.19565 46.89310 44.04437
# Shear Modulus (GPa) = 22.34935 26.57757 24.46346
#
# Velocity S-wave (km/s) = 3.40769 3.71608 3.56522
# Velocity P-wave (km/s) = 6.07353 6.54043 6.31130
#
# Compressibility (1/GPa) = 0.02427441
#
# Stress axis : x y z
#
# Youngs Moduli (GPa) = 57.52053 68.90469 44.46063
#
# Poissons Ratio (x) = 0.35406 0.23058
# Poissons Ratio (y) = 0.29557 0.21043
# Poissons Ratio (z) = 0.29832 0.32612
#
# Static dielectric constant tensor:
#      x y z
#    x 3.474080 0.338210 0.227930 
#    y 0.338210 3.783550 -0.076200 
#    z 0.227930 -0.076200 3.531180 
# 
# 
# High freq. dielectric constant tensor:
#      x y z
#    x 1.724420 0.028240 0.024480 
#    y 0.028240 1.752520 -0.024090 
#    z 0.024480 -0.024090 1.750310 
# 
# From -- ./inp_files/451338.got.cif
#   From: 2010.06.25/outbox.cif.g09.slc.cpg/sg2_226_cif.got.tgz:451338.got - 2010.06.27 13:26:56.
