data_PCOD8040191
_publ_section_title
;
Structure prediction by ZEFSAII (Michael W. Deem and Ramdas Pophale) SiO2 
 PCOD8040191
Probable space group: P -1
;
_chemical_formula_sum "Si O2"
_cell_formula_units_Z 16
_cell_length_a 8.573939
_cell_length_b 11.430608
_cell_length_c 14.210710
_cell_angle_alpha 129.737342
_cell_angle_beta 133.470796
_cell_angle_gamma 54.392842
_cell_volume 751.503939
_symmetry_space_group_name_H-M "P -1"
_symmetry_group_IT_number 2
_symmetry_cell_setting 'triclinic'
loop_
_space_group_symop_operation_xyz
x,y,z
-x,-y,-z
loop_
_atom_site_type_symbol
_atom_site_label
_atom_site_fract_x
_atom_site_fract_y
_atom_site_fract_z
Si Si1 0.632874 0.198908 0.101250
Si Si2 0.773127 0.188903 0.494728
Si Si3 0.937586 0.656078 0.412013
Si Si4 0.474451 0.444089 0.754484
Si Si5 0.113145 0.154870 0.323698
Si Si6 0.343034 0.385149 0.465542
Si Si7 0.668075 0.994819 0.186864
Si Si8 0.848749 0.155682 0.724822
O O1 0.513531 0.381240 0.122526
O O2 0.896664 0.162726 0.173208
O O3 0.593227 0.146782 0.165267
O O4 0.526802 0.094680 0.932138
O O5 0.566639 0.345934 0.473671
O O6 0.776119 0.141196 0.579806
O O7 0.008671 0.223387 0.581164
O O8 0.732456 0.047076 0.342327
O O9 0.695746 0.621735 0.283396
O O10 0.970815 0.723777 0.562900
O O11 0.124366 0.495289 0.385779
O O12 0.384003 0.460166 0.619679
O O13 0.719096 0.324010 0.801144
O O14 0.297668 0.212055 0.371399
O O15 0.225442 0.980606 0.318615
O O16 0.885984 0.871468 0.169919
#
# Coordination Sequence:
#
# PCOD8040191 Si02
#       8
#     2   2   2   2   2   2   2   2
#     4  10  18  36  61  77 109 146 192 225 259 325
#     4  11  21  34  53  85 119 141 174 222 289 328
#     4  11  18  32  57  85 113 137 180 231 276 317
#     4  10  19  33  57  84 105 144 183 225 276 312
#     4  10  18  36  57  83 110 139 190 223 273 319
#     4  10  19  32  57  87 108 140 183 237 272 312
#     4  10  21  36  56  82 111 149 183 225 272 319
#     4  10  22  36  54  87 112 144 178 229 278 326
#
# _framework density 21.29064
#
# number of rings (size 3 to 8) (size 9 to 14) (size 15 to 20)
#    0.000    1.750    5.000    1.500    0.000    6.000 
#    0.000    0.625    0.000    0.750    0.000    0.000 
#    0.000    0.000    0.000    0.000    0.000    0.000 
#
# Total GULP energy -198309.125648 kJ/mol
# GULP energy per Si atom -12394.320353 kJ/mol
# Density = 2.124218 g / cm^3
# Si number density = 21.290640 Si / 1000 Ang^3
#
#
#
# Elastic Constant Matrix: (Units=GPa)
#
#
# Indices 1 2 3 4 5 6 
#
# 1 64.1411 15.6239 18.1297 6.7516 10.9062 -9.4046
# 2 15.6239 122.5857 24.7888 6.1246 3.0600 -14.3195
# 3 18.1297 24.7888 51.6176 15.4222 17.0341 14.7917
# 4 6.7516 6.1246 15.4222 24.8902 3.4344 9.4720
# 5 10.9062 3.0600 17.0341 3.4344 18.0208 -0.6105
# 6 -9.4046 -14.3195 14.7917 9.4720 -0.6105 24.0189
#
#
#
# Elastic Compliance Matrix: (Units=1/GPa)
#
#
# Indices 1 2 3 4 5 6 
#
# 1 0.022484 0.002703 -0.013632 -0.006581 0.000800 0.021426
# 2 0.002703 0.013588 -0.017007 -0.003539 0.013532 0.021372
# 3 -0.013632 -0.017007 0.067935 -0.005207 -0.054003 -0.056633
# 4 -0.006581 -0.003539 -0.005207 0.055166 -0.001796 -0.023281
# 5 0.000800 0.013532 -0.054003 -0.001796 0.105623 0.045030
# 6 0.021426 0.021372 -0.056633 -0.023281 0.045030 0.107967
#
#
# Mechanical properties :
#
#
# Convention : Reuss Voigt Hill
#
# Bulk Modulus (GPa) = 20.77598 39.49211 30.13405
# Shear Modulus (GPa) = 11.24402 25.37278 18.30840
#
# Velocity S-wave (km/s) = 2.30058 3.45589 2.93563
# Velocity P-wave (km/s) = 4.10321 5.87483 5.06705
#
# Compressibility (1/GPa) = 0.04813250
#
# Stress axis : x y z
#
# Youngs Moduli (GPa) = 44.47649 73.59544 14.71997
#
# Poissons Ratio (x) = -0.19891 0.20067
# Poissons Ratio (y) = -0.12021 0.25035
# Poissons Ratio (z) = 0.60632 1.25165
#
# Static dielectric constant tensor:
#      x y z
#    x 3.898360 -0.057220 0.392650 
#    y -0.057220 3.963860 0.051060 
#    z 0.392650 0.051060 3.445680 
# 
# 
# High freq. dielectric constant tensor:
#      x y z
#    x 1.822700 -0.000970 0.032470 
#    y -0.000970 1.847630 0.003450 
#    z 0.032470 0.003450 1.789830 
# 
# From -- ./inp_files/382971.got.cif
#   From: 2010.06.25/outbox.cif.g09.slc.cpg/sg2_192_cif.got.tgz:382971.got - 2010.06.27 13:26:56.
