data_PCOD8040475
_publ_section_title
;
Structure prediction by ZEFSAII (Michael W. Deem and Ramdas Pophale) SiO2 
 PCOD8040475
Probable space group: P -1
;
_chemical_formula_sum "Si O2"
_cell_formula_units_Z 16
_cell_length_a 19.726383
_cell_length_b 17.911106
_cell_length_c 9.560576
_cell_angle_alpha 46.082376
_cell_angle_beta 55.930333
_cell_angle_gamma 20.910878
_cell_volume 816.334883
_symmetry_space_group_name_H-M "P -1"
_symmetry_group_IT_number 2
_symmetry_cell_setting 'triclinic'
loop_
_space_group_symop_operation_xyz
x,y,z
-x,-y,-z
loop_
_atom_site_type_symbol
_atom_site_label
_atom_site_fract_x
_atom_site_fract_y
_atom_site_fract_z
Si Si1 0.771106 0.747772 0.124531
Si Si2 0.893332 0.220088 0.767146
Si Si3 0.180564 0.165168 0.472893
Si Si4 0.444645 0.534874 0.175354
Si Si5 0.850942 0.986896 0.496183
Si Si6 0.025924 0.273717 0.046224
Si Si7 0.344720 0.173237 0.156387
Si Si8 0.868693 0.925305 0.119155
O O1 0.954160 0.472546 0.337372
O O2 0.570990 0.953741 0.175953
O O3 0.813344 0.821052 0.989231
O O4 0.747845 0.741247 0.999952
O O5 0.659072 0.459776 0.710812
O O6 0.979163 0.145149 0.611368
O O7 0.939159 0.262814 0.762436
O O8 0.000000 0.000000 0.000000
O O9 0.205379 0.052235 0.469751
O O10 0.340345 0.072255 0.381834
O O11 0.229807 0.058311 0.706415
O O12 0.648412 0.291222 0.347543
O O13 0.500000 0.500000 0.000000
O O14 0.297552 0.791992 0.075900
O O15 0.932601 0.867554 0.710493
O O16 0.048481 0.202829 0.958583
O O17 0.796010 0.577814 0.932600
#
# Coordination Sequence:
#
# PCOD8040475 Si02
#       8
#     2   2   2   2   2   2   2   2
#     4  10  20  36  60  87 115 151 199 236 277 357
#     4   9  19  38  59  83 107 146 199 235 272 343
#     4  10  18  37  58  86 110 156 197 236 281 338
#     4  11  20  39  64  85 112 153 198 237 277 344
#     4  11  20  35  64  86 112 158 192 236 287 340
#     4  11  22  41  54  88 127 149 184 245 299 330
#     4  10  20  36  61  86 116 154 196 235 285 344
#     4  10  23  39  58  86 123 151 188 247 289 335
#
# _framework density 19.599800999999999
#
# number of rings (size 3 to 8) (size 9 to 14) (size 15 to 20)
#    0.000    1.750    6.250    0.750    0.000    5.500 
#    2.250    3.750    0.000    0.000    0.000    0.000 
#    0.000    0.000    0.000    0.000    0.000    0.000 
#
# Total GULP energy -198387.692404 kJ/mol
# GULP energy per Si atom -12399.230775 kJ/mol
# Density = 1.955519 g / cm^3
# Si number density = 19.599801 Si / 1000 Ang^3
#
#
#
# Elastic Constant Matrix: (Units=GPa)
#
#
# Indices 1 2 3 4 5 6 
#
# 1 49.2871 51.7569 22.1883 12.0363 -6.6635 -0.2205
# 2 51.7569 131.1644 35.8372 13.5915 -6.5164 -2.9898
# 3 22.1883 35.8372 98.8384 22.2816 -13.5116 1.5561
# 4 12.0363 13.5915 22.2816 33.2287 2.6338 -1.2032
# 5 -6.6635 -6.5164 -13.5116 2.6338 22.9716 8.3561
# 6 -0.2205 -2.9898 1.5561 -1.2032 8.3561 40.4200
#
#
#
# Elastic Compliance Matrix: (Units=1/GPa)
#
#
# Indices 1 2 3 4 5 6 
#
# 1 0.038165 -0.013669 -0.000333 -0.008835 0.009076 -0.002929
# 2 -0.013669 0.013472 -0.002452 0.001322 -0.002294 0.001530
# 3 -0.000333 -0.002452 0.014680 -0.009632 0.010082 -0.003119
# 4 -0.008835 0.001322 -0.009632 0.040500 -0.014153 0.004552
# 5 0.009076 -0.002294 0.010082 -0.014153 0.057747 -0.012868
# 6 -0.002929 0.001530 -0.003119 0.004552 -0.012868 0.027753
#
#
# Mechanical properties :
#
#
# Convention : Reuss Voigt Hill
#
# Bulk Modulus (GPa) = 29.93191 55.42831 42.68011
# Shear Modulus (GPa) = 21.15417 30.62455 25.88936
#
# Velocity S-wave (km/s) = 3.28884 3.95713 3.63836
# Velocity P-wave (km/s) = 5.45222 7.01569 6.28278
#
# Compressibility (1/GPa) = 0.03340916
#
# Stress axis : x y z
#
# Youngs Moduli (GPa) = 26.20222 74.23063 68.11998
#
# Poissons Ratio (x) = 1.01466 0.02267
# Poissons Ratio (y) = 0.35816 0.16701
# Poissons Ratio (z) = 0.00872 0.18199
#
# Static dielectric constant tensor:
#      x y z
#    x 3.699760 -0.423500 -0.326580 
#    y -0.423500 3.973550 -0.061460 
#    z -0.326580 -0.061460 3.901060 
# 
# 
# High freq. dielectric constant tensor:
#      x y z
#    x 1.734850 -0.010070 -0.021300 
#    y -0.010070 1.767400 0.006300 
#    z -0.021300 0.006300 1.768740 
# 
# From -- ./inp_files/314822.got.cif
#   From: 2010.06.25/outbox.cif.g09.slc.cpg/sg2_158_cif.got.tgz:314822.got - 2010.06.27 13:26:56.
