data_PCOD8040977
_publ_section_title
;
Structure prediction by ZEFSAII (Michael W. Deem and Ramdas Pophale) SiO2 
 PCOD8040977
Probable space group: P -1
;
_chemical_formula_sum "Si O2"
_cell_formula_units_Z 16
_cell_length_a 9.130217
_cell_length_b 8.996605
_cell_length_c 14.928141
_cell_angle_alpha 38.825187
_cell_angle_beta 74.811336
_cell_angle_gamma 68.183607
_cell_volume 712.910751
_symmetry_space_group_name_H-M "P -1"
_symmetry_group_IT_number 2
_symmetry_cell_setting 'triclinic'
loop_
_space_group_symop_operation_xyz
x,y,z
-x,-y,-z
loop_
_atom_site_type_symbol
_atom_site_label
_atom_site_fract_x
_atom_site_fract_y
_atom_site_fract_z
Si Si1 0.135367 0.916658 0.089713
Si Si2 0.155987 0.747839 0.359482
Si Si3 0.084962 0.123818 0.502822
Si Si4 0.439737 0.310152 0.542578
Si Si5 0.603286 0.274178 0.350801
Si Si6 0.711932 0.597389 0.755831
Si Si7 0.633614 0.885024 0.804861
Si Si8 0.360281 0.221151 0.950192
O O1 0.080798 0.827063 0.235985
O O2 0.270309 0.691440 0.128981
O O3 0.198562 0.153481 0.986507
O O4 0.000000 0.000000 0.000000
O O5 0.261334 0.457937 0.471852
O O6 0.024718 0.763409 0.448612
O O7 0.258685 0.930545 0.284389
O O8 0.140664 0.342026 0.345233
O O9 0.238913 0.927329 0.610406
O O10 0.000000 0.000000 0.500000
O O11 0.500000 0.500000 0.500000
O O12 0.561583 0.225874 0.481208
O O13 0.462286 0.057774 0.715638
O O14 0.458895 0.247888 0.325520
O O15 0.638151 0.537177 0.217178
O O16 0.716711 0.664921 0.827507
O O17 0.616436 0.742322 0.965013
O O18 0.500000 0.000000 0.000000
#
# Coordination Sequence:
#
# PCOD8040977 Si02
#       8
#     2   2   2   2   2   2   2   2
#     4  11  26  46  68  97 145 182 228 292 348 404
#     4  10  21  44  66 101 139 181 230 283 349 414
#     4  12  25  42  70 108 136 180 235 290 352 408
#     4  10  18  40  69  99 133 180 226 278 341 410
#     4  12  24  43  71 101 139 185 227 287 339 413
#     4  12  24  46  67 100 144 174 233 289 343 407
#     4  10  22  40  74  99 137 183 227 283 349 417
#     4  11  23  47  70  99 136 186 236 274 343 425
#
# _framework density 22.443200999999998
#
# number of rings (size 3 to 8) (size 9 to 14) (size 15 to 20)
#    0.000    1.000    5.000    2.625    1.750    2.000 
#    2.250    2.500    0.000    0.000    0.000    0.000 
#    0.000    0.000    0.000    0.000    0.000    0.000 
#
# Total GULP energy -198369.086566 kJ/mol
# GULP energy per Si atom -12398.067910 kJ/mol
# Density = 2.239212 g / cm^3
# Si number density = 22.443201 Si / 1000 Ang^3
#
#
#
# Elastic Constant Matrix: (Units=GPa)
#
#
# Indices 1 2 3 4 5 6 
#
# 1 87.1420 22.4852 37.5267 19.3157 11.4221 -6.8171
# 2 22.4852 123.0769 34.2018 18.5185 6.4924 -6.3758
# 3 37.5267 34.2018 67.4854 8.2366 16.6451 5.9616
# 4 19.3157 18.5185 8.2366 35.3987 7.5120 3.3361
# 5 11.4221 6.4924 16.6451 7.5120 35.7372 -1.2068
# 6 -6.8171 -6.3758 5.9616 3.3361 -1.2068 39.4548
#
#
#
# Elastic Compliance Matrix: (Units=1/GPa)
#
#
# Indices 1 2 3 4 5 6 
#
# 1 0.017764 0.001092 -0.010068 -0.008614 0.000810 0.005520
# 2 0.001092 0.010475 -0.005990 -0.005370 0.001778 0.003295
# 3 -0.010068 -0.005990 0.025677 0.005252 -0.009004 -0.007307
# 4 -0.008614 -0.005370 0.005252 0.036548 -0.006618 -0.006442
# 5 0.000810 0.001778 -0.009004 -0.006618 0.033098 0.003360
# 6 0.005520 0.003295 -0.007307 -0.006442 0.003360 0.028583
#
#
# Mechanical properties :
#
#
# Convention : Reuss Voigt Hill
#
# Bulk Modulus (GPa) = 41.69311 51.79242 46.74277
# Shear Modulus (GPa) = 26.30557 34.35085 30.32821
#
# Velocity S-wave (km/s) = 3.42730 3.91649 3.68003
# Velocity P-wave (km/s) = 5.85486 6.60145 6.23933
#
# Compressibility (1/GPa) = 0.02398478
#
# Stress axis : x y z
#
# Youngs Moduli (GPa) = 56.29243 95.46586 38.94467
#
# Poissons Ratio (x) = -0.10421 0.39208
# Poissons Ratio (y) = -0.06145 0.23328
# Poissons Ratio (z) = 0.56673 0.57184
#
# Static dielectric constant tensor:
#      x y z
#    x 4.133040 0.049540 0.190410 
#    y 0.049540 4.099590 0.012440 
#    z 0.190410 0.012440 4.084750 
# 
# 
# High freq. dielectric constant tensor:
#      x y z
#    x 1.872840 0.013790 0.006500 
#    y 0.013790 1.900820 0.000280 
#    z 0.006500 0.000280 1.880600 
# 
# From -- ./inp_files/494250.got.cif
#   From: 2010.06.25/outbox.cif.g09.slc.cpg/sg2_248_cif.got.tgz:494250.got - 2010.06.27 13:26:56.
