data_PCOD8040828
_publ_section_title
;
Structure prediction by ZEFSAII (Michael W. Deem and Ramdas Pophale) SiO2 
 PCOD8040828
Probable space group: P -1
;
_chemical_formula_sum "Si O2"
_cell_formula_units_Z 16
_cell_length_a 13.728470
_cell_length_b 21.478933
_cell_length_c 18.595053
_cell_angle_alpha 167.687226
_cell_angle_beta 44.760239
_cell_angle_gamma 136.554801
_cell_volume 804.056153
_symmetry_space_group_name_H-M "P -1"
_symmetry_group_IT_number 2
_symmetry_cell_setting 'triclinic'
loop_
_space_group_symop_operation_xyz
x,y,z
-x,-y,-z
loop_
_atom_site_type_symbol
_atom_site_label
_atom_site_fract_x
_atom_site_fract_y
_atom_site_fract_z
Si Si1 0.750692 0.040549 0.722753
Si Si2 0.561311 0.452149 0.220463
Si Si3 0.049937 0.981904 0.688553
Si Si4 0.118340 0.602687 0.813278
Si Si5 0.426700 0.654388 0.651688
Si Si6 0.702343 0.227442 0.635326
Si Si7 0.521488 0.021938 0.631550
Si Si8 0.801838 0.859391 0.343230
O O1 0.632089 0.773775 0.514743
O O2 0.838212 0.922111 0.478743
O O3 0.680557 0.307886 0.033062
O O4 0.860845 0.166336 0.869937
O O5 0.442710 0.494152 0.386887
O O6 0.483104 0.246770 0.965001
O O7 0.201989 0.026436 0.700690
O O8 0.935178 0.727554 0.500295
O O9 0.093634 0.900958 0.491861
O O10 0.987004 0.282152 0.057841
O O11 0.261937 0.609440 0.703215
O O12 0.500000 0.500000 0.500000
O O13 0.500000 0.000000 0.000000
O O14 0.586661 0.203686 0.732107
O O15 0.621918 0.209813 0.580643
O O16 0.817475 0.536661 0.939537
O O17 0.634703 0.852910 0.415016
#
# Coordination Sequence:
#
# PCOD8040828 Si02
#       8
#     2   2   2   2   2   2   2   2
#     4  11  22  35  60  82 125 146 193 235 288 346
#     4  11  20  39  56  95 114 144 185 254 296 337
#     4  11  24  38  56  81 122 158 200 225 277 353
#     4  12  23  39  56  85 112 164 189 237 287 343
#     4  12  22  39  65  86 112 149 195 245 294 338
#     4  10  18  39  56  90 115 157 194 235 284 346
#     4   9  20  32  65  87 117 149 190 247 294 331
#     4  10  20  37  57  87 121 154 194 237 282 346
#
# _framework density 19.899108999999999
#
# number of rings (size 3 to 8) (size 9 to 14) (size 15 to 20)
#    0.000    1.250    5.000    1.875    0.000    1.000 
#    0.000    0.000    0.000    1.500    0.000    0.000 
#    0.000    0.000    0.000    0.000    0.000    0.000 
#
# Total GULP energy -198291.451215 kJ/mol
# GULP energy per Si atom -12393.215701 kJ/mol
# Density = 1.985382 g / cm^3
# Si number density = 19.899109 Si / 1000 Ang^3
#
#
#
# Elastic Constant Matrix: (Units=GPa)
#
#
# Indices 1 2 3 4 5 6 
#
# 1 60.9332 19.3234 24.8817 -10.0296 -9.7759 -4.5321
# 2 19.3234 115.0628 29.3480 2.1106 -10.4265 -3.7222
# 3 24.8817 29.3480 72.4157 2.5468 -9.1247 -6.0151
# 4 -10.0296 2.1106 2.5468 29.9977 0.1836 -5.6291
# 5 -9.7759 -10.4265 -9.1247 0.1836 31.9598 -3.7656
# 6 -4.5321 -3.7222 -6.0151 -5.6291 -3.7656 22.3014
#
#
#
# Elastic Compliance Matrix: (Units=1/GPa)
#
#
# Indices 1 2 3 4 5 6 
#
# 1 0.022200 -0.001679 -0.006147 0.009107 0.005111 0.005735
# 2 -0.001679 0.009985 -0.003149 -0.000901 0.001918 0.000572
# 3 -0.006147 -0.003149 0.017844 -0.002849 0.002527 0.002746
# 4 0.009107 -0.000901 -0.002849 0.038768 0.002774 0.011186
# 5 0.005111 0.001918 0.002527 0.002774 0.035207 0.008685
# 6 0.005735 0.000572 0.002746 0.011186 0.008685 0.051132
#
#
# Mechanical properties :
#
#
# Convention : Reuss Voigt Hill
#
# Bulk Modulus (GPa) = 35.61399 43.94644 39.78021
# Shear Modulus (GPa) = 24.21957 28.50901 26.36429
#
# Velocity S-wave (km/s) = 3.49251 3.78918 3.64386
# Velocity P-wave (km/s) = 5.84804 6.42467 6.14313
#
# Compressibility (1/GPa) = 0.02807885
#
# Stress axis : x y z
#
# Youngs Moduli (GPa) = 45.04593 100.15249 56.04075
#
# Poissons Ratio (x) = 0.16812 0.34450
# Poissons Ratio (y) = 0.07561 0.17647
# Poissons Ratio (z) = 0.27691 0.31537
#
# Static dielectric constant tensor:
#      x y z
#    x 3.684090 -0.105450 -0.102310 
#    y -0.105450 3.728690 -0.024040 
#    z -0.102310 -0.024040 3.680640 
# 
# 
# High freq. dielectric constant tensor:
#      x y z
#    x 1.765320 -0.004410 -0.025130 
#    y -0.004410 1.773840 0.008410 
#    z -0.025130 0.008410 1.765400 
# 
# From -- ./inp_files/82856.got.cif
#   From: 2010.06.25/outbox.cif.g09.slc.cpg/sg2_42_cif.got.tgz:82856.got - 2010.06.27 13:26:56.
