data_PCOD8040101
_publ_section_title
;
Structure prediction by ZEFSAII (Michael W. Deem and Ramdas Pophale) SiO2 
 PCOD8040101
Probable space group: P -1
;
_chemical_formula_sum "Si O2"
_cell_formula_units_Z 16
_cell_length_a 9.162306
_cell_length_b 18.797007
_cell_length_c 16.634791
_cell_angle_alpha 158.685745
_cell_angle_beta 51.727285
_cell_angle_gamma 116.308202
_cell_volume 722.034118
_symmetry_space_group_name_H-M "P -1"
_symmetry_group_IT_number 2
_symmetry_cell_setting 'triclinic'
loop_
_space_group_symop_operation_xyz
x,y,z
-x,-y,-z
loop_
_atom_site_type_symbol
_atom_site_label
_atom_site_fract_x
_atom_site_fract_y
_atom_site_fract_z
Si Si1 0.421299 0.658246 0.988033
Si Si2 0.366387 0.096928 0.783009
Si Si3 0.133156 0.487464 0.862646
Si Si4 0.036428 0.538575 0.274541
Si Si5 0.218817 0.616211 0.529700
Si Si6 0.423089 0.919767 0.748380
Si Si7 0.377805 0.668804 0.287955
Si Si8 0.191557 0.315325 0.343764
O O1 0.417203 0.873900 0.260297
O O2 0.202184 0.683575 0.054108
O O3 0.596520 0.609334 0.808855
O O4 0.504434 0.434850 0.777950
O O5 0.309712 0.045711 0.837389
O O6 0.390677 0.894984 0.505246
O O7 0.183965 0.323573 0.049810
O O8 0.993890 0.538362 0.883886
O O9 0.331682 0.244834 0.526750
O O10 0.000000 0.500000 0.000000
O O11 0.821641 0.667742 0.536189
O O12 0.140531 0.702632 0.404276
O O13 0.299129 0.797020 0.697915
O O14 0.183544 0.541900 0.551822
O O15 0.008999 0.708097 0.644970
O O16 0.399997 0.098321 0.013180
O O17 0.500000 0.500000 0.000000
#
# Coordination Sequence:
#
# PCOD8040101 Si02
#       8
#     2   2   2   2   2   2   2   2
#     4  10  20  41  67  92 130 174 229 264 326 407
#     4  11  20  42  70  98 126 175 226 272 329 388
#     4  11  25  49  66  92 140 183 222 278 334 401
#     4  11  25  41  65 105 138 167 224 285 333 390
#     4  10  18  35  63  99 132 168 214 279 329 391
#     4  11  22  39  71  92 131 184 223 261 340 401
#     4  11  22  41  67  97 133 170 227 286 321 381
#     4  11  19  36  62 102 135 164 221 283 327 395
#
# _framework density 22.159618999999999
#
# number of rings (size 3 to 8) (size 9 to 14) (size 15 to 20)
#    0.000    1.250    6.250    1.875    0.000    3.500 
#    2.250    3.125    0.000    0.000    0.000    0.000 
#    0.000    0.000    0.000    0.000    0.000    0.000 
#
# Total GULP energy -198276.619639 kJ/mol
# GULP energy per Si atom -12392.288727 kJ/mol
# Density = 2.210918 g / cm^3
# Si number density = 22.159619 Si / 1000 Ang^3
#
#
#
# Elastic Constant Matrix: (Units=GPa)
#
#
# Indices 1 2 3 4 5 6 
#
# 1 95.9998 50.2954 31.8839 8.5583 22.3231 5.7473
# 2 50.2954 112.3138 54.5832 -2.2340 11.4100 8.4839
# 3 31.8839 54.5832 105.0989 0.1246 24.5069 11.2244
# 4 8.5583 -2.2340 0.1246 45.0501 4.2575 14.4062
# 5 22.3231 11.4100 24.5069 4.2575 28.3418 0.4975
# 6 5.7473 8.4839 11.2244 14.4062 0.4975 34.8516
#
#
#
# Elastic Compliance Matrix: (Units=1/GPa)
#
#
# Indices 1 2 3 4 5 6 
#
# 1 0.016322 -0.006781 0.001103 -0.002338 -0.010723 -0.000276
# 2 -0.006781 0.014804 -0.006629 0.001979 0.004838 -0.001237
# 3 0.001103 -0.006629 0.015925 0.001954 -0.012188 -0.004331
# 4 -0.002338 0.001979 0.001954 0.026929 -0.004483 -0.011793
# 5 -0.010723 0.004838 -0.012188 -0.004483 0.052896 0.005614
# 6 -0.000276 -0.001237 -0.004331 -0.011793 0.005614 0.035229
#
#
# Mechanical properties :
#
#
# Convention : Reuss Voigt Hill
#
# Bulk Modulus (GPa) = 44.57239 65.21530 54.89384
# Shear Modulus (GPa) = 25.74684 33.42538 29.58611
#
# Velocity S-wave (km/s) = 3.41234 3.88801 3.65792
# Velocity P-wave (km/s) = 5.97355 7.04622 6.53194
#
# Compressibility (1/GPa) = 0.02243541
#
# Stress axis : x y z
#
# Youngs Moduli (GPa) = 61.26825 67.55159 62.79281
#
# Poissons Ratio (x) = 0.45809 -0.06927
# Poissons Ratio (y) = 0.41548 0.41627
# Poissons Ratio (z) = -0.06759 0.44782
#
# Static dielectric constant tensor:
#      x y z
#    x 3.703790 0.252760 0.208330 
#    y 0.252760 4.199620 0.096180 
#    z 0.208330 0.096180 4.031960 
# 
# 
# High freq. dielectric constant tensor:
#      x y z
#    x 1.840870 0.009070 0.023520 
#    y 0.009070 1.887530 -0.001970 
#    z 0.023520 -0.001970 1.859920 
# 
# From -- ./inp_files/562722.got.cif
#   From: 2010.06.25/outbox.cif.g09.slc.cpg/sg2_282_cif.got.tgz:562722.got - 2010.06.27 13:26:56.
