data_PCOD8040345
_publ_section_title
;
Structure prediction by ZEFSAII (Michael W. Deem and Ramdas Pophale) SiO2 
 PCOD8040345
Probable space group: P -1
;
_chemical_formula_sum "Si O2"
_cell_formula_units_Z 14
_cell_length_a 8.977905
_cell_length_b 9.045709
_cell_length_c 10.734560
_cell_angle_alpha 67.433450
_cell_angle_beta 114.228907
_cell_angle_gamma 66.917043
_cell_volume 556.236397
_symmetry_space_group_name_H-M "P -1"
_symmetry_group_IT_number 2
_symmetry_cell_setting 'triclinic'
loop_
_space_group_symop_operation_xyz
x,y,z
-x,-y,-z
loop_
_atom_site_type_symbol
_atom_site_label
_atom_site_fract_x
_atom_site_fract_y
_atom_site_fract_z
Si Si1 0.846525 0.887555 0.650859
Si Si2 0.525913 0.255579 0.262200
Si Si3 0.762674 0.416968 0.267851
Si Si4 0.751660 0.819831 0.897547
Si Si5 0.648391 0.135991 0.954384
Si Si6 0.790220 0.367204 0.804866
Si Si7 0.948861 0.179529 0.661368
O O1 0.728893 0.868826 0.726356
O O2 0.058398 0.655260 0.751157
O O3 0.688775 0.011550 0.438730
O O4 0.914153 0.016099 0.682107
O O5 0.651385 0.320959 0.217286
O O6 0.354384 0.290534 0.093649
O O7 0.418020 0.397307 0.304966
O O8 0.586011 0.670422 0.134848
O O9 0.885257 0.320834 0.472834
O O10 0.614184 0.030413 0.865988
O O11 0.001131 0.665691 0.070287
O O12 0.781473 0.202301 0.925335
O O13 0.798337 0.959210 0.169990
O O14 0.793593 0.340756 0.666759
#
# Coordination Sequence:
#
# PCOD8040345 Si02
#       7
#     2   2   2   2   2   2   2
#     4  11  21  39  59  88 121 158 194 248 297 358
#     4  10  22  35  60  91 118 155 195 250 303 344
#     4  10  24  39  62  89 120 160 202 238 300 362
#     4  11  20  38  63  89 120 148 204 252 295 350
#     4  10  20  38  64  88 114 165 200 245 290 353
#     4  10  19  36  61  91 113 157 202 250 288 350
#     4  10  18  36  62  87 118 149 212 241 281 352
#
# _framework density 25.169152
#
# number of rings (size 3 to 8) (size 9 to 14) (size 15 to 20)
#    0.000    1.714    2.857    3.429    2.000    2.286 
#    2.571    0.714    3.143    6.857    0.000    0.000 
#    0.000    0.000    0.000    0.000    0.000    0.000 
#
# Total GULP energy -173605.115582 kJ/mol
# GULP energy per Si atom -12400.365399 kJ/mol
# Density = 2.511187 g / cm^3
# Si number density = 25.169152 Si / 1000 Ang^3
#
#
#
# Elastic Constant Matrix: (Units=GPa)
#
#
# Indices 1 2 3 4 5 6 
#
# 1 31.1607 47.5028 20.8412 2.6211 12.3980 -11.9815
# 2 47.5028 101.6281 37.8417 0.7239 24.9634 -13.6334
# 3 20.8412 37.8417 74.3896 -0.4064 9.3978 -8.7284
# 4 2.6211 0.7239 -0.4064 42.2913 -7.2507 12.5011
# 5 12.3980 24.9634 9.3978 -7.2507 24.4258 -6.2260
# 6 -11.9815 -13.6334 -8.7284 12.5011 -6.2260 17.9193
#
#
#
# Elastic Compliance Matrix: (Units=1/GPa)
#
#
# Indices 1 2 3 4 5 6 
#
# 1 0.179990 -0.068069 -0.004370 -0.038109 -0.008462 0.090076
# 2 -0.068069 0.042391 -0.004032 0.009069 -0.010998 -0.025374
# 3 -0.004370 -0.004032 0.016964 -0.000178 0.000406 0.002539
# 4 -0.038109 0.009069 -0.000178 0.040487 0.011195 -0.043023
# 5 -0.008462 -0.010998 0.000406 0.011195 0.059386 -0.001004
# 6 0.090076 -0.025374 0.002539 -0.043023 -0.001004 0.127632
#
#
# Mechanical properties :
#
#
# Convention : Reuss Voigt Hill
#
# Bulk Modulus (GPa) = 11.57386 46.61665 29.09525
# Shear Modulus (GPa) = 7.70900 23.66013 15.68457
#
# Velocity S-wave (km/s) = 1.75201 3.06934 2.49904
# Velocity P-wave (km/s) = 2.94977 5.57877 4.46228
#
# Compressibility (1/GPa) = 0.08640158
#
# Stress axis : x y z
#
# Youngs Moduli (GPa) = 5.55587 23.59002 58.94975
#
# Poissons Ratio (x) = 1.60576 0.25762
# Poissons Ratio (y) = 0.37818 0.23767
# Poissons Ratio (z) = 0.02428 0.09511
#
# Static dielectric constant tensor:
#      x y z
#    x 4.340540 -0.232430 0.137690 
#    y -0.232430 4.601730 0.074730 
#    z 0.137690 0.074730 4.578290 
# 
# 
# High freq. dielectric constant tensor:
#      x y z
#    x 1.988960 -0.018160 0.012320 
#    y -0.018160 2.008660 0.004700 
#    z 0.012320 0.004700 2.000570 
# 
# From -- ./inp_files/157524.got.cif
#   From: 2010.06.25/outbox.cif.g09.slc.cpg/sg2_79_cif.got.tgz:157524.got - 2010.06.27 13:26:56.
