data_PCOD8040631
_publ_section_title
;
Structure prediction by ZEFSAII (Michael W. Deem and Ramdas Pophale) SiO2 
 PCOD8040631
Probable space group: P -1
;
_chemical_formula_sum "Si O2"
_cell_formula_units_Z 16
_cell_length_a 14.827261
_cell_length_b 8.096164
_cell_length_c 11.799230
_cell_angle_alpha 68.313073
_cell_angle_beta 132.208277
_cell_angle_gamma 138.830858
_cell_volume 663.154220
_symmetry_space_group_name_H-M "P -1"
_symmetry_group_IT_number 2
_symmetry_cell_setting 'triclinic'
loop_
_space_group_symop_operation_xyz
x,y,z
-x,-y,-z
loop_
_atom_site_type_symbol
_atom_site_label
_atom_site_fract_x
_atom_site_fract_y
_atom_site_fract_z
Si Si1 0.793224 0.102966 0.213846
Si Si2 0.793218 0.944558 0.618393
Si Si3 0.578894 0.643407 0.302535
Si Si4 0.189047 0.694474 0.053031
Si Si5 0.189992 0.286649 0.127692
Si Si6 0.689292 0.127704 0.649995
Si Si7 0.878069 0.506329 0.331420
Si Si8 0.820964 0.567342 0.498909
O O1 0.770250 0.275009 0.207377
O O2 0.964546 0.165399 0.383671
O O3 0.626768 0.803059 0.188403
O O4 0.784816 0.128135 0.066112
O O5 0.652712 0.831465 0.427274
O O6 0.794563 0.742148 0.716846
O O7 0.726499 0.975626 0.667034
O O8 0.997815 0.211897 0.693427
O O9 0.364856 0.389806 0.185792
O O10 0.687393 0.575547 0.426060
O O11 0.208387 0.516451 0.065063
O O12 0.316901 0.882712 0.216420
O O13 0.000000 0.500000 0.000000
O O14 0.000000 0.000000 0.000000
O O15 0.825862 0.404728 0.630213
O O16 0.500000 0.000000 0.500000
O O17 0.757265 0.460904 0.341766
O O18 0.000000 0.500000 0.500000
#
# Coordination Sequence:
#
# PCOD8040631 Si02
#       8
#     2   2   2   2   2   2   2   2
#     4  11  22  43  72 103 145 183 238 293 361 417
#     4  12  22  43  72 102 142 179 237 293 352 419
#     4  12  25  43  73 109 139 186 241 293 354 426
#     4  12  25  45  73 101 140 194 233 287 358 423
#     4  12  28  47  66 100 148 187 234 295 360 418
#     4  12  23  41  69 104 140 184 241 286 339 424
#     4  10  18  37  66 105 137 180 224 290 357 414
#     4  11  21  40  70 107 139 178 236 298 346 420
#
# _framework density 24.127116999999998
#
# number of rings (size 3 to 8) (size 9 to 14) (size 15 to 20)
#    0.000    0.500    6.250    4.500    0.000    0.500 
#    0.000    2.500    0.000    6.750    0.000    0.000 
#    0.000    0.000    0.000    0.000    0.000    0.000 
#
# Total GULP energy -198240.959464 kJ/mol
# GULP energy per Si atom -12390.059967 kJ/mol
# Density = 2.407220 g / cm^3
# Si number density = 24.127117 Si / 1000 Ang^3
#
#
#
# Elastic Constant Matrix: (Units=GPa)
#
#
# Indices 1 2 3 4 5 6 
#
# 1 117.4198 34.4376 50.6098 -0.2875 -3.7476 6.4107
# 2 34.4376 91.5541 36.1945 -19.1797 8.4159 23.7528
# 3 50.6098 36.1945 114.2825 -7.7192 -12.7498 14.5699
# 4 -0.2875 -19.1797 -7.7192 47.0247 6.3547 -4.5966
# 5 -3.7476 8.4159 -12.7498 6.3547 40.1105 -1.9899
# 6 6.4107 23.7528 14.5699 -4.5966 -1.9899 36.9699
#
#
#
# Elastic Compliance Matrix: (Units=1/GPa)
#
#
# Indices 1 2 3 4 5 6 
#
# 1 0.011267 -0.003571 -0.004119 -0.002013 0.000899 0.001762
# 2 -0.003571 0.017944 -0.003218 0.006772 -0.006649 -0.009157
# 3 -0.004119 -0.003218 0.012284 -0.000058 0.004113 -0.001845
# 4 -0.002013 0.006772 -0.000058 0.024642 -0.005592 -0.001216
# 5 0.000899 -0.006649 0.004113 -0.005592 0.028769 0.003348
# 6 0.001762 -0.009157 -0.001845 -0.001216 0.003348 0.033383
#
#
# Mechanical properties :
#
#
# Convention : Reuss Voigt Hill
#
# Bulk Modulus (GPa) = 50.81981 62.86004 56.83992
# Shear Modulus (GPa) = 31.91546 38.28864 35.10205
#
# Velocity S-wave (km/s) = 3.64098 3.98798 3.81843
# Velocity P-wave (km/s) = 6.22774 6.87863 6.56126
#
# Compressibility (1/GPa) = 0.01967737
#
# Stress axis : x y z
#
# Youngs Moduli (GPa) = 88.75797 55.73035 81.40910
#
# Poissons Ratio (x) = 0.19902 0.33530
# Poissons Ratio (y) = 0.31696 0.26201
# Poissons Ratio (z) = 0.36557 0.17936
#
# Static dielectric constant tensor:
#      x y z
#    x 5.266730 0.240640 -0.882360 
#    y 0.240640 3.690160 0.094940 
#    z -0.882360 0.094940 5.220770 
# 
# 
# High freq. dielectric constant tensor:
#      x y z
#    x 1.956670 0.014030 -0.006060 
#    y 0.014030 1.962530 -0.020200 
#    z -0.006060 -0.020200 1.941040 
# 
# From -- ./inp_files/447229.got.cif
#   From: 2010.06.25/outbox.cif.g09.slc.cpg/sg2_224_cif.got.tgz:447229.got - 2010.06.27 13:26:56.
