data_PCOD8040621
_publ_section_title
;
Structure prediction by ZEFSAII (Michael W. Deem and Ramdas Pophale) SiO2 
 PCOD8040621
Probable space group: P -1
;
_chemical_formula_sum "Si O2"
_cell_formula_units_Z 14
_cell_length_a 9.172387
_cell_length_b 12.676045
_cell_length_c 11.057708
_cell_angle_alpha 61.205875
_cell_angle_beta 144.505827
_cell_angle_gamma 101.415826
_cell_volume 604.653663
_symmetry_space_group_name_H-M "P -1"
_symmetry_group_IT_number 2
_symmetry_cell_setting 'triclinic'
loop_
_space_group_symop_operation_xyz
x,y,z
-x,-y,-z
loop_
_atom_site_type_symbol
_atom_site_label
_atom_site_fract_x
_atom_site_fract_y
_atom_site_fract_z
Si Si1 0.927577 0.680193 0.439161
Si Si2 0.307162 0.043094 0.960248
Si Si3 0.687587 0.030067 0.738434
Si Si4 0.445676 0.693783 0.447479
Si Si5 0.996941 0.672303 0.757532
Si Si6 0.396265 0.497110 0.704071
Si Si7 0.017256 0.855321 0.877148
O O1 0.839782 0.800633 0.221267
O O2 0.692319 0.622229 0.320238
O O3 0.957865 0.731060 0.564215
O O4 0.216833 0.572965 0.654349
O O5 0.096198 0.975694 0.829321
O O6 0.446851 0.000962 0.211665
O O7 0.500000 0.000000 0.000000
O O8 0.719205 0.927754 0.703628
O O9 0.558788 0.184977 0.537775
O O10 0.000000 0.000000 0.000000
O O11 0.342622 0.594328 0.500906
O O12 0.758066 0.619897 0.655351
O O13 0.246130 0.745588 0.169979
O O14 0.969119 0.791843 0.758522
O O15 0.285245 0.552485 0.024116
#
# Coordination Sequence:
#
# PCOD8040621 Si02
#       7
#     2   2   2   2   2   2   2
#     4  11  24  42  63  87 124 164 200 248 302 360
#     4  10  18  37  65  90 117 153 198 247 300 358
#     4   8  17  37  63  87 115 154 197 244 301 357
#     4  10  21  41  65  88 120 157 202 255 299 350
#     4  12  24  38  59  93 125 158 204 248 299 363
#     4  11  24  43  63  86 120 166 208 246 298 356
#     4  10  22  40  62  90 122 156 199 249 307 361
#
# _framework density 23.153749000000001
#
# number of rings (size 3 to 8) (size 9 to 14) (size 15 to 20)
#    0.000    2.000    0.000    6.857    0.000    4.571 
#    0.000    5.714    0.000    1.714    0.000    0.000 
#    0.000    0.000    0.000    0.000    0.000    0.000 
#
# Total GULP energy -173518.368361 kJ/mol
# GULP energy per Si atom -12394.169169 kJ/mol
# Density = 2.310105 g / cm^3
# Si number density = 23.153749 Si / 1000 Ang^3
#
#
#
# Elastic Constant Matrix: (Units=GPa)
#
#
# Indices 1 2 3 4 5 6 
#
# 1 135.6477 39.7616 26.7256 3.1706 -3.9510 1.7394
# 2 39.7616 98.8186 27.3399 -12.8416 -25.2953 6.8653
# 3 26.7256 27.3399 76.5339 -14.4387 15.6902 20.3880
# 4 3.1706 -12.8416 -14.4387 26.6982 8.3769 -9.0035
# 5 -3.9510 -25.2953 15.6902 8.3769 46.0948 1.0758
# 6 1.7394 6.8653 20.3880 -9.0035 1.0758 45.4777
#
#
#
# Elastic Compliance Matrix: (Units=1/GPa)
#
#
# Indices 1 2 3 4 5 6 
#
# 1 0.009049 -0.003114 -0.003259 -0.004403 0.000960 0.000691
# 2 -0.003114 0.016085 -0.006772 0.001371 0.010599 0.000748
# 3 -0.003259 -0.006772 0.023553 0.012013 -0.014040 -0.006702
# 4 -0.004403 0.001371 0.012013 0.050914 -0.013083 0.004965
# 5 0.000960 0.010599 -0.014040 -0.013083 0.034720 0.001246
# 6 0.000691 0.000748 -0.006702 0.004965 0.001246 0.025808
#
#
# Mechanical properties :
#
#
# Convention : Reuss Voigt Hill
#
# Bulk Modulus (GPa) = 44.64805 55.40604 50.02705
# Shear Modulus (GPa) = 25.78849 38.13235 31.96042
#
# Velocity S-wave (km/s) = 3.34097 4.06263 3.71935
# Velocity P-wave (km/s) = 5.84876 6.78146 6.33230
#
# Compressibility (1/GPa) = 0.02239739
#
# Stress axis : x y z
#
# Youngs Moduli (GPa) = 110.51086 62.16860 42.45703
#
# Poissons Ratio (x) = 0.19357 0.13837
# Poissons Ratio (y) = 0.34409 0.28753
# Poissons Ratio (z) = 0.36017 0.42102
#
# Static dielectric constant tensor:
#      x y z
#    x 3.328350 0.121750 1.550050 
#    y 0.121750 4.120860 -0.360260 
#    z 1.550050 -0.360260 2.991270 
# 
# 
# High freq. dielectric constant tensor:
#      x y z
#    x 1.937320 -0.011430 0.015520 
#    y -0.011430 1.905630 -0.005840 
#    z 0.015520 -0.005840 1.912790 
# 
# From -- ./inp_files/398676.got.cif
#   From: 2010.06.25/outbox.cif.g09.slc.cpg/sg2_200_cif.got.tgz:398676.got - 2010.06.27 13:26:56.
