data_PCOD8040770
_publ_section_title
;
Structure prediction by ZEFSAII (Michael W. Deem and Ramdas Pophale) SiO2 
 PCOD8040770
Probable space group: P -1
;
_chemical_formula_sum "Si O2"
_cell_formula_units_Z 16
_cell_length_a 10.907290
_cell_length_b 10.926970
_cell_length_c 16.097700
_cell_angle_alpha 110.046023
_cell_angle_beta 40.782908
_cell_angle_gamma 137.559300
_cell_volume 737.187651
_symmetry_space_group_name_H-M "P -1"
_symmetry_group_IT_number 2
_symmetry_cell_setting 'triclinic'
loop_
_space_group_symop_operation_xyz
x,y,z
-x,-y,-z
loop_
_atom_site_type_symbol
_atom_site_label
_atom_site_fract_x
_atom_site_fract_y
_atom_site_fract_z
Si Si1 0.868655 0.725597 0.038838
Si Si2 0.262241 0.780744 0.478302
Si Si3 0.083881 0.975137 0.832039
Si Si4 0.020520 0.732561 0.432310
Si Si5 0.116780 0.993776 0.638000
Si Si6 0.751456 0.381213 0.388684
Si Si7 0.651475 0.219849 0.223554
Si Si8 0.593321 0.681336 0.722372
O O1 0.924802 0.880103 0.103074
O O2 0.558546 0.490208 0.168776
O O3 0.134607 0.767016 0.927872
O O4 0.867991 0.771495 0.953828
O O5 0.581609 0.902352 0.309666
O O6 0.028900 0.638258 0.487014
O O7 0.279618 0.944963 0.523128
O O8 0.158348 0.664424 0.591634
O O9 0.953176 0.901734 0.789342
O O10 0.972486 0.625355 0.346534
O O11 0.729315 0.666813 0.575742
O O12 0.320706 0.980202 0.339518
O O13 0.872493 0.905579 0.675587
O O14 0.406401 0.245864 0.545402
O O15 0.794069 0.336807 0.267017
O O16 0.639302 0.342791 0.202212
#
# Coordination Sequence:
#
# PCOD8040770 Si02
#       8
#     2   2   2   2   2   2   2   2
#     4  11  23  42  63  89 128 172 203 260 320 368
#     4  10  18  38  65  99 129 151 206 272 317 368
#     4  10  20  39  66  91 128 161 209 261 319 378
#     4  11  23  40  67  97 121 164 213 263 320 359
#     4  10  20  38  63  98 125 160 209 267 312 371
#     4  11  21  37  67  95 126 163 205 262 324 363
#     4  12  24  46  61  91 134 168 213 257 302 379
#     4  11  24  42  64  90 129 171 211 257 307 373
#
# _framework density 21.704108000000002
#
# number of rings (size 3 to 8) (size 9 to 14) (size 15 to 20)
#    0.000    1.250    3.750    4.875    0.000    2.000 
#    4.500    0.625    0.000    0.000    0.000    0.000 
#    0.000    0.000    0.000    0.000    0.000    0.000 
#
# Total GULP energy -198286.163797 kJ/mol
# GULP energy per Si atom -12392.885237 kJ/mol
# Density = 2.165471 g / cm^3
# Si number density = 21.704108 Si / 1000 Ang^3
#
#
#
# Elastic Constant Matrix: (Units=GPa)
#
#
# Indices 1 2 3 4 5 6 
#
# 1 76.5332 39.8189 8.5512 12.8026 0.0264 7.5699
# 2 39.8189 110.9936 34.4369 12.6276 2.1165 17.1865
# 3 8.5512 34.4369 77.2359 19.3162 0.2527 0.3556
# 4 12.8026 12.6276 19.3162 32.5661 -4.7954 2.6799
# 5 0.0264 2.1165 0.2527 -4.7954 23.0081 3.2372
# 6 7.5699 17.1865 0.3556 2.6799 3.2372 24.3389
#
#
#
# Elastic Compliance Matrix: (Units=1/GPa)
#
#
# Indices 1 2 3 4 5 6 
#
# 1 0.016963 -0.006079 0.002268 -0.005726 -0.000636 -0.000302
# 2 -0.006079 0.014148 -0.005867 0.001075 0.000141 -0.008151
# 3 0.002268 -0.005867 0.017770 -0.009881 -0.002362 0.004580
# 4 -0.005726 0.001075 -0.009881 0.040092 0.008998 -0.004445
# 5 -0.000636 0.000141 -0.002362 0.008998 0.046340 -0.007021
# 6 -0.000302 -0.008151 0.004580 -0.004445 -0.007021 0.048292
#
#
# Mechanical properties :
#
#
# Convention : Reuss Voigt Hill
#
# Bulk Modulus (GPa) = 33.86972 47.81963 40.84467
# Shear Modulus (GPa) = 23.49583 28.11299 25.80441
#
# Velocity S-wave (km/s) = 3.29379 3.60291 3.45181
# Velocity P-wave (km/s) = 5.48675 6.27601 5.89461
#
# Compressibility (1/GPa) = 0.02952490
#
# Stress axis : x y z
#
# Youngs Moduli (GPa) = 58.95019 70.68297 56.27465
#
# Poissons Ratio (x) = 0.42968 -0.12761
# Poissons Ratio (y) = 0.35836 0.33015
# Poissons Ratio (z) = -0.13368 0.41468
#
# Static dielectric constant tensor:
#      x y z
#    x 4.038690 0.091640 0.094720 
#    y 0.091640 3.985100 0.125180 
#    z 0.094720 0.125180 3.808290 
# 
# 
# High freq. dielectric constant tensor:
#      x y z
#    x 1.847720 0.001230 0.005290 
#    y 0.001230 1.851270 0.010180 
#    z 0.005290 0.010180 1.835900 
# 
# From -- ./inp_files/569185.got.cif
#   From: 2010.06.25/outbox.cif.g09.slc.cpg/sg2_285_cif.got.tgz:569185.got - 2010.06.27 13:26:56.
