data_PCOD8040409
_publ_section_title
;
Structure prediction by ZEFSAII (Michael W. Deem and Ramdas Pophale) SiO2 
 PCOD8040409
Probable space group: P -1
;
_chemical_formula_sum "Si O2"
_cell_formula_units_Z 16
_cell_length_a 9.402825
_cell_length_b 17.189978
_cell_length_c 20.266630
_cell_angle_alpha 28.727046
_cell_angle_beta 149.805748
_cell_angle_gamma 138.755244
_cell_volume 791.602996
_symmetry_space_group_name_H-M "P -1"
_symmetry_group_IT_number 2
_symmetry_cell_setting 'triclinic'
loop_
_space_group_symop_operation_xyz
x,y,z
-x,-y,-z
loop_
_atom_site_type_symbol
_atom_site_label
_atom_site_fract_x
_atom_site_fract_y
_atom_site_fract_z
Si Si1 0.045664 0.316619 0.633794
Si Si2 0.303660 0.875704 0.262000
Si Si3 0.541482 0.327372 0.902903
Si Si4 0.036261 0.149224 0.307625
Si Si5 0.273442 0.530953 0.831229
Si Si6 0.936763 0.794898 0.574944
Si Si7 0.849893 0.775520 0.064505
Si Si8 0.550780 0.339872 0.330206
O O1 0.390813 0.282974 0.804180
O O2 0.000000 0.500000 0.500000
O O3 0.890097 0.187617 0.711402
O O4 0.883920 0.299663 0.511450
O O5 0.601620 0.785397 0.451077
O O6 0.160747 0.840820 0.159212
O O7 0.345834 0.067537 0.149224
O O8 0.282122 0.311187 0.861377
O O9 0.603976 0.518175 0.792613
O O10 0.810258 0.213793 0.113837
O O11 0.951908 0.221360 0.292559
O O12 0.348462 0.189794 0.375760
O O13 0.037116 0.955958 0.458414
O O14 0.132786 0.358982 0.885647
O O15 0.443657 0.613914 0.778453
O O16 0.030273 0.645413 0.678646
O O17 0.500000 0.500000 0.000000
#
# Coordination Sequence:
#
# PCOD8040409 Si02
#       8
#     2   2   2   2   2   2   2   2
#     4   9  18  33  56  91 113 150 201 250 291 348
#     4  10  18  36  65  89 113 162 207 249 284 360
#     4   9  17  32  56  85 117 147 201 255 288 339
#     4  11  21  36  60  92 117 157 212 249 286 361
#     4  11  25  41  58  87 130 159 190 253 321 358
#     4  11  23  36  61  91 124 156 203 255 295 353
#     4   9  19  36  60  88 119 157 203 241 303 358
#     4  10  20  36  59  84 118 161 200 245 301 362
#
# _framework density 20.212153000000001
#
# number of rings (size 3 to 8) (size 9 to 14) (size 15 to 20)
#    0.000    2.000    2.500    2.625    1.750    1.000 
#    0.000    0.000    0.000    0.750    0.000    0.000 
#    0.000    0.000    0.000    0.000    0.000    0.000 
#
# Total GULP energy -198215.824287 kJ/mol
# GULP energy per Si atom -12388.489018 kJ/mol
# Density = 2.016615 g / cm^3
# Si number density = 20.212153 Si / 1000 Ang^3
#
#
#
# Elastic Constant Matrix: (Units=GPa)
#
#
# Indices 1 2 3 4 5 6 
#
# 1 47.0769 27.9547 23.4257 -0.4747 -5.4359 -12.4039
# 2 27.9547 100.0376 43.0388 -0.1959 1.6646 -14.3472
# 3 23.4257 43.0388 117.6025 18.0813 -7.8875 -16.0905
# 4 -0.4747 -0.1959 18.0813 42.0411 -6.8717 1.1601
# 5 -5.4359 1.6646 -7.8875 -6.8717 31.9977 -3.4764
# 6 -12.4039 -14.3472 -16.0905 1.1601 -3.4764 23.2395
#
#
#
# Elastic Compliance Matrix: (Units=1/GPa)
#
#
# Indices 1 2 3 4 5 6 
#
# 1 0.029543 -0.005820 -0.002019 0.001916 0.006502 0.011655
# 2 -0.005820 0.013646 -0.003860 0.001246 -0.002136 0.002264
# 3 -0.002019 -0.003860 0.011981 -0.004962 0.002336 0.005432
# 4 0.001916 0.001246 -0.004962 0.026752 0.004533 -0.002301
# 5 0.006502 -0.002136 0.002336 0.004533 0.034970 0.008773
# 6 0.011655 0.002264 0.005432 -0.002301 0.008773 0.055836
#
#
# Mechanical properties :
#
#
# Convention : Reuss Voigt Hill
#
# Bulk Modulus (GPa) = 31.47383 50.39505 40.93444
# Shear Modulus (GPa) = 24.18774 30.80886 27.49830
#
# Velocity S-wave (km/s) = 3.46308 3.90843 3.69247
# Velocity P-wave (km/s) = 5.62104 6.73461 6.20286
#
# Compressibility (1/GPa) = 0.03177243
#
# Stress axis : x y z
#
# Youngs Moduli (GPa) = 33.84873 73.28238 83.46837
#
# Poissons Ratio (x) = 0.42651 0.16850
# Poissons Ratio (y) = 0.19700 0.32217
# Poissons Ratio (z) = 0.06833 0.28286
#
# Static dielectric constant tensor:
#      x y z
#    x 3.433690 -0.034030 -0.296940 
#    y -0.034030 3.753830 0.403930 
#    z -0.296940 0.403930 3.812410 
# 
# 
# High freq. dielectric constant tensor:
#      x y z
#    x 1.731890 0.015380 -0.032490 
#    y 0.015380 1.803880 0.008770 
#    z -0.032490 0.008770 1.802990 
# 
# From -- ./inp_files/590980.got.cif
#   From: 2010.06.25/outbox.cif.g09.slc.cpg/sg2_296_cif.got.tgz:590980.got - 2010.06.27 13:26:56.
