data_PCOD8040517
_publ_section_title
;
Structure prediction by ZEFSAII (Michael W. Deem and Ramdas Pophale) SiO2 
 PCOD8040517
Probable space group: P -1
;
_chemical_formula_sum "Si O2"
_cell_formula_units_Z 16
_cell_length_a 11.318135
_cell_length_b 9.193589
_cell_length_c 12.639839
_cell_angle_alpha 45.141115
_cell_angle_beta 119.695176
_cell_angle_gamma 97.373894
_cell_volume 755.859263
_symmetry_space_group_name_H-M "P -1"
_symmetry_group_IT_number 2
_symmetry_cell_setting 'triclinic'
loop_
_space_group_symop_operation_xyz
x,y,z
-x,-y,-z
loop_
_atom_site_type_symbol
_atom_site_label
_atom_site_fract_x
_atom_site_fract_y
_atom_site_fract_z
Si Si1 0.342681 0.507862 0.797592
Si Si2 0.253380 0.940536 0.824601
Si Si3 0.312020 0.666028 0.191027
Si Si4 0.502235 0.836983 0.486797
Si Si5 0.768176 0.282690 0.642517
Si Si6 0.589198 0.733472 0.255399
Si Si7 0.958511 0.300420 0.543278
Si Si8 0.455942 0.802180 0.802991
O O1 0.433086 0.345444 0.830833
O O2 0.170218 0.606600 0.648308
O O3 0.412713 0.699477 0.730570
O O4 0.387192 0.363209 0.999242
O O5 0.320287 0.808910 0.815634
O O6 0.373384 0.048649 0.853475
O O7 0.232789 0.786909 0.988113
O O8 0.094894 0.120922 0.638480
O O9 0.371090 0.403568 0.329399
O O10 0.204107 0.745215 0.204461
O O11 0.439226 0.756907 0.236011
O O12 0.347166 0.814271 0.409103
O O13 0.500000 0.000000 0.500000
O O14 0.538955 0.957788 0.338050
O O15 0.718577 0.544944 0.468460
O O16 0.912854 0.184862 0.684452
O O17 0.000000 0.500000 0.500000
#
# Coordination Sequence:
#
# PCOD8040517 Si02
#       8
#     2   2   2   2   2   2   2   2
#     4  10  22  40  65  95 124 155 217 255 303 370
#     4  12  23  36  66  93 125 166 206 256 307 369
#     4  11  22  36  58  96 127 154 210 265 304 365
#     4  11  23  38  64  92 128 159 203 266 320 357
#     4  10  21  37  60  87 125 162 207 255 313 362
#     4  10  18  37  60  91 119 161 205 259 305 353
#     4  11  23  41  64  90 129 168 207 254 309 373
#     4  11  23  40  69  95 119 164 213 259 312 362
#
# _framework density 21.167961999999999
#
# number of rings (size 3 to 8) (size 9 to 14) (size 15 to 20)
#    0.000    1.250    3.750    5.625    3.500    1.000 
#    0.000    0.000    0.000    1.500    0.000    0.000 
#    0.000    0.000    0.000    0.000    0.000    0.000 
#
# Total GULP energy -198260.449636 kJ/mol
# GULP energy per Si atom -12391.278102 kJ/mol
# Density = 2.111978 g / cm^3
# Si number density = 21.167962 Si / 1000 Ang^3
#
#
#
# Elastic Constant Matrix: (Units=GPa)
#
#
# Indices 1 2 3 4 5 6 
#
# 1 92.3809 26.6749 37.3144 -1.2920 0.1940 -1.7012
# 2 26.6749 92.4202 37.0231 -5.1958 -0.9712 7.4341
# 3 37.3144 37.0231 107.0425 -10.3643 -1.0843 10.7366
# 4 -1.2920 -5.1958 -10.3643 32.2417 1.3154 -4.4774
# 5 0.1940 -0.9712 -1.0843 1.3154 36.0993 -2.2292
# 6 -1.7012 7.4341 10.7366 -4.4774 -2.2292 30.0195
#
#
#
# Elastic Compliance Matrix: (Units=1/GPa)
#
#
# Indices 1 2 3 4 5 6 
#
# 1 0.013230 -0.002431 -0.004121 -0.000809 -0.000064 0.002700
# 2 -0.002431 0.013091 -0.003412 0.000625 0.000113 -0.002058
# 3 -0.004121 -0.003412 0.012582 0.002849 -0.000009 -0.003464
# 4 -0.000809 0.000625 0.002849 0.032530 -0.000858 0.003569
# 5 -0.000064 0.000113 -0.000009 -0.000858 0.027854 0.001912
# 6 0.002700 -0.002058 -0.003464 0.003569 0.001912 0.035887
#
#
# Mechanical properties :
#
#
# Convention : Reuss Voigt Hill
#
# Bulk Modulus (GPa) = 52.70297 54.87427 53.78862
# Shear Modulus (GPa) = 30.97382 32.39418 31.68400
#
# Velocity S-wave (km/s) = 3.82938 3.91620 3.87303
# Velocity P-wave (km/s) = 6.67112 6.81384 6.74285
#
# Compressibility (1/GPa) = 0.01897426
#
# Stress axis : x y z
#
# Youngs Moduli (GPa) = 75.58751 76.39103 79.47887
#
# Poissons Ratio (x) = 0.18571 0.32751
# Poissons Ratio (y) = 0.18375 0.27120
# Poissons Ratio (z) = 0.31148 0.26066
#
# Static dielectric constant tensor:
#      x y z
#    x 3.973680 -0.058030 -0.280560 
#    y -0.058030 3.803430 -0.092150 
#    z -0.280560 -0.092150 3.867460 
# 
# 
# High freq. dielectric constant tensor:
#      x y z
#    x 1.813140 -0.008770 -0.021530 
#    y -0.008770 1.833800 -0.006270 
#    z -0.021530 -0.006270 1.825560 
# 
# From -- ./inp_files/416372.got.cif
#   From: 2010.06.25/outbox.cif.g09.slc.cpg/sg2_209_cif.got.tgz:416372.got - 2010.06.27 13:26:56.
