data_PCOD8040720
_publ_section_title
;
Structure prediction by ZEFSAII (Michael W. Deem and Ramdas Pophale) SiO2 
 PCOD8040720
Probable space group: P -1
;
_chemical_formula_sum "Si O2"
_cell_formula_units_Z 14
_cell_length_a 17.863677
_cell_length_b 14.182752
_cell_length_c 11.629497
_cell_angle_alpha 29.477742
_cell_angle_beta 29.083959
_cell_angle_gamma 39.063208
_cell_volume 703.259890
_symmetry_space_group_name_H-M "P -1"
_symmetry_group_IT_number 2
_symmetry_cell_setting 'triclinic'
loop_
_space_group_symop_operation_xyz
x,y,z
-x,-y,-z
loop_
_atom_site_type_symbol
_atom_site_label
_atom_site_fract_x
_atom_site_fract_y
_atom_site_fract_z
Si Si1 0.302709 0.459013 0.584236
Si Si2 0.153081 0.515100 0.964699
Si Si3 0.339395 0.538737 0.919367
Si Si4 0.168813 0.306555 0.553796
Si Si5 0.103109 0.731891 0.180410
Si Si6 0.122871 0.180660 0.988969
Si Si7 0.893511 0.231506 0.612147
O O1 0.257892 0.529455 0.696185
O O2 0.484615 0.418458 0.374003
O O3 0.222974 0.261727 0.871709
O O4 0.245938 0.620398 0.396763
O O5 0.268069 0.496505 0.936835
O O6 0.045120 0.710157 0.910008
O O7 0.055950 0.327596 0.281775
O O8 0.318539 0.351635 0.228183
O O9 0.249446 0.724693 0.904243
O O10 0.072271 0.510821 0.496270
O O11 0.215925 0.205368 0.717538
O O12 0.052163 0.180931 0.768512
O O13 0.134770 0.839763 0.142678
O O14 0.102007 0.955825 0.276333
#
# Coordination Sequence:
#
# PCOD8040720 Si02
#       7
#     2   2   2   2   2   2   2
#     4  11  24  36  57  82 121 152 180 229 285 329
#     4  11  20  41  59  81 108 156 196 227 268 325
#     4  10  18  38  62  83 114 147 184 233 282 337
#     4   9  15  34  62  81 111 138 184 234 280 320
#     4   9  15  34  62  81 111 138 184 234 280 320
#     4  11  21  37  61  86 110 147 191 232 278 332
#     4  11  21  37  61  86 110 147 191 232 278 332
#
# _framework density 19.907292000000002
#
# number of rings (size 3 to 8) (size 9 to 14) (size 15 to 20)
#    0.857    0.857    5.714    2.143    0.000    5.143 
#    0.000    4.286    0.000    3.429    0.000    0.000 
#    0.000    0.000    0.000    0.000    0.000    0.000 
#
# Total GULP energy -173527.823722 kJ/mol
# GULP energy per Si atom -12394.844552 kJ/mol
# Density = 1.986198 g / cm^3
# Si number density = 19.907292 Si / 1000 Ang^3
#
#
#
# Elastic Constant Matrix: (Units=GPa)
#
#
# Indices 1 2 3 4 5 6 
#
# 1 69.9076 21.6894 16.3189 13.2985 2.4403 8.9534
# 2 21.6894 58.1153 32.5049 2.6343 -12.5038 10.4944
# 3 16.3189 32.5049 41.7138 13.3640 -2.3088 2.9273
# 4 13.2985 2.6343 13.3640 35.1923 8.3490 -3.5122
# 5 2.4403 -12.5038 -2.3088 8.3490 25.1048 6.0494
# 6 8.9534 10.4944 2.9273 -3.5122 6.0494 26.3963
#
#
#
# Elastic Compliance Matrix: (Units=1/GPa)
#
#
# Indices 1 2 3 4 5 6 
#
# 1 0.017976 -0.005878 -0.000220 -0.006315 -0.001580 -0.004214
# 2 -0.005878 0.044719 -0.031233 0.003598 0.022893 -0.017089
# 3 -0.000220 -0.031233 0.052406 -0.015141 -0.007202 0.006316
# 4 -0.006315 0.003598 -0.015141 0.041068 -0.015387 0.011381
# 5 -0.001580 0.022893 -0.007202 -0.015387 0.061611 -0.023934
# 6 -0.004214 -0.017089 0.006316 0.011381 -0.023934 0.052407
#
#
# Mechanical properties :
#
#
# Convention : Reuss Voigt Hill
#
# Bulk Modulus (GPa) = 24.72987 34.52922 29.62954
# Shear Modulus (GPa) = 13.95367 23.95359 18.95363
#
# Velocity S-wave (km/s) = 2.65038 3.47256 3.08895
# Velocity P-wave (km/s) = 4.67071 5.78454 5.25721
#
# Compressibility (1/GPa) = 0.04043694
#
# Stress axis : x y z
#
# Youngs Moduli (GPa) = 55.62988 22.36201 19.08185
#
# Poissons Ratio (x) = 0.13145 0.00421
# Poissons Ratio (y) = 0.32701 0.59598
# Poissons Ratio (z) = 0.01226 0.69843
#
# Static dielectric constant tensor:
#      x y z
#    x 3.777400 0.266400 0.094870 
#    y 0.266400 3.293890 0.043070 
#    z 0.094870 0.043070 3.347300 
# 
# 
# High freq. dielectric constant tensor:
#      x y z
#    x 1.786660 0.022150 0.008670 
#    y 0.022150 1.745910 0.002870 
#    z 0.008670 0.002870 1.755530 
# 
# From -- ./inp_files/465426.got.cif
#   From: 2010.06.25/outbox.cif.g09.slc.cpg/sg2_233_cif.got.tgz:465426.got - 2010.06.27 13:26:56.
