data_PCOD8040323
_publ_section_title
;
Structure prediction by ZEFSAII (Michael W. Deem and Ramdas Pophale) SiO2 
 PCOD8040323
Probable space group: P -1
;
_chemical_formula_sum "Si O2"
_cell_formula_units_Z 16
_cell_length_a 11.715848
_cell_length_b 26.001196
_cell_length_c 8.440558
_cell_angle_alpha 151.244745
_cell_angle_beta 42.255261
_cell_angle_gamma 148.153461
_cell_volume 652.556985
_symmetry_space_group_name_H-M "P -1"
_symmetry_group_IT_number 2
_symmetry_cell_setting 'triclinic'
loop_
_space_group_symop_operation_xyz
x,y,z
-x,-y,-z
loop_
_atom_site_type_symbol
_atom_site_label
_atom_site_fract_x
_atom_site_fract_y
_atom_site_fract_z
Si Si1 0.056622 0.387047 0.344421
Si Si2 0.246573 0.675848 0.946485
Si Si3 0.597500 0.299039 0.644459
Si Si4 0.859152 0.797204 0.707372
Si Si5 0.149707 0.423837 0.709449
Si Si6 0.347866 0.341103 0.762207
Si Si7 0.363981 0.114777 0.665717
Si Si8 0.269374 0.899405 0.388899
O O1 0.208141 0.545050 0.551297
O O2 0.130169 0.391156 0.457816
O O3 0.801967 0.316586 0.406026
O O4 0.117897 0.303720 0.957845
O O5 0.471462 0.782558 0.089445
O O6 0.202907 0.747330 0.045556
O O7 0.072315 0.613448 0.098694
O O8 0.451829 0.294899 0.647378
O O9 0.454160 0.158055 0.511656
O O10 0.662049 0.417138 0.020580
O O11 0.789975 0.660608 0.492159
O O12 0.702867 0.746837 0.579363
O O13 0.107041 0.898281 0.669621
O O14 0.836114 0.883351 0.091507
O O15 0.500000 0.500000 0.000000
O O16 0.283977 0.961516 0.368011
O O17 0.500000 0.000000 0.500000
#
# Coordination Sequence:
#
# PCOD8040323 Si02
#       8
#     2   2   2   2   2   2   2   2
#     4  11  21  39  64  92 132 166 201 256 315 372
#     4   9  17  33  59  91 118 150 203 262 304 353
#     4  11  22  39  61  95 124 169 209 248 317 377
#     4  11  23  39  60  95 128 161 202 261 312 372
#     4  10  18  36  61  90 123 156 212 255 301 366
#     4  12  26  40  56  97 142 166 197 240 321 403
#     4  11  19  37  66  88 118 155 214 268 304 345
#     4   9  21  39  61  90 117 154 218 269 303 351
#
# _framework density 24.518932
#
# number of rings (size 3 to 8) (size 9 to 14) (size 15 to 20)
#    0.000    1.500    3.750    2.625    0.000    1.500 
#    6.750    0.625    0.000    0.750    0.000    0.000 
#    0.000    0.000    0.000    0.000    0.000    0.000 
#
# Total GULP energy -198361.983197 kJ/mol
# GULP energy per Si atom -12397.623950 kJ/mol
# Density = 2.446313 g / cm^3
# Si number density = 24.518932 Si / 1000 Ang^3
#
#
#
# Elastic Constant Matrix: (Units=GPa)
#
#
# Indices 1 2 3 4 5 6 
#
# 1 117.8434 44.6108 21.5953 -8.0312 -29.2694 -13.1646
# 2 44.6108 113.0418 13.5939 8.1928 -17.9045 -18.0409
# 3 21.5953 13.5939 44.7505 -8.6881 -3.9984 -6.3804
# 4 -8.0312 8.1928 -8.6881 27.6508 -4.5979 -13.5394
# 5 -29.2694 -17.9045 -3.9984 -4.5979 24.9040 3.7326
# 6 -13.1646 -18.0409 -6.3804 -13.5394 3.7326 44.1345
#
#
#
# Elastic Compliance Matrix: (Units=1/GPa)
#
#
# Indices 1 2 3 4 5 6 
#
# 1 0.015384 -0.003131 -0.002504 0.009550 0.016520 0.004480
# 2 -0.003131 0.011426 -0.002007 -0.003329 0.003276 0.002148
# 3 -0.002504 -0.002007 0.027340 0.011512 0.001258 0.005810
# 4 0.009550 -0.003329 0.011512 0.055725 0.018162 0.018711
# 5 0.016520 0.003276 0.001258 0.018162 0.064497 0.006566
# 6 0.004480 0.002148 0.005810 0.018711 0.006566 0.030897
#
#
# Mechanical properties :
#
#
# Convention : Reuss Voigt Hill
#
# Bulk Modulus (GPa) = 25.72945 48.35954 37.04450
# Shear Modulus (GPa) = 21.41243 32.39356 26.90300
#
# Velocity S-wave (km/s) = 2.95837 3.63873 3.31605
# Velocity P-wave (km/s) = 4.71018 6.11718 5.45920
#
# Compressibility (1/GPa) = 0.03886597
#
# Stress axis : x y z
#
# Youngs Moduli (GPa) = 65.00127 87.51753 36.57618
#
# Poissons Ratio (x) = 0.27400 0.09160
# Poissons Ratio (y) = 0.20350 0.07342
# Poissons Ratio (z) = 0.16278 0.17568
#
# Static dielectric constant tensor:
#      x y z
#    x 4.482550 -0.178140 -0.517740 
#    y -0.178140 4.676930 0.012580 
#    z -0.517740 0.012580 4.251710 
# 
# 
# High freq. dielectric constant tensor:
#      x y z
#    x 1.980680 -0.005660 -0.024860 
#    y -0.005660 1.984220 -0.009970 
#    z -0.024860 -0.009970 1.951240 
# 
# From -- ./inp_files/285878.got.cif
#   From: 2010.06.25/outbox.cif.g09.slc.cpg/sg2_143_cif.got.tgz:285878.got - 2010.06.27 13:26:56.
