data_PCOD8040967
_publ_section_title
;
Structure prediction by ZEFSAII (Michael W. Deem and Ramdas Pophale) SiO2 
 PCOD8040967
Probable space group: P -1
;
_chemical_formula_sum "Si O2"
_cell_formula_units_Z 16
_cell_length_a 17.997893
_cell_length_b 8.626771
_cell_length_c 8.154061
_cell_angle_alpha 117.360784
_cell_angle_beta 100.127309
_cell_angle_gamma 38.502692
_cell_volume 660.173410
_symmetry_space_group_name_H-M "P -1"
_symmetry_group_IT_number 2
_symmetry_cell_setting 'triclinic'
loop_
_space_group_symop_operation_xyz
x,y,z
-x,-y,-z
loop_
_atom_site_type_symbol
_atom_site_label
_atom_site_fract_x
_atom_site_fract_y
_atom_site_fract_z
Si Si1 0.824730 0.129679 0.911249
Si Si2 0.335089 0.668718 0.546222
Si Si3 0.313327 0.062023 0.922058
Si Si4 0.477178 0.818194 0.353947
Si Si5 0.674523 0.697858 0.246582
Si Si6 0.434531 0.520360 0.156383
Si Si7 0.070675 0.408133 0.149856
Si Si8 0.918116 0.990405 0.524426
O O1 0.680421 0.345411 0.921864
O O2 0.900523 0.833757 0.879414
O O3 0.897864 0.054289 0.741453
O O4 0.799895 0.339074 0.129396
O O5 0.430715 0.376161 0.547623
O O6 0.402738 0.609422 0.379082
O O7 0.292623 0.918538 0.749366
O O8 0.215136 0.769114 0.506139
O O9 0.313639 0.226731 0.884286
O O10 0.440399 0.831743 0.968719
O O11 0.195429 0.293367 0.112543
O O12 0.542042 0.835879 0.266034
O O13 0.462769 0.665337 0.171031
O O14 0.339805 0.140642 0.526743
O O15 0.985899 0.678044 0.372137
O O16 0.000000 0.500000 0.000000
O O17 0.000000 0.000000 0.500000
#
# Coordination Sequence:
#
# PCOD8040967 Si02
#       8
#     2   2   2   2   2   2   2   2
#     4  11  26  46  68 103 142 172 228 288 344 401
#     4  10  18  40  68  95 134 176 222 268 334 412
#     4  11  20  40  70  97 136 177 230 269 333 410
#     4  10  20  38  64 102 143 171 224 264 339 419
#     4  11  22  37  62 105 140 170 222 276 334 406
#     4  10  20  40  68  95 137 180 211 274 355 395
#     4  12  26  48  72  92 132 191 238 271 330 407
#     4  11  25  49  69 100 134 178 229 291 340 390
#
# _framework density 24.236055
#
# number of rings (size 3 to 8) (size 9 to 14) (size 15 to 20)
#    0.000    1.250    3.750    3.375    0.000    2.500 
#    9.000    1.250    0.000    0.000    0.000    0.000 
#    0.000    0.000    0.000    0.000    0.000    0.000 
#
# Total GULP energy -198391.076205 kJ/mol
# GULP energy per Si atom -12399.442263 kJ/mol
# Density = 2.418089 g / cm^3
# Si number density = 24.236055 Si / 1000 Ang^3
#
#
#
# Elastic Constant Matrix: (Units=GPa)
#
#
# Indices 1 2 3 4 5 6 
#
# 1 111.7564 38.2002 5.0809 4.6003 -14.9710 18.2469
# 2 38.2002 98.0896 36.5059 12.5804 6.4448 7.4998
# 3 5.0809 36.5059 117.8265 32.6702 1.8033 9.7707
# 4 4.6003 12.5804 32.6702 41.3719 4.2793 3.1650
# 5 -14.9710 6.4448 1.8033 4.2793 34.5582 6.8169
# 6 18.2469 7.4998 9.7707 3.1650 6.8169 40.3599
#
#
#
# Elastic Compliance Matrix: (Units=1/GPa)
#
#
# Indices 1 2 3 4 5 6 
#
# 1 0.013013 -0.005654 0.002085 -0.001709 0.008090 -0.006570
# 2 -0.005654 0.014169 -0.004236 0.000068 -0.005240 0.001828
# 3 0.002085 -0.004236 0.012333 -0.008740 0.002707 -0.002913
# 4 -0.001709 0.000068 -0.008740 0.031613 -0.004437 0.001146
# 5 0.008090 -0.005240 0.002707 -0.004437 0.035603 -0.009005
# 6 -0.006570 0.001828 -0.002913 0.001146 -0.009005 0.029544
#
#
# Mechanical properties :
#
#
# Convention : Reuss Voigt Hill
#
# Bulk Modulus (GPa) = 41.83205 54.13849 47.98527
# Shear Modulus (GPa) = 31.27870 39.78370 35.53120
#
# Velocity S-wave (km/s) = 3.59637 4.05595 3.83305
# Velocity P-wave (km/s) = 5.87732 6.65739 6.27948
#
# Compressibility (1/GPa) = 0.02390511
#
# Stress axis : x y z
#
# Youngs Moduli (GPa) = 76.84867 70.57641 81.08228
#
# Poissons Ratio (x) = 0.39903 -0.16908
# Poissons Ratio (y) = 0.43449 0.34349
# Poissons Ratio (z) = -0.16025 0.29898
#
# Static dielectric constant tensor:
#      x y z
#    x 4.447530 0.143430 -0.129720 
#    y 0.143430 4.355590 0.256520 
#    z -0.129720 0.256520 4.842760 
# 
# 
# High freq. dielectric constant tensor:
#      x y z
#    x 1.964750 0.017940 -0.015450 
#    y 0.017940 1.946590 0.012090 
#    z -0.015450 0.012090 1.987180 
# 
# From -- ./inp_files/329464.got.cif
#   From: 2010.06.25/outbox.cif.g09.slc.cpg/sg2_165_cif.got.tgz:329464.got - 2010.06.27 13:26:56.
