data_PCOD8040917
_publ_section_title
;
Structure prediction by ZEFSAII (Michael W. Deem and Ramdas Pophale) SiO2 
 PCOD8040917
Probable space group: P -1
;
_chemical_formula_sum "Si O2"
_cell_formula_units_Z 16
_cell_length_a 16.143104
_cell_length_b 15.859603
_cell_length_c 9.358708
_cell_angle_alpha 137.514340
_cell_angle_beta 44.188152
_cell_angle_gamma 152.478064
_cell_volume 732.374176
_symmetry_space_group_name_H-M "P -1"
_symmetry_group_IT_number 2
_symmetry_cell_setting 'triclinic'
loop_
_space_group_symop_operation_xyz
x,y,z
-x,-y,-z
loop_
_atom_site_type_symbol
_atom_site_label
_atom_site_fract_x
_atom_site_fract_y
_atom_site_fract_z
Si Si1 0.629582 0.310789 0.284131
Si Si2 0.504425 0.482141 0.641740
Si Si3 0.221607 0.642624 0.138479
Si Si4 0.840658 0.876665 0.226872
Si Si5 0.166642 0.736414 0.890432
Si Si6 0.754588 0.851778 0.986355
Si Si7 0.560775 0.930825 0.250506
Si Si8 0.230248 0.904701 0.314500
O O1 0.602196 0.432915 0.509732
O O2 0.755839 0.342296 0.283432
O O3 0.438599 0.085715 0.234089
O O4 0.726981 0.382878 0.103038
O O5 0.500000 0.500000 0.500000
O O6 0.292657 0.307193 0.734256
O O7 0.617022 0.678364 0.827848
O O8 0.372040 0.719692 0.163397
O O9 0.217349 0.790024 0.311100
O O10 0.024329 0.432631 0.169142
O O11 0.854852 0.034295 0.447355
O O12 0.765046 0.795861 0.058370
O O13 0.042925 0.980699 0.123387
O O14 0.308193 0.931342 0.870690
O O15 0.125328 0.770660 0.136156
O O16 0.671324 0.922986 0.203393
O O17 0.500000 0.000000 0.500000
#
# Coordination Sequence:
#
# PCOD8040917 Si02
#       8
#     2   2   2   2   2   2   2   2
#     4  10  19  38  66  97 132 170 211 267 340 389
#     4  11  25  42  70 103 134 176 224 282 336 393
#     4  11  21  38  63  98 133 166 219 276 327 391
#     4  10  25  47  68  99 133 183 228 266 336 412
#     4  11  23  38  66 102 129 173 219 284 324 392
#     4  11  26  46  69  96 138 184 219 276 333 408
#     4  12  26  45  64  93 135 174 222 274 337 390
#     4  10  18  39  70  95 132 173 218 272 335 386
#
# _framework density 21.846757
#
# number of rings (size 3 to 8) (size 9 to 14) (size 15 to 20)
#    0.000    1.250    2.500    4.125    7.000    3.000 
#    0.000    0.000    0.000    0.000    0.000    0.000 
#    0.000    0.000    0.000    0.000    0.000    0.000 
#
# Total GULP energy -198411.258670 kJ/mol
# GULP energy per Si atom -12400.703667 kJ/mol
# Density = 2.179703 g / cm^3
# Si number density = 21.846757 Si / 1000 Ang^3
#
#
#
# Elastic Constant Matrix: (Units=GPa)
#
#
# Indices 1 2 3 4 5 6 
#
# 1 89.5532 46.8447 32.1743 -1.4775 -5.0435 20.6487
# 2 46.8447 113.6762 47.4666 -7.2074 0.6253 30.8702
# 3 32.1743 47.4666 81.1310 0.4005 -10.7919 9.4447
# 4 -1.4775 -7.2074 0.4005 23.5394 -1.3928 -3.9755
# 5 -5.0435 0.6253 -10.7919 -1.3928 29.2132 -11.6683
# 6 20.6487 30.8702 9.4447 -3.9755 -11.6683 26.9887
#
#
#
# Elastic Compliance Matrix: (Units=1/GPa)
#
#
# Indices 1 2 3 4 5 6 
#
# 1 0.015870 -0.002351 -0.004166 -0.001371 -0.002524 -0.009288
# 2 -0.002351 0.020937 -0.010386 0.001442 -0.014423 -0.024538
# 3 -0.004166 -0.010386 0.020145 -0.000844 0.012157 0.013149
# 4 -0.001371 0.001442 -0.000844 0.044555 0.004888 0.008371
# 5 -0.002524 -0.014423 0.012157 0.004888 0.054123 0.038294
# 6 -0.009288 -0.024538 0.013149 0.008371 0.038294 0.085413
#
#
# Mechanical properties :
#
#
# Convention : Reuss Voigt Hill
#
# Bulk Modulus (GPa) = 43.20470 59.70351 51.45410
# Shear Modulus (GPa) = 17.69513 26.47327 22.08420
#
# Velocity S-wave (km/s) = 2.84908 3.48483 3.18287
# Velocity P-wave (km/s) = 5.53554 6.60149 6.09187
#
# Compressibility (1/GPa) = 0.02314563
#
# Stress axis : x y z
#
# Youngs Moduli (GPa) = 63.01261 47.76243 49.64060
#
# Poissons Ratio (x) = 0.11230 0.20679
# Poissons Ratio (y) = 0.14815 0.51557
# Poissons Ratio (z) = 0.26249 0.49607
#
# Static dielectric constant tensor:
#      x y z
#    x 3.927210 0.059560 -0.144540 
#    y 0.059560 3.915380 -0.070220 
#    z -0.144540 -0.070220 3.905830 
# 
# 
# High freq. dielectric constant tensor:
#      x y z
#    x 1.850770 0.011490 -0.009810 
#    y 0.011490 1.863360 -0.002950 
#    z -0.009810 -0.002950 1.857060 
# 
# From -- ./inp_files/271721.got.cif
#   From: 2010.06.25/outbox.cif.g09.slc.cpg/sg2_136_cif.got.tgz:271721.got - 2010.06.27 13:26:56.
