data_PCOD8040660
_publ_section_title
;
Structure prediction by ZEFSAII (Michael W. Deem and Ramdas Pophale) SiO2 
 PCOD8040660
Probable space group: P -1
;
_chemical_formula_sum "Si O2"
_cell_formula_units_Z 16
_cell_length_a 13.408099
_cell_length_b 18.366347
_cell_length_c 10.811837
_cell_angle_alpha 145.528503
_cell_angle_beta 57.028669
_cell_angle_gamma 146.633692
_cell_volume 734.384339
_symmetry_space_group_name_H-M "P -1"
_symmetry_group_IT_number 2
_symmetry_cell_setting 'triclinic'
loop_
_space_group_symop_operation_xyz
x,y,z
-x,-y,-z
loop_
_atom_site_type_symbol
_atom_site_label
_atom_site_fract_x
_atom_site_fract_y
_atom_site_fract_z
Si Si1 0.784549 0.814291 0.953208
Si Si2 0.109654 0.428313 0.753445
Si Si3 0.714046 0.973844 0.624835
Si Si4 0.989337 0.059409 0.386115
Si Si5 0.992664 0.565695 0.906382
Si Si6 0.574522 0.850186 0.016087
Si Si7 0.426126 0.880083 0.514059
Si Si8 0.416927 0.294505 0.445035
O O1 0.698369 0.880053 0.076532
O O2 0.615093 0.560680 0.667683
O O3 0.832404 0.834674 0.095692
O O4 0.000000 0.000000 0.000000
O O5 0.345061 0.642028 0.926483
O O6 0.043283 0.224167 0.486290
O O7 0.057454 0.472008 0.731190
O O8 0.991476 0.372845 0.876506
O O9 0.595110 0.938027 0.542770
O O10 0.555514 0.766600 0.535457
O O11 0.873105 0.006121 0.512139
O O12 0.840144 0.191266 0.927126
O O13 0.202552 0.180317 0.446459
O O14 0.772449 0.385658 0.740061
O O15 0.601348 0.814448 0.812422
O O16 0.636210 0.055318 0.264605
O O17 0.500000 0.000000 0.500000
#
# Coordination Sequence:
#
# PCOD8040660 Si02
#       8
#     2   2   2   2   2   2   2   2
#     4  12  24  43  70  99 127 170 225 272 322 381
#     4  10  18  37  68  97 126 163 211 280 319 373
#     4  11  26  43  64  98 135 177 215 263 330 393
#     4  11  23  42  68  95 131 172 223 267 321 382
#     4  10  20  39  64  97 131 160 215 272 329 378
#     4  12  22  41  68  95 131 167 217 276 327 375
#     4  12  22  41  70 101 125 166 226 277 320 382
#     4  12  27  44  62  94 142 177 213 264 329 396
#
# _framework density 21.786957999999998
#
# number of rings (size 3 to 8) (size 9 to 14) (size 15 to 20)
#    0.000    0.750    5.000    4.500    0.000    2.000 
#    0.000    0.625    0.000    0.000    0.000    0.000 
#    0.000    0.000    0.000    0.000    0.000    0.000 
#
# Total GULP energy -198305.934661 kJ/mol
# GULP energy per Si atom -12394.120916 kJ/mol
# Density = 2.173737 g / cm^3
# Si number density = 21.786958 Si / 1000 Ang^3
#
#
#
# Elastic Constant Matrix: (Units=GPa)
#
#
# Indices 1 2 3 4 5 6 
#
# 1 102.0889 44.7379 29.4825 6.0674 5.6480 12.6607
# 2 44.7379 66.5867 24.2827 12.2218 -2.3572 3.5324
# 3 29.4825 24.2827 103.0297 6.4909 9.5146 1.4741
# 4 6.0674 12.2218 6.4909 25.5120 13.0996 6.4757
# 5 5.6480 -2.3572 9.5146 13.0996 31.4743 4.2007
# 6 12.6607 3.5324 1.4741 6.4757 4.2007 33.7625
#
#
#
# Elastic Compliance Matrix: (Units=1/GPa)
#
#
# Indices 1 2 3 4 5 6 
#
# 1 0.015581 -0.010749 -0.001770 0.005621 -0.004720 -0.005131
# 2 -0.010749 0.026556 -0.003254 -0.015794 0.011068 0.003047
# 3 -0.001770 -0.003254 0.011264 0.000855 -0.003796 0.000821
# 4 0.005621 -0.015794 0.000855 0.061195 -0.026731 -0.008904
# 5 -0.004720 0.011068 -0.003796 -0.026731 0.045692 0.000220
# 6 -0.005131 0.003047 0.000821 -0.008904 0.000220 0.032869
#
#
# Mechanical properties :
#
#
# Convention : Reuss Voigt Hill
#
# Bulk Modulus (GPa) = 45.75542 52.07906 48.91724
# Shear Modulus (GPa) = 21.55294 29.69655 25.62475
#
# Velocity S-wave (km/s) = 3.14866 3.69595 3.43323
# Velocity P-wave (km/s) = 5.85369 6.49377 6.18202
#
# Compressibility (1/GPa) = 0.02185533
#
# Stress axis : x y z
#
# Youngs Moduli (GPa) = 64.18231 37.65638 88.77688
#
# Poissons Ratio (x) = 0.40478 0.15711
# Poissons Ratio (y) = 0.68992 0.28884
# Poissons Ratio (z) = 0.11359 0.12252
#
# Static dielectric constant tensor:
#      x y z
#    x 4.163690 0.441160 -0.144320 
#    y 0.441160 4.069140 0.167220 
#    z -0.144320 0.167220 4.347550 
# 
# 
# High freq. dielectric constant tensor:
#      x y z
#    x 1.853140 0.024270 -0.001140 
#    y 0.024270 1.836260 0.009600 
#    z -0.001140 0.009600 1.865050 
# 
# From -- ./inp_files/457550.got.cif
#   From: 2010.06.25/outbox.cif.g09.slc.cpg/sg2_229_cif.got.tgz:457550.got - 2010.06.27 13:26:56.
