data_PCOD8040277
_publ_section_title
;
Structure prediction by ZEFSAII (Michael W. Deem and Ramdas Pophale) SiO2 
 PCOD8040277
Probable space group: P -1
;
_chemical_formula_sum "Si O2"
_cell_formula_units_Z 16
_cell_length_a 17.496066
_cell_length_b 11.441463
_cell_length_c 23.879719
_cell_angle_alpha 141.836880
_cell_angle_beta 160.245002
_cell_angle_gamma 31.289286
_cell_volume 834.712880
_symmetry_space_group_name_H-M "P -1"
_symmetry_group_IT_number 2
_symmetry_cell_setting 'triclinic'
loop_
_space_group_symop_operation_xyz
x,y,z
-x,-y,-z
loop_
_atom_site_type_symbol
_atom_site_label
_atom_site_fract_x
_atom_site_fract_y
_atom_site_fract_z
Si Si1 0.509946 0.873856 0.606604
Si Si2 0.243622 0.491948 0.834960
Si Si3 0.011576 0.493465 0.874657
Si Si4 0.537613 0.602819 0.936386
Si Si5 0.269856 0.043217 0.317642
Si Si6 0.454657 0.224628 0.780726
Si Si7 0.966040 0.841661 0.054431
Si Si8 0.025932 0.087358 0.783290
O O1 0.681691 0.915355 0.696371
O O2 0.276960 0.857146 0.410564
O O3 0.730146 0.643716 0.703317
O O4 0.367444 0.090437 0.631012
O O5 0.223126 0.348362 0.716196
O O6 0.986891 0.741043 0.750223
O O7 0.500000 0.500000 0.000000
O O8 0.296810 0.379316 0.890534
O O9 0.051970 0.255160 0.824406
O O10 0.276580 0.448551 0.008732
O O11 0.991855 0.614329 0.965700
O O12 0.491284 0.399637 0.835939
O O13 0.245755 0.836114 0.818383
O O14 0.500000 0.000000 0.500000
O O15 0.236182 0.832305 0.219349
O O16 0.733554 0.053412 0.939436
O O17 0.917544 0.874536 0.099764
#
# Coordination Sequence:
#
# PCOD8040277 Si02
#       8
#     2   2   2   2   2   2   2   2
#     4  11  24  39  60  88 123 152 190 248 300 345
#     4  10  18  36  60  87 118 151 185 234 301 356
#     4  11  24  41  61  82 116 165 205 234 273 353
#     4  11  20  38  64  86 115 152 200 243 291 347
#     4  12  21  36  62  94 121 146 188 250 307 342
#     4  10  20  38  64  91 114 151 192 243 305 350
#     4  11  20  39  63  88 116 151 201 241 289 349
#     4  12  24  40  58  86 122 160 197 237 288 346
#
# _framework density 19.168268000000001
#
# number of rings (size 3 to 8) (size 9 to 14) (size 15 to 20)
#    0.000    1.000    6.250    2.625    0.000    2.500 
#    2.250    0.000    0.000    0.750    0.000    0.000 
#    0.000    0.000    0.000    0.000    0.000    0.000 
#
# Total GULP energy -198337.668832 kJ/mol
# GULP energy per Si atom -12396.104302 kJ/mol
# Density = 1.912464 g / cm^3
# Si number density = 19.168268 Si / 1000 Ang^3
#
#
#
# Elastic Constant Matrix: (Units=GPa)
#
#
# Indices 1 2 3 4 5 6 
#
# 1 72.3836 31.8095 12.6811 -0.9350 -6.8383 -5.2187
# 2 31.8095 93.7879 27.4558 -8.9018 -3.6933 3.1266
# 3 12.6811 27.4558 77.0872 -10.4934 -3.9306 -4.4947
# 4 -0.9350 -8.9018 -10.4934 24.5693 -3.8670 0.8468
# 5 -6.8383 -3.6933 -3.9306 -3.8670 25.5472 -0.1139
# 6 -5.2187 3.1266 -4.4947 0.8468 -0.1139 38.8986
#
#
#
# Elastic Compliance Matrix: (Units=1/GPa)
#
#
# Indices 1 2 3 4 5 6 
#
# 1 0.016895 -0.005620 -0.000609 -0.001204 0.003446 0.002684
# 2 -0.005620 0.014089 -0.003739 0.003450 0.000469 -0.002392
# 3 -0.000609 -0.003739 0.015395 0.005527 0.002510 0.001885
# 4 -0.001204 0.003450 0.005527 0.045538 0.007917 -0.000768
# 5 0.003446 0.000469 0.002510 0.007917 0.041721 0.000664
# 6 0.002684 -0.002392 0.001885 -0.000768 0.000664 0.026497
#
#
# Mechanical properties :
#
#
# Convention : Reuss Voigt Hill
#
# Bulk Modulus (GPa) = 37.81956 43.01684 40.41820
# Shear Modulus (GPa) = 26.47103 29.22383 27.84743
#
# Velocity S-wave (km/s) = 3.72019 3.90884 3.81568
# Velocity P-wave (km/s) = 6.18273 6.54694 6.36744
#
# Compressibility (1/GPa) = 0.02644134
#
# Stress axis : x y z
#
# Youngs Moduli (GPa) = 59.18808 70.97853 64.95767
#
# Poissons Ratio (x) = 0.39889 0.03958
# Poissons Ratio (y) = 0.33263 0.24290
# Poissons Ratio (z) = 0.03607 0.26542
#
# Static dielectric constant tensor:
#      x y z
#    x 4.265500 -0.201250 -0.198490 
#    y -0.201250 3.759330 0.082830 
#    z -0.198490 0.082830 3.364900 
# 
# 
# High freq. dielectric constant tensor:
#      x y z
#    x 1.751650 -0.010990 -0.011150 
#    y -0.010990 1.745650 -0.009130 
#    z -0.011150 -0.009130 1.733110 
# 
# From -- ./inp_files/242951.got.cif
#   From: 2010.06.25/outbox.cif.g09.slc.cpg/sg2_122_cif.got.tgz:242951.got - 2010.06.27 13:26:56.
