data_PCOD8040882
_publ_section_title
;
Structure prediction by ZEFSAII (Michael W. Deem and Ramdas Pophale) SiO2 
 PCOD8040882
Probable space group: P -1
;
_chemical_formula_sum "Si O2"
_cell_formula_units_Z 16
_cell_length_a 7.923480
_cell_length_b 11.016962
_cell_length_c 15.853539
_cell_angle_alpha 118.755759
_cell_angle_beta 53.773356
_cell_angle_gamma 134.886708
_cell_volume 785.975171
_symmetry_space_group_name_H-M "P -1"
_symmetry_group_IT_number 2
_symmetry_cell_setting 'triclinic'
loop_
_space_group_symop_operation_xyz
x,y,z
-x,-y,-z
loop_
_atom_site_type_symbol
_atom_site_label
_atom_site_fract_x
_atom_site_fract_y
_atom_site_fract_z
Si Si1 0.674824 0.674787 0.663811
Si Si2 0.797398 0.657294 0.962369
Si Si3 0.221778 0.704948 0.334232
Si Si4 0.951629 0.797569 0.791121
Si Si5 0.169587 0.627435 0.747792
Si Si6 0.489731 0.313988 0.619852
Si Si7 0.252098 0.190375 0.815172
Si Si8 0.144189 0.962661 0.509599
O O1 0.723755 0.675423 0.749856
O O2 0.462979 0.710670 0.718041
O O3 0.563112 0.480805 0.600714
O O4 0.945856 0.820577 0.588987
O O5 0.824945 0.772288 0.912602
O O6 0.992841 0.603805 0.872904
O O7 0.500000 0.500000 0.000000
O O8 0.878283 0.761365 0.061195
O O9 0.250631 0.644001 0.397586
O O10 0.457281 0.740821 0.217169
O O11 0.259580 0.883148 0.393974
O O12 0.949459 0.557879 0.321876
O O13 0.153256 0.746272 0.723162
O O14 0.085585 0.987894 0.783188
O O15 0.275022 0.268965 0.741399
O O16 0.376989 0.145187 0.540295
O O17 0.000000 0.000000 0.500000
#
# Coordination Sequence:
#
# PCOD8040882 Si02
#       8
#     2   2   2   2   2   2   2   2
#     4  12  23  46  63  95 136 165 215 269 312 388
#     4  10  18  39  66  95 126 167 214 258 321 381
#     4  10  21  42  64  92 122 174 215 255 327 369
#     4  10  21  40  66  93 131 170 207 265 320 374
#     4  10  23  38  69  93 126 171 213 256 328 372
#     4  10  22  42  68  90 131 170 216 262 322 377
#     4  10  19  39  69  93 130 167 216 265 311 387
#     4  12  27  41  63  96 131 168 217 269 321 378
#
# _framework density 20.356877000000001
#
# number of rings (size 3 to 8) (size 9 to 14) (size 15 to 20)
#    1.500    0.000    3.750    2.250    1.750    2.500 
#    0.000    3.125    0.000    0.000    0.000    0.000 
#    0.000    0.000    0.000    0.000    0.000    0.000 
#
# Total GULP energy -198215.805876 kJ/mol
# GULP energy per Si atom -12388.487867 kJ/mol
# Density = 2.031054 g / cm^3
# Si number density = 20.356877 Si / 1000 Ang^3
#
#
#
# Elastic Constant Matrix: (Units=GPa)
#
#
# Indices 1 2 3 4 5 6 
#
# 1 87.6559 8.3123 10.6310 12.7345 -6.5363 -1.6261
# 2 8.3123 97.2252 7.3242 17.0679 -0.2056 -7.0372
# 3 10.6310 7.3242 58.7599 22.3662 1.9148 -3.4641
# 4 12.7345 17.0679 22.3662 36.7181 0.9783 2.4274
# 5 -6.5363 -0.2056 1.9148 0.9783 29.4866 -0.8867
# 6 -1.6261 -7.0372 -3.4641 2.4274 -0.8867 25.5236
#
#
#
# Elastic Compliance Matrix: (Units=1/GPa)
#
#
# Indices 1 2 3 4 5 6 
#
# 1 0.012322 -0.000236 -0.000768 -0.003846 0.002940 0.001084
# 2 -0.000236 0.011613 0.001232 -0.006336 0.000278 0.003966
# 3 -0.000768 0.001232 0.022836 -0.014502 -0.001021 0.004734
# 4 -0.003846 -0.006336 -0.014502 0.040911 -0.001550 -0.007905
# 5 0.002940 0.000278 -0.001021 -0.001550 0.034730 0.001479
# 6 0.001084 0.003966 0.004734 -0.007905 0.001479 0.041788
#
#
# Mechanical properties :
#
#
# Convention : Reuss Voigt Hill
#
# Bulk Modulus (GPa) = 21.17440 32.90845 27.04143
# Shear Modulus (GPa) = 27.85740 32.83722 30.34731
#
# Velocity S-wave (km/s) = 3.70327 4.02067 3.86523
# Velocity P-wave (km/s) = 5.35815 6.14453 5.76477
#
# Compressibility (1/GPa) = 0.04722683
#
# Stress axis : x y z
#
# Youngs Moduli (GPa) = 81.15696 86.11230 43.79004
#
# Poissons Ratio (x) = 0.02030 0.03363
# Poissons Ratio (y) = 0.01914 -0.05394
# Poissons Ratio (z) = 0.06232 -0.10606
#
# Static dielectric constant tensor:
#      x y z
#    x 3.425850 -0.043470 -0.015610 
#    y -0.043470 3.601520 -0.142800 
#    z -0.015610 -0.142800 3.686640 
# 
# 
# High freq. dielectric constant tensor:
#      x y z
#    x 1.770730 0.002220 0.006640 
#    y 0.002220 1.805030 0.007690 
#    z 0.006640 0.007690 1.784210 
# 
# From -- ./inp_files/559175.got.cif
#   From: 2010.06.25/outbox.cif.g09.slc.cpg/sg2_280_cif.got.tgz:559175.got - 2010.06.27 13:26:56.
