data_PCOD8040809
_publ_section_title
;
Structure prediction by ZEFSAII (Michael W. Deem and Ramdas Pophale) SiO2 
 PCOD8040809
Probable space group: P -1
;
_chemical_formula_sum "Si O2"
_cell_formula_units_Z 14
_cell_length_a 8.349908
_cell_length_b 9.169531
_cell_length_c 13.290069
_cell_angle_alpha 42.608632
_cell_angle_beta 53.021792
_cell_angle_gamma 62.959090
_cell_volume 550.178815
_symmetry_space_group_name_H-M "P -1"
_symmetry_group_IT_number 2
_symmetry_cell_setting 'triclinic'
loop_
_space_group_symop_operation_xyz
x,y,z
-x,-y,-z
loop_
_atom_site_type_symbol
_atom_site_label
_atom_site_fract_x
_atom_site_fract_y
_atom_site_fract_z
Si Si1 0.775379 0.922983 0.385896
Si Si2 0.475863 0.214935 0.029053
Si Si3 0.780794 0.414882 0.145991
Si Si4 0.766821 0.158381 0.784676
Si Si5 0.718104 0.888509 0.658148
Si Si6 0.112594 0.657763 0.639484
Si Si7 0.663324 0.546502 0.497381
O O1 0.690292 0.883141 0.550895
O O2 0.635483 0.786627 0.432604
O O3 0.997645 0.825863 0.333153
O O4 0.764456 0.171509 0.234823
O O5 0.478146 0.174940 0.169874
O O6 0.309922 0.059648 0.123757
O O7 0.398002 0.454777 0.907370
O O8 0.697935 0.162637 0.926757
O O9 0.757851 0.420743 0.273059
O O10 0.000000 0.500000 0.000000
O O11 0.654112 0.371221 0.677414
O O12 0.879687 0.703734 0.727273
O O13 0.795368 0.118732 0.549716
O O14 0.129930 0.485052 0.629446
O O15 0.500000 0.500000 0.500000
#
# Coordination Sequence:
#
# PCOD8040809 Si02
#       7
#     2   2   2   2   2   2   2
#     4  11  24  44  77 103 137 185 253 277 346 429
#     4  11  21  39  73 104 152 180 228 285 374 404
#     4  11  20  39  70 108 145 187 223 293 354 425
#     4  11  22  40  72 111 137 187 229 299 344 425
#     4  10  18  38  69 103 126 186 230 286 332 432
#     4  10  19  36  68  97 136 179 235 272 352 406
#     4  12  25  45  71 101 140 188 237 301 346 413
#
# _framework density 25.446272
#
# number of rings (size 3 to 8) (size 9 to 14) (size 15 to 20)
#    0.000    1.143    5.714    2.143    0.000    0.000 
#    0.000    7.857    9.429    0.000    0.000    0.000 
#    0.000    0.000    0.000    0.000    0.000    0.000 
#
# Total GULP energy -173552.771107 kJ/mol
# GULP energy per Si atom -12396.626508 kJ/mol
# Density = 2.538836 g / cm^3
# Si number density = 25.446272 Si / 1000 Ang^3
#
#
#
# Elastic Constant Matrix: (Units=GPa)
#
#
# Indices 1 2 3 4 5 6 
#
# 1 43.7707 22.8216 22.2684 0.5630 0.8484 14.9847
# 2 22.8216 167.4440 73.9799 2.7961 3.4647 27.9739
# 3 22.2684 73.9799 141.5468 22.3724 8.8089 1.9579
# 4 0.5630 2.7961 22.3724 58.0192 -6.0806 -2.6319
# 5 0.8484 3.4647 8.8089 -6.0806 19.7257 1.0987
# 6 14.9847 27.9739 1.9579 -2.6319 1.0987 34.5472
#
#
#
# Elastic Compliance Matrix: (Units=1/GPa)
#
#
# Indices 1 2 3 4 5 6 
#
# 1 0.029505 0.000185 -0.004878 0.001217 0.001956 -0.012640
# 2 0.000185 0.009391 -0.005140 0.001348 0.001462 -0.007336
# 3 -0.004878 -0.005140 0.011509 -0.004494 -0.005717 0.005465
# 4 0.001217 0.001348 -0.004494 0.019704 0.007798 -0.000112
# 5 0.001956 0.001462 -0.005717 0.007798 0.055471 -0.002878
# 6 -0.012640 -0.007336 0.005465 -0.000112 -0.002878 0.040143
#
#
# Mechanical properties :
#
#
# Convention : Reuss Voigt Hill
#
# Bulk Modulus (GPa) = 32.53127 65.65569 49.09348
# Shear Modulus (GPa) = 25.55780 38.03784 31.79782
#
# Velocity S-wave (km/s) = 3.17264 3.87050 3.53881
# Velocity P-wave (km/s) = 5.12181 6.76994 6.00270
#
# Compressibility (1/GPa) = 0.03073966
#
# Stress axis : x y z
#
# Youngs Moduli (GPa) = 33.89207 106.48834 86.88921
#
# Poissons Ratio (x) = -0.01965 0.42381
# Poissons Ratio (y) = -0.00625 0.44658
# Poissons Ratio (z) = 0.16531 0.54731
#
# Static dielectric constant tensor:
#      x y z
#    x 4.148170 -0.263790 0.018520 
#    y -0.263790 5.425380 0.400880 
#    z 0.018520 0.400880 4.883060 
# 
# 
# High freq. dielectric constant tensor:
#      x y z
#    x 1.981720 -0.014860 0.002780 
#    y -0.014860 2.035080 0.015700 
#    z 0.002780 0.015700 2.023290 
# 
# From -- ./inp_files/380945.got.cif
#   From: 2010.06.25/outbox.cif.g09.slc.cpg/sg2_191_cif.got.tgz:380945.got - 2010.06.27 13:26:56.
