data_PCOD8040791
_publ_section_title
;
Structure prediction by ZEFSAII (Michael W. Deem and Ramdas Pophale) SiO2 
 PCOD8040791
Probable space group: P -1
;
_chemical_formula_sum "Si O2"
_cell_formula_units_Z 16
_cell_length_a 13.121497
_cell_length_b 20.579251
_cell_length_c 18.167873
_cell_angle_alpha 28.541046
_cell_angle_beta 151.771758
_cell_angle_gamma 158.966071
_cell_volume 786.033414
_symmetry_space_group_name_H-M "P -1"
_symmetry_group_IT_number 2
_symmetry_cell_setting 'triclinic'
loop_
_space_group_symop_operation_xyz
x,y,z
-x,-y,-z
loop_
_atom_site_type_symbol
_atom_site_label
_atom_site_fract_x
_atom_site_fract_y
_atom_site_fract_z
Si Si1 0.938738 0.445024 0.660965
Si Si2 0.550082 0.102987 0.233857
Si Si3 0.301161 0.051089 0.628447
Si Si4 0.181141 0.070856 0.900980
Si Si5 0.617073 0.131306 0.013391
Si Si6 0.861680 0.486860 0.112843
Si Si7 0.784637 0.140908 0.596078
Si Si8 0.693644 0.636325 0.054689
O O1 0.579604 0.282035 0.578764
O O2 0.989216 0.439894 0.784651
O O3 0.098555 0.653619 0.530519
O O4 0.077506 0.384537 0.758659
O O5 0.811211 0.307413 0.236587
O O6 0.702146 0.035214 0.363924
O O7 0.302455 0.944421 0.292808
O O8 0.389748 0.129149 0.045927
O O9 0.318155 0.949239 0.803978
O O10 0.000000 0.000000 0.500000
O O11 0.074579 0.179360 0.718845
O O12 0.360308 0.120365 0.890198
O O13 0.874226 0.847974 0.932003
O O14 0.921741 0.349170 0.972620
O O15 0.500000 0.000000 0.000000
O O16 0.537065 0.422461 0.968554
O O17 0.500000 0.000000 0.500000
O O18 0.500000 0.500000 0.000000
#
# Coordination Sequence:
#
# PCOD8040791 Si02
#       8
#     2   2   2   2   2   2   2   2
#     4  11  22  43  65  98 138 174 225 280 333 398
#     4  11  24  44  66  96 136 172 225 278 330 399
#     4  11  26  45  64  97 143 174 221 288 338 390
#     4  11  23  42  67  95 136 176 219 283 325 390
#     4  11  22  43  70  93 129 183 232 260 328 410
#     4  11  22  39  72  98 128 177 231 268 329 411
#     4  12  24  41  68 103 134 173 225 280 342 396
#     4  10  18  38  67  93 128 174 220 271 320 394
#
# _framework density 20.355369
#
# number of rings (size 3 to 8) (size 9 to 14) (size 15 to 20)
#    0.000    1.000    6.250    1.875    0.000    6.500 
#    0.000    1.250    0.000    0.000    0.000    0.000 
#    0.000    0.000    0.000    0.000    0.000    0.000 
#
# Total GULP energy -198400.816596 kJ/mol
# GULP energy per Si atom -12400.051037 kJ/mol
# Density = 2.030904 g / cm^3
# Si number density = 20.355369 Si / 1000 Ang^3
#
#
#
# Elastic Constant Matrix: (Units=GPa)
#
#
# Indices 1 2 3 4 5 6 
#
# 1 127.5406 43.2275 28.5543 5.6479 19.5560 15.2317
# 2 43.2275 133.7788 21.6599 -11.3622 18.5427 15.5080
# 3 28.5543 21.6599 58.0512 1.1561 20.6898 7.2574
# 4 5.6479 -11.3622 1.1561 44.2287 7.4754 2.2621
# 5 19.5560 18.5427 20.6898 7.4754 31.1370 0.0420
# 6 15.2317 15.5080 7.2574 2.2621 0.0420 39.6694
#
#
#
# Elastic Compliance Matrix: (Units=1/GPa)
#
#
# Indices 1 2 3 4 5 6 
#
# 1 0.009977 -0.002206 -0.002748 -0.001166 -0.002843 -0.002396
# 2 -0.002206 0.009616 -0.000433 0.003756 -0.004951 -0.003042
# 3 -0.002748 -0.000433 0.024369 0.002267 -0.014749 -0.003348
# 4 -0.001166 0.003756 0.002267 0.025348 -0.009092 -0.002871
# 5 -0.002843 -0.004951 -0.014749 -0.009092 0.048825 0.006192
# 6 -0.002396 -0.003042 -0.003348 -0.002871 0.006192 0.028087
#
#
# Mechanical properties :
#
#
# Convention : Reuss Voigt Hill
#
# Bulk Modulus (GPa) = 30.13125 56.25045 43.19085
# Shear Modulus (GPa) = 29.75137 38.06893 33.91015
#
# Velocity S-wave (km/s) = 3.82723 4.32929 4.08598
# Velocity P-wave (km/s) = 5.86217 7.25841 6.59733
#
# Compressibility (1/GPa) = 0.03318813
#
# Stress axis : x y z
#
# Youngs Moduli (GPa) = 100.22585 103.99608 41.03514
#
# Poissons Ratio (x) = 0.22943 0.11278
# Poissons Ratio (y) = 0.22111 0.01775
# Poissons Ratio (z) = 0.27546 0.04499
#
# Static dielectric constant tensor:
#      x y z
#    x 8.156850 1.513990 2.492190 
#    y 1.513990 4.304850 0.744170 
#    z 2.492190 0.744170 4.744590 
# 
# 
# High freq. dielectric constant tensor:
#      x y z
#    x 1.807470 -0.002970 0.013630 
#    y -0.002970 1.806060 -0.004880 
#    z 0.013630 -0.004880 1.779700 
# 
# From -- ./inp_files/343384.got.cif
#   From: 2010.06.25/outbox.cif.g09.slc.cpg/sg2_172_cif.got.tgz:343384.got - 2010.06.27 13:26:56.
