data_PCOD8040450
_publ_section_title
;
Structure prediction by ZEFSAII (Michael W. Deem and Ramdas Pophale) SiO2 
 PCOD8040450
Probable space group: P -1
;
_chemical_formula_sum "Si O2"
_cell_formula_units_Z 16
_cell_length_a 13.654314
_cell_length_b 13.066583
_cell_length_c 15.428153
_cell_angle_alpha 36.817264
_cell_angle_beta 80.715808
_cell_angle_gamma 52.360672
_cell_volume 945.136562
_symmetry_space_group_name_H-M "P -1"
_symmetry_group_IT_number 2
_symmetry_cell_setting 'triclinic'
loop_
_space_group_symop_operation_xyz
x,y,z
-x,-y,-z
loop_
_atom_site_type_symbol
_atom_site_label
_atom_site_fract_x
_atom_site_fract_y
_atom_site_fract_z
Si Si1 0.054541 0.916154 0.858199
Si Si2 0.556205 0.566605 0.880865
Si Si3 0.944352 0.718611 0.974249
Si Si4 0.571627 0.910764 0.390132
Si Si5 0.911423 0.908137 0.026264
Si Si6 0.567581 0.558327 0.690820
Si Si7 0.276016 0.104893 0.261516
Si Si8 0.923375 0.431933 0.588053
O O1 0.970533 0.884094 0.833112
O O2 0.248892 0.659307 0.976867
O O3 0.029401 0.897178 0.977082
O O4 0.965819 0.225093 0.651737
O O5 0.532502 0.534493 0.807882
O O6 0.443119 0.894189 0.686755
O O7 0.500000 0.500000 0.000000
O O8 0.783370 0.872557 0.839917
O O9 0.907883 0.760480 0.054364
O O10 0.113337 0.372507 0.163712
O O11 0.621332 0.685197 0.601347
O O12 0.719348 0.729863 0.420770
O O13 0.394504 0.108807 0.231931
O O14 0.716257 0.241867 0.839269
O O15 0.991821 0.723713 0.226246
O O16 0.391477 0.793388 0.500645
O O17 0.000000 0.500000 0.500000
#
# Coordination Sequence:
#
# PCOD8040450 Si02
#       8
#     2   2   2   2   2   2   2   2
#     4  10  18  37  54  78 104 141 178 212 267 311
#     4  12  22  32  51  82 114 140 167 214 273 322
#     4   9  19  34  59  78 102 134 183 227 258 298
#     4  10  20  34  53  80 104 140 179 217 259 314
#     4  10  20  35  57  77 107 139 175 220 264 307
#     4  10  20  35  55  78 110 133 181 219 261 311
#     4   9  19  35  55  83 101 132 184 228 255 299
#     4  12  22  33  52  82 115 140 168 213 270 327
#
# _framework density 16.928771000000001
#
# number of rings (size 3 to 8) (size 9 to 14) (size 15 to 20)
#    1.500    0.250    3.750    2.250    1.750    0.500 
#    0.000    0.000    0.000    3.000    0.000    0.000 
#    0.000    0.000    0.000    0.000    0.000    0.000 
#
# Total GULP energy -198239.565628 kJ/mol
# GULP energy per Si atom -12389.972852 kJ/mol
# Density = 1.689024 g / cm^3
# Si number density = 16.928771 Si / 1000 Ang^3
#
#
#
# Elastic Constant Matrix: (Units=GPa)
#
#
# Indices 1 2 3 4 5 6 
#
# 1 71.5072 33.9513 34.3452 4.5204 9.8993 -2.4110
# 2 33.9513 81.9317 42.6270 -9.8075 0.6872 -5.3604
# 3 34.3452 42.6270 57.0554 -11.6706 2.5182 -7.8400
# 4 4.5204 -9.8075 -11.6706 30.5628 -5.5348 -5.0460
# 5 9.8993 0.6872 2.5182 -5.5348 25.5188 -1.1684
# 6 -2.4110 -5.3604 -7.8400 -5.0460 -1.1684 27.6654
#
#
#
# Elastic Compliance Matrix: (Units=1/GPa)
#
#
# Indices 1 2 3 4 5 6 
#
# 1 0.025954 -0.004830 -0.015274 -0.014375 -0.011829 -0.006124
# 2 -0.004830 0.020914 -0.011980 0.003625 0.003327 0.001038
# 3 -0.015274 -0.011980 0.040359 0.016826 0.006424 0.011125
# 4 -0.014375 0.003625 0.016826 0.047320 0.014698 0.013470
# 5 -0.011829 0.003327 0.006424 0.014698 0.046518 0.006080
# 6 -0.006124 0.001038 0.011125 0.013470 0.006080 0.041680
#
#
# Mechanical properties :
#
#
# Convention : Reuss Voigt Hill
#
# Bulk Modulus (GPa) = 43.37034 48.03793 45.70414
# Shear Modulus (GPa) = 16.97217 23.38745 20.17981
#
# Velocity S-wave (km/s) = 3.16976 3.72091 3.45634
# Velocity P-wave (km/s) = 6.25072 6.84824 6.55629
#
# Compressibility (1/GPa) = 0.02305723
#
# Stress axis : x y z
#
# Youngs Moduli (GPa) = 38.52951 47.81539 24.77766
#
# Poissons Ratio (x) = 0.23096 0.37846
# Poissons Ratio (y) = 0.18611 0.29684
# Poissons Ratio (z) = 0.58851 0.57284
#
# Static dielectric constant tensor:
#      x y z
#    x 3.036240 -0.031880 -0.022220 
#    y -0.031880 3.159230 -0.268000 
#    z -0.022220 -0.268000 3.073100 
# 
# 
# High freq. dielectric constant tensor:
#      x y z
#    x 1.632300 -0.004130 0.002970 
#    y -0.004130 1.652000 -0.032110 
#    z 0.002970 -0.032110 1.640060 
# 
# From -- ./inp_files/573685.got.cif
#   From: 2010.06.25/outbox.cif.g09.slc.cpg/sg2_287_cif.got.tgz:573685.got - 2010.06.27 13:26:56.
