data_PCOD8040153
_publ_section_title
;
Structure prediction by ZEFSAII (Michael W. Deem and Ramdas Pophale) SiO2 
 PCOD8040153
Probable space group: P -1
;
_chemical_formula_sum "Si O2"
_cell_formula_units_Z 14
_cell_length_a 11.285283
_cell_length_b 14.168566
_cell_length_c 10.643553
_cell_angle_alpha 59.610253
_cell_angle_beta 130.192366
_cell_angle_gamma 151.012981
_cell_volume 622.053921
_symmetry_space_group_name_H-M "P -1"
_symmetry_group_IT_number 2
_symmetry_cell_setting 'triclinic'
loop_
_space_group_symop_operation_xyz
x,y,z
-x,-y,-z
loop_
_atom_site_type_symbol
_atom_site_label
_atom_site_fract_x
_atom_site_fract_y
_atom_site_fract_z
Si Si1 0.288529 0.866669 0.186975
Si Si2 0.122467 0.716198 0.442472
Si Si3 0.213058 0.966631 0.496764
Si Si4 0.849665 0.500474 0.980959
Si Si5 0.564768 0.578349 0.354272
Si Si6 0.507953 0.671347 0.683626
Si Si7 0.481694 0.780323 0.820563
O O1 0.139832 0.720776 0.301708
O O2 0.596178 0.989051 0.300758
O O3 0.300213 0.005801 0.113758
O O4 0.093630 0.730509 0.025585
O O5 0.213545 0.892938 0.421397
O O6 0.329149 0.752061 0.621712
O O7 0.823638 0.505258 0.431633
O O8 0.895223 0.794997 0.437954
O O9 0.337826 0.158861 0.423704
O O10 0.598481 0.405133 0.793348
O O11 0.723505 0.377419 0.104566
O O12 0.000000 0.500000 0.000000
O O13 0.500000 0.500000 0.500000
O O14 0.450980 0.428961 0.268464
O O15 0.612729 0.754398 0.845920
#
# Coordination Sequence:
#
# PCOD8040153 Si02
#       7
#     2   2   2   2   2   2   2
#     4  11  21  41  74 109 139 171 240 281 333 420
#     4  10  18  35  71 113 138 174 224 277 341 419
#     4  10  21  40  72 107 132 181 229 278 341 411
#     4  12  30  48  68  99 141 188 230 292 350 401
#     4  11  30  50  66  99 144 187 235 279 349 425
#     4  11  20  39  75 100 138 182 223 282 345 405
#     4  11  21  39  71 107 138 175 230 285 344 402
#
# _framework density 22.506088999999999
#
# number of rings (size 3 to 8) (size 9 to 14) (size 15 to 20)
#    0.000    1.143    4.286    2.143    8.000    2.857 
#    0.000    1.429    0.000    0.000    0.000    0.000 
#    0.000    0.000    0.000    0.000    0.000    0.000 
#
# Total GULP energy -173493.071556 kJ/mol
# GULP energy per Si atom -12392.362254 kJ/mol
# Density = 2.245486 g / cm^3
# Si number density = 22.506089 Si / 1000 Ang^3
#
#
#
# Elastic Constant Matrix: (Units=GPa)
#
#
# Indices 1 2 3 4 5 6 
#
# 1 116.5543 41.6992 33.5730 -1.1321 -4.5960 9.7118
# 2 41.6992 431.6527 -155.0046 141.6190 -79.0797 143.9062
# 3 33.5730 -155.0046 175.8052 -77.3107 45.9463 -75.5493
# 4 -1.1321 141.6190 -77.3107 94.3847 -33.9998 67.4694
# 5 -4.5960 -79.0797 45.9463 -33.9998 52.7823 -29.2539
# 6 9.7118 143.9062 -75.5493 67.4694 -29.2539 104.9237
#
#
#
# Elastic Compliance Matrix: (Units=1/GPa)
#
#
# Indices 1 2 3 4 5 6 
#
# 1 0.011009 -0.002478 -0.004600 0.001830 0.001490 -0.001693
# 2 -0.002478 0.006429 0.001859 -0.004637 0.002893 -0.003461
# 3 -0.004600 0.001859 0.012182 0.003128 -0.004300 0.003438
# 4 0.001830 -0.004637 0.003128 0.027147 0.003525 -0.008031
# 5 0.001490 0.002893 -0.004300 0.003525 0.028594 -0.001496
# 6 -0.001693 -0.003461 0.003438 -0.008031 -0.001496 0.021657
#
#
# Mechanical properties :
#
#
# Convention : Reuss Voigt Hill
#
# Bulk Modulus (GPa) = 52.13264 62.72750 57.43007
# Shear Modulus (GPa) = 40.37184 104.00110 72.18647
#
# Velocity S-wave (km/s) = 4.23994 6.80518 5.66955
# Velocity P-wave (km/s) = 6.86903 9.46991 8.27233
#
# Compressibility (1/GPa) = 0.01918184
#
# Stress axis : x y z
#
# Youngs Moduli (GPa) = 90.83681 155.55277 82.08993
#
# Poissons Ratio (x) = 0.38546 0.37758
# Poissons Ratio (y) = 0.22509 -0.15259
# Poissons Ratio (z) = 0.41781 -0.28915
#
# Static dielectric constant tensor:
#      x y z
#    x 4.327330 -0.430680 -0.106090 
#    y -0.430680 4.582700 0.173780 
#    z -0.106090 0.173780 3.588560 
# 
# 
# High freq. dielectric constant tensor:
#      x y z
#    x 1.884020 -0.009350 -0.007020 
#    y -0.009350 1.913550 0.004790 
#    z -0.007020 0.004790 1.850830 
# 
# From -- ./inp_files/272237.got.cif
#   From: 2010.06.25/outbox.cif.g09.slc.cpg/sg2_137_cif.got.tgz:272237.got - 2010.06.27 13:26:56.
