data_PCOD8040900
_publ_section_title
;
Structure prediction by ZEFSAII (Michael W. Deem and Ramdas Pophale) SiO2 
 PCOD8040900
Probable space group: P -1
;
_chemical_formula_sum "Si O2"
_cell_formula_units_Z 16
_cell_length_a 19.887074
_cell_length_b 7.548290
_cell_length_c 11.704061
_cell_angle_alpha 113.087756
_cell_angle_beta 28.076720
_cell_angle_gamma 114.810470
_cell_volume 749.597968
_symmetry_space_group_name_H-M "P -1"
_symmetry_group_IT_number 2
_symmetry_cell_setting 'triclinic'
loop_
_space_group_symop_operation_xyz
x,y,z
-x,-y,-z
loop_
_atom_site_type_symbol
_atom_site_label
_atom_site_fract_x
_atom_site_fract_y
_atom_site_fract_z
Si Si1 0.130927 0.963977 0.547734
Si Si2 0.042639 0.791075 0.410555
Si Si3 0.569001 0.738448 0.127976
Si Si4 0.168572 0.006690 0.900763
Si Si5 0.212564 0.367342 0.387643
Si Si6 0.727172 0.209033 0.513959
Si Si7 0.715380 0.128843 0.089718
Si Si8 0.448632 0.310088 0.601116
O O1 0.079058 0.791852 0.489800
O O2 0.261426 0.896964 0.407491
O O3 0.185114 0.175716 0.462140
O O4 0.995373 0.957683 0.834455
O O5 0.908565 0.631423 0.529105
O O6 0.183854 0.737452 0.118136
O O7 0.000000 0.000000 0.500000
O O8 0.437041 0.824771 0.291920
O O9 0.529033 0.632404 0.283486
O O10 0.699133 0.914595 0.004516
O O11 0.632880 0.607522 0.904220
O O12 0.285666 0.208344 0.787155
O O13 0.177574 0.894631 0.741328
O O14 0.194878 0.860193 0.925320
O O15 0.214038 0.558305 0.511341
O O16 0.555307 0.164755 0.365826
O O17 0.500000 0.500000 0.500000
#
# Coordination Sequence:
#
# PCOD8040900 Si02
#       8
#     2   2   2   2   2   2   2   2
#     4  11  24  43  67  95 129 179 220 268 328 383
#     4  10  18  39  68  92 116 162 227 270 314 373
#     4  11  21  44  65  92 134 169 217 269 327 387
#     4  11  21  44  65  92 134 169 217 269 327 387
#     4  11  24  43  67  95 129 179 220 268 328 383
#     4  12  26  40  62  98 142 176 210 266 326 404
#     4  11  18  41  74  86 120 171 211 273 325 361
#     4  11  24  39  70 100 123 169 225 279 320 383
#
# _framework density 21.344777000000001
#
# number of rings (size 3 to 8) (size 9 to 14) (size 15 to 20)
#    0.000    1.000    7.500    2.250    0.000    4.500 
#    0.000    0.000    0.000    0.000    0.000    0.000 
#    0.000    0.000    0.000    0.000    0.000    0.000 
#
# Total GULP energy -198298.102525 kJ/mol
# GULP energy per Si atom -12393.631408 kJ/mol
# Density = 2.129620 g / cm^3
# Si number density = 21.344777 Si / 1000 Ang^3
#
#
#
# Elastic Constant Matrix: (Units=GPa)
#
#
# Indices 1 2 3 4 5 6 
#
# 1 143.6480 40.5718 39.4160 -0.9398 12.3023 -0.7670
# 2 40.5718 72.1575 28.1574 -1.0230 9.6983 -2.1225
# 3 39.4160 28.1574 124.9125 -16.9033 15.2750 -4.6832
# 4 -0.9398 -1.0230 -16.9033 11.3483 2.8942 5.4632
# 5 12.3023 9.6983 15.2750 2.8942 24.7266 3.0335
# 6 -0.7670 -2.1225 -4.6832 5.4632 3.0335 25.7978
#
#
#
# Elastic Compliance Matrix: (Units=1/GPa)
#
#
# Indices 1 2 3 4 5 6 
#
# 1 0.008735 -0.003977 -0.002024 -0.002436 -0.001279 0.000231
# 2 -0.003977 0.017557 -0.002605 -0.002675 -0.003205 0.001797
# 3 -0.002024 -0.002605 0.013228 0.022241 -0.008552 -0.001578
# 4 -0.002436 -0.002675 0.022241 0.138005 -0.024865 -0.022556
# 5 -0.001279 -0.003205 -0.008552 -0.024865 0.050844 -0.002567
# 6 0.000231 0.001797 -0.001578 -0.022556 -0.002567 0.043710
#
#
# Mechanical properties :
#
#
# Convention : Reuss Voigt Hill
#
# Bulk Modulus (GPa) = 44.82983 61.88979 53.35981
# Shear Modulus (GPa) = 16.85036 27.87940 22.36488
#
# Velocity S-wave (km/s) = 2.81274 3.61799 3.24047
# Velocity P-wave (km/s) = 5.62112 6.81992 6.24933
#
# Compressibility (1/GPa) = 0.02230657
#
# Stress axis : x y z
#
# Youngs Moduli (GPa) = 114.48062 56.95634 75.59686
#
# Poissons Ratio (x) = 0.22654 0.15303
# Poissons Ratio (y) = 0.45533 0.19695
# Poissons Ratio (z) = 0.23175 0.14838
#
# Static dielectric constant tensor:
#      x y z
#    x 3.922100 0.275540 0.318300 
#    y 0.275540 3.387970 -0.161890 
#    z 0.318300 -0.161890 3.574340 
# 
# 
# High freq. dielectric constant tensor:
#      x y z
#    x 1.843260 0.014910 0.004450 
#    y 0.014910 1.803970 0.002280 
#    z 0.004450 0.002280 1.851920 
# 
# From -- ./inp_files/431498.got.cif
#   From: 2010.06.25/outbox.cif.g09.slc.cpg/sg2_216_cif.got.tgz:431498.got - 2010.06.27 13:26:56.
