data_PCOD8040355
_publ_section_title
;
Structure prediction by ZEFSAII (Michael W. Deem and Ramdas Pophale) SiO2 
 PCOD8040355
Probable space group: P -1
;
_chemical_formula_sum "Si O2"
_cell_formula_units_Z 14
_cell_length_a 9.465646
_cell_length_b 7.688801
_cell_length_c 11.912990
_cell_angle_alpha 88.912502
_cell_angle_beta 91.444897
_cell_angle_gamma 49.414681
_cell_volume 657.524109
_symmetry_space_group_name_H-M "P -1"
_symmetry_group_IT_number 2
_symmetry_cell_setting 'triclinic'
loop_
_space_group_symop_operation_xyz
x,y,z
-x,-y,-z
loop_
_atom_site_type_symbol
_atom_site_label
_atom_site_fract_x
_atom_site_fract_y
_atom_site_fract_z
Si Si1 0.114983 0.184267 0.086041
Si Si2 0.419263 0.904642 0.931901
Si Si3 0.205256 0.517051 0.077932
Si Si4 0.083727 0.246992 0.531068
Si Si5 0.241575 0.595201 0.318038
Si Si6 0.256678 0.967554 0.323858
Si Si7 0.539556 0.052399 0.319567
O O1 0.167313 0.343437 0.101322
O O2 0.137560 0.072500 0.205762
O O3 0.905074 0.328896 0.035134
O O4 0.235930 0.991636 0.993352
O O5 0.575384 0.628326 0.939814
O O6 0.375030 0.994128 0.802158
O O7 0.500000 0.000000 0.000000
O O8 0.154746 0.654370 0.190426
O O9 0.000000 0.500000 0.500000
O O10 0.934920 0.270017 0.605059
O O11 0.108971 0.124113 0.417006
O O12 0.288644 0.093138 0.591066
O O13 0.336141 0.707679 0.338418
O O14 0.396855 0.322258 0.346092
O O15 0.430982 0.957528 0.327351
#
# Coordination Sequence:
#
# PCOD8040355 Si02
#       7
#     2   2   2   2   2   2   2
#     4  10  18  36  62  90 126 168 210 251 314 374
#     4   9  16  33  62  86 117 161 202 246 309 370
#     4   9  18  35  61  89 123 168 202 258 307 373
#     4  12  25  45  70  91 125 174 216 262 325 382
#     4  11  24  45  64  96 133 163 214 270 318 376
#     4  12  24  42  66  97 129 169 216 264 319 380
#     4  11  23  46  66  93 128 170 212 264 322 377
#
# _framework density 21.291992
#
# number of rings (size 3 to 8) (size 9 to 14) (size 15 to 20)
#    0.000    1.429    5.714    1.714    0.000    3.429 
#    2.571    2.857    0.000    0.000    0.000    0.000 
#    0.000    0.000    0.000    0.000    0.000    0.000 
#
# Total GULP energy -173546.189324 kJ/mol
# GULP energy per Si atom -12396.156380 kJ/mol
# Density = 2.124353 g / cm^3
# Si number density = 21.291992 Si / 1000 Ang^3
#
#
#
# Elastic Constant Matrix: (Units=GPa)
#
#
# Indices 1 2 3 4 5 6 
#
# 1 80.3531 68.1290 46.5203 -4.2788 1.5970 7.0118
# 2 68.1290 110.9788 60.9574 -0.4981 7.3237 1.4319
# 3 46.5203 60.9574 148.3363 17.3065 -9.0439 -9.2068
# 4 -4.2788 -0.4981 17.3065 39.4005 -10.4546 2.5422
# 5 1.5970 7.3237 -9.0439 -10.4546 11.0768 2.2197
# 6 7.0118 1.4319 -9.2068 2.5422 2.2197 28.9754
#
#
#
# Elastic Compliance Matrix: (Units=1/GPa)
#
#
# Indices 1 2 3 4 5 6 
#
# 1 0.030195 -0.017855 -0.002814 0.009007 0.015518 -0.009298
# 2 -0.017855 0.024103 -0.004800 -0.006108 -0.023841 0.003967
# 3 -0.002814 -0.004800 0.010723 -0.003022 0.008696 0.003924
# 4 0.009007 -0.006108 -0.003022 0.038365 0.038313 -0.009139
# 5 0.015518 -0.023841 0.008696 0.038313 0.150004 -0.014667
# 6 -0.009298 0.003967 0.003924 -0.009139 -0.014667 0.039738
#
#
# Mechanical properties :
#
#
# Convention : Reuss Voigt Hill
#
# Bulk Modulus (GPa) = 71.00749 76.76461 73.88605
# Shear Modulus (GPa) = 14.33649 26.82798 20.58223
#
# Velocity S-wave (km/s) = 2.59767 3.55350 3.11250
# Velocity P-wave (km/s) = 6.51299 7.27792 6.90605
#
# Compressibility (1/GPa) = 0.01408302
#
# Stress axis : x y z
#
# Youngs Moduli (GPa) = 33.11771 41.48901 93.25754
#
# Poissons Ratio (x) = 0.74077 0.26246
# Poissons Ratio (y) = 0.59130 0.44765
# Poissons Ratio (z) = 0.09321 0.19915
#
# Static dielectric constant tensor:
#      x y z
#    x 3.630440 -0.161300 -0.133440 
#    y -0.161300 3.938390 0.306910 
#    z -0.133440 0.306910 4.185180 
# 
# 
# High freq. dielectric constant tensor:
#      x y z
#    x 1.810170 -0.006930 0.002890 
#    y -0.006930 1.837660 0.009550 
#    z 0.002890 0.009550 1.851490 
# 
# From -- ./inp_files/414946.got.cif
#   From: 2010.06.25/outbox.cif.g09.slc.cpg/sg2_208_cif.got.tgz:414946.got - 2010.06.27 13:26:56.
