data_PCOD8040349
_publ_section_title
;
Structure prediction by ZEFSAII (Michael W. Deem and Ramdas Pophale) SiO2 
 PCOD8040349
Probable space group: P -1
;
_chemical_formula_sum "Si O2"
_cell_formula_units_Z 14
_cell_length_a 12.075477
_cell_length_b 18.045382
_cell_length_c 14.710388
_cell_angle_alpha 151.194206
_cell_angle_beta 149.290097
_cell_angle_gamma 28.711543
_cell_volume 681.922207
_symmetry_space_group_name_H-M "P -1"
_symmetry_group_IT_number 2
_symmetry_cell_setting 'triclinic'
loop_
_space_group_symop_operation_xyz
x,y,z
-x,-y,-z
loop_
_atom_site_type_symbol
_atom_site_label
_atom_site_fract_x
_atom_site_fract_y
_atom_site_fract_z
Si Si1 0.321978 0.894411 0.860444
Si Si2 0.979986 0.085063 0.172927
Si Si3 0.106273 0.352726 0.614363
Si Si4 0.009506 0.285926 0.017809
Si Si5 0.374938 0.807755 0.283438
Si Si6 0.871473 0.864694 0.434659
Si Si7 0.881666 0.687973 0.070377
O O1 0.261414 0.899011 0.930038
O O2 0.147388 0.838695 0.620840
O O3 0.612749 0.748866 0.898350
O O4 0.256948 0.092483 0.998172
O O5 0.960232 0.279134 0.369747
O O6 0.234796 0.952991 0.262286
O O7 0.000000 0.000000 0.000000
O O8 0.346625 0.321277 0.692220
O O9 0.171162 0.263895 0.665335
O O10 0.940197 0.564728 0.741231
O O11 0.947650 0.320648 0.903387
O O12 0.763826 0.302643 0.911001
O O13 0.347524 0.929851 0.483277
O O14 0.855947 0.828350 0.278886
O O15 0.000000 0.500000 0.000000
#
# Coordination Sequence:
#
# PCOD8040349 Si02
#       7
#     2   2   2   2   2   2   2
#     4   9  23  40  59  86 128 158 191 257 304 349
#     4   9  19  34  59  88 117 157 201 238 296 359
#     4  10  18  36  62  88 120 154 195 250 297 353
#     4  10  21  40  57  92 124 158 194 246 312 350
#     4   9  20  35  60  84 123 157 189 250 298 353
#     4   9  20  39  60  93 115 157 209 236 306 353
#     4  12  23  38  68  88 115 160 213 246 288 370
#
# _framework density 20.530201999999999
#
# number of rings (size 3 to 8) (size 9 to 14) (size 15 to 20)
#    0.000    2.857    1.429    2.571    4.000    2.857 
#    0.000    2.857    6.286    0.000    0.000    0.000 
#    0.000    0.000    0.000    0.000    0.000    0.000 
#
# Total GULP energy -173483.785246 kJ/mol
# GULP energy per Si atom -12391.698946 kJ/mol
# Density = 2.048347 g / cm^3
# Si number density = 20.530202 Si / 1000 Ang^3
#
#
#
# Elastic Constant Matrix: (Units=GPa)
#
#
# Indices 1 2 3 4 5 6 
#
# 1 82.1687 32.3626 57.4728 9.0202 -11.6109 6.9547
# 2 32.3626 91.4649 35.3575 15.2263 10.2873 -0.7806
# 3 57.4728 35.3575 104.3794 26.7311 -17.3421 4.9261
# 4 9.0202 15.2263 26.7311 33.3088 -2.8112 5.6402
# 5 -11.6109 10.2873 -17.3421 -2.8112 34.0071 6.7883
# 6 6.9547 -0.7806 4.9261 5.6402 6.7883 19.7403
#
#
#
# Elastic Compliance Matrix: (Units=1/GPa)
#
#
# Indices 1 2 3 4 5 6 
#
# 1 0.023354 -0.006086 -0.011162 0.007722 0.006803 -0.010229
# 2 -0.006086 0.016516 -0.002940 -0.005978 -0.010859 0.008973
# 3 -0.011162 -0.002940 0.020886 -0.011752 0.006836 -0.000389
# 4 0.007722 -0.005978 -0.011752 0.042853 0.004771 -0.013909
# 5 0.006803 -0.010859 0.006836 0.004771 0.043023 -0.020690
# 6 -0.010229 0.008973 -0.000389 -0.013909 -0.020690 0.065802
#
#
# Mechanical properties :
#
#
# Convention : Reuss Voigt Hill
#
# Bulk Modulus (GPa) = 49.06890 58.71097 53.88994
# Shear Modulus (GPa) = 19.26013 27.59925 23.42969
#
# Velocity S-wave (km/s) = 3.06622 3.67048 3.38187
# Velocity P-wave (km/s) = 6.04056 6.82808 6.44636
#
# Compressibility (1/GPa) = 0.02037951
#
# Stress axis : x y z
#
# Youngs Moduli (GPa) = 42.82005 60.54601 47.87921
#
# Poissons Ratio (x) = 0.36849 0.53441
# Poissons Ratio (y) = 0.26061 0.14078
# Poissons Ratio (z) = 0.47794 0.17802
#
# Static dielectric constant tensor:
#      x y z
#    x 4.046750 -0.082260 -0.203470 
#    y -0.082260 3.414150 0.333990 
#    z -0.203470 0.333990 4.060630 
# 
# 
# High freq. dielectric constant tensor:
#      x y z
#    x 1.816600 -0.007220 0.002660 
#    y -0.007220 1.771400 0.026240 
#    z 0.002660 0.026240 1.793080 
# 
# From -- ./inp_files/318767.got.cif
#   From: 2010.06.25/outbox.cif.g09.slc.cpg/sg2_160_cif.got.tgz:318767.got - 2010.06.27 13:26:56.
