data_PCOD8040774
_publ_section_title
;
Structure prediction by ZEFSAII (Michael W. Deem and Ramdas Pophale) SiO2 
 PCOD8040774
Probable space group: P -1
;
_chemical_formula_sum "Si O2"
_cell_formula_units_Z 16
_cell_length_a 11.580837
_cell_length_b 10.089181
_cell_length_c 18.847450
_cell_angle_alpha 125.220490
_cell_angle_beta 149.294066
_cell_angle_gamma 74.338748
_cell_volume 772.261800
_symmetry_space_group_name_H-M "P -1"
_symmetry_group_IT_number 2
_symmetry_cell_setting 'triclinic'
loop_
_space_group_symop_operation_xyz
x,y,z
-x,-y,-z
loop_
_atom_site_type_symbol
_atom_site_label
_atom_site_fract_x
_atom_site_fract_y
_atom_site_fract_z
Si Si1 0.937997 0.912731 0.598181
Si Si2 0.541055 0.631074 0.202726
Si Si3 0.124974 0.280609 0.353618
Si Si4 0.802042 0.457761 0.211349
Si Si5 0.658212 0.472328 0.638126
Si Si6 0.009884 0.320255 0.762075
Si Si7 0.923479 0.118542 0.046283
Si Si8 0.416028 0.096620 0.809368
O O1 0.636298 0.739624 0.362343
O O2 0.015609 0.856782 0.695662
O O3 0.946772 0.108314 0.675128
O O4 0.139673 0.927423 0.646963
O O5 0.696553 0.520887 0.240582
O O6 0.646229 0.802219 0.254232
O O7 0.222014 0.470792 0.979422
O O8 0.450661 0.398822 0.571560
O O9 0.055087 0.444756 0.362199
O O10 0.040123 0.147410 0.196700
O O11 0.862622 0.605731 0.225244
O O12 0.571288 0.242994 0.000788
O O13 0.500000 0.500000 0.500000
O O14 0.731212 0.311834 0.615455
O O15 0.944103 0.674518 0.859832
O O16 0.600658 0.021872 0.851696
O O17 0.000000 0.000000 0.000000
#
# Coordination Sequence:
#
# PCOD8040774 Si02
#       8
#     2   2   2   2   2   2   2   2
#     4  12  25  38  64  98 137 164 208 267 328 383
#     4  11  21  38  63  98 124 171 218 254 322 381
#     4  10  24  42  59  98 130 170 209 262 331 374
#     4  10  18  38  66  87 125 166 215 263 316 372
#     4  10  19  41  65  86 123 169 210 261 317 373
#     4  11  20  41  66  89 126 169 213 268 309 378
#     4  10  21  39  68  95 118 168 224 263 308 386
#     4  10  19  38  62  94 123 166 214 267 314 372
#
# _framework density 20.718361999999999
#
# number of rings (size 3 to 8) (size 9 to 14) (size 15 to 20)
#    0.000    1.500    7.500    1.125    0.000    6.000 
#    2.250    0.625    0.000    0.000    0.000    0.000 
#    0.000    0.000    0.000    0.000    0.000    0.000 
#
# Total GULP energy -198275.105770 kJ/mol
# GULP energy per Si atom -12392.194111 kJ/mol
# Density = 2.067121 g / cm^3
# Si number density = 20.718362 Si / 1000 Ang^3
#
#
#
# Elastic Constant Matrix: (Units=GPa)
#
#
# Indices 1 2 3 4 5 6 
#
# 1 77.1718 48.6446 30.2149 -9.1301 -0.6867 -9.6205
# 2 48.6446 93.4357 34.8811 -6.2889 -6.5827 -11.2821
# 3 30.2149 34.8811 74.6082 -8.2155 -2.2244 -8.8523
# 4 -9.1301 -6.2889 -8.2155 23.7862 -8.5674 6.0715
# 5 -0.6867 -6.5827 -2.2244 -8.5674 27.4689 -4.2538
# 6 -9.6205 -11.2821 -8.8523 6.0715 -4.2538 29.3360
#
#
#
# Elastic Compliance Matrix: (Units=1/GPa)
#
#
# Indices 1 2 3 4 5 6 
#
# 1 0.020673 -0.009047 -0.003584 0.003757 -0.000559 0.001360
# 2 -0.009047 0.017632 -0.004019 0.000567 0.004333 0.003112
# 3 -0.003584 -0.004019 0.017441 0.003728 0.001838 0.002037
# 4 0.003757 0.000567 0.003728 0.052151 0.015881 -0.005915
# 5 -0.000559 0.004333 0.001838 0.015881 0.043310 0.005031
# 6 0.001360 0.003112 0.002037 -0.005915 0.005031 0.038299
#
#
# Mechanical properties :
#
#
# Convention : Reuss Voigt Hill
#
# Bulk Modulus (GPa) = 44.55109 52.52188 48.53649
# Shear Modulus (GPa) = 21.71196 24.88323 23.29759
#
# Velocity S-wave (km/s) = 3.24073 3.46934 3.35698
# Velocity P-wave (km/s) = 5.96263 6.43847 6.20511
#
# Compressibility (1/GPa) = 0.02244614
#
# Stress axis : x y z
#
# Youngs Moduli (GPa) = 48.37165 56.71457 57.33760
#
# Poissons Ratio (x) = 0.51311 0.20550
# Poissons Ratio (y) = 0.43763 0.23042
# Poissons Ratio (z) = 0.17337 0.22791
#
# Static dielectric constant tensor:
#      x y z
#    x 3.667980 -0.161280 0.316290 
#    y -0.161280 3.712100 -0.138660 
#    z 0.316290 -0.138660 3.958790 
# 
# 
# High freq. dielectric constant tensor:
#      x y z
#    x 1.783360 -0.018020 0.015320 
#    y -0.018020 1.805920 -0.009540 
#    z 0.015320 -0.009540 1.804680 
# 
# From -- ./inp_files/559214.got.cif
#   From: 2010.06.25/outbox.cif.g09.slc.cpg/sg2_280_cif.got.tgz:559214.got - 2010.06.27 13:26:56.
