data_PCOD8040183
_publ_section_title
;
Structure prediction by ZEFSAII (Michael W. Deem and Ramdas Pophale) SiO2 
 PCOD8040183
Probable space group: P -1
;
_chemical_formula_sum "Si O2"
_cell_formula_units_Z 16
_cell_length_a 9.275050
_cell_length_b 17.411559
_cell_length_c 9.220239
_cell_angle_alpha 104.180263
_cell_angle_beta 48.675145
_cell_angle_gamma 125.302268
_cell_volume 889.623850
_symmetry_space_group_name_H-M "P -1"
_symmetry_group_IT_number 2
_symmetry_cell_setting 'triclinic'
loop_
_space_group_symop_operation_xyz
x,y,z
-x,-y,-z
loop_
_atom_site_type_symbol
_atom_site_label
_atom_site_fract_x
_atom_site_fract_y
_atom_site_fract_z
Si Si1 0.255285 0.367603 0.975226
Si Si2 0.460411 0.704464 0.932488
Si Si3 0.233415 0.185460 0.971659
Si Si4 0.919553 0.299901 0.671605
Si Si5 0.363106 0.424427 0.253863
Si Si6 0.707821 0.086327 0.227996
Si Si7 0.178496 0.753005 0.977424
Si Si8 0.432813 0.870882 0.366880
O O1 0.461226 0.460531 0.795069
O O2 0.303192 0.285209 0.896582
O O3 0.244702 0.394719 0.160568
O O4 0.005103 0.327976 0.051387
O O5 0.692524 0.794455 0.897894
O O6 0.490855 0.620734 0.830536
O O7 0.393338 0.741240 0.852548
O O8 0.249789 0.663814 0.172819
O O9 0.956699 0.105940 0.112050
O O10 0.364850 0.147253 0.780823
O O11 0.802497 0.211392 0.595843
O O12 0.165598 0.388620 0.489791
O O13 0.950521 0.262530 0.788959
O O14 0.720721 0.139753 0.096254
O O15 0.627929 0.127824 0.425499
O O16 0.522941 0.972410 0.276881
#
# Coordination Sequence:
#
# PCOD8040183 Si02
#       8
#     2   2   2   2   2   2   2   2
#     4   9  19  33  56  79 100 134 179 211 246 299
#     4   8  18  33  51  73 105 137 168 202 261 299
#     4   9  17  36  53  74 105 135 167 212 255 300
#     4   9  19  34  52  74 106 138 165 207 262 301
#     4  10  18  36  57  72 103 143 169 208 254 301
#     4  10  20  34  56  80 100 129 179 214 246 305
#     4   9  19  36  49  77 110 129 169 218 248 302
#     4  10  19  34  58  76  99 138 172 207 261 304
#
# _framework density 17.985129000000001
#
# number of rings (size 3 to 8) (size 9 to 14) (size 15 to 20)
#    0.750    2.000    0.000    2.625    0.000    1.500 
#    4.500   12.500    0.000    2.250    0.000    0.000 
#    0.000    0.000    0.000    0.000    0.000    0.000 
#
# Total GULP energy -198314.795590 kJ/mol
# GULP energy per Si atom -12394.674724 kJ/mol
# Density = 1.794419 g / cm^3
# Si number density = 17.985129 Si / 1000 Ang^3
#
#
#
# Elastic Constant Matrix: (Units=GPa)
#
#
# Indices 1 2 3 4 5 6 
#
# 1 102.5348 13.5262 7.3387 -6.5316 -0.2742 2.6011
# 2 13.5262 50.8351 7.0668 -10.9937 -1.6999 -1.8299
# 3 7.3387 7.0668 61.7576 -11.5076 -2.8022 -7.7291
# 4 -6.5316 -10.9937 -11.5076 30.3076 -6.5732 0.7311
# 5 -0.2742 -1.6999 -2.8022 -6.5732 23.1769 -3.1385
# 6 2.6011 -1.8299 -7.7291 0.7311 -3.1385 14.1430
#
#
#
# Elastic Compliance Matrix: (Units=1/GPa)
#
#
# Indices 1 2 3 4 5 6 
#
# 1 0.010297 -0.002512 -0.001166 0.000858 -0.000364 -0.002981
# 2 -0.002512 0.022474 0.000015 0.008512 0.004570 0.003952
# 3 -0.001166 0.000015 0.019658 0.008304 0.006335 0.011936
# 4 0.000858 0.008512 0.008304 0.042419 0.014552 0.006518
# 5 -0.000364 0.004570 0.006335 0.014552 0.050339 0.014539
# 6 -0.002981 0.003952 0.011936 0.006518 0.014539 0.081178
#
#
# Mechanical properties :
#
#
# Convention : Reuss Voigt Hill
#
# Bulk Modulus (GPa) = 22.17131 30.11011 26.14071
# Shear Modulus (GPa) = 20.10257 26.00522 23.05390
#
# Velocity S-wave (km/s) = 3.34688 3.80666 3.58415
# Velocity P-wave (km/s) = 5.22396 6.00824 5.62977
#
# Compressibility (1/GPa) = 0.04510334
#
# Stress axis : x y z
#
# Youngs Moduli (GPa) = 97.11678 44.49671 50.87036
#
# Poissons Ratio (x) = 0.11176 0.05930
# Poissons Ratio (y) = 0.24391 -0.00076
# Poissons Ratio (z) = 0.11322 -0.00066
#
# Static dielectric constant tensor:
#      x y z
#    x 3.335620 0.034190 -0.028870 
#    y 0.034190 3.272780 -0.076780 
#    z -0.028870 -0.076780 3.119370 
# 
# 
# High freq. dielectric constant tensor:
#      x y z
#    x 1.692930 0.003300 -0.004660 
#    y 0.003300 1.691650 -0.004330 
#    z -0.004660 -0.004330 1.679230 
# 
# From -- ./inp_files/217995.got.cif
#   From: 2010.06.25/outbox.cif.g09.slc.cpg/sg2_109_cif.got.tgz:217995.got - 2010.06.27 13:26:56.
