data_PCOD8040970
_publ_section_title
;
Structure prediction by ZEFSAII (Michael W. Deem and Ramdas Pophale) SiO2 
 PCOD8040970
Probable space group: P -1
;
_chemical_formula_sum "Si O2"
_cell_formula_units_Z 16
_cell_length_a 16.770624
_cell_length_b 11.501632
_cell_length_c 9.169036
_cell_angle_alpha 39.260327
_cell_angle_beta 82.365942
_cell_angle_gamma 55.219089
_cell_volume 739.426042
_symmetry_space_group_name_H-M "P -1"
_symmetry_group_IT_number 2
_symmetry_cell_setting 'triclinic'
loop_
_space_group_symop_operation_xyz
x,y,z
-x,-y,-z
loop_
_atom_site_type_symbol
_atom_site_label
_atom_site_fract_x
_atom_site_fract_y
_atom_site_fract_z
Si Si1 0.749602 0.858830 0.368876
Si Si2 0.665374 0.677486 0.738310
Si Si3 0.963469 0.626012 0.725290
Si Si4 0.783696 0.768753 0.111333
Si Si5 0.600243 0.369033 0.487144
Si Si6 0.673176 0.618674 0.114918
Si Si7 0.127375 0.848439 0.666926
Si Si8 0.442360 0.514319 0.141073
O O1 0.655953 0.873584 0.450395
O O2 0.873717 0.645423 0.640153
O O3 0.786121 0.736642 0.315679
O O4 0.676315 0.174340 0.076685
O O5 0.594061 0.634841 0.720952
O O6 0.612552 0.791417 0.807465
O O7 0.809239 0.389846 0.996756
O O8 0.081409 0.468512 0.754444
O O9 0.879251 0.944493 0.458224
O O10 0.000000 0.500000 0.000000
O O11 0.704527 0.738678 0.091294
O O12 0.728128 0.063270 0.800608
O O13 0.500000 0.500000 0.500000
O O14 0.596604 0.597134 0.243019
O O15 0.557090 0.329954 0.396455
O O16 0.790540 0.295041 0.359069
O O17 0.000000 0.000000 0.500000
O O18 0.500000 0.500000 0.000000
#
# Coordination Sequence:
#
# PCOD8040970 Si02
#       8
#     2   2   2   2   2   2   2   2
#     4  12  26  45  67 108 138 178 225 284 352 405
#     4  10  24  42  69 100 134 173 234 285 336 404
#     4  12  23  44  75 100 140 181 227 285 337 419
#     4  12  27  44  70 102 144 179 226 282 353 419
#     4  12  27  47  67  99 140 187 229 287 353 408
#     4  10  23  43  69 100 132 181 232 279 342 410
#     4  10  18  40  69 102 132 169 229 277 333 403
#     4  12  25  46  71  97 136 182 238 289 331 408
#
# _framework density 21.638404999999999
#
# number of rings (size 3 to 8) (size 9 to 14) (size 15 to 20)
#    0.750    0.000    5.000    2.625    5.250    2.000 
#    0.000    0.625    0.000    0.000    0.000    0.000 
#    0.000    0.000    0.000    0.000    0.000    0.000 
#
# Total GULP energy -198252.224960 kJ/mol
# GULP energy per Si atom -12390.764060 kJ/mol
# Density = 2.158916 g / cm^3
# Si number density = 21.638405 Si / 1000 Ang^3
#
#
#
# Elastic Constant Matrix: (Units=GPa)
#
#
# Indices 1 2 3 4 5 6 
#
# 1 126.4336 28.2407 15.5482 22.6285 -14.4141 9.8082
# 2 28.2407 123.0830 21.9117 19.4161 -13.0151 2.6229
# 3 15.5482 21.9117 68.2266 12.0954 -9.5194 4.4151
# 4 22.6285 19.4161 12.0954 39.8794 -3.2621 1.9342
# 5 -14.4141 -13.0151 -9.5194 -3.2621 29.4956 3.3283
# 6 9.8082 2.6229 4.4151 1.9342 3.3283 39.1032
#
#
#
# Elastic Compliance Matrix: (Units=1/GPa)
#
#
# Indices 1 2 3 4 5 6 
#
# 1 0.009599 -0.000970 -0.000389 -0.004418 0.003921 -0.002414
# 2 -0.000970 0.009491 -0.001841 -0.003271 0.002787 -0.000261
# 3 -0.000389 -0.001841 0.016663 -0.003504 0.004196 -0.001844
# 4 -0.004418 -0.003271 -0.003504 0.030103 -0.001445 0.000357
# 5 0.003921 0.002787 0.004196 -0.001445 0.038794 -0.004875
# 6 -0.002414 -0.000261 -0.001844 0.000357 -0.004875 0.026802
#
#
# Mechanical properties :
#
#
# Convention : Reuss Voigt Hill
#
# Bulk Modulus (GPa) = 34.06969 49.90494 41.98732
# Shear Modulus (GPa) = 33.86684 38.49847 36.18266
#
# Velocity S-wave (km/s) = 3.96046 4.22260 4.09363
# Velocity P-wave (km/s) = 6.05746 6.84741 6.46451
#
# Compressibility (1/GPa) = 0.02935160
#
# Stress axis : x y z
#
# Youngs Moduli (GPa) = 104.17876 105.35894 60.01305
#
# Poissons Ratio (x) = 0.10220 0.02337
# Poissons Ratio (y) = 0.10106 0.11051
# Poissons Ratio (z) = 0.04056 0.19401
#
# Static dielectric constant tensor:
#      x y z
#    x 3.758880 0.042380 0.024460 
#    y 0.042380 3.947230 -0.041510 
#    z 0.024460 -0.041510 3.989910 
# 
# 
# High freq. dielectric constant tensor:
#      x y z
#    x 1.856880 0.004420 0.006700 
#    y 0.004420 1.848980 -0.002290 
#    z 0.006700 -0.002290 1.853580 
# 
# From -- ./inp_files/332736.got.cif
#   From: 2010.06.25/outbox.cif.g09.slc.cpg/sg2_167_cif.got.tgz:332736.got - 2010.06.27 13:26:56.
