data_PCOD8040382
_publ_section_title
;
Structure prediction by ZEFSAII (Michael W. Deem and Ramdas Pophale) SiO2 
 PCOD8040382
Probable space group: P -1
;
_chemical_formula_sum "Si O2"
_cell_formula_units_Z 14
_cell_length_a 17.296485
_cell_length_b 9.322705
_cell_length_c 5.623480
_cell_angle_alpha 74.030604
_cell_angle_beta 107.621943
_cell_angle_gamma 128.777657
_cell_volume 669.264472
_symmetry_space_group_name_H-M "P -1"
_symmetry_group_IT_number 2
_symmetry_cell_setting 'triclinic'
loop_
_space_group_symop_operation_xyz
x,y,z
-x,-y,-z
loop_
_atom_site_type_symbol
_atom_site_label
_atom_site_fract_x
_atom_site_fract_y
_atom_site_fract_z
Si Si1 0.126931 0.772020 0.084736
Si Si2 0.770019 0.324666 0.412370
Si Si3 0.614830 0.125009 0.982981
Si Si4 0.329712 0.108552 0.047113
Si Si5 0.386647 0.322855 0.504967
Si Si6 0.093366 0.432518 0.951857
Si Si7 0.277349 0.508219 0.327852
O O1 0.176768 0.751532 0.368763
O O2 0.023224 0.744302 0.068759
O O3 0.104224 0.619085 0.943256
O O4 0.207513 0.980969 0.966598
O O5 0.689115 0.153165 0.249223
O O6 0.859250 0.520195 0.286670
O O7 0.706784 0.379987 0.470118
O O8 0.635029 0.027066 0.835977
O O9 0.648204 0.330375 0.863538
O O10 0.500000 0.000000 0.000000
O O11 0.378591 0.224525 0.793403
O O12 0.362170 0.216499 0.279007
O O13 0.500000 0.500000 0.500000
O O14 0.307894 0.371268 0.443812
O O15 0.159402 0.395906 0.197804
#
# Coordination Sequence:
#
# PCOD8040382 Si02
#       7
#     2   2   2   2   2   2   2
#     4  10  19  37  62 102 125 168 210 285 329 391
#     4  10  18  36  63  93 131 165 220 265 334 392
#     4  11  23  38  66  96 128 166 226 289 323 379
#     4  12  25  45  68 101 132 171 230 278 322 399
#     4  12  29  47  67  92 140 187 217 266 345 400
#     4   9  19  36  66  93 133 163 218 265 350 381
#     4  10  23  41  62  92 128 177 221 263 332 406
#
# _framework density 20.918486999999999
#
# number of rings (size 3 to 8) (size 9 to 14) (size 15 to 20)
#    0.000    1.429    4.286    2.571    6.000    0.571 
#    0.000    1.429    0.000    0.000    0.000    0.000 
#    0.000    0.000    0.000    0.000    0.000    0.000 
#
# Total GULP energy -173453.776298 kJ/mol
# GULP energy per Si atom -12389.555450 kJ/mol
# Density = 2.087088 g / cm^3
# Si number density = 20.918487 Si / 1000 Ang^3
#
#
#
# Elastic Constant Matrix: (Units=GPa)
#
#
# Indices 1 2 3 4 5 6 
#
# 1 117.0671 42.2820 19.5557 14.7010 4.5255 24.5834
# 2 42.2820 86.4618 26.4964 11.2504 -4.7526 24.0391
# 3 19.5557 26.4964 82.3061 5.3981 -17.5948 1.4939
# 4 14.7010 11.2504 5.3981 24.2279 -2.4723 -2.7391
# 5 4.5255 -4.7526 -17.5948 -2.4723 21.4678 -6.9430
# 6 24.5834 24.0391 1.4939 -2.7391 -6.9430 53.9852
#
#
#
# Elastic Compliance Matrix: (Units=1/GPa)
#
#
# Indices 1 2 3 4 5 6 
#
# 1 0.012657 -0.003146 -0.003297 -0.007026 -0.008736 -0.005751
# 2 -0.003146 0.017033 -0.004707 -0.005928 -0.002245 -0.006611
# 3 -0.003297 -0.004707 0.017631 0.002502 0.016108 0.005308
# 4 -0.007026 -0.005928 0.002502 0.049969 0.011122 0.009736
# 5 -0.008736 -0.002245 0.016108 0.011122 0.066837 0.013692
# 6 -0.005751 -0.006611 0.005308 0.009736 0.013692 0.026194
#
#
# Mechanical properties :
#
#
# Convention : Reuss Voigt Hill
#
# Bulk Modulus (GPa) = 39.96507 51.38925 45.67716
# Shear Modulus (GPa) = 22.62835 33.10292 27.86564
#
# Velocity S-wave (km/s) = 3.29255 3.98235 3.65376
# Velocity P-wave (km/s) = 5.79665 6.76500 6.29946
#
# Compressibility (1/GPa) = 0.02502185
#
# Stress axis : x y z
#
# Youngs Moduli (GPa) = 79.00815 58.71012 56.71704
#
# Poissons Ratio (x) = 0.18471 0.18698
# Poissons Ratio (y) = 0.24857 0.26696
# Poissons Ratio (z) = 0.26047 0.27634
#
# Static dielectric constant tensor:
#      x y z
#    x 4.021540 0.240150 -0.233320 
#    y 0.240150 3.746060 0.050160 
#    z -0.233320 0.050160 3.869700 
# 
# 
# High freq. dielectric constant tensor:
#      x y z
#    x 1.826260 0.019490 -0.015170 
#    y 0.019490 1.800810 0.007610 
#    z -0.015170 0.007610 1.818690 
# 
# From -- ./inp_files/35461.got.cif
#   From: 2010.06.25/outbox.cif.g09.slc.cpg/sg2_18_cif.got.tgz:35461.got - 2010.06.27 13:26:56.
