data_PCOD8040659
_publ_section_title
;
Structure prediction by ZEFSAII (Michael W. Deem and Ramdas Pophale) SiO2 
 PCOD8040659
Probable space group: P -1
;
_chemical_formula_sum "Si O2"
_cell_formula_units_Z 16
_cell_length_a 11.392868
_cell_length_b 8.072207
_cell_length_c 7.394128
_cell_angle_alpha 88.725066
_cell_angle_beta 84.403114
_cell_angle_gamma 85.230344
_cell_volume 674.351389
_symmetry_space_group_name_H-M "P -1"
_symmetry_group_IT_number 2
_symmetry_cell_setting 'triclinic'
loop_
_space_group_symop_operation_xyz
x,y,z
-x,-y,-z
loop_
_atom_site_type_symbol
_atom_site_label
_atom_site_fract_x
_atom_site_fract_y
_atom_site_fract_z
Si Si1 0.891231 0.167119 0.201848
Si Si2 0.966613 0.164546 0.772142
Si Si3 0.671957 0.690067 0.051645
Si Si4 0.910329 0.528760 0.172285
Si Si5 0.656587 0.071206 0.124456
Si Si6 0.506167 0.665518 0.389686
Si Si7 0.601930 0.822843 0.700681
Si Si8 0.288963 0.856898 0.274846
O O1 0.910217 0.349819 0.280873
O O2 0.752157 0.138210 0.246161
O O3 0.929930 0.163185 0.986928
O O4 0.966859 0.013521 0.291596
O O5 0.845734 0.188385 0.673027
O O6 0.048417 0.318335 0.715112
O O7 0.783993 0.570502 0.095889
O O8 0.561042 0.636619 0.184351
O O9 0.696136 0.879786 0.081794
O O10 0.641322 0.674335 0.841547
O O11 0.000000 0.500000 0.000000
O O12 0.524265 0.086386 0.220865
O O13 0.663725 0.175789 0.935862
O O14 0.500000 0.500000 0.500000
O O15 0.592571 0.768899 0.496236
O O16 0.373064 0.746912 0.399330
O O17 0.702696 0.950229 0.682308
#
# Coordination Sequence:
#
# PCOD8040659 Si02
#       8
#     2   2   2   2   2   2   2   2
#     4   9  18  31  58  96 125 168 220 264 329 386
#     4   9  18  35  59  91 132 165 218 277 315 392
#     4  11  22  43  66  97 132 170 221 272 333 389
#     4  10  21  35  62  98 132 167 221 275 321 394
#     4  10  18  37  68  95 127 168 219 273 322 398
#     4  12  27  42  61  97 140 171 216 276 328 393
#     4  11  23  40  70  93 127 175 219 265 332 399
#     4  10  20  40  64  94 129 168 218 270 329 394
#
# _framework density 23.726503000000001
#
# number of rings (size 3 to 8) (size 9 to 14) (size 15 to 20)
#    0.000    1.750    3.750    1.125    7.000    3.500 
#    0.000    0.000    0.000    6.000    0.000    0.000 
#    0.000    0.000    0.000    0.000    0.000    0.000 
#
# Total GULP energy -198318.796950 kJ/mol
# GULP energy per Si atom -12394.924809 kJ/mol
# Density = 2.367250 g / cm^3
# Si number density = 23.726503 Si / 1000 Ang^3
#
#
#
# Elastic Constant Matrix: (Units=GPa)
#
#
# Indices 1 2 3 4 5 6 
#
# 1 128.9288 51.8607 21.0654 -9.8461 29.5252 1.7669
# 2 51.8607 128.7689 17.4386 -26.5490 12.6846 -0.6979
# 3 21.0654 17.4386 47.9492 -16.2392 19.2418 -10.3633
# 4 -9.8461 -26.5490 -16.2392 21.8467 -1.3648 -2.0347
# 5 29.5252 12.6846 19.2418 -1.3648 28.9860 0.7293
# 6 1.7669 -0.6979 -10.3633 -2.0347 0.7293 28.9040
#
#
#
# Elastic Compliance Matrix: (Units=1/GPa)
#
#
# Indices 1 2 3 4 5 6 
#
# 1 0.011571 -0.003562 0.000657 0.000688 -0.010625 -0.000241
# 2 -0.003562 0.012736 0.006303 0.018616 -0.005359 0.004231
# 3 0.000657 0.006303 0.055893 0.049368 -0.038825 0.024607
# 4 0.000688 0.018616 0.049368 0.105538 -0.037317 0.026479
# 5 -0.010625 -0.005359 -0.038825 -0.037317 0.072132 -0.017847
# 6 -0.000241 0.004231 0.024607 0.026479 -0.017847 0.045851
#
#
# Mechanical properties :
#
#
# Convention : Reuss Voigt Hill
#
# Bulk Modulus (GPa) = 11.49497 54.04182 32.76839
# Shear Modulus (GPa) = 15.34102 30.29951 22.82027
#
# Velocity S-wave (km/s) = 2.54555 3.57744 3.10466
# Velocity P-wave (km/s) = 3.67356 6.31589 5.16650
#
# Compressibility (1/GPa) = 0.08699460
#
# Stress axis : x y z
#
# Youngs Moduli (GPa) = 86.42651 78.51932 17.89125
#
# Poissons Ratio (x) = 0.27966 -0.01175
# Poissons Ratio (y) = 0.30782 -0.11276
# Poissons Ratio (z) = -0.05675 -0.49487
#
# Static dielectric constant tensor:
#      x y z
#    x 4.370520 0.244140 0.108250 
#    y 0.244140 4.458000 -0.307130 
#    z 0.108250 -0.307130 3.647010 
# 
# 
# High freq. dielectric constant tensor:
#      x y z
#    x 1.946030 0.004000 0.008270 
#    y 0.004000 1.934800 -0.014030 
#    z 0.008270 -0.014030 1.909400 
# 
# From -- ./inp_files/238462.got.cif
#   From: 2010.06.25/outbox.cif.g09.slc.cpg/sg2_120_cif.got.tgz:238462.got - 2010.06.27 13:26:56.
