data_PCOD8040424
_publ_section_title
;
Structure prediction by ZEFSAII (Michael W. Deem and Ramdas Pophale) SiO2 
 PCOD8040424
Probable space group: P -1
;
_chemical_formula_sum "Si O2"
_cell_formula_units_Z 16
_cell_length_a 9.600973
_cell_length_b 15.223055
_cell_length_c 18.386371
_cell_angle_alpha 156.565982
_cell_angle_beta 131.875163
_cell_angle_gamma 40.870434
_cell_volume 695.729283
_symmetry_space_group_name_H-M "P -1"
_symmetry_group_IT_number 2
_symmetry_cell_setting 'triclinic'
loop_
_space_group_symop_operation_xyz
x,y,z
-x,-y,-z
loop_
_atom_site_type_symbol
_atom_site_label
_atom_site_fract_x
_atom_site_fract_y
_atom_site_fract_z
Si Si1 0.705670 0.971473 0.906940
Si Si2 0.982428 0.455817 0.691351
Si Si3 0.471942 0.053909 0.741809
Si Si4 0.804465 0.923288 0.646310
Si Si5 0.350018 0.699948 0.498252
Si Si6 0.219007 0.765304 0.752463
Si Si7 0.161058 0.592337 0.992521
Si Si8 0.286416 0.039145 0.861718
O O1 0.850602 0.680888 0.759731
O O2 0.656415 0.991554 0.819568
O O3 0.476440 0.102673 0.968737
O O4 0.803213 0.151437 0.106173
O O5 0.824325 0.394435 0.640037
O O6 0.145928 0.212028 0.517080
O O7 0.127075 0.511581 0.838946
O O8 0.331332 0.354244 0.915909
O O9 0.597608 0.929010 0.615819
O O10 0.309165 0.946561 0.623715
O O11 0.005612 0.769887 0.653792
O O12 0.748978 0.212251 0.836107
O O13 0.582572 0.501455 0.399984
O O14 0.348009 0.779170 0.641904
O O15 0.247876 0.988166 0.892724
O O16 0.939013 0.724064 0.061619
#
# Coordination Sequence:
#
# PCOD8040424 Si02
#       8
#     2   2   2   2   2   2   2   2
#     4  11  22  38  68 102 130 168 211 278 329 381
#     4  12  22  43  77  95 127 171 227 264 327 393
#     4  11  28  44  61  97 142 170 216 273 327 379
#     4  11  24  46  69  92 131 181 220 265 319 393
#     4  11  22  38  67 103 133 164 210 281 332 379
#     4  11  19  37  66 102 127 166 220 264 322 390
#     4  11  24  46  69  93 129 182 223 259 322 396
#     4  10  18  36  66  95 126 167 215 260 320 382
#
# _framework density 22.997451999999999
#
# number of rings (size 3 to 8) (size 9 to 14) (size 15 to 20)
#    0.000    1.000    6.250    3.375    0.000    5.500 
#    4.500    0.000    0.000    0.000    0.000    0.000 
#    0.000    0.000    0.000    0.000    0.000    0.000 
#
# Total GULP energy -198317.859414 kJ/mol
# GULP energy per Si atom -12394.866213 kJ/mol
# Density = 2.294511 g / cm^3
# Si number density = 22.997452 Si / 1000 Ang^3
#
#
#
# Elastic Constant Matrix: (Units=GPa)
#
#
# Indices 1 2 3 4 5 6 
#
# 1 55.2848 18.0906 27.4861 11.7957 -7.8942 9.6053
# 2 18.0906 70.5341 44.1034 18.0152 6.6102 17.2701
# 3 27.4861 44.1034 125.6348 8.7071 -12.4586 9.5156
# 4 11.7957 18.0152 8.7071 30.4857 -4.8204 1.5803
# 5 -7.8942 6.6102 -12.4586 -4.8204 23.2860 2.7980
# 6 9.6053 17.2701 9.5156 1.5803 2.7980 15.0557
#
#
#
# Elastic Compliance Matrix: (Units=1/GPa)
#
#
# Indices 1 2 3 4 5 6 
#
# 1 0.024574 0.000530 -0.003292 -0.007055 0.006727 -0.014715
# 2 0.000530 0.032652 -0.009768 -0.017636 -0.014718 -0.027032
# 3 -0.003292 -0.009768 0.012410 0.004733 0.008878 0.003314
# 4 -0.007055 -0.017636 0.004733 0.045889 0.012901 0.014525
# 5 0.006727 -0.014718 0.008878 0.012901 0.057430 -0.005047
# 6 -0.014715 -0.027032 0.003314 0.014525 -0.005047 0.104134
#
#
# Mechanical properties :
#
#
# Convention : Reuss Voigt Hill
#
# Bulk Modulus (GPa) = 22.43365 47.86821 35.15093
# Shear Modulus (GPa) = 15.77250 24.55039 20.16145
#
# Velocity S-wave (km/s) = 2.62169 3.27085 2.96409
# Velocity P-wave (km/s) = 4.35205 5.92658 5.19926
#
# Compressibility (1/GPa) = 0.04457589
#
# Stress axis : x y z
#
# Youngs Moduli (GPa) = 40.69402 30.62598 80.57986
#
# Poissons Ratio (x) = -0.01622 0.26524
# Poissons Ratio (y) = -0.02156 0.78711
# Poissons Ratio (z) = 0.13395 0.29916
#
# Static dielectric constant tensor:
#      x y z
#    x 4.030490 -0.048540 -0.097810 
#    y -0.048540 3.918170 0.115220 
#    z -0.097810 0.115220 4.196200 
# 
# 
# High freq. dielectric constant tensor:
#      x y z
#    x 1.897770 -0.006330 -0.015060 
#    y -0.006330 1.879600 0.004360 
#    z -0.015060 0.004360 1.922450 
# 
# From -- ./inp_files/595875.got.cif
#   From: 2010.06.25/outbox.cif.g09.slc.cpg/sg2_298_cif.got.tgz:595875.got - 2010.06.27 13:26:56.
