data_PCOD8040443
_publ_section_title
;
Structure prediction by ZEFSAII (Michael W. Deem and Ramdas Pophale) SiO2 
 PCOD8040443
Probable space group: P -1
;
_chemical_formula_sum "Si O2"
_cell_formula_units_Z 14
_cell_length_a 19.231336
_cell_length_b 8.632734
_cell_length_c 12.675681
_cell_angle_alpha 48.282278
_cell_angle_beta 155.770324
_cell_angle_gamma 142.612504
_cell_volume 509.445261
_symmetry_space_group_name_H-M "P -1"
_symmetry_group_IT_number 2
_symmetry_cell_setting 'triclinic'
loop_
_space_group_symop_operation_xyz
x,y,z
-x,-y,-z
loop_
_atom_site_type_symbol
_atom_site_label
_atom_site_fract_x
_atom_site_fract_y
_atom_site_fract_z
Si Si1 0.852264 0.017475 0.605929
Si Si2 0.267996 0.321037 0.707977
Si Si3 0.506991 0.467018 0.768880
Si Si4 0.207495 0.939502 0.107794
Si Si5 0.739707 0.100929 0.028544
Si Si6 0.756506 0.247126 0.543006
Si Si7 0.735062 0.254579 0.176449
O O1 0.615898 0.727683 0.413177
O O2 0.877023 0.155248 0.689122
O O3 0.892797 0.234882 0.476894
O O4 0.017523 0.955550 0.855982
O O5 0.315652 0.287262 0.669805
O O6 0.137676 0.443362 0.472388
O O7 0.500000 0.500000 0.000000
O O8 0.149699 0.043818 0.731323
O O9 0.571610 0.757585 0.722731
O O10 0.724903 0.495360 0.079739
O O11 0.180635 0.785102 0.031740
O O12 0.225158 0.784243 0.293864
O O13 0.483158 0.902106 0.760968
O O14 0.795489 0.289655 0.119226
O O15 0.500000 0.000000 0.000000
#
# Coordination Sequence:
#
# PCOD8040443 Si02
#       7
#     2   2   2   2   2   2   2
#     4  11  24  43  66  93 136 165 213 269 317 377
#     4  10  18  36  69  93 119 175 213 253 323 374
#     4  11  21  40  67  93 127 169 211 261 322 372
#     4  12  27  40  65 102 128 168 218 259 317 389
#     4  11  20  40  70  96 125 168 221 264 315 379
#     4  11  22  43  65  90 137 174 204 263 326 382
#     4  10  18  39  67  94 124 169 210 265 321 365
#
# _framework density 27.480869999999999
#
# number of rings (size 3 to 8) (size 9 to 14) (size 15 to 20)
#    0.000    1.143    8.571    1.714    0.000    1.714 
#    0.000    0.714    0.000    0.000    0.000    0.000 
#    0.000    0.000    0.000    0.000    0.000    0.000 
#
# Total GULP energy -173446.095769 kJ/mol
# GULP energy per Si atom -12389.006841 kJ/mol
# Density = 2.741832 g / cm^3
# Si number density = 27.480870 Si / 1000 Ang^3
#
#
#
# Elastic Constant Matrix: (Units=GPa)
#
#
# Indices 1 2 3 4 5 6 
#
# 1 168.5029 5.3955 22.5607 -9.6122 -10.2240 -5.0754
# 2 5.3955 67.9986 5.4196 -11.6498 -10.1385 2.8588
# 3 22.5607 5.4196 75.8689 -20.0254 5.7522 10.0347
# 4 -9.6122 -11.6498 -20.0254 22.9145 1.4930 1.4947
# 5 -10.2240 -10.1385 5.7522 1.4930 48.3153 -13.8776
# 6 -5.0754 2.8588 10.0347 1.4947 -13.8776 20.6014
#
#
#
# Elastic Compliance Matrix: (Units=1/GPa)
#
#
# Indices 1 2 3 4 5 6 
#
# 1 0.006691 -0.000105 -0.003099 -0.000530 0.003349 0.005467
# 2 -0.000105 0.016714 0.001532 0.009781 0.002367 -0.002207
# 3 -0.003099 0.001532 0.023098 0.021608 -0.009565 -0.020238
# 4 -0.000530 0.009781 0.021608 0.069425 -0.009516 -0.023460
# 5 0.003349 0.002367 -0.009565 -0.009516 0.031016 0.026739
# 6 0.005467 -0.002207 -0.020238 -0.023460 0.026739 0.079765
#
#
# Mechanical properties :
#
#
# Convention : Reuss Voigt Hill
#
# Bulk Modulus (GPa) = 23.17097 42.12467 32.64782
# Shear Modulus (GPa) = 20.45500 36.96588 28.71044
#
# Velocity S-wave (km/s) = 2.73121 3.67161 3.23575
# Velocity P-wave (km/s) = 4.28906 5.77376 5.08588
#
# Compressibility (1/GPa) = 0.04315744
#
# Stress axis : x y z
#
# Youngs Moduli (GPa) = 149.46451 59.83049 43.29384
#
# Poissons Ratio (x) = 0.00629 0.13416
# Poissons Ratio (y) = 0.01571 -0.06631
# Poissons Ratio (z) = 0.46318 -0.09164
#
# Static dielectric constant tensor:
#      x y z
#    x 4.320220 -0.523040 0.200810 
#    y -0.523040 5.005580 0.005480 
#    z 0.200810 0.005480 5.117980 
# 
# 
# High freq. dielectric constant tensor:
#      x y z
#    x 2.106380 -0.017540 0.017110 
#    y -0.017540 2.099190 0.012400 
#    z 0.017110 0.012400 2.125310 
# 
# From -- ./inp_files/461961.got.cif
#   From: 2010.06.25/outbox.cif.g09.slc.cpg/sg2_231_cif.got.tgz:461961.got - 2010.06.27 13:26:56.
