data_PCOD8040383
_publ_section_title
;
Structure prediction by ZEFSAII (Michael W. Deem and Ramdas Pophale) SiO2 
 PCOD8040383
Probable space group: P -1
;
_chemical_formula_sum "Si O2"
_cell_formula_units_Z 16
_cell_length_a 15.831469
_cell_length_b 6.328351
_cell_length_c 12.278350
_cell_angle_alpha 90.414835
_cell_angle_beta 41.225923
_cell_angle_gamma 70.694429
_cell_volume 697.352427
_symmetry_space_group_name_H-M "P -1"
_symmetry_group_IT_number 2
_symmetry_cell_setting 'triclinic'
loop_
_space_group_symop_operation_xyz
x,y,z
-x,-y,-z
loop_
_atom_site_type_symbol
_atom_site_label
_atom_site_fract_x
_atom_site_fract_y
_atom_site_fract_z
Si Si1 0.974444 0.067791 0.795601
Si Si2 0.698536 0.063174 0.569635
Si Si3 0.205281 0.253735 0.324998
Si Si4 0.367196 0.203538 0.558576
Si Si5 0.080618 0.735723 0.367019
Si Si6 0.472341 0.585158 0.726428
Si Si7 0.236530 0.095127 0.045991
Si Si8 0.228107 0.481118 0.893661
O O1 0.863262 0.243045 0.806046
O O2 0.915815 0.875691 0.860535
O O3 0.928560 0.258010 0.941653
O O4 0.145788 0.939900 0.594767
O O5 0.570017 0.345300 0.705042
O O6 0.681208 0.937808 0.696760
O O7 0.683488 0.924371 0.480622
O O8 0.211946 0.507319 0.308190
O O9 0.225608 0.132558 0.186540
O O10 0.043733 0.339327 0.533193
O O11 0.414172 0.384579 0.460582
O O12 0.228697 0.363716 0.775734
O O13 0.500000 0.000000 0.500000
O O14 0.000000 0.000000 0.500000
O O15 0.360759 0.541069 0.761384
O O16 0.381635 0.828352 0.887626
O O17 0.258958 0.296000 0.962814
#
# Coordination Sequence:
#
# PCOD8040383 Si02
#       8
#     2   2   2   2   2   2   2   2
#     4  10  23  39  66 103 136 168 222 267 333 395
#     4  11  26  42  64 107 134 174 221 279 327 397
#     4  10  22  37  63  98 142 171 219 260 329 404
#     4  12  24  46  72  89 126 182 230 277 337 387
#     4  10  18  36  63  93 134 185 206 254 323 399
#     4  11  24  44  69  96 126 177 231 271 333 393
#     4  11  21  41  70  99 131 182 212 272 332 399
#     4  11  23  43  72  95 125 176 233 272 328 402
#
# _framework density 22.943923999999999
#
# number of rings (size 3 to 8) (size 9 to 14) (size 15 to 20)
#    0.000    1.250    5.000    0.375    0.000    4.000 
#    0.000    3.750    0.000    0.000    0.000    0.000 
#    0.000    0.000    0.000    0.000    0.000    0.000 
#
# Total GULP energy -198248.728288 kJ/mol
# GULP energy per Si atom -12390.545518 kJ/mol
# Density = 2.289170 g / cm^3
# Si number density = 22.943924 Si / 1000 Ang^3
#
#
#
# Elastic Constant Matrix: (Units=GPa)
#
#
# Indices 1 2 3 4 5 6 
#
# 1 72.8140 24.0327 17.2463 2.3863 15.9283 5.9281
# 2 24.0327 103.7999 3.5225 10.4067 2.4258 5.9106
# 3 17.2463 3.5225 75.2826 6.8544 14.2231 12.6279
# 4 2.3863 10.4067 6.8544 38.7863 3.6510 6.7622
# 5 15.9283 2.4258 14.2231 3.6510 37.1951 2.6466
# 6 5.9281 5.9106 12.6279 6.7622 2.6466 27.0723
#
#
#
# Elastic Compliance Matrix: (Units=1/GPa)
#
#
# Indices 1 2 3 4 5 6 
#
# 1 0.016957 -0.003739 -0.002419 0.001220 -0.006107 -0.001476
# 2 -0.003739 0.010793 0.000613 -0.002650 0.001013 -0.001261
# 3 -0.002419 0.000613 0.015817 -0.001305 -0.004482 -0.006218
# 4 0.001220 -0.002650 -0.001305 0.027869 -0.002171 -0.005829
# 5 -0.006107 0.001013 -0.004482 -0.002171 0.031313 0.000688
# 6 -0.001476 -0.001261 -0.006218 -0.005829 0.000688 0.041826
#
#
# Mechanical properties :
#
#
# Convention : Reuss Voigt Hill
#
# Bulk Modulus (GPa) = 30.79240 37.94439 34.36839
# Shear Modulus (GPa) = 30.03157 34.41709 32.22433
#
# Velocity S-wave (km/s) = 3.62181 3.87725 3.75171
# Velocity P-wave (km/s) = 5.56236 6.05127 5.81196
#
# Compressibility (1/GPa) = 0.03247555
#
# Stress axis : x y z
#
# Youngs Moduli (GPa) = 58.97246 92.65553 63.22148
#
# Poissons Ratio (x) = 0.34648 0.15295
# Poissons Ratio (y) = 0.22053 -0.03876
# Poissons Ratio (z) = 0.14267 -0.05680
#
# Static dielectric constant tensor:
#      x y z
#    x 3.965830 0.112810 0.185230 
#    y 0.112810 4.719860 -0.156910 
#    z 0.185230 -0.156910 4.359210 
# 
# 
# High freq. dielectric constant tensor:
#      x y z
#    x 1.869140 0.013480 0.014270 
#    y 0.013480 1.927280 -0.002200 
#    z 0.014270 -0.002200 1.910860 
# 
# From -- ./inp_files/441887.got.cif
#   From: 2010.06.25/outbox.cif.g09.slc.cpg/sg2_221_cif.got.tgz:441887.got - 2010.06.27 13:26:56.
