data_PCOD8040452
_publ_section_title
;
Structure prediction by ZEFSAII (Michael W. Deem and Ramdas Pophale) SiO2 
 PCOD8040452
Probable space group: P -1
;
_chemical_formula_sum "Si O2"
_cell_formula_units_Z 16
_cell_length_a 17.512261
_cell_length_b 20.183560
_cell_length_c 12.347167
_cell_angle_alpha 141.562800
_cell_angle_beta 39.793131
_cell_angle_gamma 160.251341
_cell_volume 906.595423
_symmetry_space_group_name_H-M "P -1"
_symmetry_group_IT_number 2
_symmetry_cell_setting 'triclinic'
loop_
_space_group_symop_operation_xyz
x,y,z
-x,-y,-z
loop_
_atom_site_type_symbol
_atom_site_label
_atom_site_fract_x
_atom_site_fract_y
_atom_site_fract_z
Si Si1 0.589837 0.037098 0.066013
Si Si2 0.035143 0.912630 0.656120
Si Si3 0.496961 0.801731 0.579312
Si Si4 0.470222 0.731520 0.772239
Si Si5 0.705216 0.561248 0.736742
Si Si6 0.060543 0.868696 0.171147
Si Si7 0.250545 0.354009 0.574584
Si Si8 0.219468 0.279581 0.917874
O O1 0.583106 0.136853 0.276087
O O2 0.847211 0.182758 0.975220
O O3 0.500000 0.000000 0.000000
O O4 0.420518 0.807325 0.985689
O O5 0.914308 0.761433 0.693267
O O6 0.869916 0.797044 0.585895
O O7 0.255161 0.013921 0.509216
O O8 0.103521 0.083263 0.837003
O O9 0.505537 0.777674 0.664986
O O10 0.323140 0.587637 0.436716
O O11 0.269420 0.495575 0.711246
O O12 0.721041 0.884128 0.739614
O O13 0.470825 0.442987 0.805515
O O14 0.759959 0.622458 0.880865
O O15 0.880279 0.764939 0.324706
O O16 0.936973 0.783401 0.081614
O O17 0.500000 0.500000 0.500000
#
# Coordination Sequence:
#
# PCOD8040452 Si02
#       8
#     2   2   2   2   2   2   2   2
#     4   8  17  37  54  72 110 144 171 216 268 311
#     4  11  20  33  56  80 107 137 180 215 268 317
#     4  10  18  37  55  77 103 139 182 220 258 307
#     4   9  19  34  50  77 111 136 172 211 268 311
#     4  10  21  37  56  80 104 143 183 214 261 314
#     4  10  21  36  53  80 111 143 170 215 274 312
#     4  12  21  29  52  86 111 136 171 214 270 327
#     4  10  22  37  54  77 113 142 172 221 263 319
#
# _framework density 17.648447000000001
#
# number of rings (size 3 to 8) (size 9 to 14) (size 15 to 20)
#    0.750    1.250    2.500    1.875    1.750    1.000 
#    2.250    2.500    0.000    0.750    0.000    0.000 
#    0.000    0.000    0.000    0.000    0.000    0.000 
#
# Total GULP energy -198217.781549 kJ/mol
# GULP energy per Si atom -12388.611347 kJ/mol
# Density = 1.760828 g / cm^3
# Si number density = 17.648447 Si / 1000 Ang^3
#
#
#
# Elastic Constant Matrix: (Units=GPa)
#
#
# Indices 1 2 3 4 5 6 
#
# 1 38.5279 4.4110 14.0370 -0.3008 5.3545 10.0495
# 2 4.4110 66.9368 17.7149 7.5017 5.4661 -3.9286
# 3 14.0370 17.7149 94.1052 18.0587 -1.6567 1.8499
# 4 -0.3008 7.5017 18.0587 30.5394 0.4376 0.9824
# 5 5.3545 5.4661 -1.6567 0.4376 24.0754 0.6023
# 6 10.0495 -3.9286 1.8499 0.9824 0.6023 25.9326
#
#
#
# Elastic Compliance Matrix: (Units=1/GPa)
#
#
# Indices 1 2 3 4 5 6 
#
# 1 0.032244 -0.001365 -0.005250 0.004254 -0.006992 -0.012326
# 2 -0.001365 0.016490 -0.002528 -0.002626 -0.003651 0.003392
# 3 -0.005250 -0.002528 0.013333 -0.007384 0.002770 0.000916
# 4 0.004254 -0.002626 -0.007384 0.037913 -0.001474 -0.002922
# 5 -0.006992 -0.003651 0.002770 -0.001474 0.044113 0.000990
# 6 -0.012326 0.003392 0.000916 -0.002922 0.000990 0.043874
#
#
# Mechanical properties :
#
#
# Convention : Reuss Voigt Hill
#
# Bulk Modulus (GPa) = 22.83995 30.21063 26.52529
# Shear Modulus (GPa) = 22.64022 27.00330 24.82176
#
# Velocity S-wave (km/s) = 3.58557 3.91585 3.75434
# Velocity P-wave (km/s) = 5.48739 6.13191 5.81858
#
# Compressibility (1/GPa) = 0.04378293
#
# Stress axis : x y z
#
# Youngs Moduli (GPa) = 31.01334 60.64332 75.00155
#
# Poissons Ratio (x) = 0.08276 0.39374
# Poissons Ratio (y) = 0.04232 0.18957
# Poissons Ratio (z) = 0.16281 0.15328
#
# Static dielectric constant tensor:
#      x y z
#    x 2.658330 0.608450 0.231820 
#    y 0.608450 2.464930 -0.388180 
#    z 0.231820 -0.388180 3.114080 
# 
# 
# High freq. dielectric constant tensor:
#      x y z
#    x 1.658680 0.000980 -0.005740 
#    y 0.000980 1.683720 0.016060 
#    z -0.005740 0.016060 1.681470 
# 
# From -- ./inp_files/410820.got.cif
#   From: 2010.06.25/outbox.cif.g09.slc.cpg/sg2_206_cif.got.tgz:410820.got - 2010.06.27 13:26:56.
