data_PCOD8040126
_publ_section_title
;
Structure prediction by ZEFSAII (Michael W. Deem and Ramdas Pophale) SiO2 
 PCOD8040126
Probable space group: P -1
;
_chemical_formula_sum "Si O2"
_cell_formula_units_Z 16
_cell_length_a 11.720162
_cell_length_b 22.667126
_cell_length_c 19.114836
_cell_angle_alpha 19.902381
_cell_angle_beta 153.384909
_cell_angle_gamma 143.967634
_cell_volume 757.247646
_symmetry_space_group_name_H-M "P -1"
_symmetry_group_IT_number 2
_symmetry_cell_setting 'triclinic'
loop_
_space_group_symop_operation_xyz
x,y,z
-x,-y,-z
loop_
_atom_site_type_symbol
_atom_site_label
_atom_site_fract_x
_atom_site_fract_y
_atom_site_fract_z
Si Si1 0.168753 0.560175 0.324077
Si Si2 0.348048 0.299200 0.914102
Si Si3 0.745491 0.945943 0.272022
Si Si4 0.823048 0.069608 0.031041
Si Si5 0.102852 0.678523 0.866408
Si Si6 0.837781 0.038720 0.797634
Si Si7 0.852363 0.406910 0.421744
Si Si8 0.278680 0.672183 0.115629
O O1 0.142300 0.577667 0.206503
O O2 0.459013 0.461642 0.615380
O O3 0.960768 0.449598 0.358501
O O4 0.084444 0.749356 0.105110
O O5 0.336452 0.421236 0.840816
O O6 0.092162 0.350735 0.669326
O O7 0.594389 0.335506 0.967553
O O8 0.368674 0.090604 0.178885
O O9 0.870351 0.936441 0.272800
O O10 0.947678 0.837290 0.558044
O O11 0.486624 0.868198 0.220187
O O12 0.652306 0.150270 0.014307
O O13 0.971954 0.979465 0.145061
O O14 0.074096 0.721465 0.885203
O O15 0.000000 0.500000 0.000000
O O16 0.701083 0.247249 0.500201
O O17 0.000000 0.000000 0.000000
#
# Coordination Sequence:
#
# PCOD8040126 Si02
#       8
#     2   2   2   2   2   2   2   2
#     4  10  18  35  65  90 124 154 203 262 303 357
#     4  10  22  39  56  90 123 159 205 255 306 366
#     4  10  23  38  62  88 124 164 203 259 307 373
#     4  10  20  39  63  93 120 158 210 257 312 360
#     4  12  25  41  59  86 128 166 203 255 318 367
#     4  10  21  35  63  91 121 156 202 258 308 361
#     4  10  19  36  64  89 121 157 204 258 300 364
#     4  10  21  37  58  92 121 162 204 251 308 368
#
# _framework density 21.129151
#
# number of rings (size 3 to 8) (size 9 to 14) (size 15 to 20)
#    0.000    1.750    2.500    1.875    1.750    3.000 
#    2.250    0.625    0.000    1.500    0.000    0.000 
#    0.000    0.000    0.000    0.000    0.000    0.000 
#
# Total GULP energy -198296.340328 kJ/mol
# GULP energy per Si atom -12393.521270 kJ/mol
# Density = 2.108106 g / cm^3
# Si number density = 21.129151 Si / 1000 Ang^3
#
#
#
# Elastic Constant Matrix: (Units=GPa)
#
#
# Indices 1 2 3 4 5 6 
#
# 1 121.6716 50.6747 34.6289 -12.3582 -21.0634 -16.4710
# 2 50.6747 93.6649 33.6967 -28.2124 -5.3002 2.2494
# 3 34.6289 33.6967 70.5218 -13.5808 -14.7738 -11.6885
# 4 -12.3582 -28.2124 -13.5808 43.0637 -7.1645 -13.4788
# 5 -21.0634 -5.3002 -14.7738 -7.1645 27.3856 -1.3686
# 6 -16.4710 2.2494 -11.6885 -13.4788 -1.3686 34.6899
#
#
#
# Elastic Compliance Matrix: (Units=1/GPa)
#
#
# Indices 1 2 3 4 5 6 
#
# 1 0.014719 -0.006123 0.001421 0.006214 0.013068 0.010795
# 2 -0.006123 0.017897 -0.005281 0.006867 -0.002462 -0.003276
# 3 0.001421 -0.005281 0.024295 0.011995 0.017042 0.014536
# 4 0.006214 0.006867 0.011995 0.045464 0.025734 0.025227
# 5 0.013068 -0.002462 0.017042 0.025734 0.063246 0.024601
# 6 0.010795 -0.003276 0.014536 0.025227 0.024601 0.049835
#
#
# Mechanical properties :
#
#
# Convention : Reuss Voigt Hill
#
# Bulk Modulus (GPa) = 27.06677 58.20654 42.63666
# Shear Modulus (GPa) = 20.18282 32.15171 26.16727
#
# Velocity S-wave (km/s) = 3.09400 3.90510 3.52297
# Velocity P-wave (km/s) = 5.05982 6.92393 6.06393
#
# Compressibility (1/GPa) = 0.03694567
#
# Stress axis : x y z
#
# Youngs Moduli (GPa) = 67.93896 55.87642 41.16078
#
# Poissons Ratio (x) = 0.34212 -0.05850
# Poissons Ratio (y) = 0.41598 0.21737
# Poissons Ratio (z) = -0.09657 0.29509
#
# Static dielectric constant tensor:
#      x y z
#    x 3.970850 -0.104760 -0.297330 
#    y -0.104760 3.872930 -0.453160 
#    z -0.297330 -0.453160 3.803970 
# 
# 
# High freq. dielectric constant tensor:
#      x y z
#    x 1.841460 -0.010280 -0.020980 
#    y -0.010280 1.816770 -0.035440 
#    z -0.020980 -0.035440 1.805790 
# 
# From -- ./inp_files/205141.got.cif
#   From: 2010.06.25/outbox.cif.g09.slc.cpg/sg2_103_cif.got.tgz:205141.got - 2010.06.27 13:26:56.
