data_PCOD8040686
_publ_section_title
;
Structure prediction by ZEFSAII (Michael W. Deem and Ramdas Pophale) SiO2 
 PCOD8040686
Probable space group: P -1
;
_chemical_formula_sum "Si O2"
_cell_formula_units_Z 16
_cell_length_a 9.298138
_cell_length_b 11.862308
_cell_length_c 14.381173
_cell_angle_alpha 55.108841
_cell_angle_beta 139.829685
_cell_angle_gamma 103.644387
_cell_volume 776.221093
_symmetry_space_group_name_H-M "P -1"
_symmetry_group_IT_number 2
_symmetry_cell_setting 'triclinic'
loop_
_space_group_symop_operation_xyz
x,y,z
-x,-y,-z
loop_
_atom_site_type_symbol
_atom_site_label
_atom_site_fract_x
_atom_site_fract_y
_atom_site_fract_z
Si Si1 0.312296 0.377659 0.121938
Si Si2 0.043770 0.287718 0.180003
Si Si3 0.734317 0.609652 0.608593
Si Si4 0.263918 0.567531 0.629569
Si Si5 0.190333 0.403074 0.843265
Si Si6 0.255842 0.878666 0.948206
Si Si7 0.191082 0.201182 0.792342
Si Si8 0.575718 0.374844 0.716502
O O1 0.576811 0.333685 0.319276
O O2 0.182806 0.278717 0.154905
O O3 0.168367 0.551730 0.988825
O O4 0.342381 0.347898 0.039461
O O5 0.237044 0.263422 0.371334
O O6 0.922889 0.164736 0.188289
O O7 0.739778 0.472500 0.741378
O O8 0.496404 0.666185 0.401540
O O9 0.956808 0.548447 0.678150
O O10 0.317424 0.456217 0.796853
O O11 0.349741 0.465965 0.627632
O O12 0.983793 0.675732 0.424340
O O13 0.130986 0.265475 0.837268
O O14 0.527215 0.834692 0.067616
O O15 0.259536 0.783921 0.086557
O O16 0.134506 0.053304 0.826375
#
# Coordination Sequence:
#
# PCOD8040686 Si02
#       8
#     2   2   2   2   2   2   2   2
#     4  10  20  34  62  92 118 144 199 248 293 343
#     4  10  18  38  58  88 120 159 188 239 296 355
#     4  10  21  33  64  94 119 146 203 245 286 347
#     4  12  20  38  63  91 119 147 199 254 290 339
#     4  11  20  34  59  92 117 149 197 248 289 341
#     4  11  22  40  59  82 122 167 191 234 305 359
#     4  11  24  38  58  86 121 159 200 240 294 355
#     4  11  19  37  63  92 116 155 195 244 294 347
#
# _framework density 20.612683000000001
#
# number of rings (size 3 to 8) (size 9 to 14) (size 15 to 20)
#    0.000    1.250    5.000    3.000    0.000    1.000 
#    0.000    4.375    0.000    6.000    0.000    0.000 
#    0.000    0.000    0.000    0.000    0.000    0.000 
#
# Total GULP energy -198256.949903 kJ/mol
# GULP energy per Si atom -12391.059369 kJ/mol
# Density = 2.056577 g / cm^3
# Si number density = 20.612683 Si / 1000 Ang^3
#
#
#
# Elastic Constant Matrix: (Units=GPa)
#
#
# Indices 1 2 3 4 5 6 
#
# 1 81.1282 38.3524 18.6548 13.3881 -14.1639 -1.5568
# 2 38.3524 149.4832 47.4362 25.1342 -14.4747 7.3705
# 3 18.6548 47.4362 67.2354 22.3212 -9.6541 -8.9714
# 4 13.3881 25.1342 22.3212 40.4837 0.8723 -2.2106
# 5 -14.1639 -14.4747 -9.6541 0.8723 23.6947 10.0539
# 6 -1.5568 7.3705 -8.9714 -2.2106 10.0539 27.9797
#
#
#
# Elastic Compliance Matrix: (Units=1/GPa)
#
#
# Indices 1 2 3 4 5 6 
#
# 1 0.015633 -0.002247 -0.000513 -0.003801 0.008825 -0.002174
# 2 -0.002247 0.010589 -0.005943 -0.003072 0.005859 -0.007168
# 3 -0.000513 -0.005943 0.023507 -0.008761 0.002839 0.007362
# 4 -0.003801 -0.003072 -0.008761 0.033161 -0.010752 0.004272
# 5 0.008825 0.005859 0.002839 -0.010752 0.062571 -0.023475
# 6 -0.002174 -0.007168 0.007362 0.004272 -0.023475 0.048641
#
#
# Mechanical properties :
#
#
# Convention : Reuss Voigt Hill
#
# Bulk Modulus (GPa) = 30.93813 56.30372 43.62092
# Shear Modulus (GPa) = 22.49391 31.32518 26.90954
#
# Velocity S-wave (km/s) = 3.30701 3.90257 3.61707
# Velocity P-wave (km/s) = 5.44276 6.90515 6.21710
#
# Compressibility (1/GPa) = 0.03232257
#
# Stress axis : x y z
#
# Youngs Moduli (GPa) = 63.96829 94.43328 42.54113
#
# Poissons Ratio (x) = 0.21221 0.02183
# Poissons Ratio (y) = 0.14375 0.25282
# Poissons Ratio (z) = 0.03282 0.56121
#
# Static dielectric constant tensor:
#      x y z
#    x 3.742630 0.009850 -0.076590 
#    y 0.009850 3.915270 0.403600 
#    z -0.076590 0.403600 3.591940 
# 
# 
# High freq. dielectric constant tensor:
#      x y z
#    x 1.805820 0.004060 0.000610 
#    y 0.004060 1.793100 0.044290 
#    z 0.000610 0.044290 1.782390 
# 
# From -- ./inp_files/500214.got.cif
#   From: 2010.06.25/outbox.cif.g09.slc.cpg/sg2_251_cif.got.tgz:500214.got - 2010.06.27 13:26:56.
