data_PCOD8040813
_publ_section_title
;
Structure prediction by ZEFSAII (Michael W. Deem and Ramdas Pophale) SiO2 
 PCOD8040813
Probable space group: P -1
;
_chemical_formula_sum "Si O2"
_cell_formula_units_Z 16
_cell_length_a 20.842816
_cell_length_b 9.665004
_cell_length_c 19.134435
_cell_angle_alpha 41.820325
_cell_angle_beta 153.435061
_cell_angle_gamma 151.731417
_cell_volume 799.784059
_symmetry_space_group_name_H-M "P -1"
_symmetry_group_IT_number 2
_symmetry_cell_setting 'triclinic'
loop_
_space_group_symop_operation_xyz
x,y,z
-x,-y,-z
loop_
_atom_site_type_symbol
_atom_site_label
_atom_site_fract_x
_atom_site_fract_y
_atom_site_fract_z
Si Si1 0.259591 0.361181 0.743189
Si Si2 0.953034 0.370456 0.381687
Si Si3 0.080502 0.191362 0.775586
Si Si4 0.375204 0.289243 0.672682
Si Si5 0.038675 0.285735 0.351827
Si Si6 0.631540 0.566824 0.537931
Si Si7 0.333011 0.813553 0.345867
Si Si8 0.641489 0.737834 0.877306
O O1 0.260785 0.355043 0.831222
O O2 0.482507 0.624010 0.827656
O O3 0.118449 0.412657 0.570367
O O4 0.170243 0.051295 0.743574
O O5 0.965342 0.618971 0.323157
O O6 0.003038 0.403848 0.336277
O O7 0.725289 0.042918 0.298411
O O8 0.154414 0.150179 0.932720
O O9 0.872291 0.871235 0.664627
O O10 0.211369 0.293780 0.536935
O O11 0.453305 0.416595 0.622339
O O12 0.559032 0.489594 0.832503
O O13 0.114746 0.508627 0.278618
O O14 0.500000 0.500000 0.500000
O O15 0.595481 0.282628 0.604798
O O16 0.500000 0.000000 0.500000
O O17 0.296760 0.989643 0.205106
#
# Coordination Sequence:
#
# PCOD8040813 Si02
#       8
#     2   2   2   2   2   2   2   2
#     4  11  20  43  65  94 126 174 214 260 308 389
#     4  11  20  37  71  92 125 169 219 254 316 377
#     4  12  27  39  60 104 137 155 207 283 326 358
#     4  10  19  40  66  93 122 167 224 254 296 398
#     4  10  18  38  69  92 115 166 234 256 285 385
#     4  11  25  42  63  95 131 164 216 270 315 374
#     4  11  21  41  70  91 119 177 227 246 304 397
#     4  12  24  40  69  96 131 168 213 264 320 377
#
# _framework density 20.005400000000002
#
# number of rings (size 3 to 8) (size 9 to 14) (size 15 to 20)
#    0.000    1.000    8.750    1.500    3.500    1.000 
#    0.000    2.500    0.000    0.000    0.000    0.000 
#    0.000    0.000    0.000    0.000    0.000    0.000 
#
# Total GULP energy -198415.092013 kJ/mol
# GULP energy per Si atom -12400.943251 kJ/mol
# Density = 1.995987 g / cm^3
# Si number density = 20.005400 Si / 1000 Ang^3
#
#
#
# Elastic Constant Matrix: (Units=GPa)
#
#
# Indices 1 2 3 4 5 6 
#
# 1 99.7714 20.7952 19.9367 -0.0013 -14.7886 -8.0128
# 2 20.7952 98.8339 39.2034 -18.4996 1.9952 -11.9897
# 3 19.9367 39.2034 90.3717 -7.2425 -23.3434 -4.8410
# 4 -0.0013 -18.4996 -7.2425 18.5429 -0.6713 -5.7610
# 5 -14.7886 1.9952 -23.3434 -0.6713 19.3803 0.1681
# 6 -8.0128 -11.9897 -4.8410 -5.7610 0.1681 38.2591
#
#
#
# Elastic Compliance Matrix: (Units=1/GPa)
#
#
# Indices 1 2 3 4 5 6 
#
# 1 0.012335 -0.003915 0.001986 -0.002316 0.012117 0.001206
# 2 -0.003915 0.019150 -0.010035 0.016602 -0.016526 0.006484
# 3 0.001986 -0.010035 0.022693 -0.000065 0.029880 0.000002
# 4 -0.002316 0.016602 -0.000065 0.075420 -0.001082 0.016071
# 5 0.012117 -0.016526 0.029880 -0.001082 0.098494 0.000544
# 6 0.001206 0.006484 0.000002 0.016071 0.000544 0.030840
#
#
# Mechanical properties :
#
#
# Convention : Reuss Voigt Hill
#
# Bulk Modulus (GPa) = 33.05693 49.87195 41.46444
# Shear Modulus (GPa) = 17.06818 29.17255 23.12037
#
# Velocity S-wave (km/s) = 2.92409 3.82283 3.40326
# Velocity P-wave (km/s) = 5.28775 6.66849 6.01785
#
# Compressibility (1/GPa) = 0.03025084
#
# Stress axis : x y z
#
# Youngs Moduli (GPa) = 81.07093 52.22018 44.06580
#
# Poissons Ratio (x) = 0.20444 -0.08751
# Poissons Ratio (y) = 0.31738 0.44218
# Poissons Ratio (z) = -0.16100 0.52401
#
# Static dielectric constant tensor:
#      x y z
#    x 3.697390 0.036280 -0.300660 
#    y 0.036280 3.870640 -0.084450 
#    z -0.300660 -0.084450 3.378040 
# 
# 
# High freq. dielectric constant tensor:
#      x y z
#    x 1.786460 -0.004410 -0.025540 
#    y -0.004410 1.790110 -0.005120 
#    z -0.025540 -0.005120 1.746720 
# 
# From -- ./inp_files/557628.got.cif
#   From: 2010.06.25/outbox.cif.g09.slc.cpg/sg2_279_cif.got.tgz:557628.got - 2010.06.27 13:26:56.
