data_PCOD8040457
_publ_section_title
;
Structure prediction by ZEFSAII (Michael W. Deem and Ramdas Pophale) SiO2 
 PCOD8040457
Probable space group: P -1
;
_chemical_formula_sum "Si O2"
_cell_formula_units_Z 16
_cell_length_a 12.168863
_cell_length_b 14.330175
_cell_length_c 13.846636
_cell_angle_alpha 105.708330
_cell_angle_beta 83.486839
_cell_angle_gamma 30.840471
_cell_volume 849.948951
_symmetry_space_group_name_H-M "P -1"
_symmetry_group_IT_number 2
_symmetry_cell_setting 'triclinic'
loop_
_space_group_symop_operation_xyz
x,y,z
-x,-y,-z
loop_
_atom_site_type_symbol
_atom_site_label
_atom_site_fract_x
_atom_site_fract_y
_atom_site_fract_z
Si Si1 0.919745 0.320926 0.416928
Si Si2 0.285427 0.423464 0.309505
Si Si3 0.605279 0.002978 0.865886
Si Si4 0.753740 0.885338 0.139483
Si Si5 0.966239 0.451868 0.821966
Si Si6 0.877150 0.462853 0.166825
Si Si7 0.193785 0.708766 0.409741
Si Si8 0.558816 0.292146 0.592346
O O1 0.901375 0.422473 0.527613
O O2 0.898098 0.236203 0.452794
O O3 0.635104 0.566196 0.444052
O O4 0.232564 0.071310 0.258086
O O5 0.090163 0.527890 0.277869
O O6 0.342622 0.489208 0.289418
O O7 0.605328 0.111894 0.208844
O O8 0.835285 0.794238 0.869145
O O9 0.488171 0.996071 0.838251
O O10 0.342232 0.283070 0.013847
O O11 0.849298 0.785177 0.212049
O O12 0.052441 0.636122 0.974053
O O13 0.169126 0.383429 0.789157
O O14 0.579334 0.655076 0.289967
O O15 0.434772 0.599024 0.350447
O O16 0.897377 0.978608 0.453470
#
# Coordination Sequence:
#
# PCOD8040457 Si02
#       8
#     2   2   2   2   2   2   2   2
#     4   9  22  35  60  81 111 144 186 228 273 331
#     4  10  22  37  53  86 119 143 177 236 282 323
#     4  10  18  37  56  83 113 152 187 219 268 337
#     4  11  21  34  57  80 119 153 178 223 280 333
#     4  11  21  35  58  82 119 148 182 225 277 331
#     4  10  19  36  60  83 110 149 193 224 264 340
#     4   9  22  38  60  79 115 140 190 236 270 329
#     4  10  20  40  61  83 103 150 194 227 273 326
#
# _framework density 18.824660000000002
#
# number of rings (size 3 to 8) (size 9 to 14) (size 15 to 20)
#    0.750    1.250    2.500    2.625    5.250    0.500 
#    0.000    1.875    0.000    0.750    0.000    0.000 
#    0.000    0.000    0.000    0.000    0.000    0.000 
#
# Total GULP energy -198328.027779 kJ/mol
# GULP energy per Si atom -12395.501736 kJ/mol
# Density = 1.878181 g / cm^3
# Si number density = 18.824660 Si / 1000 Ang^3
#
#
#
# Elastic Constant Matrix: (Units=GPa)
#
#
# Indices 1 2 3 4 5 6 
#
# 1 89.2143 32.7215 53.8153 6.6479 4.4235 9.7628
# 2 32.7215 67.9188 25.9232 -1.5403 -1.1903 11.4701
# 3 53.8153 25.9232 65.1639 -8.9091 -7.8440 -7.1435
# 4 6.6479 -1.5403 -8.9091 24.1096 8.3957 3.9887
# 5 4.4235 -1.1903 -7.8440 8.3957 19.6538 7.8312
# 6 9.7628 11.4701 -7.1435 3.9887 7.8312 23.6040
#
#
#
# Elastic Compliance Matrix: (Units=1/GPa)
#
#
# Indices 1 2 3 4 5 6 
#
# 1 0.036885 -0.001442 -0.035322 -0.017565 -0.007037 -0.019942
# 2 -0.001442 0.020797 -0.008127 -0.000409 0.003753 -0.013145
# 3 -0.035322 -0.008127 0.054905 0.021753 0.008674 0.028621
# 4 -0.017565 -0.000409 0.021753 0.058370 -0.016122 0.009533
# 5 -0.007037 0.003753 0.008674 -0.016122 0.069689 -0.016685
# 6 -0.019942 -0.013145 0.028621 0.009533 -0.016685 0.069588
#
#
# Mechanical properties :
#
#
# Convention : Reuss Voigt Hill
#
# Bulk Modulus (GPa) = 43.85257 49.69078 46.77167
# Shear Modulus (GPa) = 12.26640 20.79594 16.53117
#
# Velocity S-wave (km/s) = 2.55544 3.32734 2.96660
# Velocity P-wave (km/s) = 5.66153 6.41993 6.05262
#
# Compressibility (1/GPa) = 0.02280368
#
# Stress axis : x y z
#
# Youngs Moduli (GPa) = 27.11164 48.08434 18.21326
#
# Poissons Ratio (x) = 0.06936 0.64332
# Poissons Ratio (y) = 0.03911 0.14802
# Poissons Ratio (z) = 0.95763 0.39080
#
# Static dielectric constant tensor:
#      x y z
#    x 3.325710 0.151420 -0.068840 
#    y 0.151420 3.564460 -0.118170 
#    z -0.068840 -0.118170 3.340450 
# 
# 
# High freq. dielectric constant tensor:
#      x y z
#    x 1.707390 0.011480 -0.001820 
#    y 0.011480 1.752260 -0.003490 
#    z -0.001820 -0.003490 1.708350 
# 
# From -- ./inp_files/435606.got.cif
#   From: 2010.06.25/outbox.cif.g09.slc.cpg/sg2_218_cif.got.tgz:435606.got - 2010.06.27 13:26:56.
