data_PCOD8040640
_publ_section_title
;
Structure prediction by ZEFSAII (Michael W. Deem and Ramdas Pophale) SiO2 
 PCOD8040640
Probable space group: P -1
;
_chemical_formula_sum "Si O2"
_cell_formula_units_Z 14
_cell_length_a 11.168014
_cell_length_b 20.162919
_cell_length_c 9.404112
_cell_angle_alpha 143.099161
_cell_angle_beta 127.581219
_cell_angle_gamma 30.168402
_cell_volume 615.241168
_symmetry_space_group_name_H-M "P -1"
_symmetry_group_IT_number 2
_symmetry_cell_setting 'triclinic'
loop_
_space_group_symop_operation_xyz
x,y,z
-x,-y,-z
loop_
_atom_site_type_symbol
_atom_site_label
_atom_site_fract_x
_atom_site_fract_y
_atom_site_fract_z
Si Si1 0.765915 0.339780 0.487785
Si Si2 0.543703 0.053916 0.490085
Si Si3 0.439825 0.748956 0.707016
Si Si4 0.728296 0.660261 0.014740
Si Si5 0.827642 0.864704 0.806427
Si Si6 0.871998 0.455375 0.317019
Si Si7 0.997861 0.310520 0.858162
O O1 0.500000 0.500000 0.500000
O O2 0.774458 0.218083 0.370236
O O3 0.808149 0.414980 0.764020
O O4 0.989619 0.212848 0.322782
O O5 0.459928 0.219965 0.782621
O O6 0.360350 0.124518 0.351721
O O7 0.500000 0.000000 0.500000
O O8 0.830844 0.900437 0.380625
O O9 0.596057 0.625644 0.469926
O O10 0.626779 0.628702 0.774829
O O11 0.319197 0.938701 0.923973
O O12 0.764787 0.744846 0.081322
O O13 0.000000 0.500000 0.000000
O O14 0.977290 0.730382 0.817500
O O15 0.000000 0.500000 0.500000
O O16 0.844608 0.430173 0.091606
#
# Coordination Sequence:
#
# PCOD8040640 Si02
#       7
#     2   2   2   2   2   2   2
#     4  12  24  45  72 100 134 184 225 285 337 400
#     4  10  18  37  66  95 128 163 224 286 326 377
#     4  12  24  42  69 100 138 178 229 275 343 401
#     4  11  19  37  65  98 128 169 229 288 323 386
#     4  12  23  45  70 100 139 174 229 289 334 402
#     4  12  26  44  68 103 140 181 223 278 345 410
#     4  11  23  42  66  97 136 177 225 274 340 402
#
# _framework density 22.755305
#
# number of rings (size 3 to 8) (size 9 to 14) (size 15 to 20)
#    0.000    0.571    8.571    2.143    0.000    2.857 
#    0.000    0.714    0.000    0.000    0.000    0.000 
#    0.000    0.000    0.000    0.000    0.000    0.000 
#
# Total GULP energy -173438.297496 kJ/mol
# GULP energy per Si atom -12388.449821 kJ/mol
# Density = 2.270351 g / cm^3
# Si number density = 22.755305 Si / 1000 Ang^3
#
#
#
# Elastic Constant Matrix: (Units=GPa)
#
#
# Indices 1 2 3 4 5 6 
#
# 1 74.9942 21.3172 38.0805 -5.7352 -12.2257 -7.5938
# 2 21.3172 93.3060 45.3430 3.8400 -24.7869 -9.6771
# 3 38.0805 45.3430 142.3812 -0.1778 -42.8606 -13.7129
# 4 -5.7352 3.8400 -0.1778 35.7556 -6.8725 -1.4478
# 5 -12.2257 -24.7869 -42.8606 -6.8725 42.4823 -1.6813
# 6 -7.5938 -9.6771 -13.7129 -1.4478 -1.6813 28.5112
#
#
#
# Elastic Compliance Matrix: (Units=1/GPa)
#
#
# Indices 1 2 3 4 5 6 
#
# 1 0.016095 -0.001735 -0.003242 0.003026 0.000931 0.002347
# 2 -0.001735 0.013979 -0.001880 -0.000520 0.005822 0.003695
# 3 -0.003242 -0.001880 0.012260 0.002041 0.010873 0.005140
# 4 0.003026 -0.000520 0.002041 0.030134 0.007643 0.003592
# 5 0.000931 0.005822 0.010873 0.007643 0.039813 0.010189
# 6 0.002347 0.003695 0.005140 0.003592 0.010189 0.040209
#
#
# Mechanical properties :
#
#
# Convention : Reuss Voigt Hill
#
# Bulk Modulus (GPa) = 34.94180 57.79588 46.36884
# Shear Modulus (GPa) = 28.45078 35.07919 31.76498
#
# Velocity S-wave (km/s) = 3.53978 3.93056 3.74028
# Velocity P-wave (km/s) = 5.66529 6.78624 6.25094
#
# Compressibility (1/GPa) = 0.02861902
#
# Stress axis : x y z
#
# Youngs Moduli (GPa) = 62.13248 71.53737 81.56888
#
# Poissons Ratio (x) = 0.12415 0.26444
# Poissons Ratio (y) = 0.10783 0.15332
# Poissons Ratio (z) = 0.20143 0.13446
#
# Static dielectric constant tensor:
#      x y z
#    x 5.474180 0.513910 1.436720 
#    y 0.513910 4.489300 0.770820 
#    z 1.436720 0.770820 6.212780 
# 
# 
# High freq. dielectric constant tensor:
#      x y z
#    x 1.869120 -0.003410 -0.001620 
#    y -0.003410 1.900720 0.014570 
#    z -0.001620 0.014570 1.910000 
# 
# From -- ./inp_files/219030.got.cif
#   From: 2010.06.25/outbox.cif.g09.slc.cpg/sg2_110_cif.got.tgz:219030.got - 2010.06.27 13:26:56.
