data_PCOD8040031
_publ_section_title
;
Structure prediction by ZEFSAII (Michael W. Deem and Ramdas Pophale) SiO2 
 PCOD8040031
Probable space group: P -1
;
_chemical_formula_sum "Si O2"
_cell_formula_units_Z 14
_cell_length_a 8.756359
_cell_length_b 6.540970
_cell_length_c 15.117665
_cell_angle_alpha 77.735949
_cell_angle_beta 115.183823
_cell_angle_gamma 58.852959
_cell_volume 556.294552
_symmetry_space_group_name_H-M "P -1"
_symmetry_group_IT_number 2
_symmetry_cell_setting 'triclinic'
loop_
_space_group_symop_operation_xyz
x,y,z
-x,-y,-z
loop_
_atom_site_type_symbol
_atom_site_label
_atom_site_fract_x
_atom_site_fract_y
_atom_site_fract_z
Si Si1 0.402955 0.843867 0.470867
Si Si2 0.949722 0.844890 0.804156
Si Si3 0.759471 0.938813 0.417701
Si Si4 0.432402 0.315451 0.000986
Si Si5 0.932101 0.794711 0.149722
Si Si6 0.696507 0.721657 0.833335
Si Si7 0.894166 0.415560 0.599466
O O1 0.640226 0.515659 0.531762
O O2 0.500000 0.000000 0.500000
O O3 0.203219 0.003789 0.334577
O O4 0.299780 0.843349 0.538984
O O5 0.805828 0.861878 0.847694
O O6 0.040310 0.983772 0.848469
O O7 0.181948 0.501663 0.871199
O O8 0.884392 0.643017 0.526401
O O9 0.929077 0.881197 0.387204
O O10 0.518189 0.075598 0.303691
O O11 0.388106 0.285688 0.093515
O O12 0.500000 0.500000 0.000000
O O13 0.652401 0.996579 0.042956
O O14 0.097530 0.596845 0.127214
O O15 0.009880 0.617002 0.276127
#
# Coordination Sequence:
#
# PCOD8040031 Si02
#       7
#     2   2   2   2   2   2   2
#     4  10  18  38  61  90 133 165 207 266 319 378
#     4  11  24  43  66 102 131 173 227 266 321 401
#     4  10  19  34  65  93 126 174 210 258 328 388
#     4  10  25  46  68  96 136 170 221 280 322 388
#     4  11  24  42  71  96 135 177 212 274 334 382
#     4  12  21  45  70  94 134 174 218 272 331 384
#     4  10  18  35  61  94 126 169 209 257 328 381
#
# _framework density 25.166526999999999
#
# number of rings (size 3 to 8) (size 9 to 14) (size 15 to 20)
#    0.000    1.429    5.714    1.286    0.000    3.429 
#    0.000    7.857    0.000    0.000    0.000    0.000 
#    0.000    0.000    0.000    0.000    0.000    0.000 
#
# Total GULP energy -173451.274023 kJ/mol
# GULP energy per Si atom -12389.376716 kJ/mol
# Density = 2.510925 g / cm^3
# Si number density = 25.166527 Si / 1000 Ang^3
#
#
#
# Elastic Constant Matrix: (Units=GPa)
#
#
# Indices 1 2 3 4 5 6 
#
# 1 76.4300 22.1590 41.4040 -6.7227 11.3275 -29.2939
# 2 22.1590 119.8044 18.5813 -10.6636 -5.1134 -50.2788
# 3 41.4040 18.5813 117.4380 -17.8353 6.9813 -7.5504
# 4 -6.7227 -10.6636 -17.8353 40.0426 -11.2628 -3.3745
# 5 11.3275 -5.1134 6.9813 -11.2628 41.6781 -3.6131
# 6 -29.2939 -50.2788 -7.5504 -3.3745 -3.6131 35.0270
#
#
#
# Elastic Compliance Matrix: (Units=1/GPa)
#
#
# Indices 1 2 3 4 5 6 
#
# 1 0.037047 0.022462 -0.010721 0.013720 0.003618 0.062610
# 2 0.022462 0.041577 -0.006709 0.022336 0.013137 0.080527
# 3 -0.010721 -0.006709 0.012440 0.000232 -0.001320 -0.016029
# 4 0.013720 0.022336 0.000232 0.041529 0.014450 0.049078
# 5 0.003618 0.013137 -0.001320 0.014450 0.031018 0.026190
# 6 0.062610 0.080527 -0.016029 0.049078 0.026190 0.200478
#
#
# Mechanical properties :
#
#
# Convention : Reuss Voigt Hill
#
# Bulk Modulus (GPa) = 9.88852 53.10678 31.49765
# Shear Modulus (GPa) = 12.89542 38.78473 25.84008
#
# Velocity S-wave (km/s) = 2.26609 3.92997 3.20779
# Velocity P-wave (km/s) = 3.28400 6.46072 5.12472
#
# Compressibility (1/GPa) = 0.10112735
#
# Stress axis : x y z
#
# Youngs Moduli (GPa) = 26.99254 24.05179 80.38753
#
# Poissons Ratio (x) = -0.54026 0.86187
# Poissons Ratio (y) = -0.60631 0.53933
# Poissons Ratio (z) = 0.28940 0.16137
#
# Static dielectric constant tensor:
#      x y z
#    x 5.202650 -0.944170 0.160680 
#    y -0.944170 6.584050 -0.304460 
#    z 0.160680 -0.304460 4.787680 
# 
# 
# High freq. dielectric constant tensor:
#      x y z
#    x 2.020860 -0.016250 0.013760 
#    y -0.016250 2.013150 -0.018520 
#    z 0.013760 -0.018520 2.012300 
# 
# From -- ./inp_files/494672.got.cif
#   From: 2010.06.25/outbox.cif.g09.slc.cpg/sg2_248_cif.got.tgz:494672.got - 2010.06.27 13:26:56.
