data_PCOD8040348
_publ_section_title
;
Structure prediction by ZEFSAII (Michael W. Deem and Ramdas Pophale) SiO2 
 PCOD8040348
Probable space group: P -1
;
_chemical_formula_sum "Si O2"
_cell_formula_units_Z 16
_cell_length_a 7.992603
_cell_length_b 9.236112
_cell_length_c 14.505010
_cell_angle_alpha 75.649835
_cell_angle_beta 45.839399
_cell_angle_gamma 80.777427
_cell_volume 744.072578
_symmetry_space_group_name_H-M "P -1"
_symmetry_group_IT_number 2
_symmetry_cell_setting 'triclinic'
loop_
_space_group_symop_operation_xyz
x,y,z
-x,-y,-z
loop_
_atom_site_type_symbol
_atom_site_label
_atom_site_fract_x
_atom_site_fract_y
_atom_site_fract_z
Si Si1 0.613229 0.809221 0.792307
Si Si2 0.891076 0.061682 0.726865
Si Si3 0.764009 0.970256 0.539423
Si Si4 0.788425 0.564480 0.469787
Si Si5 0.299140 0.488822 0.281679
Si Si6 0.485402 0.729387 0.419518
Si Si7 0.561079 0.766082 0.182830
Si Si8 0.289171 0.968611 0.016378
O O1 0.593309 0.870659 0.684779
O O2 0.654773 0.631990 0.797006
O O3 0.827610 0.886589 0.754673
O O4 0.365629 0.841373 0.934065
O O5 0.684304 0.148395 0.741135
O O6 0.141340 0.110448 0.578340
O O7 0.916123 0.083516 0.825777
O O8 0.636797 0.117787 0.531197
O O9 0.000000 0.000000 0.500000
O O10 0.730522 0.592336 0.595084
O O11 0.658710 0.687225 0.440755
O O12 0.715376 0.396507 0.496227
O O13 0.064124 0.582314 0.339018
O O14 0.520676 0.604691 0.175652
O O15 0.629984 0.745266 0.266030
O O16 0.759765 0.872498 0.041596
O O17 0.500000 0.000000 0.000000
#
# Coordination Sequence:
#
# PCOD8040348 Si02
#       8
#     2   2   2   2   2   2   2   2
#     4   9  16  27  48  70  99 123 163 203 246 282
#     4   9  17  28  49  73  98 131 173 199 233 299
#     4  10  15  25  50  75  96 120 167 203 241 277
#     4   9  20  28  45  70 113 127 164 194 261 295
#     4  10  19  30  46  75 104 133 153 210 255 295
#     4  10  16  31  47  74  98 139 161 204 238 301
#     4   9  16  29  51  69  98 130 165 198 250 289
#     4   8  15  31  46  74  96 130 171 203 232 295
#
# _framework density 21.503278999999999
#
# number of rings (size 3 to 8) (size 9 to 14) (size 15 to 20)
#    0.000    3.000    3.750    1.500    3.500    0.000 
#    0.000    6.250    0.000    0.000    0.000   45.500 
#    0.000    0.000    0.000    0.000    0.000    0.000 
#
# Total GULP energy -198216.337149 kJ/mol
# GULP energy per Si atom -12388.521072 kJ/mol
# Density = 2.145434 g / cm^3
# Si number density = 21.503279 Si / 1000 Ang^3
#
#
#
# Elastic Constant Matrix: (Units=GPa)
#
#
# Indices 1 2 3 4 5 6 
#
# 1 49.7949 12.6664 15.6917 -0.0330 14.1037 -15.6637
# 2 12.6664 52.6883 18.7638 20.6479 5.2517 -10.7881
# 3 15.6917 18.7638 144.1621 16.3361 13.9986 -8.9467
# 4 -0.0330 20.6479 16.3361 29.3928 -0.2370 10.9242
# 5 14.1037 5.2517 13.9986 -0.2370 10.9135 -4.8796
# 6 -15.6637 -10.7881 -8.9467 10.9242 -4.8796 30.5122
#
#
#
# Elastic Compliance Matrix: (Units=1/GPa)
#
#
# Indices 1 2 3 4 5 6 
#
# 1 0.036301 0.001259 0.001972 -0.008104 -0.043227 0.015647
# 2 0.001259 0.040696 0.002055 -0.040276 -0.012151 0.028115
# 3 0.001972 0.002055 0.009007 -0.008552 -0.012869 0.005383
# 4 -0.008104 -0.040276 -0.008552 0.085058 0.021224 -0.047967
# 5 -0.043227 -0.012151 -0.012869 0.021224 0.165192 -0.011441
# 6 0.015647 0.028115 0.005383 -0.047967 -0.011441 0.067669
#
#
# Mechanical properties :
#
#
# Convention : Reuss Voigt Hill
#
# Bulk Modulus (GPa) = 10.35456 37.87655 24.11556
# Shear Modulus (GPa) = 11.74967 27.46528 19.60747
#
# Velocity S-wave (km/s) = 2.34008 3.57775 3.02294
# Velocity P-wave (km/s) = 3.48240 5.89234 4.83977
#
# Compressibility (1/GPa) = 0.09657577
#
# Stress axis : x y z
#
# Youngs Moduli (GPa) = 27.54764 24.57214 111.01960
#
# Poissons Ratio (x) = -0.03094 -0.21890
# Poissons Ratio (y) = -0.03469 -0.22810
# Poissons Ratio (z) = -0.05432 -0.05049
#
# Static dielectric constant tensor:
#      x y z
#    x 3.374810 0.103640 0.342760 
#    y 0.103640 3.923340 -0.110480 
#    z 0.342760 -0.110480 5.229060 
# 
# 
# High freq. dielectric constant tensor:
#      x y z
#    x 1.791310 0.009630 0.024980 
#    y 0.009630 1.844740 -0.005220 
#    z 0.024980 -0.005220 1.839110 
# 
# From -- ./inp_files/492702.got.cif
#   From: 2010.06.25/outbox.cif.g09.slc.cpg/sg2_247_cif.got.tgz:492702.got - 2010.06.27 13:26:56.
