data_PCOD8040639
_publ_section_title
;
Structure prediction by ZEFSAII (Michael W. Deem and Ramdas Pophale) SiO2 
 PCOD8040639
Probable space group: P -1
;
_chemical_formula_sum "Si O2"
_cell_formula_units_Z 16
_cell_length_a 11.039466
_cell_length_b 13.918401
_cell_length_c 13.177929
_cell_angle_alpha 130.426363
_cell_angle_beta 33.443549
_cell_angle_gamma 108.002671
_cell_volume 707.708675
_symmetry_space_group_name_H-M "P -1"
_symmetry_group_IT_number 2
_symmetry_cell_setting 'triclinic'
loop_
_space_group_symop_operation_xyz
x,y,z
-x,-y,-z
loop_
_atom_site_type_symbol
_atom_site_label
_atom_site_fract_x
_atom_site_fract_y
_atom_site_fract_z
Si Si1 0.654875 0.352268 0.076207
Si Si2 0.881740 0.145473 0.967413
Si Si3 0.784275 0.540830 0.979958
Si Si4 0.248826 0.574872 0.655262
Si Si5 0.571314 0.907919 0.783931
Si Si6 0.469107 0.191081 0.961305
Si Si7 0.009447 0.303045 0.511495
Si Si8 0.335770 0.818078 0.391085
O O1 0.781211 0.437224 0.998861
O O2 0.356141 0.484419 0.411835
O O3 0.841073 0.242262 0.960730
O O4 0.641061 0.246873 0.930049
O O5 0.864161 0.245385 0.145605
O O6 0.653974 0.113039 0.113637
O O7 0.172386 0.992068 0.660915
O O8 0.508176 0.706535 0.286353
O O9 0.798576 0.476843 0.810370
O O10 0.025464 0.556596 0.845721
O O11 0.500000 0.500000 0.500000
O O12 0.828968 0.748472 0.528160
O O13 0.616260 0.008190 0.743004
O O14 0.500000 0.000000 0.000000
O O15 0.455137 0.216040 0.867813
O O16 0.180535 0.282826 0.278540
O O17 0.880858 0.210032 0.517664
#
# Coordination Sequence:
#
# PCOD8040639 Si02
#       8
#     2   2   2   2   2   2   2   2
#     4  11  22  42  72  97 120 175 218 266 313 374
#     4  11  22  44  67  94 131 165 221 267 312 378
#     4  12  26  42  64  97 135 166 215 265 319 386
#     4  10  24  47  69  90 125 172 223 268 308 373
#     4  10  18  37  66  95 123 167 210 269 313 371
#     4  11  21  37  66  98 130 171 207 257 333 374
#     4  11  20  39  61  92 136 165 209 262 315 379
#     4  12  26  39  61 103 135 168 205 265 330 389
#
# _framework density 22.608174000000002
#
# number of rings (size 3 to 8) (size 9 to 14) (size 15 to 20)
#    0.000    1.000    7.500    1.125    1.750    5.000 
#    2.250    0.625    0.000    0.000    0.000    0.000 
#    0.000    0.000    0.000    0.000    0.000    0.000 
#
# Total GULP energy -198285.107857 kJ/mol
# GULP energy per Si atom -12392.819241 kJ/mol
# Density = 2.255672 g / cm^3
# Si number density = 22.608174 Si / 1000 Ang^3
#
#
#
# Elastic Constant Matrix: (Units=GPa)
#
#
# Indices 1 2 3 4 5 6 
#
# 1 29.4986 32.5586 16.5283 3.6644 -1.8609 11.5230
# 2 32.5586 138.2767 49.4057 0.6243 -8.3419 23.0733
# 3 16.5283 49.4057 112.4219 14.6786 -4.5256 6.6403
# 4 3.6644 0.6243 14.6786 39.5238 6.7114 0.4130
# 5 -1.8609 -8.3419 -4.5256 6.7114 24.2636 5.9462
# 6 11.5230 23.0733 6.6403 0.4130 5.9462 30.4324
#
#
#
# Elastic Compliance Matrix: (Units=1/GPa)
#
#
# Indices 1 2 3 4 5 6 
#
# 1 0.050602 -0.008683 -0.002069 -0.004490 0.004945 -0.013031
# 2 -0.008683 0.011688 -0.003566 0.001381 0.003660 -0.005530
# 3 -0.002069 -0.003566 0.011351 -0.004270 0.001734 0.000730
# 4 -0.004490 0.001381 -0.004270 0.028843 -0.009386 0.003027
# 5 0.004945 0.003660 0.001734 -0.009386 0.049334 -0.014538
# 6 -0.013031 -0.005530 0.000730 0.003027 -0.014538 0.044627
#
#
# Mechanical properties :
#
#
# Convention : Reuss Voigt Hill
#
# Bulk Modulus (GPa) = 22.21955 53.02027 37.61991
# Shear Modulus (GPa) = 20.82619 30.95759 25.89189
#
# Velocity S-wave (km/s) = 3.03839 3.70443 3.38782
# Velocity P-wave (km/s) = 4.70728 6.46528 5.65501
#
# Compressibility (1/GPa) = 0.04500541
#
# Stress axis : x y z
#
# Youngs Moduli (GPa) = 19.76192 85.55967 88.10056
#
# Poissons Ratio (x) = 0.74288 0.18227
# Poissons Ratio (y) = 0.17158 0.31419
# Poissons Ratio (z) = 0.04089 0.30513
#
# Static dielectric constant tensor:
#      x y z
#    x 4.617120 -1.592790 -1.872540 
#    y -1.592790 8.093360 4.810990 
#    z -1.872540 4.810990 9.891480 
# 
# 
# High freq. dielectric constant tensor:
#      x y z
#    x 1.847390 0.020020 0.005920 
#    y 0.020020 1.902750 0.009120 
#    z 0.005920 0.009120 1.901510 
# 
# From -- ./inp_files/521643.got.cif
#   From: 2010.06.25/outbox.cif.g09.slc.cpg/sg2_261_cif.got.tgz:521643.got - 2010.06.27 13:26:56.
