data_PCOD8040819
_publ_section_title
;
Structure prediction by ZEFSAII (Michael W. Deem and Ramdas Pophale) SiO2 
 PCOD8040819
Probable space group: P -1
;
_chemical_formula_sum "Si O2"
_cell_formula_units_Z 14
_cell_length_a 11.274337
_cell_length_b 13.313051
_cell_length_c 6.814359
_cell_angle_alpha 139.719967
_cell_angle_beta 118.886263
_cell_angle_gamma 57.294625
_cell_volume 551.690473
_symmetry_space_group_name_H-M "P -1"
_symmetry_group_IT_number 2
_symmetry_cell_setting 'triclinic'
loop_
_space_group_symop_operation_xyz
x,y,z
-x,-y,-z
loop_
_atom_site_type_symbol
_atom_site_label
_atom_site_fract_x
_atom_site_fract_y
_atom_site_fract_z
Si Si1 0.157813 0.103616 0.245823
Si Si2 0.649963 0.817377 0.040774
Si Si3 0.347201 0.683972 0.161672
Si Si4 0.159346 0.749864 0.762616
Si Si5 0.641008 0.489447 0.710198
Si Si6 0.426503 0.152843 0.425269
Si Si7 0.842690 0.995929 0.343739
O O1 0.176844 0.064133 0.974391
O O2 0.166961 0.931092 0.098071
O O3 0.292189 0.171719 0.497029
O O4 0.006625 0.240287 0.368362
O O5 0.679267 0.654168 0.946890
O O6 0.622888 0.786649 0.744539
O O7 0.794731 0.872240 0.268159
O O8 0.513387 0.960786 0.219504
O O9 0.480519 0.733908 0.251927
O O10 0.265247 0.826939 0.454651
O O11 0.246518 0.642888 0.852967
O O12 0.608949 0.472388 0.891269
O O13 0.231426 0.668412 0.497864
O O14 0.500000 0.500000 0.500000
O O15 0.000000 0.000000 0.500000
#
# Coordination Sequence:
#
# PCOD8040819 Si02
#       7
#     2   2   2   2   2   2   2
#     4  10  20  39  65  95 129 165 217 264 319 374
#     4   9  19  35  66  94 122 170 215 253 323 379
#     4  11  22  39  69  96 126 168 219 261 312 381
#     4  11  24  38  66  99 125 171 215 260 321 381
#     4  12  23  42  65  92 137 173 202 265 327 379
#     4   9  18  39  67  94 118 169 218 262 314 375
#     4  10  18  38  70  93 124 168 214 267 313 374
#
# _framework density 25.376549000000001
#
# number of rings (size 3 to 8) (size 9 to 14) (size 15 to 20)
#    0.000    1.714    4.286    1.714    0.000    1.143 
#    0.000    3.571    6.286    0.000    0.000    0.000 
#    0.000    0.000    0.000    0.000    0.000    0.000 
#
# Total GULP energy -173559.948612 kJ/mol
# GULP energy per Si atom -12397.139187 kJ/mol
# Density = 2.531879 g / cm^3
# Si number density = 25.376549 Si / 1000 Ang^3
#
#
#
# Elastic Constant Matrix: (Units=GPa)
#
#
# Indices 1 2 3 4 5 6 
#
# 1 172.1739 57.3690 18.1250 3.0561 26.3229 -22.9748
# 2 57.3690 99.6508 13.3030 2.3863 27.9650 -5.6575
# 3 18.1250 13.3030 54.4363 14.4428 11.5506 -9.8467
# 4 3.0561 2.3863 14.4428 23.0043 -1.1337 1.4007
# 5 26.3229 27.9650 11.5506 -1.1337 31.8951 2.4880
# 6 -22.9748 -5.6575 -9.8467 1.4007 2.4880 55.3118
#
#
#
# Elastic Compliance Matrix: (Units=1/GPa)
#
#
# Indices 1 2 3 4 5 6 
#
# 1 0.007945 -0.003247 -0.000193 -0.000982 -0.003920 0.003135
# 2 -0.003247 0.014943 0.000338 -0.001904 -0.010672 0.000768
# 3 -0.000193 0.000338 0.026220 -0.017335 -0.010681 0.005542
# 4 -0.000982 -0.001904 -0.017335 0.055573 0.011169 -0.005598
# 5 -0.003920 -0.010672 -0.010681 0.011169 0.048764 -0.007098
# 6 0.003135 0.000768 0.005542 -0.005598 -0.007098 0.020908
#
#
# Mechanical properties :
#
#
# Convention : Reuss Voigt Hill
#
# Bulk Modulus (GPa) = 23.30734 55.98390 39.64562
# Shear Modulus (GPa) = 25.65977 37.87317 31.76647
#
# Velocity S-wave (km/s) = 3.18333 3.86741 3.54192
# Velocity P-wave (km/s) = 4.76613 6.48473 5.69068
#
# Compressibility (1/GPa) = 0.04290494
#
# Stress axis : x y z
#
# Youngs Moduli (GPa) = 125.86046 66.91969 38.13940
#
# Poissons Ratio (x) = 0.21727 0.00735
# Poissons Ratio (y) = 0.40864 -0.01288
# Poissons Ratio (z) = 0.02424 -0.02260
#
# Static dielectric constant tensor:
#      x y z
#    x 5.450190 -0.183220 0.133210 
#    y -0.183220 4.682500 -0.028560 
#    z 0.133210 -0.028560 4.446140 
# 
# 
# High freq. dielectric constant tensor:
#      x y z
#    x 2.029080 0.004060 -0.013670 
#    y 0.004060 2.009270 -0.011610 
#    z -0.013670 -0.011610 2.007090 
# 
# From -- ./inp_files/201381.got.cif
#   From: 2010.06.25/outbox.cif.g09.slc.cpg/sg2_101_cif.got.tgz:201381.got - 2010.06.27 13:26:56.
