data_PCOD8040635
_publ_section_title
;
Structure prediction by ZEFSAII (Michael W. Deem and Ramdas Pophale) SiO2 
 PCOD8040635
Probable space group: P -1
;
_chemical_formula_sum "Si O2"
_cell_formula_units_Z 16
_cell_length_a 15.459632
_cell_length_b 9.862895
_cell_length_c 9.067433
_cell_angle_alpha 62.384091
_cell_angle_beta 52.674726
_cell_angle_gamma 35.725909
_cell_volume 640.739301
_symmetry_space_group_name_H-M "P -1"
_symmetry_group_IT_number 2
_symmetry_cell_setting 'triclinic'
loop_
_space_group_symop_operation_xyz
x,y,z
-x,-y,-z
loop_
_atom_site_type_symbol
_atom_site_label
_atom_site_fract_x
_atom_site_fract_y
_atom_site_fract_z
Si Si1 0.045817 0.057072 0.216370
Si Si2 0.570332 0.878625 0.239451
Si Si3 0.053814 0.499122 0.286831
Si Si4 0.718244 0.977329 0.860200
Si Si5 0.286411 0.204884 0.557151
Si Si6 0.214486 0.589624 0.921385
Si Si7 0.519521 0.445246 0.679655
Si Si8 0.219970 0.621548 0.415649
O O1 0.192135 0.026635 0.098074
O O2 0.953938 0.164414 0.099666
O O3 0.902866 0.231603 0.395271
O O4 0.136697 0.797319 0.274148
O O5 0.621045 0.898795 0.332319
O O6 0.681998 0.617323 0.205674
O O7 0.381541 0.032111 0.400547
O O8 0.577904 0.009049 0.048268
O O9 0.137009 0.267484 0.242082
O O10 0.000000 0.500000 0.500000
O O11 0.878687 0.717127 0.278319
O O12 0.165763 0.532155 0.137690
O O13 0.634117 0.175249 0.726045
O O14 0.244172 0.423074 0.441713
O O15 0.333600 0.599771 0.851780
O O16 0.500000 0.500000 0.500000
O O17 0.599763 0.500627 0.659370
#
# Coordination Sequence:
#
# PCOD8040635 Si02
#       8
#     2   2   2   2   2   2   2   2
#     4  10  18  37  66  92 117 165 217 252 298 369
#     4  10  22  37  65  95 125 162 202 270 315 369
#     4  11  25  39  63  92 130 166 203 266 316 372
#     4  10  22  39  65  90 122 166 216 251 312 379
#     4  11  21  40  63  96 129 161 210 260 316 368
#     4  11  22  40  67  97 125 162 214 256 320 378
#     4  11  22  37  63  96 126 164 204 261 309 376
#     4  10  20  37  63  95 123 166 209 254 304 373
#
# _framework density 24.971156000000001
#
# number of rings (size 3 to 8) (size 9 to 14) (size 15 to 20)
#    0.000    1.500    3.750    0.750    3.500    3.000 
#    0.000    2.500    2.750    1.500    0.000    0.000 
#    0.000    0.000    0.000    0.000    0.000    0.000 
#
# Total GULP energy -198253.193019 kJ/mol
# GULP energy per Si atom -12390.824564 kJ/mol
# Density = 2.491432 g / cm^3
# Si number density = 24.971156 Si / 1000 Ang^3
#
#
#
# Elastic Constant Matrix: (Units=GPa)
#
#
# Indices 1 2 3 4 5 6 
#
# 1 68.8470 18.7577 17.4436 2.2969 -24.2823 -24.9266
# 2 18.7577 86.6307 28.7178 -11.0931 -4.3760 -21.2261
# 3 17.4436 28.7178 105.4981 2.4804 -12.2639 -6.9284
# 4 2.2969 -11.0931 2.4804 34.1803 1.2540 -5.1525
# 5 -24.2823 -4.3760 -12.2639 1.2540 31.6888 9.0778
# 6 -24.9266 -21.2261 -6.9284 -5.1525 9.0778 34.1985
#
#
#
# Elastic Compliance Matrix: (Units=1/GPa)
#
#
# Indices 1 2 3 4 5 6 
#
# 1 0.025289 -0.001056 -0.001265 -0.000462 0.014894 0.013498
# 2 -0.001056 0.016585 -0.004221 0.007508 -0.003525 0.010736
# 3 -0.001265 -0.004221 0.011146 -0.002625 0.003622 -0.002641
# 4 -0.000462 0.007508 -0.002625 0.033598 -0.004544 0.010059
# 5 0.014894 -0.003525 0.003622 -0.004544 0.044988 -0.003225
# 6 0.013498 0.010736 -0.002641 0.010059 -0.003225 0.047579
#
#
# Mechanical properties :
#
#
# Convention : Reuss Voigt Hill
#
# Bulk Modulus (GPa) = 25.04045 43.42377 34.23211
# Shear Modulus (GPa) = 24.32119 33.08397 28.70258
#
# Velocity S-wave (km/s) = 3.12424 3.64385 3.39400
# Velocity P-wave (km/s) = 4.80250 5.92713 5.39420
#
# Compressibility (1/GPa) = 0.03993538
#
# Stress axis : x y z
#
# Youngs Moduli (GPa) = 39.54333 60.29553 89.71497
#
# Poissons Ratio (x) = 0.06366 0.11351
# Poissons Ratio (y) = 0.04175 0.37871
# Poissons Ratio (z) = 0.05003 0.25452
#
# Static dielectric constant tensor:
#      x y z
#    x 4.630800 -0.251750 -0.190290 
#    y -0.251750 4.279660 -0.405870 
#    z -0.190290 -0.405870 4.129800 
# 
# 
# High freq. dielectric constant tensor:
#      x y z
#    x 1.985850 -0.022720 -0.018770 
#    y -0.022720 1.997840 -0.007210 
#    z -0.018770 -0.007210 1.993570 
# 
# From -- ./inp_files/333016.got.cif
#   From: 2010.06.25/outbox.cif.g09.slc.cpg/sg2_167_cif.got.tgz:333016.got - 2010.06.27 13:26:56.
