data_PCOD8040859
_publ_section_title
;
Structure prediction by ZEFSAII (Michael W. Deem and Ramdas Pophale) SiO2 
 PCOD8040859
Probable space group: P -1
;
_chemical_formula_sum "Si O2"
_cell_formula_units_Z 16
_cell_length_a 9.708553
_cell_length_b 8.918383
_cell_length_c 14.752266
_cell_angle_alpha 62.362897
_cell_angle_beta 60.995187
_cell_angle_gamma 103.715759
_cell_volume 794.440552
_symmetry_space_group_name_H-M "P -1"
_symmetry_group_IT_number 2
_symmetry_cell_setting 'triclinic'
loop_
_space_group_symop_operation_xyz
x,y,z
-x,-y,-z
loop_
_atom_site_type_symbol
_atom_site_label
_atom_site_fract_x
_atom_site_fract_y
_atom_site_fract_z
Si Si1 0.994910 0.183114 0.908936
Si Si2 0.689584 0.017551 0.341244
Si Si3 0.984926 0.056474 0.753830
Si Si4 0.975503 0.559622 0.393291
Si Si5 0.623326 0.077045 0.145048
Si Si6 0.277887 0.652852 0.633911
Si Si7 0.409967 0.787006 0.141907
Si Si8 0.555514 0.717202 0.950628
O O1 0.914814 0.093221 0.860521
O O2 0.198120 0.423940 0.767312
O O3 0.848923 0.207055 0.005818
O O4 0.000000 0.000000 0.000000
O O5 0.863901 0.999500 0.269181
O O6 0.514366 0.801408 0.506849
O O7 0.608615 0.046578 0.266001
O O8 0.774803 0.221164 0.320494
O O9 0.078681 0.279113 0.611688
O O10 0.788505 0.875242 0.817336
O O11 0.812478 0.374970 0.430206
O O12 0.000000 0.500000 0.500000
O O13 0.177986 0.657030 0.248908
O O14 0.544596 0.209713 0.103775
O O15 0.494672 0.846259 0.201327
O O16 0.483131 0.675184 0.090708
O O17 0.500000 0.000000 0.000000
O O18 0.500000 0.500000 0.000000
#
# Coordination Sequence:
#
# PCOD8040859 Si02
#       8
#     2   2   2   2   2   2   2   2
#     4  11  22  41  66  98 127 167 221 265 320 388
#     4  11  25  44  64  92 136 172 213 267 332 391
#     4  11  22  41  63  98 128 163 219 272 313 385
#     4  11  22  41  68  93 122 172 217 260 320 383
#     4  11  21  41  66  92 128 175 209 263 326 390
#     4  10  25  44  63  89 137 172 209 270 334 376
#     4  10  18  39  63  90 125 163 205 265 312 371
#     4  11  23  37  64  98 133 165 214 270 326 376
#
# _framework density 20.139959999999999
#
# number of rings (size 3 to 8) (size 9 to 14) (size 15 to 20)
#    0.000    1.250    5.000    3.000    3.500    3.500 
#    2.250    1.875    0.000    0.000    0.000    0.000 
#    0.000    0.000    0.000    0.000    0.000    0.000 
#
# Total GULP energy -198237.380330 kJ/mol
# GULP energy per Si atom -12389.836271 kJ/mol
# Density = 2.009412 g / cm^3
# Si number density = 20.139960 Si / 1000 Ang^3
#
#
#
# Elastic Constant Matrix: (Units=GPa)
#
#
# Indices 1 2 3 4 5 6 
#
# 1 111.5414 56.9890 40.2422 -8.8514 4.6924 -4.1429
# 2 56.9890 156.9447 43.2336 -8.7434 7.7989 3.9344
# 3 40.2422 43.2336 81.0339 -11.5093 -0.2452 -6.6283
# 4 -8.8514 -8.7434 -11.5093 31.0767 -1.1806 -1.0311
# 5 4.6924 7.7989 -0.2452 -1.1806 37.8963 3.8186
# 6 -4.1429 3.9344 -6.6283 -1.0311 3.8186 28.1499
#
#
#
# Elastic Compliance Matrix: (Units=1/GPa)
#
#
# Indices 1 2 3 4 5 6 
#
# 1 0.012291 -0.003264 -0.004092 0.001078 -0.000992 0.001476
# 2 -0.003264 0.008532 -0.003088 0.000210 -0.001140 -0.002238
# 3 -0.004092 -0.003088 0.016965 0.004415 0.001001 0.003850
# 4 0.001078 0.000210 0.004415 0.034283 0.000685 0.002332
# 5 -0.000992 -0.001140 0.001001 0.000685 0.027116 -0.003404
# 6 0.001476 -0.002238 0.003850 0.002332 -0.003404 0.037508
#
#
# Mechanical properties :
#
#
# Convention : Reuss Voigt Hill
#
# Bulk Modulus (GPa) = 59.16700 70.04996 64.60848
# Shear Modulus (GPa) = 30.63451 33.36159 31.99805
#
# Velocity S-wave (km/s) = 3.90434 4.07441 3.99028
# Velocity P-wave (km/s) = 7.05456 7.54927 7.30610
#
# Compressibility (1/GPa) = 0.01690131
#
# Stress axis : x y z
#
# Youngs Moduli (GPa) = 81.35995 117.20942 58.94508
#
# Poissons Ratio (x) = 0.38252 0.24119
# Poissons Ratio (y) = 0.26552 0.18202
# Poissons Ratio (z) = 0.33291 0.36193
#
# Static dielectric constant tensor:
#      x y z
#    x 3.770660 0.201520 -0.012960 
#    y 0.201520 4.338780 -0.106020 
#    z -0.012960 -0.106020 3.018830 
# 
# 
# High freq. dielectric constant tensor:
#      x y z
#    x 1.783820 0.006310 -0.006840 
#    y 0.006310 1.787050 0.002130 
#    z -0.006840 0.002130 1.784910 
# 
# From -- ./inp_files/327517.got.cif
#   From: 2010.06.25/outbox.cif.g09.slc.cpg/sg2_164_cif.got.tgz:327517.got - 2010.06.27 13:26:56.
