data_PCOD8040562
_publ_section_title
;
Structure prediction by ZEFSAII (Michael W. Deem and Ramdas Pophale) SiO2 
 PCOD8040562
Probable space group: P -1
;
_chemical_formula_sum "Si O2"
_cell_formula_units_Z 16
_cell_length_a 9.141498
_cell_length_b 22.660467
_cell_length_c 22.611630
_cell_angle_alpha 17.295670
_cell_angle_beta 37.262328
_cell_angle_gamma 34.900974
_cell_volume 794.508670
_symmetry_space_group_name_H-M "P -1"
_symmetry_group_IT_number 2
_symmetry_cell_setting 'triclinic'
loop_
_space_group_symop_operation_xyz
x,y,z
-x,-y,-z
loop_
_atom_site_type_symbol
_atom_site_label
_atom_site_fract_x
_atom_site_fract_y
_atom_site_fract_z
Si Si1 0.311555 0.798604 0.917852
Si Si2 0.950732 0.438165 0.162394
Si Si3 0.211503 0.694046 0.267552
Si Si4 0.318165 0.239118 0.675176
Si Si5 0.599176 0.955110 0.576945
Si Si6 0.243761 0.038660 0.009333
Si Si7 0.684722 0.363322 0.211413
Si Si8 0.482681 0.172875 0.049483
O O1 0.385967 0.911316 0.729307
O O2 0.466670 0.847871 0.876791
O O3 0.006416 0.873765 0.952307
O O4 0.407756 0.545859 0.119494
O O5 0.778777 0.336763 0.274581
O O6 0.145810 0.248356 0.317438
O O7 0.758534 0.624079 0.086218
O O8 0.103591 0.564279 0.958036
O O9 0.393924 0.449866 0.449152
O O10 0.914389 0.717900 0.337844
O O11 0.257999 0.811833 0.197658
O O12 0.268744 0.800940 0.087099
O O13 0.549107 0.040155 0.764355
O O14 0.233452 0.201297 0.804434
O O15 0.500000 0.000000 0.500000
O O16 0.671815 0.147639 0.396049
O O17 0.500000 0.000000 0.000000
#
# Coordination Sequence:
#
# PCOD8040562 Si02
#       8
#     2   2   2   2   2   2   2   2
#     4  10  21  39  63  86 116 166 200 237 308 352
#     4   9  20  37  64  90 113 152 196 249 299 349
#     4  10  20  37  62  91 119 154 203 245 295 351
#     4  10  20  37  63  88 121 156 197 251 292 349
#     4  11  24  42  59  89 123 156 199 248 300 364
#     4  11  22  41  59  87 130 163 195 243 292 360
#     4   9  20  40  63  86 115 149 201 253 292 351
#     4  10  18  37  62  91 120 151 202 248 293 349
#
# _framework density 20.138231000000001
#
# number of rings (size 3 to 8) (size 9 to 14) (size 15 to 20)
#    0.000    2.000    2.500    1.875    0.000    6.500 
#   11.250    0.000    0.000    0.000    0.000    0.000 
#    0.000    0.000    0.000    0.000    0.000    0.000 
#
# Total GULP energy -198323.769623 kJ/mol
# GULP energy per Si atom -12395.235601 kJ/mol
# Density = 2.009240 g / cm^3
# Si number density = 20.138231 Si / 1000 Ang^3
#
#
#
# Elastic Constant Matrix: (Units=GPa)
#
#
# Indices 1 2 3 4 5 6 
#
# 1 96.4722 40.7728 38.4818 -1.2833 6.9620 -9.0036
# 2 40.7728 110.1054 29.6690 -12.7990 8.4156 -7.4169
# 3 38.4818 29.6690 88.2510 -19.9991 9.8400 2.7560
# 4 -1.2833 -12.7990 -19.9991 33.4171 3.7137 3.7743
# 5 6.9620 8.4156 9.8400 3.7137 22.8692 1.9659
# 6 -9.0036 -7.4169 2.7560 3.7743 1.9659 24.8643
#
#
#
# Elastic Compliance Matrix: (Units=1/GPa)
#
#
# Indices 1 2 3 4 5 6 
#
# 1 0.015270 -0.004111 -0.006784 -0.005739 0.000208 0.005910
# 2 -0.004111 0.011694 -0.000912 0.003959 -0.003455 0.001773
# 3 -0.006784 -0.000912 0.018198 0.011715 -0.006817 -0.005985
# 4 -0.005739 0.003959 0.011715 0.040258 -0.010646 -0.007465
# 5 0.000208 -0.003455 -0.006817 -0.010646 0.049814 -0.002522
# 6 0.005910 0.001773 -0.005985 -0.007465 -0.002522 0.044883
#
#
# Mechanical properties :
#
#
# Convention : Reuss Voigt Hill
#
# Bulk Modulus (GPa) = 46.41027 56.96397 51.68712
# Shear Modulus (GPa) = 23.70638 28.62378 26.16508
#
# Velocity S-wave (km/s) = 3.43473 3.77419 3.60845
# Velocity P-wave (km/s) = 6.23103 6.88045 6.56378
#
# Compressibility (1/GPa) = 0.02154695
#
# Stress axis : x y z
#
# Youngs Moduli (GPa) = 65.48894 85.51422 54.95117
#
# Poissons Ratio (x) = 0.35157 0.37282
# Poissons Ratio (y) = 0.26924 0.05010
# Poissons Ratio (z) = 0.44431 0.07796
#
# Static dielectric constant tensor:
#      x y z
#    x 3.352510 -0.024160 0.024450 
#    y -0.024160 3.971410 -0.292220 
#    z 0.024450 -0.292220 3.750540 
# 
# 
# High freq. dielectric constant tensor:
#      x y z
#    x 1.754630 -0.000650 0.003440 
#    y -0.000650 1.795740 -0.016190 
#    z 0.003440 -0.016190 1.787640 
# 
# From -- ./inp_files/591579.got.cif
#   From: 2010.06.25/outbox.cif.g09.slc.cpg/sg2_296_cif.got.tgz:591579.got - 2010.06.27 13:26:56.
