data_PCOD8040691
_publ_section_title
;
Structure prediction by ZEFSAII (Michael W. Deem and Ramdas Pophale) SiO2 
 PCOD8040691
Probable space group: P -1
;
_chemical_formula_sum "Si O2"
_cell_formula_units_Z 16
_cell_length_a 23.607068
_cell_length_b 15.306695
_cell_length_c 9.314631
_cell_angle_alpha 157.340293
_cell_angle_beta 33.495468
_cell_angle_gamma 152.367059
_cell_volume 598.885188
_symmetry_space_group_name_H-M "P -1"
_symmetry_group_IT_number 2
_symmetry_cell_setting 'triclinic'
loop_
_space_group_symop_operation_xyz
x,y,z
-x,-y,-z
loop_
_atom_site_type_symbol
_atom_site_label
_atom_site_fract_x
_atom_site_fract_y
_atom_site_fract_z
Si Si1 0.509311 0.858627 0.111953
Si Si2 0.910302 0.797456 0.767377
Si Si3 0.115599 0.929607 0.024982
Si Si4 0.868002 0.208363 0.778890
Si Si5 0.611895 0.063635 0.759667
Si Si6 0.652530 0.746017 0.399469
Si Si7 0.743155 0.226371 0.342318
Si Si8 0.149506 0.431542 0.863764
O O1 0.431729 0.966275 0.360206
O O2 0.596928 0.051687 0.351207
O O3 0.589276 0.828953 0.779113
O O4 0.405871 0.571473 0.961356
O O5 0.790181 0.542261 0.707270
O O6 0.988218 0.689721 0.358107
O O7 0.867850 0.948659 0.983700
O O8 0.000000 0.000000 0.000000
O O9 0.977363 0.662765 0.928282
O O10 0.146980 0.161918 0.426603
O O11 0.215060 0.843732 0.702197
O O12 0.796848 0.922589 0.405671
O O13 0.813854 0.152941 0.968138
O O14 0.841929 0.414831 0.067672
O O15 0.641005 0.840717 0.407614
O O16 0.730266 0.371085 0.996072
O O17 0.500000 0.000000 0.000000
#
# Coordination Sequence:
#
# PCOD8040691 Si02
#       8
#     2   2   2   2   2   2   2   2
#     4   9  18  29  50  83 118 146 175 226 290 330
#     4  12  26  41  57  81 115 156 195 241 293 339
#     4  11  23  34  59  84 113 152 192 237 288 338
#     4  10  18  38  59  84 120 145 189 235 284 341
#     4   9  18  28  46  81 127 144 172 224 286 339
#     4   8  17  28  48  80 112 147 174 222 276 335
#     4  11  22  38  60  87 121 146 191 240 283 346
#     4  10  19  34  58  92 116 148 190 236 285 338
#
# _framework density 26.716308000000001
#
# number of rings (size 3 to 8) (size 9 to 14) (size 15 to 20)
#    0.000    2.000    2.500    2.625    8.750    0.500 
#    0.000    0.000    0.000    0.750    0.000    2.625 
#    0.000    0.000    0.000    0.000    0.000    0.000 
#
# Total GULP energy -198422.310279 kJ/mol
# GULP energy per Si atom -12401.394392 kJ/mol
# Density = 2.665550 g / cm^3
# Si number density = 26.716308 Si / 1000 Ang^3
#
#
#
# Elastic Constant Matrix: (Units=GPa)
#
#
# Indices 1 2 3 4 5 6 
#
# 1 199.2231 57.2537 44.4098 29.7613 -14.9361 13.0535
# 2 57.2537 153.5624 54.6897 25.1382 -11.8562 52.7469
# 3 44.4098 54.6897 48.1515 41.1066 0.3383 -12.4506
# 4 29.7613 25.1382 41.1066 51.7047 -3.2277 1.4580
# 5 -14.9361 -11.8562 0.3383 -3.2277 39.9290 16.6986
# 6 13.0535 52.7469 -12.4506 1.4580 16.6986 29.3291
#
#
#
# Elastic Compliance Matrix: (Units=1/GPa)
#
#
# Indices 1 2 3 4 5 6 
#
# 1 0.005957 -0.002755 0.000290 -0.002376 0.000200 0.002430
# 2 -0.002755 0.000281 0.013474 -0.009949 -0.006255 0.010497
# 3 0.000290 0.013474 0.000867 -0.005338 0.017841 -0.033885
# 4 -0.002376 -0.009949 -0.005338 0.028547 -0.010335 0.021150
# 5 0.000200 -0.006255 0.017841 -0.010335 0.018671 0.008619
# 6 0.002430 0.010497 -0.033885 0.021150 0.008619 -0.006207
#
#
# Mechanical properties :
#
#
# Convention : Reuss Voigt Hill
#
# Bulk Modulus (GPa) = 34.33783 79.29371 56.81577
# Shear Modulus (GPa) = 139.64224 40.49814 90.07019
#
# Velocity S-wave (km/s) = 7.23754 3.89763 5.81264
# Velocity P-wave (km/s) = 9.09524 7.07104 8.14626
#
# Compressibility (1/GPa) = 0.02912240
#
# Stress axis : x y z
#
# Youngs Moduli (GPa) = 167.86292 3562.82928 1153.34286
#
# Poissons Ratio (x) = 9.81417 -0.33424
# Poissons Ratio (y) = 0.46240 -15.53958
# Poissons Ratio (z) = -0.04865 -48.00384
#
# Static dielectric constant tensor:
#      x y z
#    x 5.196860 0.142860 -0.025170 
#    y 0.142860 5.303480 0.141340 
#    z -0.025170 0.141340 4.607380 
# 
# 
# High freq. dielectric constant tensor:
#      x y z
#    x 2.082390 0.006560 0.000890 
#    y 0.006560 2.106290 -0.001490 
#    z 0.000890 -0.001490 2.069970 
# 
# From -- ./inp_files/439307.got.cif
#   From: 2010.06.25/outbox.cif.g09.slc.cpg/sg2_220_cif.got.tgz:439307.got - 2010.06.27 13:26:56.
