data_PCOD8040661
_publ_section_title
;
Structure prediction by ZEFSAII (Michael W. Deem and Ramdas Pophale) SiO2 
 PCOD8040661
Probable space group: P -1
;
_chemical_formula_sum "Si O2"
_cell_formula_units_Z 16
_cell_length_a 7.566337
_cell_length_b 19.291419
_cell_length_c 16.708128
_cell_angle_alpha 157.510118
_cell_angle_beta 42.553073
_cell_angle_gamma 136.155809
_cell_volume 623.072350
_symmetry_space_group_name_H-M "P -1"
_symmetry_group_IT_number 2
_symmetry_cell_setting 'triclinic'
loop_
_space_group_symop_operation_xyz
x,y,z
-x,-y,-z
loop_
_atom_site_type_symbol
_atom_site_label
_atom_site_fract_x
_atom_site_fract_y
_atom_site_fract_z
Si Si1 0.672409 0.487807 0.851857
Si Si2 0.606451 0.713722 0.691246
Si Si3 0.919416 0.195390 0.002998
Si Si4 0.594272 0.816870 0.622350
Si Si5 0.732678 0.494685 0.131471
Si Si6 0.501129 0.856017 0.075780
Si Si7 0.016072 0.713764 0.733540
Si Si8 0.143261 0.874185 0.643272
O O1 0.515625 0.520695 0.859928
O O2 0.754298 0.287110 0.611780
O O3 0.926488 0.647525 0.937823
O O4 0.500000 0.500000 0.000000
O O5 0.500000 0.500000 0.500000
O O6 0.398973 0.812543 0.916733
O O7 0.613598 0.780769 0.669778
O O8 0.916637 0.778881 0.681778
O O9 0.962257 0.242689 0.133029
O O10 0.012359 0.995766 0.749297
O O11 0.744574 0.677715 0.375156
O O12 0.276940 0.803185 0.692603
O O13 0.693300 0.028945 0.787936
O O14 0.696039 0.316912 0.009946
O O15 0.000000 0.500000 0.000000
O O16 0.616398 0.993553 0.255246
O O17 0.742452 0.781440 0.866838
O O18 0.000000 0.500000 0.500000
#
# Coordination Sequence:
#
# PCOD8040661 Si02
#       8
#     2   2   2   2   2   2   2   2
#     4  12  25  46  73  99 136 193 238 285 349 415
#     4  11  24  44  72 107 149 182 220 288 353 425
#     4  10  22  44  66 102 144 177 227 281 351 411
#     4  11  24  44  69 106 139 181 228 286 357 413
#     4  12  27  49  70 101 142 183 242 297 346 405
#     4  11  23  45  72 102 138 184 229 289 351 419
#     4  10  18  37  69 101 138 176 217 279 351 423
#     4  11  23  45  72  98 142 181 228 285 344 424
#
# _framework density 25.679203000000001
#
# number of rings (size 3 to 8) (size 9 to 14) (size 15 to 20)
#    0.000    1.000    6.250    0.750    1.750    1.000 
#   11.250    0.000    0.000    0.000    0.000    0.000 
#    0.000    0.000    0.000    0.000    0.000    0.000 
#
# Total GULP energy -198410.783766 kJ/mol
# GULP energy per Si atom -12400.673985 kJ/mol
# Density = 2.562076 g / cm^3
# Si number density = 25.679203 Si / 1000 Ang^3
#
#
#
# Elastic Constant Matrix: (Units=GPa)
#
#
# Indices 1 2 3 4 5 6 
#
# 1 70.6661 14.5035 26.7753 6.7286 -25.0939 4.2065
# 2 14.5035 142.0592 104.5544 -14.9037 -12.4976 -1.6562
# 3 26.7753 104.5544 228.7781 14.4209 -25.3973 -3.9971
# 4 6.7286 -14.9037 14.4209 50.7263 -3.4113 -14.0796
# 5 -25.0939 -12.4976 -25.3973 -3.4113 33.1305 5.9336
# 6 4.2065 -1.6562 -3.9971 -14.0796 5.9336 31.8222
#
#
#
# Elastic Compliance Matrix: (Units=1/GPa)
#
#
# Indices 1 2 3 4 5 6 
#
# 1 0.021133 -0.001313 0.000096 -0.004276 0.016547 -0.007827
# 2 -0.001313 0.012017 -0.005757 0.006100 -0.000769 0.002918
# 3 0.000096 -0.005757 0.007625 -0.004145 0.003655 -0.001870
# 4 -0.004276 0.006100 -0.004145 0.026556 -0.003673 0.012797
# 5 0.016547 -0.000769 0.003655 -0.003673 0.047028 -0.012162
# 6 -0.007827 0.002918 -0.001870 0.012797 -0.012162 0.040306
#
#
# Mechanical properties :
#
#
# Convention : Reuss Voigt Hill
#
# Bulk Modulus (GPa) = 37.27449 81.46333 59.36891
# Shear Modulus (GPa) = 28.16043 42.84715 35.50379
#
# Velocity S-wave (km/s) = 3.31512 4.08923 3.72235
# Velocity P-wave (km/s) = 5.40373 7.35446 6.45323
#
# Compressibility (1/GPa) = 0.02682800
#
# Stress axis : x y z
#
# Youngs Moduli (GPa) = 47.31975 83.21725 131.14479
#
# Poissons Ratio (x) = 0.10922 -0.01262
# Poissons Ratio (y) = 0.06211 0.75501
# Poissons Ratio (z) = -0.00455 0.47909
#
# Static dielectric constant tensor:
#      x y z
#    x 5.775350 0.541640 -0.314830 
#    y 0.541640 5.002430 0.241130 
#    z -0.314830 0.241130 4.951140 
# 
# 
# High freq. dielectric constant tensor:
#      x y z
#    x 2.066900 -0.002120 0.002810 
#    y -0.002120 2.011580 0.022110 
#    z 0.002810 0.022110 2.045600 
# 
# From -- ./inp_files/521472.got.cif
#   From: 2010.06.25/outbox.cif.g09.slc.cpg/sg2_261_cif.got.tgz:521472.got - 2010.06.27 13:26:56.
