data_PCOD8040300
_publ_section_title
;
Structure prediction by ZEFSAII (Michael W. Deem and Ramdas Pophale) SiO2 
 PCOD8040300
Probable space group: P -1
;
_chemical_formula_sum "Si O2"
_cell_formula_units_Z 16
_cell_length_a 12.144783
_cell_length_b 14.401893
_cell_length_c 14.507832
_cell_angle_alpha 42.854881
_cell_angle_beta 29.231330
_cell_angle_gamma 52.152347
_cell_volume 840.196353
_symmetry_space_group_name_H-M "P -1"
_symmetry_group_IT_number 2
_symmetry_cell_setting 'triclinic'
loop_
_space_group_symop_operation_xyz
x,y,z
-x,-y,-z
loop_
_atom_site_type_symbol
_atom_site_label
_atom_site_fract_x
_atom_site_fract_y
_atom_site_fract_z
Si Si1 0.741174 0.484324 0.670064
Si Si2 0.467822 0.249691 0.322776
Si Si3 0.701570 0.695272 0.183474
Si Si4 0.443399 0.096987 0.733802
Si Si5 0.114279 0.146373 0.789136
Si Si6 0.658936 0.209651 0.020796
Si Si7 0.456004 0.479201 0.405062
Si Si8 0.771847 0.261844 0.260852
O O1 0.603608 0.595536 0.742212
O O2 0.721147 0.508951 0.557474
O O3 0.000000 0.500000 0.500000
O O4 0.615881 0.335434 0.894065
O O5 0.266031 0.147474 0.585608
O O6 0.497570 0.198705 0.234793
O O7 0.690363 0.238397 0.231524
O O8 0.589845 0.837394 0.188931
O O9 0.560613 0.630651 0.246970
O O10 0.684450 0.587323 0.358363
O O11 0.959525 0.725605 0.942250
O O12 0.276886 0.186571 0.727167
O O13 0.689675 0.132768 0.481921
O O14 0.376548 0.934383 0.903301
O O15 0.914976 0.244735 0.846043
O O16 0.000000 0.000000 0.000000
O O17 0.668414 0.395862 0.280576
#
# Coordination Sequence:
#
# PCOD8040300 Si02
#       8
#     2   2   2   2   2   2   2   2
#     4  11  22  38  55  76 112 142 181 226 265 322
#     4  10  20  33  52  80 104 146 183 212 271 324
#     4  10  18  36  61  79 108 138 175 227 275 308
#     4   9  20  32  50  83 108 137 182 217 263 323
#     4   9  18  32  50  78 112 139 175 219 264 314
#     4  11  21  34  52  74 114 148 176 221 266 320
#     4   9  21  36  56  86 104 137 184 221 265 323
#     4   9  18  32  56  80 109 134 175 228 267 311
#
# _framework density 19.043167
#
# number of rings (size 3 to 8) (size 9 to 14) (size 15 to 20)
#    0.000    2.250    1.250    2.250    1.750    6.500 
#    0.000    0.625    0.000    0.750    0.000    0.000 
#    0.000    0.000    0.000    0.000    0.000    0.000 
#
# Total GULP energy -198306.898445 kJ/mol
# GULP energy per Si atom -12394.181153 kJ/mol
# Density = 1.899982 g / cm^3
# Si number density = 19.043167 Si / 1000 Ang^3
#
#
#
# Elastic Constant Matrix: (Units=GPa)
#
#
# Indices 1 2 3 4 5 6 
#
# 1 54.1758 23.6959 19.4677 0.7577 -5.7752 10.0590
# 2 23.6959 67.3709 28.2570 -9.5770 -7.4174 16.6228
# 3 19.4677 28.2570 105.2357 0.6689 -9.7928 2.1653
# 4 0.7577 -9.5770 0.6689 30.9743 -1.7099 -1.5953
# 5 -5.7752 -7.4174 -9.7928 -1.7099 23.5708 -0.9646
# 6 10.0590 16.6228 2.1653 -1.5953 -0.9646 27.0534
#
#
#
# Elastic Compliance Matrix: (Units=1/GPa)
#
#
# Indices 1 2 3 4 5 6 
#
# 1 0.023121 -0.006089 -0.002304 -0.002509 0.002416 -0.004733
# 2 -0.006089 0.023008 -0.004504 0.007013 0.003937 -0.010959
# 3 -0.002304 -0.004504 0.011346 -0.001288 0.002750 0.002738
# 4 -0.002509 0.007013 -0.001288 0.034680 0.003528 -0.001102
# 5 0.002416 0.003937 0.002750 0.003528 0.045585 -0.001704
# 6 -0.004733 -0.010959 0.002738 -0.001102 -0.001704 0.045113
#
#
# Mechanical properties :
#
#
# Convention : Reuss Voigt Hill
#
# Bulk Modulus (GPa) = 31.56454 41.06929 36.31691
# Shear Modulus (GPa) = 22.80939 26.67714 24.74327
#
# Velocity S-wave (km/s) = 3.46464 3.74689 3.60853
# Velocity P-wave (km/s) = 5.71106 6.35076 6.03939
#
# Compressibility (1/GPa) = 0.03168112
#
# Stress axis : x y z
#
# Youngs Moduli (GPa) = 43.25087 43.46249 88.13681
#
# Poissons Ratio (x) = 0.26462 0.20308
# Poissons Ratio (y) = 0.26333 0.39700
# Poissons Ratio (z) = 0.09966 0.19577
#
# Static dielectric constant tensor:
#      x y z
#    x 3.832190 -0.173440 -0.193760 
#    y -0.173440 3.628890 -0.040650 
#    z -0.193760 -0.040650 3.638000 
# 
# 
# High freq. dielectric constant tensor:
#      x y z
#    x 1.707500 0.017800 -0.002510 
#    y 0.017800 1.731120 -0.004740 
#    z -0.002510 -0.004740 1.753020 
# 
# From -- ./inp_files/94679.got.cif
#   From: 2010.06.25/outbox.cif.g09.slc.cpg/sg2_48_cif.got.tgz:94679.got - 2010.06.27 13:26:56.
