data_PCOD8040224
_publ_section_title
;
Structure prediction by ZEFSAII (Michael W. Deem and Ramdas Pophale) SiO2 
 PCOD8040224
Probable space group: P -1
;
_chemical_formula_sum "Si O2"
_cell_formula_units_Z 14
_cell_length_a 10.366836
_cell_length_b 16.839441
_cell_length_c 7.643114
_cell_angle_alpha 110.187641
_cell_angle_beta 64.143907
_cell_angle_gamma 56.530451
_cell_volume 626.638317
_symmetry_space_group_name_H-M "P -1"
_symmetry_group_IT_number 2
_symmetry_cell_setting 'triclinic'
loop_
_space_group_symop_operation_xyz
x,y,z
-x,-y,-z
loop_
_atom_site_type_symbol
_atom_site_label
_atom_site_fract_x
_atom_site_fract_y
_atom_site_fract_z
Si Si1 0.496338 0.845592 0.709964
Si Si2 0.961840 0.119422 0.120932
Si Si3 0.598665 0.711497 0.892608
Si Si4 0.930267 0.396095 0.404446
Si Si5 0.205763 0.660304 0.846100
Si Si6 0.044420 0.652855 0.272120
Si Si7 0.519744 0.694021 0.288549
O O1 0.438742 0.833060 0.924661
O O2 0.551516 0.745402 0.462599
O O3 0.740697 0.787868 0.519413
O O4 0.232464 0.026070 0.958670
O O5 0.890754 0.197860 0.036829
O O6 0.713924 0.257203 0.497020
O O7 0.000000 0.000000 0.000000
O O8 0.676783 0.579178 0.680061
O O9 0.835933 0.654933 0.755271
O O10 0.442550 0.778423 0.216920
O O11 0.959970 0.324637 0.160328
O O12 0.915296 0.341871 0.543794
O O13 0.500000 0.500000 0.500000
O O14 0.150768 0.672648 0.093505
O O15 0.204762 0.487536 0.024262
#
# Coordination Sequence:
#
# PCOD8040224 Si02
#       7
#     2   2   2   2   2   2   2
#     4  10  20  36  60  85 123 158 193 249 296 352
#     4  10  24  41  56  89 127 155 201 245 296 365
#     4   9  18  35  62  91 120 155 195 247 300 342
#     4   9  20  36  59  96 120 145 208 253 279 359
#     4  12  23  40  63  87 120 165 197 246 303 347
#     4  10  20  37  62  90 112 157 203 247 295 345
#     4  10  18  36  58  89 122 156 204 236 290 363
#
# _framework density 22.341436000000002
#
# number of rings (size 3 to 8) (size 9 to 14) (size 15 to 20)
#    0.000    2.000    1.429    3.000    2.000    1.714 
#    0.000    5.714    0.000    0.000    0.000    0.000 
#    0.000    0.000    0.000    0.000    0.000    0.000 
#
# Total GULP energy -173495.277637 kJ/mol
# GULP energy per Si atom -12392.519831 kJ/mol
# Density = 2.229059 g / cm^3
# Si number density = 22.341436 Si / 1000 Ang^3
#
#
#
# Elastic Constant Matrix: (Units=GPa)
#
#
# Indices 1 2 3 4 5 6 
#
# 1 18.8631 -2.3420 2.8804 7.0883 5.0794 1.4857
# 2 -2.3420 152.2510 37.5235 -18.5042 -9.9259 -2.6903
# 3 2.8804 37.5235 60.2488 -14.1046 -25.9191 -9.6466
# 4 7.0883 -18.5042 -14.1046 45.4166 -9.1410 -0.9283
# 5 5.0794 -9.9259 -25.9191 -9.1410 30.3307 1.1735
# 6 1.4857 -2.6903 -9.6466 -0.9283 1.1735 27.1399
#
#
#
# Elastic Compliance Matrix: (Units=1/GPa)
#
#
# Indices 1 2 3 4 5 6 
#
# 1 0.101351 0.003948 -0.054216 -0.046646 -0.075189 -0.022772
# 2 0.003948 0.008114 -0.007823 -0.000755 -0.004841 -0.002009
# 3 -0.054216 -0.007823 0.074957 0.045879 0.083364 0.026800
# 4 -0.046646 -0.000755 0.045879 0.056295 0.063041 0.017985
# 5 -0.075189 -0.004841 0.083364 0.063041 0.133067 0.029669
# 6 -0.022772 -0.002009 0.026800 0.017985 0.029669 0.046751
#
#
# Mechanical properties :
#
#
# Convention : Reuss Voigt Hill
#
# Bulk Modulus (GPa) = 14.65461 34.16521 24.40991
# Shear Modulus (GPa) = 8.93711 33.46420 21.20065
#
# Velocity S-wave (km/s) = 2.00223 3.87441 3.08383
# Velocity P-wave (km/s) = 3.45237 5.94477 4.86102
#
# Compressibility (1/GPa) = 0.06823792
#
# Stress axis : x y z
#
# Youngs Moduli (GPa) = 9.86670 123.24303 13.34099
#
# Poissons Ratio (x) = -0.48652 0.72330
# Poissons Ratio (y) = -0.03895 0.10437
# Poissons Ratio (z) = 0.53494 0.96417
#
# Static dielectric constant tensor:
#      x y z
#    x 3.863470 -0.281360 -0.253040 
#    y -0.281360 4.300860 -0.188600 
#    z -0.253040 -0.188600 4.423350 
# 
# 
# High freq. dielectric constant tensor:
#      x y z
#    x 1.859810 -0.014450 -0.014880 
#    y -0.014450 1.888580 -0.014330 
#    z -0.014880 -0.014330 1.868220 
# 
# From -- ./inp_files/181499.got.cif
#   From: 2010.06.25/outbox.cif.g09.slc.cpg/sg2_91_cif.got.tgz:181499.got - 2010.06.27 13:26:56.
