data_PCOD8040944
_publ_section_title
;
Structure prediction by ZEFSAII (Michael W. Deem and Ramdas Pophale) SiO2 
 PCOD8040944
Probable space group: P -1
;
_chemical_formula_sum "Si O2"
_cell_formula_units_Z 16
_cell_length_a 18.434032
_cell_length_b 8.168901
_cell_length_c 24.805536
_cell_angle_alpha 137.964238
_cell_angle_beta 160.130223
_cell_angle_gamma 35.326027
_cell_volume 728.348654
_symmetry_space_group_name_H-M "P -1"
_symmetry_group_IT_number 2
_symmetry_cell_setting 'triclinic'
loop_
_space_group_symop_operation_xyz
x,y,z
-x,-y,-z
loop_
_atom_site_type_symbol
_atom_site_label
_atom_site_fract_x
_atom_site_fract_y
_atom_site_fract_z
Si Si1 0.957662 0.834599 0.838856
Si Si2 0.777184 0.591144 0.992639
Si Si3 0.319944 0.149160 0.633889
Si Si4 0.036409 0.394191 0.325949
Si Si5 0.147572 0.257163 0.085268
Si Si6 0.868938 0.310807 0.299743
Si Si7 0.506708 0.242674 0.975625
Si Si8 0.520145 0.680888 0.320945
O O1 0.879662 0.808917 0.717401
O O2 0.704991 0.016049 0.741041
O O3 0.152265 0.521976 0.924107
O O4 0.115707 0.989735 0.986395
O O5 0.577723 0.534114 0.809776
O O6 0.047908 0.396240 0.107532
O O7 0.673472 0.923756 0.991337
O O8 0.242295 0.357357 0.681985
O O9 0.378898 0.284073 0.656780
O O10 0.086677 0.111895 0.445868
O O11 0.560844 0.846014 0.742081
O O12 0.255325 0.453210 0.510764
O O13 0.985765 0.245579 0.305073
O O14 0.777058 0.683540 0.198567
O O15 0.000000 0.500000 0.000000
O O16 0.646503 0.240727 0.128654
O O17 0.500000 0.500000 0.000000
#
# Coordination Sequence:
#
# PCOD8040944 Si02
#       8
#     2   2   2   2   2   2   2   2
#     4  11  21  42  64  95 128 161 210 256 313 382
#     4  11  23  41  67  91 125 169 210 259 312 378
#     4  10  18  40  64  90 124 166 208 261 305 374
#     4  10  22  37  66  90 131 163 203 264 311 369
#     4  11  23  36  68  96 125 169 211 257 313 368
#     4   9  21  37  64  89 125 167 207 257 312 363
#     4  10  23  41  61  89 124 162 211 259 309 367
#     4  10  20  41  64  96 123 164 209 258 315 368
#
# _framework density 21.967502
#
# number of rings (size 3 to 8) (size 9 to 14) (size 15 to 20)
#    0.000    1.750    2.500    1.875    7.000    1.000 
#    0.000    4.375    0.000    0.000    0.000    0.000 
#    0.000    0.000    0.000    0.000    0.000    0.000 
#
# Total GULP energy -198219.389426 kJ/mol
# GULP energy per Si atom -12388.711839 kJ/mol
# Density = 2.191750 g / cm^3
# Si number density = 21.967502 Si / 1000 Ang^3
#
#
#
# Elastic Constant Matrix: (Units=GPa)
#
#
# Indices 1 2 3 4 5 6 
#
# 1 63.8702 31.7941 14.9874 -0.2824 -13.1649 -12.1151
# 2 31.7941 113.3018 66.9547 -9.7220 -14.3982 -2.6386
# 3 14.9874 66.9547 204.7663 -19.5881 -6.5769 -11.1111
# 4 -0.2824 -9.7220 -19.5881 28.1537 -8.1123 -8.7639
# 5 -13.1649 -14.3982 -6.5769 -8.1123 27.9322 0.7703
# 6 -12.1151 -2.6386 -11.1111 -8.7639 0.7703 26.8973
#
#
#
# Elastic Compliance Matrix: (Units=1/GPa)
#
#
# Indices 1 2 3 4 5 6 
#
# 1 0.022057 -0.005125 0.001574 0.005949 0.009529 0.011748
# 2 -0.005125 0.013143 -0.003625 0.002660 0.004327 -0.001774
# 3 0.001574 -0.003625 0.006823 0.005620 0.001976 0.004947
# 4 0.005949 0.002660 0.005620 0.053105 0.020315 0.021984
# 5 0.009529 0.004327 0.001976 0.020315 0.048591 0.010760
# 6 0.011748 -0.001774 0.004947 0.021984 0.010760 0.051194
#
#
# Mechanical properties :
#
#
# Convention : Reuss Voigt Hill
#
# Bulk Modulus (GPa) = 36.13823 67.71231 51.92527
# Shear Modulus (GPa) = 22.88435 34.47677 28.68056
#
# Velocity S-wave (km/s) = 3.23110 3.96592 3.61722
# Velocity P-wave (km/s) = 5.51421 7.20154 6.41360
#
# Compressibility (1/GPa) = 0.02767153
#
# Stress axis : x y z
#
# Youngs Moduli (GPa) = 45.33668 76.08493 146.55544
#
# Poissons Ratio (x) = 0.38991 -0.23066
# Poissons Ratio (y) = 0.23233 0.53131
# Poissons Ratio (z) = -0.07135 0.27583
#
# Static dielectric constant tensor:
#      x y z
#    x 6.222680 -0.101380 0.590410 
#    y -0.101380 3.574130 -0.067340 
#    z 0.590410 -0.067340 5.008450 
# 
# 
# High freq. dielectric constant tensor:
#      x y z
#    x 1.853170 -0.027520 -0.007160 
#    y -0.027520 1.826990 -0.012970 
#    z -0.007160 -0.012970 1.892420 
# 
# From -- ./inp_files/402639.got.cif
#   From: 2010.06.25/outbox.cif.g09.slc.cpg/sg2_202_cif.got.tgz:402639.got - 2010.06.27 13:26:56.
