data_PCOD8040466
_publ_section_title
;
Structure prediction by ZEFSAII (Michael W. Deem and Ramdas Pophale) SiO2 
 PCOD8040466
Probable space group: P -1
;
_chemical_formula_sum "Si O2"
_cell_formula_units_Z 16
_cell_length_a 22.824075
_cell_length_b 20.785061
_cell_length_c 9.772124
_cell_angle_alpha 25.629764
_cell_angle_beta 144.690027
_cell_angle_gamma 154.813896
_cell_volume 853.364277
_symmetry_space_group_name_H-M "P -1"
_symmetry_group_IT_number 2
_symmetry_cell_setting 'triclinic'
loop_
_space_group_symop_operation_xyz
x,y,z
-x,-y,-z
loop_
_atom_site_type_symbol
_atom_site_label
_atom_site_fract_x
_atom_site_fract_y
_atom_site_fract_z
Si Si1 0.034195 0.703313 0.704742
Si Si2 0.340330 0.379068 0.287230
Si Si3 0.760789 0.010344 0.242652
Si Si4 0.561415 0.298891 0.360755
Si Si5 0.754165 0.599451 0.368036
Si Si6 0.616150 0.461460 0.651015
Si Si7 0.538618 0.981921 0.758393
Si Si8 0.711875 0.887810 0.670624
O O1 0.901555 0.672134 0.493951
O O2 0.093437 0.779816 0.827171
O O3 0.150400 0.877703 0.483839
O O4 0.000000 0.500000 0.000000
O O5 0.483738 0.434304 0.447756
O O6 0.306919 0.426137 0.276095
O O7 0.219636 0.136192 0.502008
O O8 0.347219 0.514008 0.927911
O O9 0.660403 0.887086 0.421858
O O10 0.688305 0.048713 0.921551
O O11 0.641664 0.379712 0.503205
O O12 0.407376 0.209804 0.257933
O O13 0.543023 0.115482 0.622064
O O14 0.719348 0.594897 0.468260
O O15 0.754046 0.757608 0.989151
O O16 0.578395 0.250418 0.977264
O O17 0.500000 0.000000 0.500000
#
# Coordination Sequence:
#
# PCOD8040466 Si02
#       8
#     2   2   2   2   2   2   2   2
#     4  10  23  41  57  87 127 160 191 250 303 350
#     4  10  18  37  57  86 122 156 187 248 297 347
#     4   9  21  38  58  83 123 156 200 245 298 348
#     4  12  20  34  62  92 120 153 195 253 299 350
#     4  12  22  38  65  90 119 159 206 242 294 360
#     4  10  22  34  57  88 122 153 195 242 300 352
#     4  11  22  35  56  89 124 159 195 241 307 363
#     4  10  22  36  59  93 117 151 201 249 298 343
#
# _framework density 18.749319
#
# number of rings (size 3 to 8) (size 9 to 14) (size 15 to 20)
#    0.750    0.750    3.750    3.000    1.750    1.000 
#    0.000    0.625    0.000    2.250    0.000    0.000 
#    0.000    0.000    0.000    0.000    0.000    0.000 
#
# Total GULP energy -198273.844902 kJ/mol
# GULP energy per Si atom -12392.115306 kJ/mol
# Density = 1.870664 g / cm^3
# Si number density = 18.749319 Si / 1000 Ang^3
#
#
#
# Elastic Constant Matrix: (Units=GPa)
#
#
# Indices 1 2 3 4 5 6 
#
# 1 79.6701 50.2873 29.9838 -2.8804 2.8177 -14.4512
# 2 50.2873 121.4836 47.4446 -15.3768 13.3511 -9.5425
# 3 29.9838 47.4446 94.8837 -1.9673 13.2850 -9.6763
# 4 -2.8804 -15.3768 -1.9673 33.9512 -9.8885 11.3418
# 5 2.8177 13.3511 13.2850 -9.8885 30.2745 -3.1301
# 6 -14.4512 -9.5425 -9.6763 11.3418 -3.1301 28.6538
#
#
#
# Elastic Compliance Matrix: (Units=1/GPa)
#
#
# Indices 1 2 3 4 5 6 
#
# 1 0.019149 -0.007227 -0.001915 -0.004044 0.001793 0.008400
# 2 -0.007227 0.013671 -0.004497 0.005835 -0.001799 -0.003117
# 3 -0.001915 -0.004497 0.014372 -0.003991 -0.005096 0.003413
# 4 -0.004044 0.005835 -0.003991 0.040108 0.010988 -0.016119
# 5 0.001793 -0.001799 -0.005096 0.010988 0.039331 -0.001468
# 6 0.008400 -0.003117 0.003413 -0.016119 -0.001468 0.045470
#
#
# Mechanical properties :
#
#
# Convention : Reuss Voigt Hill
#
# Bulk Modulus (GPa) = 50.22143 61.27431 55.74787
# Shear Modulus (GPa) = 24.26984 29.79735 27.03359
#
# Velocity S-wave (km/s) = 3.60173 3.99086 3.80128
# Velocity P-wave (km/s) = 6.64383 7.34764 7.00458
#
# Compressibility (1/GPa) = 0.01991182
#
# Stress axis : x y z
#
# Youngs Moduli (GPa) = 52.22309 73.14704 69.58030
#
# Poissons Ratio (x) = 0.52867 0.13327
# Poissons Ratio (y) = 0.37744 0.31290
# Poissons Ratio (z) = 0.10003 0.32894
#
# Static dielectric constant tensor:
#      x y z
#    x 3.171420 -0.303770 0.079820 
#    y -0.303770 3.507120 -0.113210 
#    z 0.079820 -0.113210 3.551840 
# 
# 
# High freq. dielectric constant tensor:
#      x y z
#    x 1.698280 -0.025710 0.008250 
#    y -0.025710 1.722720 -0.008040 
#    z 0.008250 -0.008040 1.737330 
# 
# From -- ./inp_files/348204.got.cif
#   From: 2010.06.25/outbox.cif.g09.slc.cpg/sg2_175_cif.got.tgz:348204.got - 2010.06.27 13:26:56.
