data_PCOD8040838
_publ_section_title
;
Structure prediction by ZEFSAII (Michael W. Deem and Ramdas Pophale) SiO2 
 PCOD8040838
Probable space group: P -1
;
_chemical_formula_sum "Si O2"
_cell_formula_units_Z 16
_cell_length_a 18.748865
_cell_length_b 9.270563
_cell_length_c 8.300232
_cell_angle_alpha 86.037080
_cell_angle_beta 112.599153
_cell_angle_gamma 44.077061
_cell_volume 781.299689
_symmetry_space_group_name_H-M "P -1"
_symmetry_group_IT_number 2
_symmetry_cell_setting 'triclinic'
loop_
_space_group_symop_operation_xyz
x,y,z
-x,-y,-z
loop_
_atom_site_type_symbol
_atom_site_label
_atom_site_fract_x
_atom_site_fract_y
_atom_site_fract_z
Si Si1 0.818350 0.817038 0.924539
Si Si2 0.469210 0.058054 0.657876
Si Si3 0.076315 0.331114 0.312052
Si Si4 0.719863 0.817654 0.306775
Si Si5 0.845426 0.495858 0.142423
Si Si6 0.479673 0.310621 0.868323
Si Si7 0.331847 0.470626 0.022873
Si Si8 0.416748 0.619397 0.257010
O O1 0.825510 0.834837 0.739661
O O2 0.713931 0.086619 0.881370
O O3 0.775018 0.717345 0.939695
O O4 0.962763 0.622257 0.146799
O O5 0.331688 0.187814 0.577450
O O6 0.464531 0.229135 0.705902
O O7 0.500000 0.000000 0.500000
O O8 0.581080 0.806298 0.873327
O O9 0.163160 0.248466 0.543749
O O10 0.002613 0.290130 0.292555
O O11 0.784754 0.605612 0.258863
O O12 0.604514 0.082662 0.103548
O O13 0.814544 0.373699 0.080957
O O14 0.492603 0.454291 0.801423
O O15 0.350708 0.505630 0.856330
O O16 0.374320 0.519367 0.192908
O O17 0.500000 0.500000 0.500000
#
# Coordination Sequence:
#
# PCOD8040838 Si02
#       8
#     2   2   2   2   2   2   2   2
#     4   9  21  41  59  90 121 154 208 251 299 353
#     4  11  22  34  61  94 122 154 202 257 305 358
#     4   9  21  36  68  90 114 161 207 260 292 346
#     4  11  19  33  66  94 115 151 207 256 302 350
#     4  10  18  39  61  87 116 154 210 249 296 348
#     4  11  21  41  57  90 125 157 204 251 303 366
#     4  11  22  37  58  87 123 163 189 254 310 353
#     4  12  25  39  59  88 128 165 197 241 317 378
#
# _framework density 20.478694999999998
#
# number of rings (size 3 to 8) (size 9 to 14) (size 15 to 20)
#    0.750    0.750    3.750    2.250    7.000    0.000 
#    0.000    0.625    0.000    3.000    0.000    0.000 
#    0.000    0.000    0.000    0.000    0.000    0.000 
#
# Total GULP energy -198252.825525 kJ/mol
# GULP energy per Si atom -12390.801595 kJ/mol
# Density = 2.043208 g / cm^3
# Si number density = 20.478695 Si / 1000 Ang^3
#
#
#
# Elastic Constant Matrix: (Units=GPa)
#
#
# Indices 1 2 3 4 5 6 
#
# 1 171.2550 42.4444 51.7753 26.3437 11.2897 1.1565
# 2 42.4444 47.2773 16.9366 17.9720 3.5975 1.1417
# 3 51.7753 16.9366 78.3754 24.9648 10.1434 1.4389
# 4 26.3437 17.9720 24.9648 29.0506 1.1324 -0.1904
# 5 11.2897 3.5975 10.1434 1.1324 36.1161 15.8609
# 6 1.1565 1.1417 1.4389 -0.1904 15.8609 34.7053
#
#
#
# Elastic Compliance Matrix: (Units=1/GPa)
#
#
# Indices 1 2 3 4 5 6 
#
# 1 0.008767 -0.006092 -0.004147 -0.000565 -0.001232 0.000640
# 2 -0.006092 0.032076 0.002495 -0.016417 -0.001273 -0.000464
# 3 -0.004147 0.002495 0.020357 -0.015083 -0.004772 0.001310
# 4 -0.000565 -0.016417 -0.015083 0.057875 0.004471 -0.000542
# 5 -0.001232 -0.001273 -0.004772 0.004471 0.036616 -0.016429
# 6 0.000640 -0.000464 0.001310 -0.000542 -0.016429 0.036259
#
#
# Mechanical properties :
#
#
# Convention : Reuss Voigt Hill
#
# Bulk Modulus (GPa) = 21.87569 57.69115 39.78342
# Shear Modulus (GPa) = 22.45438 32.35782 27.40610
#
# Velocity S-wave (km/s) = 3.31490 3.97933 3.66221
# Velocity P-wave (km/s) = 5.03555 7.02466 6.11157
#
# Compressibility (1/GPa) = 0.04571285
#
# Stress axis : x y z
#
# Youngs Moduli (GPa) = 114.06795 31.17617 49.12230
#
# Poissons Ratio (x) = 0.18992 0.20372
# Poissons Ratio (y) = 0.69487 -0.12258
# Poissons Ratio (z) = 0.47307 -0.07780
#
# Static dielectric constant tensor:
#      x y z
#    x 4.224480 -0.199570 0.003670 
#    y -0.199570 3.354040 0.153240 
#    z 0.003670 0.153240 3.433320 
# 
# 
# High freq. dielectric constant tensor:
#      x y z
#    x 1.823580 -0.015910 0.003000 
#    y -0.015910 1.762740 0.025390 
#    z 0.003000 0.025390 1.780080 
# 
# From -- ./inp_files/328881.got.cif
#   From: 2010.06.25/outbox.cif.g09.slc.cpg/sg2_165_cif.got.tgz:328881.got - 2010.06.27 13:26:56.
