data_PCOD8040140
_publ_section_title
;
Structure prediction by ZEFSAII (Michael W. Deem and Ramdas Pophale) SiO2 
 PCOD8040140
Probable space group: P -1
;
_chemical_formula_sum "Si O2"
_cell_formula_units_Z 16
_cell_length_a 25.090626
_cell_length_b 14.468189
_cell_length_c 19.685433
_cell_angle_alpha 149.200956
_cell_angle_beta 20.379524
_cell_angle_gamma 160.500613
_cell_volume 811.740334
_symmetry_space_group_name_H-M "P -1"
_symmetry_group_IT_number 2
_symmetry_cell_setting 'triclinic'
loop_
_space_group_symop_operation_xyz
x,y,z
-x,-y,-z
loop_
_atom_site_type_symbol
_atom_site_label
_atom_site_fract_x
_atom_site_fract_y
_atom_site_fract_z
Si Si1 0.235499 0.751754 0.030412
Si Si2 0.206702 0.261188 0.119437
Si Si3 0.304520 0.607066 0.102398
Si Si4 0.473121 0.363311 0.271568
Si Si5 0.121724 0.716812 0.292921
Si Si6 0.022798 0.140959 0.629833
Si Si7 0.721860 0.612789 0.267715
Si Si8 0.283365 0.400083 0.268299
O O1 0.201697 0.685782 0.109729
O O2 0.018115 0.683457 0.222567
O O3 0.243553 0.566362 0.866612
O O4 0.478629 0.077616 0.928421
O O5 0.177976 0.388678 0.177209
O O6 0.246744 0.392378 0.226781
O O7 0.436569 0.340011 0.880806
O O8 0.965605 0.928105 0.197856
O O9 0.113576 0.566259 0.268834
O O10 0.403299 0.553474 0.896063
O O11 0.288937 0.362602 0.482747
O O12 0.673751 0.593405 0.232724
O O13 0.321166 0.051109 0.281293
O O14 0.858608 0.566092 0.503771
O O15 0.000000 0.000000 0.500000
O O16 0.824529 0.889807 0.761736
O O17 0.500000 0.500000 0.500000
#
# Coordination Sequence:
#
# PCOD8040140 Si02
#       8
#     2   2   2   2   2   2   2   2
#     4  11  20  37  66  96 118 158 211 251 295 362
#     4  11  25  40  61  86 128 167 196 247 315 362
#     4  11  19  37  64  96 117 158 212 254 290 357
#     4  10  19  35  63  93 125 155 203 254 301 354
#     4  10  18  35  66  95 118 153 209 260 289 354
#     4  11  17  34  69  97 114 155 212 255 295 351
#     4  12  25  44  58  87 130 167 194 252 319 361
#     4  10  21  41  60  90 126 157 202 253 304 360
#
# _framework density 19.710737999999999
#
# number of rings (size 3 to 8) (size 9 to 14) (size 15 to 20)
#    0.000    1.250    7.500    2.250    0.000    1.000 
#    0.000    4.375    0.000    0.000    0.000    0.000 
#    0.000    0.000    0.000    0.000    0.000    0.000 
#
# Total GULP energy -198397.523276 kJ/mol
# GULP energy per Si atom -12399.845205 kJ/mol
# Density = 1.966588 g / cm^3
# Si number density = 19.710738 Si / 1000 Ang^3
#
#
#
# Elastic Constant Matrix: (Units=GPa)
#
#
# Indices 1 2 3 4 5 6 
#
# 1 88.8144 35.2440 26.8671 5.0824 -14.6448 -20.0844
# 2 35.2440 65.0012 42.9826 2.5420 -5.3917 -2.1104
# 3 26.8671 42.9826 109.5446 9.5240 -18.8052 -6.4552
# 4 5.0824 2.5420 9.5240 30.9682 -4.5554 -8.5595
# 5 -14.6448 -5.3917 -18.8052 -4.5554 36.5578 -5.2529
# 6 -20.0844 -2.1104 -6.4552 -8.5595 -5.2529 28.6991
#
#
#
# Elastic Compliance Matrix: (Units=1/GPa)
#
#
# Indices 1 2 3 4 5 6 
#
# 1 0.020322 -0.010919 0.001761 0.003113 0.010211 0.016612
# 2 -0.010919 0.026712 -0.009421 -0.001084 -0.006760 -0.009356
# 3 0.001761 -0.009421 0.013989 -0.001550 0.006965 0.004499
# 4 0.003113 -0.001084 -0.001550 0.037280 0.006968 0.014145
# 5 0.010211 -0.006760 0.006965 0.006968 0.037360 0.017132
# 6 0.016612 -0.009356 0.004499 0.014145 0.017132 0.054148
#
#
# Mechanical properties :
#
#
# Convention : Reuss Voigt Hill
#
# Bulk Modulus (GPa) = 41.90012 52.61641 47.25827
# Shear Modulus (GPa) = 21.28354 29.79612 25.53983
#
# Velocity S-wave (km/s) = 3.28959 3.89224 3.60353
# Velocity P-wave (km/s) = 5.97764 6.85212 6.42976
#
# Compressibility (1/GPa) = 0.02386628
#
# Stress axis : x y z
#
# Youngs Moduli (GPa) = 49.20823 37.43639 71.48591
#
# Poissons Ratio (x) = 0.40876 -0.12591
# Poissons Ratio (y) = 0.53729 0.67345
# Poissons Ratio (z) = -0.08667 0.35268
#
# Static dielectric constant tensor:
#      x y z
#    x 3.743130 -0.105910 -0.197890 
#    y -0.105910 3.210790 -0.046820 
#    z -0.197890 -0.046820 3.795660 
# 
# 
# High freq. dielectric constant tensor:
#      x y z
#    x 1.777140 -0.012680 -0.016120 
#    y -0.012680 1.715970 -0.005850 
#    z -0.016120 -0.005850 1.779960 
# 
# From -- ./inp_files/602448.got.cif
#   From: 2010.06.25/outbox.cif.g09.slc.cpg/sg2_302_cif.got.tgz:602448.got - 2010.06.27 13:26:56.
