data_PCOD8040909
_publ_section_title
;
Structure prediction by ZEFSAII (Michael W. Deem and Ramdas Pophale) SiO2 
 PCOD8040909
Probable space group: P -1
;
_chemical_formula_sum "Si O2"
_cell_formula_units_Z 16
_cell_length_a 11.063450
_cell_length_b 12.765744
_cell_length_c 14.423218
_cell_angle_alpha 138.922448
_cell_angle_beta 32.237062
_cell_angle_gamma 126.305739
_cell_volume 707.937359
_symmetry_space_group_name_H-M "P -1"
_symmetry_group_IT_number 2
_symmetry_cell_setting 'triclinic'
loop_
_space_group_symop_operation_xyz
x,y,z
-x,-y,-z
loop_
_atom_site_type_symbol
_atom_site_label
_atom_site_fract_x
_atom_site_fract_y
_atom_site_fract_z
Si Si1 0.483432 0.805011 0.104771
Si Si2 0.641419 0.785225 0.676813
Si Si3 0.016412 0.156200 0.153306
Si Si4 0.650675 0.463845 0.761413
Si Si5 0.236546 0.889108 0.130883
Si Si6 0.279547 0.126555 0.522941
Si Si7 0.555007 0.169379 0.545432
Si Si8 0.884827 0.508116 0.445819
O O1 0.493870 0.620419 0.012383
O O2 0.367559 0.814863 0.086760
O O3 0.345788 0.931945 0.349313
O O4 0.739676 0.851438 0.960653
O O5 0.659073 0.797461 0.563252
O O6 0.750943 0.607087 0.515909
O O7 0.778788 0.917416 0.725072
O O8 0.375469 0.819926 0.903617
O O9 0.828477 0.157197 0.355700
O O10 0.954832 0.321585 0.244987
O O11 0.000000 0.000000 0.000000
O O12 0.494248 0.317508 0.756045
O O13 0.723967 0.520430 0.649166
O O14 0.882187 0.414593 0.635620
O O15 0.986413 0.834315 0.253336
O O16 0.426590 0.210002 0.558658
O O17 0.500000 0.000000 0.500000
#
# Coordination Sequence:
#
# PCOD8040909 Si02
#       8
#     2   2   2   2   2   2   2   2
#     4  10  18  39  69  92 125 167 219 273 318 370
#     4  10  20  38  67  94 125 178 220 264 329 384
#     4  10  20  40  67  94 127 162 219 278 320 388
#     4   9  19  37  64  97 125 166 220 275 318 392
#     4  10  22  37  64  96 133 172 219 266 320 394
#     4  11  24  42  62 100 135 170 217 275 319 397
#     4  11  25  41  62  92 136 171 205 272 340 386
#     4   9  18  35  68  97 120 165 223 272 320 380
#
# _framework density 22.600867999999998
#
# number of rings (size 3 to 8) (size 9 to 14) (size 15 to 20)
#    0.000    2.000    2.500    2.250    1.750    2.000 
#    0.000    6.250    0.000    0.000    0.000    0.000 
#    0.000    0.000    0.000    0.000    0.000    0.000 
#
# Total GULP energy -198337.631999 kJ/mol
# GULP energy per Si atom -12396.102000 kJ/mol
# Density = 2.254943 g / cm^3
# Si number density = 22.600868 Si / 1000 Ang^3
#
#
#
# Elastic Constant Matrix: (Units=GPa)
#
#
# Indices 1 2 3 4 5 6 
#
# 1 84.3243 40.6935 46.2801 8.2474 -8.4949 20.1867
# 2 40.6935 107.3351 39.9844 25.5339 -9.0754 17.3322
# 3 46.2801 39.9844 99.0070 4.4849 -15.6847 10.0663
# 4 8.2474 25.5339 4.4849 46.0301 7.0755 -2.7488
# 5 -8.4949 -9.0754 -15.6847 7.0755 32.3686 4.2588
# 6 20.1867 17.3322 10.0663 -2.7488 4.2588 32.6316
#
#
#
# Elastic Compliance Matrix: (Units=1/GPa)
#
#
# Indices 1 2 3 4 5 6 
#
# 1 0.019439 -0.002645 -0.006510 -0.002382 0.002936 -0.009196
# 2 -0.002645 0.015007 -0.002967 -0.008716 0.004874 -0.006790
# 3 -0.006510 -0.002967 0.014979 0.000687 0.004508 0.000452
# 4 -0.002382 -0.008716 0.000687 0.029093 -0.010371 0.009696
# 5 0.002936 0.004874 0.004508 -0.010371 0.039031 -0.011764
# 6 -0.009196 -0.006790 0.000452 0.009696 -0.011764 0.042153
#
#
# Mechanical properties :
#
#
# Convention : Reuss Voigt Hill
#
# Bulk Modulus (GPa) = 39.71372 60.50917 50.11145
# Shear Modulus (GPa) = 25.99593 33.11994 29.55793
#
# Velocity S-wave (km/s) = 3.39517 3.83224 3.62031
# Velocity P-wave (km/s) = 5.74277 6.81267 6.30047
#
# Compressibility (1/GPa) = 0.02518021
#
# Stress axis : x y z
#
# Youngs Moduli (GPa) = 51.44423 66.63760 66.76093
#
# Poissons Ratio (x) = 0.17623 0.43464
# Poissons Ratio (y) = 0.13605 0.19807
# Poissons Ratio (z) = 0.33492 0.19771
#
# Static dielectric constant tensor:
#      x y z
#    x 1.017640 -2.312610 -3.132110 
#    y -2.312610 2.045570 -2.429090 
#    z -3.132110 -2.429090 0.989520 
# 
# 
# High freq. dielectric constant tensor:
#      x y z
#    x 1.872990 0.002190 -0.007340 
#    y 0.002190 1.888060 0.007250 
#    z -0.007340 0.007250 1.892910 
# 
# From -- ./inp_files/519087.got.cif
#   From: 2010.06.25/outbox.cif.g09.slc.cpg/sg2_260_cif.got.tgz:519087.got - 2010.06.27 13:26:56.
