data_PCOD8040901
_publ_section_title
;
Structure prediction by ZEFSAII (Michael W. Deem and Ramdas Pophale) SiO2 
 PCOD8040901
Probable space group: P -1
;
_chemical_formula_sum "Si O2"
_cell_formula_units_Z 16
_cell_length_a 11.503480
_cell_length_b 16.713132
_cell_length_c 9.316940
_cell_angle_alpha 122.496892
_cell_angle_beta 80.206952
_cell_angle_gamma 51.824185
_cell_volume 775.532849
_symmetry_space_group_name_H-M "P -1"
_symmetry_group_IT_number 2
_symmetry_cell_setting 'triclinic'
loop_
_space_group_symop_operation_xyz
x,y,z
-x,-y,-z
loop_
_atom_site_type_symbol
_atom_site_label
_atom_site_fract_x
_atom_site_fract_y
_atom_site_fract_z
Si Si1 0.262258 0.067422 0.859117
Si Si2 0.985265 0.388544 0.043055
Si Si3 0.219961 0.268936 0.588405
Si Si4 0.144850 0.967161 0.622767
Si Si5 0.628441 0.502174 0.795935
Si Si6 0.243324 0.905029 0.216294
Si Si7 0.863719 0.843609 0.705015
Si Si8 0.585567 0.543940 0.173138
O O1 0.521589 0.883224 0.576921
O O2 0.125248 0.074357 0.825350
O O3 0.151006 0.240950 0.992633
O O4 0.252927 0.069860 0.033743
O O5 0.917389 0.542342 0.240985
O O6 0.765217 0.472351 0.167496
O O7 0.113069 0.292891 0.772797
O O8 0.200156 0.213100 0.404139
O O9 0.157421 0.988759 0.474589
O O10 0.358975 0.759854 0.425304
O O11 0.923968 0.055752 0.784154
O O12 0.468991 0.521680 0.812151
O O13 0.866110 0.331844 0.499850
O O14 0.496576 0.687931 0.956486
O O15 0.687759 0.462018 0.913583
O O16 0.246716 0.998403 0.215339
#
# Coordination Sequence:
#
# PCOD8040901 Si02
#       8
#     2   2   2   2   2   2   2   2
#     4  12  26  41  64  91 130 167 203 256 313 374
#     4  11  23  42  69  93 117 161 214 268 301 360
#     4  11  25  44  65  89 122 164 219 262 302 355
#     4  10  20  40  66  97 122 162 207 252 315 361
#     4  10  21  37  65  96 122 163 200 251 314 371
#     4  10  22  39  68  93 125 160 205 260 303 372
#     4  12  25  42  60  93 131 168 204 249 315 378
#     4  10  18  39  68  92 125 153 206 266 304 358
#
# _framework density 20.630974999999999
#
# number of rings (size 3 to 8) (size 9 to 14) (size 15 to 20)
#    0.000    1.250    3.750    2.250    1.750    3.000 
#    0.000    1.250    0.000    0.000    0.000    0.000 
#    0.000    0.000    0.000    0.000    0.000    0.000 
#
# Total GULP energy -198511.348003 kJ/mol
# GULP energy per Si atom -12406.959250 kJ/mol
# Density = 2.058402 g / cm^3
# Si number density = 20.630975 Si / 1000 Ang^3
#
#
#
# Elastic Constant Matrix: (Units=GPa)
#
#
# Indices 1 2 3 4 5 6 
#
# 1 103.4500 28.1700 26.7133 -8.0298 17.5670 -1.4851
# 2 28.1700 89.5608 35.0443 7.2358 18.0795 9.7646
# 3 26.7133 35.0443 59.1625 13.8101 2.6309 1.5893
# 4 -8.0298 7.2358 13.8101 21.5388 -4.6557 3.9247
# 5 17.5670 18.0795 2.6309 -4.6557 28.6197 6.4888
# 6 -1.4851 9.7646 1.5893 3.9247 6.4888 24.4359
#
#
#
# Elastic Compliance Matrix: (Units=1/GPa)
#
#
# Indices 1 2 3 4 5 6 
#
# 1 0.013527 -0.001121 -0.007180 0.008356 -0.006027 0.001995
# 2 -0.001121 0.017327 -0.008840 -0.001805 -0.008884 -0.003768
# 3 -0.007180 -0.008840 0.029427 -0.018383 0.003573 0.003186
# 4 0.008356 -0.001805 -0.018383 0.066353 0.011025 -0.011160
# 5 -0.006027 -0.008884 0.003573 0.011025 0.048362 -0.011661
# 6 0.001995 -0.003768 0.003186 -0.011160 -0.011661 0.047232
#
#
# Mechanical properties :
#
#
# Convention : Reuss Voigt Hill
#
# Bulk Modulus (GPa) = 38.46182 48.00316 43.23249
# Shear Modulus (GPa) = 18.85543 25.73525 22.29534
#
# Velocity S-wave (km/s) = 3.02642 3.53570 3.29093
# Velocity P-wave (km/s) = 5.55837 6.32347 5.95322
#
# Compressibility (1/GPa) = 0.02599981
#
# Stress axis : x y z
#
# Youngs Moduli (GPa) = 73.92855 57.71230 33.98235
#
# Poissons Ratio (x) = 0.06471 0.24398
# Poissons Ratio (y) = 0.08289 0.30040
# Poissons Ratio (z) = 0.53078 0.51016
#
# Static dielectric constant tensor:
#      x y z
#    x 3.783580 0.063180 -0.020270 
#    y 0.063180 3.605290 0.220780 
#    z -0.020270 0.220780 3.647010 
# 
# 
# High freq. dielectric constant tensor:
#      x y z
#    x 1.815790 0.005160 -0.000910 
#    y 0.005160 1.797550 0.025680 
#    z -0.000910 0.025680 1.801120 
# 
# From -- ./inp_files/174971.got.cif
#   From: 2010.06.25/outbox.cif.g09.slc.cpg/sg2_88_cif.got.tgz:174971.got - 2010.06.27 13:26:56.
