data_PCOD8040477
_publ_section_title
;
Structure prediction by ZEFSAII (Michael W. Deem and Ramdas Pophale) SiO2 
 PCOD8040477
Probable space group: P -1
;
_chemical_formula_sum "Si O2"
_cell_formula_units_Z 16
_cell_length_a 8.164687
_cell_length_b 15.063091
_cell_length_c 12.008412
_cell_angle_alpha 51.070031
_cell_angle_beta 77.764094
_cell_angle_gamma 44.932794
_cell_volume 734.905665
_symmetry_space_group_name_H-M "P -1"
_symmetry_group_IT_number 2
_symmetry_cell_setting 'triclinic'
loop_
_space_group_symop_operation_xyz
x,y,z
-x,-y,-z
loop_
_atom_site_type_symbol
_atom_site_label
_atom_site_fract_x
_atom_site_fract_y
_atom_site_fract_z
Si Si1 0.057598 0.727157 0.372278
Si Si2 0.150672 0.343229 0.690472
Si Si3 0.316560 0.464922 0.970778
Si Si4 0.671356 0.142093 0.535327
Si Si5 0.696247 0.839210 0.516823
Si Si6 0.781220 0.229855 0.239733
Si Si7 0.017457 0.479877 0.845003
Si Si8 0.466905 0.680223 0.372343
O O1 0.199927 0.772983 0.281997
O O2 0.293089 0.522860 0.534017
O O3 0.891109 0.764781 0.262303
O O4 0.876340 0.833029 0.424394
O O5 0.044031 0.405292 0.781423
O O6 0.447995 0.233810 0.741019
O O7 0.000000 0.500000 0.500000
O O8 0.610375 0.306001 0.093267
O O9 0.124435 0.537276 0.043119
O O10 0.249812 0.628410 0.813785
O O11 0.280411 0.390310 0.935692
O O12 0.448393 0.162284 0.553370
O O13 0.690972 0.180884 0.378285
O O14 0.590019 0.287899 0.512282
O O15 0.927076 0.947426 0.694401
O O16 0.859416 0.677323 0.702679
O O17 0.500000 0.000000 0.500000
#
# Coordination Sequence:
#
# PCOD8040477 Si02
#       8
#     2   2   2   2   2   2   2   2
#     4  10  21  34  53  94 128 158 207 261 326 372
#     4  10  18  37  58  88 125 155 211 270 305 364
#     4  10  23  40  59  87 132 174 213 248 314 407
#     4  11  22  38  64  93 132 158 211 280 322 355
#     4  12  22  35  59  97 129 160 205 271 330 362
#     4  10  23  39  57  95 126 171 212 263 314 381
#     4  11  21  39  62  88 125 173 211 255 325 381
#     4  10  20  34  59  92 125 161 198 270 320 370
#
# _framework density 21.771502999999999
#
# number of rings (size 3 to 8) (size 9 to 14) (size 15 to 20)
#    0.000    1.500    5.000    1.500    5.250    0.000 
#    2.250    0.000    0.000    1.500    0.000    0.000 
#    0.000    0.000    0.000    0.000    0.000    0.000 
#
# Total GULP energy -198261.575473 kJ/mol
# GULP energy per Si atom -12391.348467 kJ/mol
# Density = 2.172195 g / cm^3
# Si number density = 21.771503 Si / 1000 Ang^3
#
#
#
# Elastic Constant Matrix: (Units=GPa)
#
#
# Indices 1 2 3 4 5 6 
#
# 1 176.5763 28.7302 21.1727 9.6556 12.8624 -8.8464
# 2 28.7302 97.8476 21.5696 12.7053 11.3482 -1.1048
# 3 21.1727 21.5696 57.8124 -1.3500 7.7737 -1.3492
# 4 9.6556 12.7053 -1.3500 24.9835 3.1562 7.7770
# 5 12.8624 11.3482 7.7737 3.1562 20.5238 5.4723
# 6 -8.8464 -1.1048 -1.3492 7.7770 5.4723 33.9374
#
#
#
# Elastic Compliance Matrix: (Units=1/GPa)
#
#
# Indices 1 2 3 4 5 6 
#
# 1 0.006515 -0.000789 -0.001638 -0.002638 -0.003354 0.002753
# 2 -0.000789 0.012730 -0.003931 -0.006507 -0.004667 0.002296
# 3 -0.001638 -0.003931 0.020156 0.004345 -0.005123 0.000077
# 4 -0.002638 -0.006507 0.004345 0.048316 -0.000709 -0.011684
# 5 -0.003354 -0.004667 -0.005123 -0.000709 0.058245 -0.010459
# 6 0.002753 0.002296 0.000077 -0.011684 -0.010459 0.034625
#
#
# Mechanical properties :
#
#
# Convention : Reuss Voigt Hill
#
# Bulk Modulus (GPa) = 37.47526 52.79789 45.13658
# Shear Modulus (GPa) = 24.72813 33.27322 29.00067
#
# Velocity S-wave (km/s) = 3.37382 3.91358 3.65368
# Velocity P-wave (km/s) = 5.69449 6.68768 6.21097
#
# Compressibility (1/GPa) = 0.02668427
#
# Stress axis : x y z
#
# Youngs Moduli (GPa) = 153.50240 78.55219 49.61300
#
# Poissons Ratio (x) = 0.06199 0.08125
# Poissons Ratio (y) = 0.12113 0.19505
# Poissons Ratio (z) = 0.25140 0.30883
#
# Static dielectric constant tensor:
#      x y z
#    x 4.992370 -0.037510 0.219460 
#    y -0.037510 3.849130 0.089750 
#    z 0.219460 0.089750 3.527280 
# 
# 
# High freq. dielectric constant tensor:
#      x y z
#    x 1.889690 -0.006560 0.013910 
#    y -0.006560 1.844210 0.016120 
#    z 0.013910 0.016120 1.797130 
# 
# From -- ./inp_files/398792.got.cif
#   From: 2010.06.25/outbox.cif.g09.slc.cpg/sg2_200_cif.got.tgz:398792.got - 2010.06.27 13:26:56.
