data_PCOD8040716
_publ_section_title
;
Structure prediction by ZEFSAII (Michael W. Deem and Ramdas Pophale) SiO2 
 PCOD8040716
Probable space group: P -1
;
_chemical_formula_sum "Si O2"
_cell_formula_units_Z 16
_cell_length_a 17.777426
_cell_length_b 19.459892
_cell_length_c 9.979521
_cell_angle_alpha 34.715992
_cell_angle_beta 147.044410
_cell_angle_gamma 156.021039
_cell_volume 738.971862
_symmetry_space_group_name_H-M "P -1"
_symmetry_group_IT_number 2
_symmetry_cell_setting 'triclinic'
loop_
_space_group_symop_operation_xyz
x,y,z
-x,-y,-z
loop_
_atom_site_type_symbol
_atom_site_label
_atom_site_fract_x
_atom_site_fract_y
_atom_site_fract_z
Si Si1 0.496114 0.739075 0.566685
Si Si2 0.850098 0.113452 0.387860
Si Si3 0.990993 0.758096 0.303437
Si Si4 0.908210 0.392358 0.900029
Si Si5 0.479054 0.273388 0.062175
Si Si6 0.856329 0.380770 0.354854
Si Si7 0.327786 0.376158 0.134285
Si Si8 0.044735 0.991210 0.824888
O O1 0.266338 0.630188 0.377214
O O2 0.554760 0.765026 0.768232
O O3 0.539241 0.646006 0.693790
O O4 0.633179 0.933327 0.400638
O O5 0.984795 0.251571 0.488767
O O6 0.979857 0.087658 0.562182
O O7 0.826960 0.204815 0.097976
O O8 0.136167 0.757353 0.442130
O O9 0.759221 0.595435 0.166275
O O10 0.048080 0.934069 0.072286
O O11 0.078532 0.500774 0.867212
O O12 0.000000 0.500000 0.000000
O O13 0.630974 0.273066 0.228618
O O14 0.550448 0.457945 0.852291
O O15 0.275176 0.127190 0.904278
O O16 0.000000 0.500000 0.500000
O O17 0.130586 0.199457 0.204638
#
# Coordination Sequence:
#
# PCOD8040716 Si02
#       8
#     2   2   2   2   2   2   2   2
#     4  11  21  39  64  94 122 171 212 259 321 375
#     4  11  21  41  63  92 133 160 210 269 320 375
#     4  10  18  38  61  93 128 153 208 272 304 361
#     4  12  26  40  63  93 132 168 207 263 319 378
#     4  12  21  36  68  95 122 170 215 259 321 367
#     4  12  23  42  62  93 130 171 217 254 313 389
#     4   9  20  35  62  98 127 152 220 267 305 369
#     4   9  21  37  63  97 127 160 212 271 313 369
#
# _framework density 21.651705
#
# number of rings (size 3 to 8) (size 9 to 14) (size 15 to 20)
#    0.750    0.500    5.000    1.875    1.750    0.500 
#    0.000    0.625    0.000    3.750    0.000    0.000 
#    0.000    0.000    0.000    0.000    0.000    0.000 
#
# Total GULP energy -198218.777151 kJ/mol
# GULP energy per Si atom -12388.673572 kJ/mol
# Density = 2.160242 g / cm^3
# Si number density = 21.651705 Si / 1000 Ang^3
#
#
#
# Elastic Constant Matrix: (Units=GPa)
#
#
# Indices 1 2 3 4 5 6 
#
# 1 35.7399 10.8728 22.7016 -9.7689 3.9036 12.9025
# 2 10.8728 79.8017 19.9081 1.7306 4.6967 19.6805
# 3 22.7016 19.9081 88.5073 -17.4618 24.1818 -2.5707
# 4 -9.7689 1.7306 -17.4618 29.5627 -1.1084 10.4792
# 5 3.9036 4.6967 24.1818 -1.1084 30.6753 8.4631
# 6 12.9025 19.6805 -2.5707 10.4792 8.4631 25.7719
#
#
#
# Elastic Compliance Matrix: (Units=1/GPa)
#
#
# Indices 1 2 3 4 5 6 
#
# 1 0.071446 0.011058 -0.023781 0.034848 0.028572 -0.070137
# 2 0.011058 0.019540 -0.009711 0.007127 0.011244 -0.028016
# 3 -0.023781 -0.009711 0.026733 -0.003759 -0.025494 0.031889
# 4 0.034848 0.007127 -0.003759 0.062115 0.014370 -0.053239
# 5 0.028572 0.011244 -0.025494 0.014370 0.062115 -0.051674
# 6 -0.070137 -0.028016 0.031889 -0.053239 -0.051674 0.137108
#
#
# Mechanical properties :
#
#
# Convention : Reuss Voigt Hill
#
# Bulk Modulus (GPa) = 13.72668 34.55708 24.14188
# Shear Modulus (GPa) = 11.15553 27.23976 19.19764
#
# Velocity S-wave (km/s) = 2.27232 3.55080 2.98091
# Velocity P-wave (km/s) = 3.63842 5.72765 4.79813
#
# Compressibility (1/GPa) = 0.07285080
#
# Stress axis : x y z
#
# Youngs Moduli (GPa) = 13.99656 51.17669 37.40756
#
# Poissons Ratio (x) = -0.56592 0.88959
# Poissons Ratio (y) = -0.15478 0.36327
# Poissons Ratio (z) = 0.33285 0.49699
#
# Static dielectric constant tensor:
#      x y z
#    x 3.601280 0.029170 0.333470 
#    y 0.029170 4.105840 -0.101700 
#    z 0.333470 -0.101700 3.968550 
# 
# 
# High freq. dielectric constant tensor:
#      x y z
#    x 1.811440 0.007360 0.028660 
#    y 0.007360 1.865760 -0.009910 
#    z 0.028660 -0.009910 1.847230 
# 
# From -- ./inp_files/317990.got.cif
#   From: 2010.06.25/outbox.cif.g09.slc.cpg/sg2_159_cif.got.tgz:317990.got - 2010.06.27 13:26:56.
