data_PCOD8040294
_publ_section_title
;
Structure prediction by ZEFSAII (Michael W. Deem and Ramdas Pophale) SiO2 
 PCOD8040294
Probable space group: P -1
;
_chemical_formula_sum "Si O2"
_cell_formula_units_Z 14
_cell_length_a 8.382326
_cell_length_b 8.819207
_cell_length_c 11.390390
_cell_angle_alpha 60.674535
_cell_angle_beta 66.467233
_cell_angle_gamma 85.592173
_cell_volume 665.615237
_symmetry_space_group_name_H-M "P -1"
_symmetry_group_IT_number 2
_symmetry_cell_setting 'triclinic'
loop_
_space_group_symop_operation_xyz
x,y,z
-x,-y,-z
loop_
_atom_site_type_symbol
_atom_site_label
_atom_site_fract_x
_atom_site_fract_y
_atom_site_fract_z
Si Si1 0.566265 0.335430 0.186347
Si Si2 0.747353 0.474778 0.865289
Si Si3 0.418732 0.818723 0.526551
Si Si4 0.983555 0.034992 0.691219
Si Si5 0.311234 0.021501 0.764080
Si Si6 0.018983 0.759295 0.603498
Si Si7 0.694399 0.079831 0.946930
O O1 0.378080 0.392213 0.196647
O O2 0.595750 0.343445 0.315492
O O3 0.573241 0.137733 0.215445
O O4 0.719108 0.459608 0.021005
O O5 0.704368 0.286205 0.889215
O O6 0.946539 0.558373 0.739139
O O7 0.227479 0.814894 0.530010
O O8 0.500000 0.000000 0.500000
O O9 0.555898 0.804095 0.384101
O O10 0.035695 0.208291 0.528115
O O11 0.820679 0.052884 0.813971
O O12 0.144802 0.991744 0.738554
O O13 0.925467 0.876818 0.677499
O O14 0.249936 0.028841 0.914444
O O15 0.500000 0.000000 0.000000
#
# Coordination Sequence:
#
# PCOD8040294 Si02
#       7
#     2   2   2   2   2   2   2
#     4   9  19  36  59  88 124 154 202 253 299 355
#     4  10  23  38  59  92 125 164 203 255 307 362
#     4  10  18  36  60  94 122 153 204 258 298 357
#     4  11  23  39  66  95 123 162 209 251 306 372
#     4  10  20  40  64  92 123 163 205 255 300 367
#     4  11  23  37  66  98 119 163 208 257 305 359
#     4  11  25  43  63  89 127 168 204 250 315 370
#
# _framework density 21.033172
#
# number of rings (size 3 to 8) (size 9 to 14) (size 15 to 20)
#    0.000    1.714    2.857    2.143   12.000    1.143 
#    0.000    1.429    0.000    3.429    0.000    0.000 
#    0.000    0.000    0.000    0.000    0.000    0.000 
#
# Total GULP energy -173458.990795 kJ/mol
# GULP energy per Si atom -12389.927914 kJ/mol
# Density = 2.098530 g / cm^3
# Si number density = 21.033172 Si / 1000 Ang^3
#
#
#
# Elastic Constant Matrix: (Units=GPa)
#
#
# Indices 1 2 3 4 5 6 
#
# 1 107.3048 41.8997 67.9939 -1.9252 1.5827 1.1412
# 2 41.8997 52.7236 56.0990 6.5893 -8.9042 -1.2286
# 3 67.9939 56.0990 206.6885 11.3552 6.7643 5.6486
# 4 -1.9252 6.5893 11.3552 33.6329 2.8513 -5.7639
# 5 1.5827 -8.9042 6.7643 2.8513 47.2058 -2.1165
# 6 1.1412 -1.2286 5.6486 -5.7639 -2.1165 25.1489
#
#
#
# Elastic Compliance Matrix: (Units=1/GPa)
#
#
# Indices 1 2 3 4 5 6 
#
# 1 0.014860 -0.010324 -0.002219 0.003822 -0.002359 -0.000003
# 2 -0.010324 0.036358 -0.006526 -0.005706 0.008624 0.003129
# 3 -0.002219 -0.006526 0.007571 -0.001639 -0.002254 -0.002484
# 4 0.003822 -0.005706 -0.001639 0.033094 -0.002642 0.007279
# 5 -0.002359 0.008624 -0.002254 -0.002642 0.023480 0.002405
# 6 -0.000003 0.003129 -0.002484 0.007279 0.002405 0.042345
#
#
# Mechanical properties :
#
#
# Convention : Reuss Voigt Hill
#
# Bulk Modulus (GPa) = 48.42531 77.63355 63.02943
# Shear Modulus (GPa) = 24.66324 34.57915 29.62119
#
# Velocity S-wave (km/s) = 3.42802 4.05906 3.75681
# Velocity P-wave (km/s) = 6.22429 7.67842 6.98927
#
# Compressibility (1/GPa) = 0.02065036
#
# Stress axis : x y z
#
# Youngs Moduli (GPa) = 67.29422 27.50421 132.07994
#
# Poissons Ratio (x) = 0.28397 0.29308
# Poissons Ratio (y) = 0.69477 0.86197
# Poissons Ratio (z) = 0.14932 0.17950
#
# Static dielectric constant tensor:
#      x y z
#    x 3.671090 -0.098470 0.225160 
#    y -0.098470 3.403550 0.142100 
#    z 0.225160 0.142100 5.078630 
# 
# 
# High freq. dielectric constant tensor:
#      x y z
#    x 1.817890 -0.010010 0.006030 
#    y -0.010010 1.768480 0.005670 
#    z 0.006030 0.005670 1.867440 
# 
# From -- ./inp_files/381260.got.cif
#   From: 2010.06.25/outbox.cif.g09.slc.cpg/sg2_191_cif.got.tgz:381260.got - 2010.06.27 13:26:56.
