data_PCOD8040301
_publ_section_title
;
Structure prediction by ZEFSAII (Michael W. Deem and Ramdas Pophale) SiO2 
 PCOD8040301
Probable space group: P -1
;
_chemical_formula_sum "Si O2"
_cell_formula_units_Z 16
_cell_length_a 8.438383
_cell_length_b 17.160952
_cell_length_c 20.138328
_cell_angle_alpha 20.007839
_cell_angle_beta 116.332252
_cell_angle_gamma 107.712332
_cell_volume 831.824551
_symmetry_space_group_name_H-M "P -1"
_symmetry_group_IT_number 2
_symmetry_cell_setting 'triclinic'
loop_
_space_group_symop_operation_xyz
x,y,z
-x,-y,-z
loop_
_atom_site_type_symbol
_atom_site_label
_atom_site_fract_x
_atom_site_fract_y
_atom_site_fract_z
Si Si1 0.875824 0.636714 0.771163
Si Si2 0.735306 0.480884 0.999602
Si Si3 0.817921 0.120457 0.797515
Si Si4 0.022606 0.161364 0.680568
Si Si5 0.379936 0.795800 0.435216
Si Si6 0.546848 0.116784 0.292279
Si Si7 0.244242 0.616318 0.161316
Si Si8 0.108068 0.619477 0.280313
O O1 0.811158 0.490341 0.932687
O O2 0.879628 0.502382 0.809625
O O3 0.729849 0.914675 0.521054
O O4 0.086466 0.632093 0.826998
O O5 0.601546 0.750139 0.783901
O O6 0.613027 0.309226 0.111211
O O7 0.982928 0.174824 0.741949
O O8 0.636963 0.166365 0.678789
O O9 0.764158 0.300447 0.706730
O O10 0.900798 0.837207 0.063393
O O11 0.824828 0.181988 0.590571
O O12 0.090878 0.371065 0.500725
O O13 0.187316 0.899994 0.904311
O O14 0.532238 0.527462 0.696250
O O15 0.442926 0.005036 0.309667
O O16 0.209007 0.572962 0.265852
#
# Coordination Sequence:
#
# PCOD8040301 Si02
#       8
#     2   2   2   2   2   2   2   2
#     4  10  21  38  55  81 113 142 180 228 270 322
#     4  10  21  36  61  78 107 147 181 221 280 321
#     4   8  19  36  58  80 112 145 184 226 270 323
#     4   9  19  37  55  79 110 149 181 224 270 323
#     4   9  20  38  54  80 120 138 177 235 271 318
#     4  10  20  38  56  84 108 141 183 226 268 330
#     4  10  21  36  54  84 114 142 183 229 268 328
#     4  10  18  36  61  79 108 153 184 221 274 320
#
# _framework density 19.234826000000002
#
# number of rings (size 3 to 8) (size 9 to 14) (size 15 to 20)
#    0.750    1.750    0.000    1.875    0.000    2.500 
#    6.750    1.875    0.000    0.000    0.000    0.000 
#    0.000    0.000    0.000    0.000    0.000    0.000 
#
# Total GULP energy -198327.084831 kJ/mol
# GULP energy per Si atom -12395.442802 kJ/mol
# Density = 1.919105 g / cm^3
# Si number density = 19.234826 Si / 1000 Ang^3
#
#
#
# Elastic Constant Matrix: (Units=GPa)
#
#
# Indices 1 2 3 4 5 6 
#
# 1 37.8245 8.1991 31.7275 -13.3639 -0.7254 0.1128
# 2 8.1991 69.4770 39.0028 -15.8926 -0.0697 8.3385
# 3 31.7275 39.0028 135.0308 -14.3202 4.6006 8.5813
# 4 -13.3639 -15.8926 -14.3202 21.4692 0.3017 0.6180
# 5 -0.7254 -0.0697 4.6006 0.3017 28.3669 3.8873
# 6 0.1128 8.3385 8.5813 0.6180 3.8873 19.3296
#
#
#
# Elastic Compliance Matrix: (Units=1/GPa)
#
#
# Indices 1 2 3 4 5 6 
#
# 1 0.041055 0.005519 -0.008805 0.023735 0.002228 0.000081
# 2 0.005519 0.021294 -0.005343 0.015830 0.001953 -0.007745
# 3 -0.008805 -0.005343 0.010997 -0.002016 -0.001710 -0.002117
# 4 0.023735 0.015830 -0.002016 0.071956 0.001393 -0.008653
# 5 0.002228 0.001953 -0.001710 0.001393 0.036605 -0.007502
# 6 0.000081 -0.007745 -0.002117 -0.008653 -0.007502 0.057800
#
#
# Mechanical properties :
#
#
# Convention : Reuss Voigt Hill
#
# Bulk Modulus (GPa) = 17.82867 44.46568 31.14717
# Shear Modulus (GPa) = 18.13831 24.72668 21.43250
#
# Velocity S-wave (km/s) = 3.07415 3.58930 3.34167
# Velocity P-wave (km/s) = 4.67863 6.35176 5.57828
#
# Compressibility (1/GPa) = 0.05608944
#
# Stress axis : x y z
#
# Youngs Moduli (GPa) = 24.35739 46.96177 90.93499
#
# Poissons Ratio (x) = -0.25921 0.80066
# Poissons Ratio (y) = -0.13444 0.48587
# Poissons Ratio (z) = 0.21446 0.25092
#
# Static dielectric constant tensor:
#      x y z
#    x 3.168230 -0.009300 0.205600 
#    y -0.009300 3.526570 0.024550 
#    z 0.205600 0.024550 3.572950 
# 
# 
# High freq. dielectric constant tensor:
#      x y z
#    x 1.717780 0.000090 0.012240 
#    y 0.000090 1.752470 -0.000970 
#    z 0.012240 -0.000970 1.758290 
# 
# From -- ./inp_files/590891.got.cif
#   From: 2010.06.25/outbox.cif.g09.slc.cpg/sg2_296_cif.got.tgz:590891.got - 2010.06.27 13:26:56.
