data_PCOD8040667
_publ_section_title
;
Structure prediction by ZEFSAII (Michael W. Deem and Ramdas Pophale) SiO2 
 PCOD8040667
Probable space group: P -1
;
_chemical_formula_sum "Si O2"
_cell_formula_units_Z 16
_cell_length_a 13.869256
_cell_length_b 13.041671
_cell_length_c 13.438521
_cell_angle_alpha 33.773267
_cell_angle_beta 47.379283
_cell_angle_gamma 32.686136
_cell_volume 727.686503
_symmetry_space_group_name_H-M "P -1"
_symmetry_group_IT_number 2
_symmetry_cell_setting 'triclinic'
loop_
_space_group_symop_operation_xyz
x,y,z
-x,-y,-z
loop_
_atom_site_type_symbol
_atom_site_label
_atom_site_fract_x
_atom_site_fract_y
_atom_site_fract_z
Si Si1 0.182862 0.111337 0.930607
Si Si2 0.420710 0.172867 0.161703
Si Si3 0.378342 0.616561 0.897050
Si Si4 0.544134 0.249317 0.456587
Si Si5 0.941746 0.877320 0.196270
Si Si6 0.095206 0.925480 0.599176
Si Si7 0.920851 0.464593 0.993942
Si Si8 0.161701 0.718048 0.344387
O O1 0.122660 0.198678 0.785410
O O2 0.054823 0.355661 0.893505
O O3 0.388371 0.979786 0.900990
O O4 0.176242 0.909858 0.136387
O O5 0.271063 0.256338 0.118717
O O6 0.431129 0.995134 0.377259
O O7 0.336528 0.440544 0.051300
O O8 0.481356 0.614961 0.737011
O O9 0.209230 0.908309 0.795050
O O10 0.500000 0.500000 0.000000
O O11 0.705591 0.179035 0.466550
O O12 0.347190 0.469154 0.464462
O O13 0.094715 0.656959 0.344380
O O14 0.000000 0.000000 0.000000
O O15 0.115467 0.709982 0.810421
O O16 0.000000 0.000000 0.500000
O O17 0.977891 0.164783 0.561641
O O18 0.000000 0.500000 0.000000
#
# Coordination Sequence:
#
# PCOD8040667 Si02
#       8
#     2   2   2   2   2   2   2   2
#     4  10  21  42  67  95 131 178 223 273 343 402
#     4  12  24  42  68 100 137 176 225 279 336 408
#     4  12  21  43  68  95 143 179 220 280 331 400
#     4  12  25  41  67 101 136 181 227 276 340 407
#     4  10  18  37  70  95 127 185 220 267 343 400
#     4  11  23  43  69  98 135 182 228 287 342 400
#     4  11  24  44  70  99 133 178 225 288 345 400
#     4  10  20  41  66  94 136 177 225 274 339 404
#
# _framework density 21.987490999999999
#
# number of rings (size 3 to 8) (size 9 to 14) (size 15 to 20)
#    0.000    1.000    5.000    3.000    0.000    3.500 
#    0.000    0.625    0.000    0.000    0.000    0.000 
#    0.000    0.000    0.000    0.000    0.000    0.000 
#
# Total GULP energy -198244.156259 kJ/mol
# GULP energy per Si atom -12390.259766 kJ/mol
# Density = 2.193745 g / cm^3
# Si number density = 21.987491 Si / 1000 Ang^3
#
#
#
# Elastic Constant Matrix: (Units=GPa)
#
#
# Indices 1 2 3 4 5 6 
#
# 1 156.1649 82.5416 34.2808 -2.3509 25.5540 -17.5612
# 2 82.5416 131.5997 16.3053 0.3453 10.2805 -20.3935
# 3 34.2808 16.3053 76.9836 -15.4350 6.6442 3.9783
# 4 -2.3509 0.3453 -15.4350 16.5045 -1.1488 3.4816
# 5 25.5540 10.2805 6.6442 -1.1488 31.5609 -6.3068
# 6 -17.5612 -20.3935 3.9783 3.4816 -6.3068 40.7510
#
#
#
# Elastic Compliance Matrix: (Units=1/GPa)
#
#
# Indices 1 2 3 4 5 6 
#
# 1 0.011680 -0.006071 -0.003994 -0.002734 -0.006413 0.001626
# 2 -0.006071 0.011963 -0.000687 -0.002458 0.001860 0.003935
# 3 -0.003994 -0.000687 0.018959 0.018295 -0.000993 -0.005633
# 4 -0.002734 -0.002458 0.018295 0.079676 -0.000140 -0.011023
# 5 -0.006413 0.001860 -0.000993 -0.000140 0.037284 0.004046
# 6 0.001626 0.003935 -0.005633 -0.011023 0.004046 0.029327
#
#
# Mechanical properties :
#
#
# Convention : Reuss Voigt Hill
#
# Bulk Modulus (GPa) = 47.39941 70.11149 58.75545
# Shear Modulus (GPa) = 22.99634 33.20466 28.10050
#
# Velocity S-wave (km/s) = 3.23752 3.89030 3.57882
# Velocity P-wave (km/s) = 5.96487 7.22049 6.62250
#
# Compressibility (1/GPa) = 0.02109731
#
# Stress axis : x y z
#
# Youngs Moduli (GPa) = 85.61458 83.59278 52.74638
#
# Poissons Ratio (x) = 0.50749 0.21067
# Poissons Ratio (y) = 0.51977 0.03624
# Poissons Ratio (z) = 0.34195 0.05744
#
# Static dielectric constant tensor:
#      x y z
#    x 4.008890 -0.321190 0.272370 
#    y -0.321190 4.355230 -0.262180 
#    z 0.272370 -0.262180 4.031620 
# 
# 
# High freq. dielectric constant tensor:
#      x y z
#    x 1.864030 -0.026060 0.007760 
#    y -0.026060 1.868430 0.001500 
#    z 0.007760 0.001500 1.855710 
# 
# From -- ./inp_files/534105.got.cif
#   From: 2010.06.25/outbox.cif.g09.slc.cpg/sg2_268_cif.got.tgz:534105.got - 2010.06.27 13:26:56.
