data_PCOD8040676
_publ_section_title
;
Structure prediction by ZEFSAII (Michael W. Deem and Ramdas Pophale) SiO2 
 PCOD8040676
Probable space group: P -1
;
_chemical_formula_sum "Si O2"
_cell_formula_units_Z 16
_cell_length_a 17.597995
_cell_length_b 4.905462
_cell_length_c 11.764684
_cell_angle_alpha 103.543675
_cell_angle_beta 137.121345
_cell_angle_gamma 79.708829
_cell_volume 671.808626
_symmetry_space_group_name_H-M "P -1"
_symmetry_group_IT_number 2
_symmetry_cell_setting 'triclinic'
loop_
_space_group_symop_operation_xyz
x,y,z
-x,-y,-z
loop_
_atom_site_type_symbol
_atom_site_label
_atom_site_fract_x
_atom_site_fract_y
_atom_site_fract_z
Si Si1 0.979526 0.345963 0.829937
Si Si2 0.813021 0.205747 0.444892
Si Si3 0.888211 0.376281 0.315977
Si Si4 0.297977 0.231724 0.580448
Si Si5 0.136305 0.098338 0.196324
Si Si6 0.832288 0.298771 0.009594
Si Si7 0.672052 0.555299 0.012570
Si Si8 0.531267 0.085918 0.914403
O O1 0.922477 0.307375 0.641334
O O2 0.964406 0.068925 0.865138
O O3 0.107173 0.433301 0.955646
O O4 0.914407 0.593226 0.852897
O O5 0.841332 0.167630 0.340028
O O6 0.773828 0.901363 0.409722
O O7 0.713658 0.432958 0.385188
O O8 0.903616 0.211851 0.195393
O O9 0.791282 0.614712 0.211289
O O10 0.000000 0.500000 0.500000
O O11 0.247894 0.116229 0.396321
O O12 0.424813 0.125400 0.719904
O O13 0.175055 0.963471 0.107575
O O14 0.705466 0.384176 0.916748
O O15 0.610004 0.835664 0.930912
O O16 0.598297 0.376227 0.004291
O O17 0.500000 0.000000 0.000000
#
# Coordination Sequence:
#
# PCOD8040676 Si02
#       8
#     2   2   2   2   2   2   2   2
#     4  10  20  37  63  86 124 159 201 242 291 353
#     4  10  18  38  55  95 110 160 192 251 287 362
#     4  10  20  40  61  87 127 155 193 236 310 356
#     4  10  22  36  66  81 123 148 211 244 299 336
#     4  10  22  39  61  92 119 162 203 244 289 355
#     4  10  22  40  59  92 125 161 197 244 299 363
#     4  10  25  37  62  87 122 152 198 245 302 352
#     4  12  22  42  60  89 115 159 202 250 299 351
#
# _framework density 23.816305
#
# number of rings (size 3 to 8) (size 9 to 14) (size 15 to 20)
#    0.750    1.000    1.250    3.375    0.000    2.000 
#    0.000    3.750    0.000    0.000    0.000    0.000 
#    0.000    0.000    0.000    0.000    0.000    0.000 
#
# Total GULP energy -198292.366200 kJ/mol
# GULP energy per Si atom -12393.272887 kJ/mol
# Density = 2.376210 g / cm^3
# Si number density = 23.816305 Si / 1000 Ang^3
#
#
#
# Elastic Constant Matrix: (Units=GPa)
#
#
# Indices 1 2 3 4 5 6 
#
# 1 95.9786 12.8649 45.2977 -7.4066 -24.8748 -9.6485
# 2 12.8649 74.2730 26.3822 -19.1363 -5.7126 16.5980
# 3 45.2977 26.3822 124.4201 -16.3229 -0.0438 0.2456
# 4 -7.4066 -19.1363 -16.3229 32.6843 -5.8849 -2.0276
# 5 -24.8748 -5.7126 -0.0438 -5.8849 46.7428 2.3185
# 6 -9.6485 16.5980 0.2456 -2.0276 2.3185 21.9892
#
#
#
# Elastic Compliance Matrix: (Units=1/GPa)
#
#
# Indices 1 2 3 4 5 6 
#
# 1 0.016214 -0.001402 -0.005334 0.002161 0.008350 0.007552
# 2 -0.001402 0.021233 -0.002575 0.010547 0.003971 -0.016060
# 3 -0.005334 -0.002575 0.010808 0.002164 -0.002870 -0.000016
# 4 0.002161 0.010547 0.002164 0.039451 0.007616 -0.004202
# 5 0.008350 0.003971 -0.002870 0.007616 0.027352 -0.001483
# 6 0.007552 -0.016060 -0.000016 -0.004202 -0.001483 0.060682
#
#
# Mechanical properties :
#
#
# Convention : Reuss Voigt Hill
#
# Bulk Modulus (GPa) = 33.74669 51.52904 42.63787
# Shear Modulus (GPa) = 24.48075 34.29172 29.38623
#
# Velocity S-wave (km/s) = 3.20956 3.79864 3.51646
# Velocity P-wave (km/s) = 5.28540 6.39708 5.86762
#
# Compressibility (1/GPa) = 0.02963253
#
# Stress axis : x y z
#
# Youngs Moduli (GPa) = 61.67328 47.09641 92.52204
#
# Poissons Ratio (x) = 0.06604 0.49354
# Poissons Ratio (y) = 0.08648 0.23825
# Poissons Ratio (z) = 0.32898 0.12127
#
# Static dielectric constant tensor:
#      x y z
#    x 4.354050 0.053440 -0.133080 
#    y 0.053440 4.295610 -0.111550 
#    z -0.133080 -0.111550 4.511770 
# 
# 
# High freq. dielectric constant tensor:
#      x y z
#    x 1.940080 0.005690 -0.013350 
#    y 0.005690 1.945290 -0.006050 
#    z -0.013350 -0.006050 1.940860 
# 
# From -- ./inp_files/536199.got.cif
#   From: 2010.06.25/outbox.cif.g09.slc.cpg/sg2_269_cif.got.tgz:536199.got - 2010.06.27 13:26:56.
