data_PCOD8040811
_publ_section_title
;
Structure prediction by ZEFSAII (Michael W. Deem and Ramdas Pophale) SiO2 
 PCOD8040811
Probable space group: P -1
;
_chemical_formula_sum "Si O2"
_cell_formula_units_Z 16
_cell_length_a 15.835962
_cell_length_b 15.540921
_cell_length_c 9.295092
_cell_angle_alpha 142.195339
_cell_angle_beta 135.830678
_cell_angle_gamma 35.432192
_cell_volume 795.339604
_symmetry_space_group_name_H-M "P -1"
_symmetry_group_IT_number 2
_symmetry_cell_setting 'triclinic'
loop_
_space_group_symop_operation_xyz
x,y,z
-x,-y,-z
loop_
_atom_site_type_symbol
_atom_site_label
_atom_site_fract_x
_atom_site_fract_y
_atom_site_fract_z
Si Si1 0.827855 0.711694 0.919604
Si Si2 0.554600 0.917714 0.668939
Si Si3 0.959167 0.594348 0.423339
Si Si4 0.413445 0.841314 0.174009
Si Si5 0.910054 0.943806 0.898589
Si Si6 0.297740 0.260358 0.900413
Si Si7 0.877938 0.988428 0.256375
Si Si8 0.544979 0.318923 0.261157
O O1 0.661577 0.808064 0.783923
O O2 0.923463 0.529373 0.717076
O O3 0.820361 0.681837 0.039778
O O4 0.892696 0.823075 0.122140
O O5 0.543328 0.794091 0.381711
O O6 0.617268 0.010660 0.782307
O O7 0.391740 0.055477 0.717874
O O8 0.966471 0.756094 0.664222
O O9 0.796907 0.650047 0.243360
O O10 0.000000 0.500000 0.500000
O O11 0.261308 0.916859 0.172475
O O12 0.460725 0.677339 0.916487
O O13 0.923722 0.951914 0.097329
O O14 0.000000 0.000000 0.000000
O O15 0.415203 0.303346 0.138696
O O16 0.711114 0.162462 0.309173
O O17 0.000000 0.000000 0.500000
O O18 0.500000 0.500000 0.500000
#
# Coordination Sequence:
#
# PCOD8040811 Si02
#       8
#     2   2   2   2   2   2   2   2
#     4  12  24  41  66 102 134 166 226 279 328 391
#     4  10  18  38  69  91 125 164 221 272 324 385
#     4  12  25  43  69 100 131 172 228 272 325 390
#     4   9  18  37  63  91 119 171 216 260 325 377
#     4  11  23  43  65  95 130 175 216 270 328 395
#     4  11  24  41  69  96 128 173 222 274 327 390
#     4  11  25  42  61  95 136 178 212 270 339 398
#     4  10  23  40  65  91 131 173 217 269 334 394
#
# _framework density 20.117193
#
# number of rings (size 3 to 8) (size 9 to 14) (size 15 to 20)
#    0.000    1.250    6.250    0.750    7.000    2.000 
#    0.000    0.000    0.000    1.500    0.000    0.000 
#    0.000    0.000    0.000    0.000    0.000    0.000 
#
# Total GULP energy -198341.745226 kJ/mol
# GULP energy per Si atom -12396.359077 kJ/mol
# Density = 2.007141 g / cm^3
# Si number density = 20.117193 Si / 1000 Ang^3
#
#
#
# Elastic Constant Matrix: (Units=GPa)
#
#
# Indices 1 2 3 4 5 6 
#
# 1 134.4990 36.7309 59.2054 6.6925 1.3350 -8.1892
# 2 36.7309 86.7067 64.5044 -7.1793 -0.9243 -11.9799
# 3 59.2054 64.5044 166.2968 6.8696 0.0384 -7.1146
# 4 6.6925 -7.1793 6.8696 43.3001 -6.9968 -3.7857
# 5 1.3350 -0.9243 0.0384 -6.9968 27.5053 5.0277
# 6 -8.1892 -11.9799 -7.1146 -3.7857 5.0277 26.5446
#
#
#
# Elastic Compliance Matrix: (Units=1/GPa)
#
#
# Indices 1 2 3 4 5 6 
#
# 1 0.009205 -0.002118 -0.002341 -0.001473 -0.001120 0.001258
# 2 -0.002118 0.018493 -0.006349 0.005109 0.000833 0.006561
# 3 -0.002341 -0.006349 0.009350 -0.002367 -0.000472 -0.001330
# 4 -0.001473 0.005109 -0.002367 0.025865 0.006142 0.003742
# 5 -0.001120 0.000833 -0.000472 0.006142 0.039217 -0.006648
# 6 0.001258 0.006561 -0.001330 0.003742 -0.006648 0.042458
#
#
# Mechanical properties :
#
#
# Convention : Reuss Voigt Hill
#
# Bulk Modulus (GPa) = 64.80264 78.70934 71.75599
# Shear Modulus (GPa) = 29.18038 34.60746 31.89392
#
# Velocity S-wave (km/s) = 3.81270 4.15214 3.98604
# Velocity P-wave (km/s) = 7.18782 7.88653 7.54527
#
# Compressibility (1/GPa) = 0.01543147
#
# Stress axis : x y z
#
# Youngs Moduli (GPa) = 108.63896 54.07588 106.94638
#
# Poissons Ratio (x) = 0.11455 0.25031
# Poissons Ratio (y) = 0.23012 0.67905
# Poissons Ratio (z) = 0.25427 0.34335
#
# Static dielectric constant tensor:
#      x y z
#    x 3.521480 -0.253550 -0.170250 
#    y -0.253550 3.662640 -0.049320 
#    z -0.170250 -0.049320 4.043810 
# 
# 
# High freq. dielectric constant tensor:
#      x y z
#    x 1.774580 -0.025130 -0.014420 
#    y -0.025130 1.772540 -0.012550 
#    z -0.014420 -0.012550 1.802300 
# 
# From -- ./inp_files/269508.got.cif
#   From: 2010.06.25/outbox.cif.g09.slc.cpg/sg2_135_cif.got.tgz:269508.got - 2010.06.27 13:26:56.
