data_PCOD8040617
_publ_section_title
;
Structure prediction by ZEFSAII (Michael W. Deem and Ramdas Pophale) SiO2 
 PCOD8040617
Probable space group: P -1
;
_chemical_formula_sum "Si O2"
_cell_formula_units_Z 16
_cell_length_a 27.056911
_cell_length_b 14.696989
_cell_length_c 20.076494
_cell_angle_alpha 29.895369
_cell_angle_beta 160.644166
_cell_angle_gamma 159.845534
_cell_volume 899.289814
_symmetry_space_group_name_H-M "P -1"
_symmetry_group_IT_number 2
_symmetry_cell_setting 'triclinic'
loop_
_space_group_symop_operation_xyz
x,y,z
-x,-y,-z
loop_
_atom_site_type_symbol
_atom_site_label
_atom_site_fract_x
_atom_site_fract_y
_atom_site_fract_z
Si Si1 0.598398 0.062295 0.402130
Si Si2 0.850091 0.435464 0.790610
Si Si3 0.989508 0.543535 0.150635
Si Si4 0.897935 0.615182 0.489733
Si Si5 0.562815 0.994125 0.910949
Si Si6 0.703994 0.234949 0.154887
Si Si7 0.091167 0.994194 0.686563
Si Si8 0.991211 0.203980 0.864851
O O1 0.674974 0.328848 0.358011
O O2 0.536385 0.018072 0.274853
O O3 0.795360 0.097274 0.637331
O O4 0.401026 0.800080 0.359563
O O5 0.876919 0.325652 0.831080
O O6 0.919320 0.701587 0.687968
O O7 0.000000 0.500000 0.000000
O O8 0.041249 0.770349 0.115113
O O9 0.059382 0.427094 0.355424
O O10 0.732990 0.294675 0.965361
O O11 0.868015 0.806258 0.335067
O O12 0.104261 0.744987 0.622512
O O13 0.363284 0.798326 0.832939
O O14 0.682788 0.908200 0.104194
O O15 0.786069 0.504997 0.062323
O O16 0.500000 0.000000 0.000000
O O17 0.000000 0.000000 0.500000
O O18 0.000000 0.000000 0.000000
#
# Coordination Sequence:
#
# PCOD8040617 Si02
#       8
#     2   2   2   2   2   2   2   2
#     4  10  23  39  59  85 127 156 188 253 313 345
#     4  11  20  38  62  87 120 164 194 239 312 357
#     4   9  18  38  61  79 121 154 200 237 301 355
#     4  10  21  37  57  92 119 150 200 259 289 348
#     4  11  19  37  64  84 115 158 202 240 300 353
#     4  10  18  37  65  80 112 162 200 235 303 354
#     4  11  20  37  62  91 116 151 215 244 275 367
#     4  10  23  40  57  89 121 150 203 253 292 360
#
# _framework density 17.791817999999999
#
# number of rings (size 3 to 8) (size 9 to 14) (size 15 to 20)
#    0.000    2.000    7.500    0.000    0.000    6.500 
#    2.250    1.875    0.000    0.000    0.000    0.000 
#    0.000    0.000    0.000    0.000    0.000    0.000 
#
# Total GULP energy -198333.140456 kJ/mol
# GULP energy per Si atom -12395.821279 kJ/mol
# Density = 1.775132 g / cm^3
# Si number density = 17.791818 Si / 1000 Ang^3
#
#
#
# Elastic Constant Matrix: (Units=GPa)
#
#
# Indices 1 2 3 4 5 6 
#
# 1 134.7147 57.1155 49.9380 -13.5441 -1.1167 7.1561
# 2 57.1155 117.4640 48.8651 -8.3780 5.8099 -1.7943
# 3 49.9380 48.8651 94.1725 -0.2591 -9.4719 -9.0191
# 4 -13.5441 -8.3780 -0.2591 28.0604 -6.0077 9.2140
# 5 -1.1167 5.8099 -9.4719 -6.0077 36.7858 -3.0447
# 6 7.1561 -1.7943 -9.0191 9.2140 -3.0447 40.7430
#
#
#
# Elastic Compliance Matrix: (Units=1/GPa)
#
#
# Indices 1 2 3 4 5 6 
#
# 1 0.011407 -0.003207 -0.004781 0.006049 0.000233 -0.004554
# 2 -0.003207 0.012482 -0.005152 0.001661 -0.003177 -0.000641
# 3 -0.004781 -0.005152 0.016839 -0.004557 0.004734 0.005725
# 4 0.006049 0.001661 -0.004557 0.043864 0.004956 -0.011547
# 5 0.000233 -0.003177 0.004734 0.004956 0.029886 0.001980
# 6 -0.004554 -0.000641 0.005725 -0.011547 0.001980 0.029342
#
#
# Mechanical properties :
#
#
# Convention : Reuss Voigt Hill
#
# Bulk Modulus (GPa) = 69.21583 73.13205 71.17394
# Shear Modulus (GPa) = 28.58494 33.81333 31.19914
#
# Velocity S-wave (km/s) = 4.01263 4.36420 4.19210
# Velocity P-wave (km/s) = 7.77534 8.16018 7.97008
#
# Compressibility (1/GPa) = 0.01444756
#
# Stress axis : x y z
#
# Youngs Moduli (GPa) = 87.66401 80.11527 59.38478
#
# Poissons Ratio (x) = 0.25696 0.28391
# Poissons Ratio (y) = 0.28118 0.30597
# Poissons Ratio (z) = 0.41910 0.41278
#
# Static dielectric constant tensor:
#      x y z
#    x 4.176690 0.096320 0.266500 
#    y 0.096320 3.476800 0.123730 
#    z 0.266500 0.123730 3.362810 
# 
# 
# High freq. dielectric constant tensor:
#      x y z
#    x 1.697280 0.000270 -0.008560 
#    y 0.000270 1.684660 0.014120 
#    z -0.008560 0.014120 1.675970 
# 
# From -- ./inp_files/297837.got.cif
#   From: 2010.06.25/outbox.cif.g09.slc.cpg/sg2_149_cif.got.tgz:297837.got - 2010.06.27 13:26:56.
