data_PCOD8040604
_publ_section_title
;
Structure prediction by ZEFSAII (Michael W. Deem and Ramdas Pophale) SiO2 
 PCOD8040604
Probable space group: P -1
;
_chemical_formula_sum "Si O2"
_cell_formula_units_Z 16
_cell_length_a 19.106169
_cell_length_b 11.816664
_cell_length_c 8.970848
_cell_angle_alpha 120.366128
_cell_angle_beta 148.434073
_cell_angle_gamma 47.523792
_cell_volume 769.082189
_symmetry_space_group_name_H-M "P -1"
_symmetry_group_IT_number 2
_symmetry_cell_setting 'triclinic'
loop_
_space_group_symop_operation_xyz
x,y,z
-x,-y,-z
loop_
_atom_site_type_symbol
_atom_site_label
_atom_site_fract_x
_atom_site_fract_y
_atom_site_fract_z
Si Si1 0.670667 0.527705 0.554052
Si Si2 0.919239 0.710087 0.570434
Si Si3 0.708946 0.962357 0.734111
Si Si4 0.500082 0.173365 0.747343
Si Si5 0.824023 0.035215 0.699539
Si Si6 0.019497 0.356879 0.027761
Si Si7 0.448859 0.685846 0.783603
Si Si8 0.746464 0.563684 0.038318
O O1 0.631573 0.663741 0.458372
O O2 0.556677 0.463781 0.279799
O O3 0.656008 0.594734 0.738212
O O4 0.848078 0.380986 0.748639
O O5 0.906864 0.660729 0.684780
O O6 0.819811 0.670678 0.252618
O O7 0.105377 0.616397 0.796386
O O8 0.838352 0.895150 0.534841
O O9 0.576065 0.927031 0.416712
O O10 0.867608 0.800540 0.964800
O O11 0.647857 0.077683 0.839957
O O12 0.753811 0.039471 0.737049
O O13 0.566791 0.207207 0.036745
O O14 0.700405 0.204239 0.520231
O O15 0.000000 0.000000 0.000000
O O16 0.000000 0.500000 0.000000
O O17 0.619669 0.612108 0.969788
#
# Coordination Sequence:
#
# PCOD8040604 Si02
#       8
#     2   2   2   2   2   2   2   2
#     4  11  23  40  62  90 126 166 208 257 315 370
#     4   9  21  38  61  96 121 158 213 256 305 370
#     4  10  22  41  65  91 125 163 206 254 316 373
#     4  11  24  41  61  95 127 161 208 258 314 378
#     4  11  23  43  65  88 128 166 206 260 316 378
#     4  10  18  37  64  87 120 161 201 252 309 364
#     4  12  24  40  63  93 127 166 211 256 316 372
#     4  10  21  39  64  92 126 160 215 257 309 371
#
# _framework density 20.804017999999999
#
# number of rings (size 3 to 8) (size 9 to 14) (size 15 to 20)
#    0.000    1.500    1.250    5.250    0.000    5.000 
#    2.250    2.500    0.000    0.000    0.000    0.000 
#    0.000    0.000    0.000    0.000    0.000    0.000 
#
# Total GULP energy -198413.792216 kJ/mol
# GULP energy per Si atom -12400.862014 kJ/mol
# Density = 2.075667 g / cm^3
# Si number density = 20.804018 Si / 1000 Ang^3
#
#
#
# Elastic Constant Matrix: (Units=GPa)
#
#
# Indices 1 2 3 4 5 6 
#
# 1 108.4664 35.0253 47.8171 4.6391 14.2983 -13.2989
# 2 35.0253 63.2089 13.9821 -6.6218 6.8553 -10.9074
# 3 47.8171 13.9821 79.9794 7.0472 11.0593 -8.9780
# 4 4.6391 -6.6218 7.0472 33.8843 -1.5708 4.8007
# 5 14.2983 6.8553 11.0593 -1.5708 25.2278 -5.3927
# 6 -13.2989 -10.9074 -8.9780 4.8007 -5.3927 41.8277
#
#
#
# Elastic Compliance Matrix: (Units=1/GPa)
#
#
# Indices 1 2 3 4 5 6 
#
# 1 0.015163 -0.006435 -0.007092 -0.002225 -0.003573 0.001416
# 2 -0.006435 0.020353 0.000374 0.004344 -0.001203 0.002688
# 3 -0.007092 0.000374 0.017618 -0.003002 -0.003673 0.001495
# 4 -0.002225 0.004344 -0.003002 0.031914 0.002626 -0.003543
# 5 -0.003573 -0.001203 -0.003673 0.002626 0.044446 0.003191
# 6 0.001416 0.002688 0.001495 -0.003543 0.003191 0.026198
#
#
# Mechanical properties :
#
#
# Convention : Reuss Voigt Hill
#
# Bulk Modulus (GPa) = 37.27226 49.47820 43.37523
# Shear Modulus (GPa) = 26.18622 30.50996 28.34809
#
# Velocity S-wave (km/s) = 3.55168 3.83370 3.69538
# Velocity P-wave (km/s) = 5.89695 6.59022 6.25320
#
# Compressibility (1/GPa) = 0.02682960
#
# Stress axis : x y z
#
# Youngs Moduli (GPa) = 65.94794 49.13318 56.76000
#
# Poissons Ratio (x) = 0.31617 0.40253
# Poissons Ratio (y) = 0.42437 -0.02125
# Poissons Ratio (z) = 0.46769 -0.01840
#
# Static dielectric constant tensor:
#      x y z
#    x 3.804320 -0.195360 0.160880 
#    y -0.195360 3.942650 -0.113710 
#    z 0.160880 -0.113710 3.672150 
# 
# 
# High freq. dielectric constant tensor:
#      x y z
#    x 1.814300 -0.012410 0.016110 
#    y -0.012410 1.822110 -0.006070 
#    z 0.016110 -0.006070 1.804540 
# 
# From -- ./inp_files/223859.got.cif
#   From: 2010.06.25/outbox.cif.g09.slc.cpg/sg2_112_cif.got.tgz:223859.got - 2010.06.27 13:26:56.
