data_PCOD8040704
_publ_section_title
;
Structure prediction by ZEFSAII (Michael W. Deem and Ramdas Pophale) SiO2 
 PCOD8040704
Probable space group: P -1
;
_chemical_formula_sum "Si O2"
_cell_formula_units_Z 14
_cell_length_a 18.488273
_cell_length_b 12.070329
_cell_length_c 9.299631
_cell_angle_alpha 54.510308
_cell_angle_beta 136.464313
_cell_angle_gamma 150.752961
_cell_volume 690.030851
_symmetry_space_group_name_H-M "P -1"
_symmetry_group_IT_number 2
_symmetry_cell_setting 'triclinic'
loop_
_space_group_symop_operation_xyz
x,y,z
-x,-y,-z
loop_
_atom_site_type_symbol
_atom_site_label
_atom_site_fract_x
_atom_site_fract_y
_atom_site_fract_z
Si Si1 0.644584 0.181386 0.860115
Si Si2 0.955062 0.261433 0.524113
Si Si3 0.267762 0.724694 0.755324
Si Si4 0.863755 0.160114 0.149832
Si Si5 0.209628 0.407926 0.353153
Si Si6 0.704895 0.714897 0.179947
Si Si7 0.976709 0.986076 0.808653
O O1 0.640346 0.322051 0.664635
O O2 0.450561 0.916133 0.789920
O O3 0.715039 0.284481 0.043869
O O4 0.754606 0.181049 0.931246
O O5 0.154160 0.484818 0.702925
O O6 0.825401 0.228019 0.447058
O O7 0.948341 0.285801 0.328933
O O8 0.889776 0.041408 0.617821
O O9 0.028401 0.305945 0.173884
O O10 0.740979 0.896454 0.174025
O O11 0.253346 0.366279 0.589909
O O12 0.177011 0.275475 0.270467
O O13 0.837032 0.837261 0.142036
O O14 0.500000 0.500000 0.000000
O O15 0.000000 0.000000 0.000000
#
# Coordination Sequence:
#
# PCOD8040704 Si02
#       7
#     2   2   2   2   2   2   2
#     4  10  21  37  61  93 124 158 206 257 308 360
#     4  10  18  38  61  84 119 172 199 244 313 369
#     4   9  21  36  58  89 129 157 204 254 304 373
#     4  10  20  39  64  86 120 167 204 246 314 374
#     4  11  21  42  61  94 125 163 206 259 307 376
#     4  11  24  42  63  93 126 164 214 261 308 372
#     4  11  22  39  66  91 123 166 211 250 317 376
#
# _framework density 20.288948000000001
#
# number of rings (size 3 to 8) (size 9 to 14) (size 15 to 20)
#    0.000    1.714    2.857    2.143    2.000    1.143 
#    2.571    7.143    0.000    0.000    0.000    0.000 
#    0.000    0.000    0.000    0.000    0.000    0.000 
#
# Total GULP energy -173527.943509 kJ/mol
# GULP energy per Si atom -12394.853108 kJ/mol
# Density = 2.024277 g / cm^3
# Si number density = 20.288948 Si / 1000 Ang^3
#
#
#
# Elastic Constant Matrix: (Units=GPa)
#
#
# Indices 1 2 3 4 5 6 
#
# 1 80.6760 30.2622 37.0380 -6.4415 -0.3930 -11.3467
# 2 30.2622 74.2459 41.1458 -8.3627 2.9160 -11.9014
# 3 37.0380 41.1458 82.2278 -6.7697 0.5172 0.2114
# 4 -6.4415 -8.3627 -6.7697 41.2452 -5.8817 0.8921
# 5 -0.3930 2.9160 0.5172 -5.8817 28.9656 -6.6504
# 6 -11.3467 -11.9014 0.2114 0.8921 -6.6504 25.6276
#
#
#
# Elastic Compliance Matrix: (Units=1/GPa)
#
#
# Indices 1 2 3 4 5 6 
#
# 1 0.017442 -0.002156 -0.006698 0.001392 0.002553 0.007390
# 2 -0.002156 0.021329 -0.009539 0.002304 0.000549 0.009092
# 3 -0.006698 -0.009539 0.020004 0.000297 -0.001240 -0.007892
# 4 0.001392 0.002304 0.000297 0.025717 0.005513 0.002219
# 5 0.002553 0.000549 -0.001240 0.005513 0.038197 0.011116
# 6 0.007390 0.009092 -0.007892 0.002219 0.011116 0.049387
#
#
# Mechanical properties :
#
#
# Convention : Reuss Voigt Hill
#
# Bulk Modulus (GPa) = 45.47688 50.44909 47.96299
# Shear Modulus (GPa) = 23.12768 27.74793 25.43781
#
# Velocity S-wave (km/s) = 3.37993 3.70217 3.54471
# Velocity P-wave (km/s) = 6.13964 6.57222 6.35961
#
# Compressibility (1/GPa) = 0.02198919
#
# Stress axis : x y z
#
# Youngs Moduli (GPa) = 57.33275 46.88425 49.99014
#
# Poissons Ratio (x) = 0.10109 0.33483
# Poissons Ratio (y) = 0.12362 0.47684
# Poissons Ratio (z) = 0.38401 0.44722
#
# Static dielectric constant tensor:
#      x y z
#    x 3.796070 -0.267870 0.268640 
#    y -0.267870 3.703700 0.015910 
#    z 0.268640 0.015910 3.451280 
# 
# 
# High freq. dielectric constant tensor:
#      x y z
#    x 1.795770 -0.020180 0.008940 
#    y -0.020180 1.790940 -0.002200 
#    z 0.008940 -0.002200 1.784810 
# 
# From -- ./inp_files/155350.got.cif
#   From: 2010.06.25/outbox.cif.g09.slc.cpg/sg2_78_cif.got.tgz:155350.got - 2010.06.27 13:26:56.
