data_PCOD8040447
_publ_section_title
;
Structure prediction by ZEFSAII (Michael W. Deem and Ramdas Pophale) SiO2 
 PCOD8040447
Probable space group: P -1
;
_chemical_formula_sum "Si O2"
_cell_formula_units_Z 16
_cell_length_a 12.181796
_cell_length_b 18.601687
_cell_length_c 12.349290
_cell_angle_alpha 143.716983
_cell_angle_beta 132.702364
_cell_angle_gamma 28.995866
_cell_volume 799.212799
_symmetry_space_group_name_H-M "P -1"
_symmetry_group_IT_number 2
_symmetry_cell_setting 'triclinic'
loop_
_space_group_symop_operation_xyz
x,y,z
-x,-y,-z
loop_
_atom_site_type_symbol
_atom_site_label
_atom_site_fract_x
_atom_site_fract_y
_atom_site_fract_z
Si Si1 0.396009 0.571701 0.398720
Si Si2 0.193468 0.939259 0.626840
Si Si3 0.573836 0.060175 0.404495
Si Si4 0.004918 0.706569 0.996632
Si Si5 0.671924 0.405668 0.172464
Si Si6 0.903205 0.691459 0.689370
Si Si7 0.487395 0.667943 0.188374
Si Si8 0.983313 0.652542 0.158817
O O1 0.500000 0.500000 0.500000
O O2 0.314814 0.759941 0.558928
O O3 0.586162 0.423911 0.256533
O O4 0.197338 0.594563 0.278662
O O5 0.369040 0.904572 0.626039
O O6 0.000000 0.000000 0.500000
O O7 0.063397 0.109239 0.828913
O O8 0.330926 0.143840 0.330752
O O9 0.558495 0.161709 0.619617
O O10 0.758822 0.845276 0.299879
O O11 0.943698 0.691712 0.053233
O O12 0.267523 0.518405 0.921310
O O13 0.857203 0.730640 0.834731
O O14 0.483616 0.608838 0.234460
O O15 0.917547 0.317169 0.240265
O O16 0.695139 0.272965 0.948152
O O17 0.000000 0.500000 0.500000
O O18 0.000000 0.500000 0.000000
#
# Coordination Sequence:
#
# PCOD8040447 Si02
#       8
#     2   2   2   2   2   2   2   2
#     4  12  24  42  68  96 136 173 217 278 329 391
#     4  11  20  39  68 100 123 166 236 263 317 389
#     4  11  22  39  69  98 128 168 222 278 323 390
#     4  10  21  37  69  92 129 167 220 275 318 383
#     4  10  20  35  65  98 127 168 212 275 329 381
#     4  11  21  35  62 103 134 155 213 284 333 375
#     4  10  18  36  70  96 120 164 229 271 319 379
#     4  11  26  44  61  89 135 180 221 256 336 402
#
# _framework density 20.019698000000002
#
# number of rings (size 3 to 8) (size 9 to 14) (size 15 to 20)
#    0.000    1.250    7.500    0.000    3.500    5.000 
#    0.000    0.625    0.000    6.000    0.000    0.000 
#    0.000    0.000    0.000    0.000    0.000    0.000 
#
# Total GULP energy -198317.055915 kJ/mol
# GULP energy per Si atom -12394.815995 kJ/mol
# Density = 1.997413 g / cm^3
# Si number density = 20.019698 Si / 1000 Ang^3
#
#
#
# Elastic Constant Matrix: (Units=GPa)
#
#
# Indices 1 2 3 4 5 6 
#
# 1 78.5457 59.3223 53.1364 -5.7025 6.4754 -8.0291
# 2 59.3223 112.8825 76.3674 -4.0607 11.5129 -13.2179
# 3 53.1364 76.3674 183.3391 -0.0688 10.1416 -6.9588
# 4 -5.7025 -4.0607 -0.0688 42.3687 3.1027 4.3993
# 5 6.4754 11.5129 10.1416 3.1027 36.1655 -4.4886
# 6 -8.0291 -13.2179 -6.9588 4.3993 -4.4886 38.4998
#
#
#
# Elastic Compliance Matrix: (Units=1/GPa)
#
#
# Indices 1 2 3 4 5 6 
#
# 1 0.021877 -0.009847 -0.002204 0.001962 -0.000267 0.000528
# 2 -0.009847 0.017434 -0.004172 0.000206 -0.002276 0.002889
# 3 -0.002204 -0.004172 0.007840 -0.000600 -0.000482 -0.000463
# 4 0.001962 0.000206 -0.000600 0.024364 -0.002677 -0.002725
# 5 -0.000267 -0.002276 -0.000482 -0.002677 0.029133 0.002778
# 6 0.000528 0.002889 -0.000463 -0.002725 0.002778 0.027628
#
#
# Mechanical properties :
#
#
# Convention : Reuss Voigt Hill
#
# Bulk Modulus (GPa) = 67.99977 83.60216 75.80097
# Shear Modulus (GPa) = 30.18907 35.80287 32.99597
#
# Velocity S-wave (km/s) = 3.88747 4.23351 4.06418
# Velocity P-wave (km/s) = 7.36139 8.10848 7.74395
#
# Compressibility (1/GPa) = 0.01470593
#
# Stress axis : x y z
#
# Youngs Moduli (GPa) = 45.70936 57.35948 127.55327
#
# Poissons Ratio (x) = 0.56479 0.28108
# Poissons Ratio (y) = 0.45008 0.53221
# Poissons Ratio (z) = 0.10072 0.23933
#
# Static dielectric constant tensor:
#      x y z
#    x 3.433320 -0.283170 -0.165870 
#    y -0.283170 3.519630 -0.040690 
#    z -0.165870 -0.040690 4.190010 
# 
# 
# High freq. dielectric constant tensor:
#      x y z
#    x 1.759140 -0.026250 -0.004310 
#    y -0.026250 1.758710 -0.002330 
#    z -0.004310 -0.002330 1.808210 
# 
# From -- ./inp_files/437026.got.cif
#   From: 2010.06.25/outbox.cif.g09.slc.cpg/sg2_219_cif.got.tgz:437026.got - 2010.06.27 13:26:56.
