data_PCOD8040776
_publ_section_title
;
Structure prediction by ZEFSAII (Michael W. Deem and Ramdas Pophale) SiO2 
 PCOD8040776
Probable space group: P -1
;
_chemical_formula_sum "Si O2"
_cell_formula_units_Z 16
_cell_length_a 14.688475
_cell_length_b 8.762478
_cell_length_c 10.498323
_cell_angle_alpha 112.542744
_cell_angle_beta 42.978521
_cell_angle_gamma 90.194807
_cell_volume 763.965656
_symmetry_space_group_name_H-M "P -1"
_symmetry_group_IT_number 2
_symmetry_cell_setting 'triclinic'
loop_
_space_group_symop_operation_xyz
x,y,z
-x,-y,-z
loop_
_atom_site_type_symbol
_atom_site_label
_atom_site_fract_x
_atom_site_fract_y
_atom_site_fract_z
Si Si1 0.497115 0.826673 0.016798
Si Si2 0.800102 0.618635 0.529763
Si Si3 0.003437 0.236999 0.502849
Si Si4 0.415461 0.717682 0.670543
Si Si5 0.778308 0.015927 0.250387
Si Si6 0.361662 0.113711 0.438421
Si Si7 0.763787 0.176014 0.865429
Si Si8 0.053969 0.783677 0.735982
O O1 0.383235 0.758693 0.049739
O O2 0.448657 0.899809 0.233839
O O3 0.661609 0.661464 0.781621
O O4 0.500000 0.000000 0.000000
O O5 0.936389 0.616244 0.472946
O O6 0.762440 0.761341 0.496714
O O7 0.853626 0.413306 0.353004
O O8 0.864526 0.273938 0.749045
O O9 0.945141 0.257746 0.426483
O O10 0.142502 0.040720 0.318081
O O11 0.500000 0.500000 0.500000
O O12 0.526572 0.795634 0.633075
O O13 0.350551 0.809489 0.630784
O O14 0.280770 0.769593 0.925019
O O15 0.712381 0.895533 0.355439
O O16 0.866905 0.084223 0.279459
O O17 0.886899 0.879661 0.990194
#
# Coordination Sequence:
#
# PCOD8040776 Si02
#       8
#     2   2   2   2   2   2   2   2
#     4  10  18  38  66  89 119 162 206 264 317 359
#     4  11  22  40  69  94 125 165 208 271 315 365
#     4  11  22  39  67  96 127 160 212 263 318 374
#     4  12  24  43  65  91 129 169 212 259 312 378
#     4  11  26  42  62  89 129 177 205 255 311 381
#     4  11  22  42  67  92 125 164 218 255 317 377
#     4  11  21  39  68  93 122 167 210 260 321 372
#     4  11  25  43  60  92 134 165 210 257 317 375
#
# _framework density 20.943351
#
# number of rings (size 3 to 8) (size 9 to 14) (size 15 to 20)
#    0.000    1.000    6.250    2.250    1.750    1.500 
#    2.250    1.250    0.000    0.000    0.000    0.000 
#    0.000    0.000    0.000    0.000    0.000    0.000 
#
# Total GULP energy -198438.735024 kJ/mol
# GULP energy per Si atom -12402.420939 kJ/mol
# Density = 2.089568 g / cm^3
# Si number density = 20.943351 Si / 1000 Ang^3
#
#
#
# Elastic Constant Matrix: (Units=GPa)
#
#
# Indices 1 2 3 4 5 6 
#
# 1 94.3245 24.6160 27.7874 -10.5612 -2.9476 -1.7839
# 2 24.6160 70.2590 56.6803 -3.3455 -2.6088 -6.4357
# 3 27.7874 56.6803 100.7546 -13.0858 -4.6310 -0.4784
# 4 -10.5612 -3.3455 -13.0858 36.6195 -3.3131 -0.4551
# 5 -2.9476 -2.6088 -4.6310 -3.3131 29.0788 -6.4231
# 6 -1.7839 -6.4357 -0.4784 -0.4551 -6.4231 29.9816
#
#
#
# Elastic Compliance Matrix: (Units=1/GPa)
#
#
# Indices 1 2 3 4 5 6 
#
# 1 0.012121 -0.003088 -0.001173 0.002904 0.001170 0.000334
# 2 -0.003088 0.028081 -0.015371 -0.003694 0.000589 0.005669
# 3 -0.001173 -0.015371 0.019662 0.005402 0.001671 -0.002616
# 4 0.002904 -0.003694 0.005402 0.030152 0.004452 0.000878
# 5 0.001170 0.000589 0.001671 0.004452 0.037157 0.008251
# 6 0.000334 0.005669 -0.002616 0.000878 0.008251 0.036330
#
#
# Mechanical properties :
#
#
# Convention : Reuss Voigt Hill
#
# Bulk Modulus (GPa) = 48.54593 53.72282 51.13438
# Shear Modulus (GPa) = 23.85121 29.55296 26.70208
#
# Velocity S-wave (km/s) = 3.37834 3.76052 3.57454
# Velocity P-wave (km/s) = 6.20061 6.67552 6.44244
#
# Compressibility (1/GPa) = 0.02059905
#
# Stress axis : x y z
#
# Youngs Moduli (GPa) = 82.49963 35.61181 50.86004
#
# Poissons Ratio (x) = 0.10997 0.05967
# Poissons Ratio (y) = 0.25476 0.78177
# Poissons Ratio (z) = 0.09679 0.54739
#
# Static dielectric constant tensor:
#      x y z
#    x 3.729630 0.084290 0.017130 
#    y 0.084290 3.587590 -0.021550 
#    z 0.017130 -0.021550 4.219540 
# 
# 
# High freq. dielectric constant tensor:
#      x y z
#    x 1.822220 0.009520 -0.003870 
#    y 0.009520 1.804180 -0.005240 
#    z -0.003870 -0.005240 1.827190 
# 
# From -- ./inp_files/277555.got.cif
#   From: 2010.06.25/outbox.cif.g09.slc.cpg/sg2_139_cif.got.tgz:277555.got - 2010.06.27 13:26:56.
