data_PCOD8040396
_publ_section_title
;
Structure prediction by ZEFSAII (Michael W. Deem and Ramdas Pophale) SiO2 
 PCOD8040396
Probable space group: P -1
;
_chemical_formula_sum "Si O2"
_cell_formula_units_Z 16
_cell_length_a 17.602761
_cell_length_b 11.740035
_cell_length_c 9.472327
_cell_angle_alpha 54.387579
_cell_angle_beta 80.080570
_cell_angle_gamma 125.799967
_cell_volume 811.193081
_symmetry_space_group_name_H-M "P -1"
_symmetry_group_IT_number 2
_symmetry_cell_setting 'triclinic'
loop_
_space_group_symop_operation_xyz
x,y,z
-x,-y,-z
loop_
_atom_site_type_symbol
_atom_site_label
_atom_site_fract_x
_atom_site_fract_y
_atom_site_fract_z
Si Si1 0.166414 0.246452 0.829152
Si Si2 0.384753 0.169497 0.495133
Si Si3 0.163669 0.262446 0.312715
Si Si4 0.654583 0.224026 0.486237
Si Si5 0.307929 0.346346 0.445534
Si Si6 0.616601 0.855848 0.816512
Si Si7 0.665069 0.211833 0.162725
Si Si8 0.712394 0.718444 0.987749
O O1 0.226034 0.490139 0.684471
O O2 0.287457 0.377595 0.584276
O O3 0.163671 0.133402 0.043532
O O4 0.000000 0.000000 0.000000
O O5 0.290032 0.150663 0.600561
O O6 0.410417 0.227453 0.277278
O O7 0.296972 0.894387 0.771551
O O8 0.552054 0.430744 0.315643
O O9 0.171558 0.195782 0.507102
O O10 0.273428 0.353114 0.105339
O O11 0.206101 0.491671 0.159338
O O12 0.000000 0.000000 0.500000
O O13 0.658291 0.251704 0.297448
O O14 0.694668 0.129660 0.595566
O O15 0.481134 0.988379 0.742652
O O16 0.464574 0.629922 0.117949
O O17 0.722791 0.901079 0.817863
#
# Coordination Sequence:
#
# PCOD8040396 Si02
#       8
#     2   2   2   2   2   2   2   2
#     4  12  26  41  56  86 130 167 193 231 301 376
#     4  10  18  36  66  94 115 143 204 262 297 332
#     4  12  21  36  60  90 120 157 202 239 292 358
#     4  10  19  38  61  90 116 154 200 247 297 342
#     4  11  22  37  58  91 122 156 196 246 298 353
#     4  10  19  36  66  92 115 142 206 267 290 331
#     4  10  18  36  64  90 113 150 203 254 292 338
#     4  11  19  39  61  85 117 162 198 241 299 348
#
# _framework density 19.724034
#
# number of rings (size 3 to 8) (size 9 to 14) (size 15 to 20)
#    0.000    1.250    6.250    2.250    0.000    2.500 
#    0.000    2.500    0.000    0.000    0.000    0.000 
#    0.000    0.000    0.000    0.000    0.000    0.000 
#
# Total GULP energy -198312.393076 kJ/mol
# GULP energy per Si atom -12394.524567 kJ/mol
# Density = 1.967914 g / cm^3
# Si number density = 19.724034 Si / 1000 Ang^3
#
#
#
# Elastic Constant Matrix: (Units=GPa)
#
#
# Indices 1 2 3 4 5 6 
#
# 1 137.0274 52.4703 38.3728 -18.3234 29.4454 -8.5198
# 2 52.4703 98.3653 26.0889 -15.0101 10.4450 -2.1404
# 3 38.3728 26.0889 39.4837 -17.7664 7.9831 -7.0099
# 4 -18.3234 -15.0101 -17.7664 37.8960 -5.1621 -0.5431
# 5 29.4454 10.4450 7.9831 -5.1621 22.6103 -0.5627
# 6 -8.5198 -2.1404 -7.0099 -0.5431 -0.5627 33.1899
#
#
#
# Elastic Compliance Matrix: (Units=1/GPa)
#
#
# Indices 1 2 3 4 5 6 
#
# 1 0.014077 -0.003895 -0.008315 -0.000477 -0.013672 0.001367
# 2 -0.003895 0.013663 -0.005043 0.001257 0.000799 -0.001150
# 3 -0.008315 -0.005043 0.044632 0.015152 0.001039 0.007232
# 4 -0.000477 0.001257 0.015152 0.034164 0.002585 0.003761
# 5 -0.013672 0.000799 0.001039 0.002585 0.061834 -0.002148
# 6 0.001367 -0.001150 0.007232 0.003761 -0.002148 0.031959
#
#
# Mechanical properties :
#
#
# Convention : Reuss Voigt Hill
#
# Bulk Modulus (GPa) = 26.40885 56.52672 41.46779
# Shear Modulus (GPa) = 20.20557 29.26887 24.73722
#
# Velocity S-wave (km/s) = 3.20412 3.85635 3.54526
# Velocity P-wave (km/s) = 5.20641 6.96775 6.15046
#
# Compressibility (1/GPa) = 0.03786609
#
# Stress axis : x y z
#
# Youngs Moduli (GPa) = 71.03853 73.18941 22.40557
#
# Poissons Ratio (x) = 0.28506 0.18630
# Poissons Ratio (y) = 0.27669 0.11299
# Poissons Ratio (z) = 0.59069 0.36909
#
# Static dielectric constant tensor:
#      x y z
#    x 3.965930 -0.115080 0.204500 
#    y -0.115080 3.462200 0.096430 
#    z 0.204500 0.096430 3.351050 
# 
# 
# High freq. dielectric constant tensor:
#      x y z
#    x 1.785140 -0.000350 0.020650 
#    y -0.000350 1.749320 0.002040 
#    z 0.020650 0.002040 1.735970 
# 
# From -- ./inp_files/321059.got.cif
#   From: 2010.06.25/outbox.cif.g09.slc.cpg/sg2_161_cif.got.tgz:321059.got - 2010.06.27 13:26:56.
