data_PCOD8040158
_publ_section_title
;
Structure prediction by ZEFSAII (Michael W. Deem and Ramdas Pophale) SiO2 
 PCOD8040158
Probable space group: P -1
;
_chemical_formula_sum "Si O2"
_cell_formula_units_Z 16
_cell_length_a 18.042854
_cell_length_b 8.943488
_cell_length_c 9.326044
_cell_angle_alpha 113.174277
_cell_angle_beta 48.991554
_cell_angle_gamma 79.387312
_cell_volume 804.166875
_symmetry_space_group_name_H-M "P -1"
_symmetry_group_IT_number 2
_symmetry_cell_setting 'triclinic'
loop_
_space_group_symop_operation_xyz
x,y,z
-x,-y,-z
loop_
_atom_site_type_symbol
_atom_site_label
_atom_site_fract_x
_atom_site_fract_y
_atom_site_fract_z
Si Si1 0.267745 0.715970 0.764229
Si Si2 0.525348 0.485548 0.792533
Si Si3 0.212067 0.331741 0.954231
Si Si4 0.431683 0.343410 0.635636
Si Si5 0.073774 0.648341 0.025178
Si Si6 0.817333 0.797256 0.331276
Si Si7 0.405976 0.948103 0.085178
Si Si8 0.707354 0.972320 0.035638
O O1 0.328230 0.690413 0.519092
O O2 0.377730 0.508558 0.636318
O O3 0.227235 0.921643 0.979847
O O4 0.139514 0.744851 0.926147
O O5 0.436372 0.446490 0.813118
O O6 0.500000 0.500000 0.000000
O O7 0.490412 0.701060 0.864450
O O8 0.346855 0.276665 0.745729
O O9 0.205168 0.179244 0.802389
O O10 0.203897 0.265118 0.098244
O O11 0.103051 0.576187 0.131129
O O12 0.568645 0.127161 0.341729
O O13 0.922061 0.820687 0.256129
O O14 0.132504 0.437309 0.775977
O O15 0.680039 0.980224 0.638553
O O16 0.306082 0.067128 0.126304
O O17 0.500000 0.000000 0.000000
#
# Coordination Sequence:
#
# PCOD8040158 Si02
#       8
#     2   2   2   2   2   2   2   2
#     4  10  18  38  57  73 107 151 177 208 262 328
#     4  11  23  33  52  82 114 139 173 218 270 319
#     4   9  19  33  58  77  99 141 187 218 250 319
#     4  10  18  36  53  74 110 151 174 204 264 332
#     4   8  18  39  62  71  99 149 190 207 262 320
#     4   9  19  36  60  77 104 140 185 220 258 316
#     4  12  23  34  53  84 116 137 168 227 278 309
#     4  11  20  32  52  83 111 136 178 221 266 315
#
# _framework density 19.896367999999999
#
# number of rings (size 3 to 8) (size 9 to 14) (size 15 to 20)
#    0.750    1.250    2.500    2.625    5.250    0.000 
#    0.000    1.875    0.000    0.000    0.000    0.000 
#    0.000    0.000    0.000    0.000    0.000    0.000 
#
# Total GULP energy -198214.181854 kJ/mol
# GULP energy per Si atom -12388.386366 kJ/mol
# Density = 1.985108 g / cm^3
# Si number density = 19.896368 Si / 1000 Ang^3
#
#
#
# Elastic Constant Matrix: (Units=GPa)
#
#
# Indices 1 2 3 4 5 6 
#
# 1 115.6382 22.5801 19.2003 -18.6218 -13.2156 14.3589
# 2 22.5801 57.6466 -5.1014 -15.4812 -3.3759 1.6591
# 3 19.2003 -5.1014 32.4992 -7.8676 -2.3103 0.2706
# 4 -18.6218 -15.4812 -7.8676 22.2627 -1.8684 4.5020
# 5 -13.2156 -3.3759 -2.3103 -1.8684 33.7668 -15.6462
# 6 14.3589 1.6591 0.2706 4.5020 -15.6462 25.5429
#
#
#
# Elastic Compliance Matrix: (Units=1/GPa)
#
#
# Indices 1 2 3 4 5 6 
#
# 1 0.012544 -0.003005 -0.005809 0.007961 0.001192 -0.007468
# 2 -0.003005 0.024717 0.010408 0.018950 0.002089 -0.002087
# 3 -0.005809 0.010408 0.040044 0.016567 0.002896 0.001019
# 4 0.007961 0.018950 0.016567 0.074368 0.002038 -0.017740
# 5 0.001192 0.002089 0.002896 0.002038 0.041955 0.024504
# 6 -0.007468 -0.002087 0.001019 -0.017740 0.024504 0.061609
#
#
# Mechanical properties :
#
#
# Convention : Reuss Voigt Hill
#
# Bulk Modulus (GPa) = 12.42329 31.01577 21.71953
# Shear Modulus (GPa) = 17.92890 27.58816 22.75853
#
# Velocity S-wave (km/s) = 3.00511 3.72774 3.38576
# Velocity P-wave (km/s) = 4.27767 5.84385 5.12099
#
# Compressibility (1/GPa) = 0.08049395
#
# Stress axis : x y z
#
# Youngs Moduli (GPa) = 79.71697 40.45852 24.97268
#
# Poissons Ratio (x) = 0.12158 0.14506
# Poissons Ratio (y) = 0.23956 -0.25993
# Poissons Ratio (z) = 0.46306 -0.42111
#
# Static dielectric constant tensor:
#      x y z
#    x 3.828930 0.056400 0.110260 
#    y 0.056400 3.656570 -0.158490 
#    z 0.110260 -0.158490 3.225460 
# 
# 
# High freq. dielectric constant tensor:
#      x y z
#    x 1.786930 0.009090 0.001710 
#    y 0.009090 1.764750 -0.006970 
#    z 0.001710 -0.006970 1.731020 
# 
# From -- ./inp_files/329268.got.cif
#   From: 2010.06.25/outbox.cif.g09.slc.cpg/sg2_165_cif.got.tgz:329268.got - 2010.06.27 13:26:56.
