data_PCOD8040292
_publ_section_title
;
Structure prediction by ZEFSAII (Michael W. Deem and Ramdas Pophale) SiO2 
 PCOD8040292
Probable space group: P -1
;
_chemical_formula_sum "Si O2"
_cell_formula_units_Z 16
_cell_length_a 9.549481
_cell_length_b 10.660184
_cell_length_c 8.266940
_cell_angle_alpha 89.620383
_cell_angle_beta 97.396551
_cell_angle_gamma 57.944525
_cell_volume 704.504946
_symmetry_space_group_name_H-M "P -1"
_symmetry_group_IT_number 2
_symmetry_cell_setting 'triclinic'
loop_
_space_group_symop_operation_xyz
x,y,z
-x,-y,-z
loop_
_atom_site_type_symbol
_atom_site_label
_atom_site_fract_x
_atom_site_fract_y
_atom_site_fract_z
Si Si1 0.877988 0.801574 0.917679
Si Si2 0.246883 0.414609 0.091398
Si Si3 0.958528 0.300819 0.743163
Si Si4 0.478297 0.966844 0.178032
Si Si5 0.664446 0.343100 0.484098
Si Si6 0.756633 0.697152 0.379372
Si Si7 0.179675 0.585421 0.764596
Si Si8 0.478438 0.204752 0.368235
O O1 0.816510 0.692863 0.968005
O O2 0.721522 0.960492 0.831739
O O3 0.001522 0.729181 0.785028
O O4 0.964516 0.817080 0.093391
O O5 0.111828 0.537223 0.192912
O O6 0.424921 0.316314 0.206786
O O7 0.272849 0.491622 0.939997
O O8 0.811974 0.292324 0.635810
O O9 0.102749 0.264780 0.634502
O O10 0.544603 0.039907 0.315859
O O11 0.592677 0.792238 0.236125
O O12 0.500000 0.000000 0.000000
O O13 0.500000 0.500000 0.500000
O O14 0.718747 0.353872 0.310517
O O15 0.620752 0.215014 0.483871
O O16 0.836417 0.521734 0.364403
O O17 0.689761 0.738354 0.551825
#
# Coordination Sequence:
#
# PCOD8040292 Si02
#       8
#     2   2   2   2   2   2   2   2
#     4  10  20  39  63 100 126 164 220 277 318 369
#     4  10  18  36  60  93 128 157 215 266 311 367
#     4  11  20  36  63  94 130 165 209 267 320 377
#     4  11  23  44  70  94 129 165 225 276 319 376
#     4  12  25  41  59  99 143 174 202 264 337 398
#     4  12  21  39  70 101 124 170 214 278 326 372
#     4  11  21  37  68  97 128 168 215 271 329 374
#     4  11  25  42  62  96 135 170 213 262 328 394
#
# _framework density 22.710984
#
# number of rings (size 3 to 8) (size 9 to 14) (size 15 to 20)
#    0.000    1.000    6.250    1.875    3.500    1.500 
#    0.000    0.625    0.000    1.500    0.000    0.000 
#    0.000    0.000    0.000    0.000    0.000    0.000 
#
# Total GULP energy -198339.003809 kJ/mol
# GULP energy per Si atom -12396.187738 kJ/mol
# Density = 2.265929 g / cm^3
# Si number density = 22.710984 Si / 1000 Ang^3
#
#
#
# Elastic Constant Matrix: (Units=GPa)
#
#
# Indices 1 2 3 4 5 6 
#
# 1 117.6266 26.4682 43.4859 10.6031 10.5082 -19.8213
# 2 26.4682 46.0594 11.7260 6.4841 0.0667 -23.4314
# 3 43.4859 11.7260 92.1570 14.6995 0.8745 -3.5202
# 4 10.6031 6.4841 14.6995 35.0531 -11.5532 4.3631
# 5 10.5082 0.0667 0.8745 -11.5532 43.3403 0.3781
# 6 -19.8213 -23.4314 -3.5202 4.3631 0.3781 26.0098
#
#
#
# Elastic Compliance Matrix: (Units=1/GPa)
#
#
# Indices 1 2 3 4 5 6 
#
# 1 0.012772 -0.000942 -0.004863 -0.004146 -0.004181 0.008982
# 2 -0.000942 0.047089 -0.001494 -0.014628 -0.004097 0.044014
# 3 -0.004863 -0.001494 0.013840 -0.003766 -0.000080 -0.002545
# 4 -0.004146 -0.014628 -0.003766 0.041087 0.012265 -0.023918
# 5 -0.004181 -0.004097 -0.000080 0.012265 0.027446 -0.009344
# 6 0.008982 0.044014 -0.002545 -0.023918 -0.009344 0.088747
#
#
# Mechanical properties :
#
#
# Convention : Reuss Voigt Hill
#
# Bulk Modulus (GPa) = 16.91940 46.57813 31.74876
# Shear Modulus (GPa) = 18.84808 32.49148 25.66978
#
# Velocity S-wave (km/s) = 2.88394 3.78650 3.36561
# Velocity P-wave (km/s) = 4.30761 6.29844 5.39564
#
# Compressibility (1/GPa) = 0.05910376
#
# Stress axis : x y z
#
# Youngs Moduli (GPa) = 78.29575 21.23636 72.25489
#
# Poissons Ratio (x) = 0.02001 0.35136
# Poissons Ratio (y) = 0.07378 0.10792
# Poissons Ratio (z) = 0.38073 0.03172
#
# Static dielectric constant tensor:
#      x y z
#    x 3.964760 -0.424520 0.081930 
#    y -0.424520 4.140610 -0.008570 
#    z 0.081930 -0.008570 4.337500 
# 
# 
# High freq. dielectric constant tensor:
#      x y z
#    x 1.863600 -0.033530 -0.001820 
#    y -0.033530 1.875430 0.003730 
#    z -0.001820 0.003730 1.914970 
# 
# From -- ./inp_files/179069.got.cif
#   From: 2010.06.25/outbox.cif.g09.slc.cpg/sg2_90_cif.got.tgz:179069.got - 2010.06.27 13:26:56.
