data_PCOD8040429
_publ_section_title
;
Structure prediction by ZEFSAII (Michael W. Deem and Ramdas Pophale) SiO2 
 PCOD8040429
Probable space group: P -1
;
_chemical_formula_sum "Si O2"
_cell_formula_units_Z 16
_cell_length_a 17.145931
_cell_length_b 9.583601
_cell_length_c 12.758321
_cell_angle_alpha 130.551843
_cell_angle_beta 49.513333
_cell_angle_gamma 88.281858
_cell_volume 754.601186
_symmetry_space_group_name_H-M "P -1"
_symmetry_group_IT_number 2
_symmetry_cell_setting 'triclinic'
loop_
_space_group_symop_operation_xyz
x,y,z
-x,-y,-z
loop_
_atom_site_type_symbol
_atom_site_label
_atom_site_fract_x
_atom_site_fract_y
_atom_site_fract_z
Si Si1 0.528484 0.888192 0.036875
Si Si2 0.448266 0.297793 0.725257
Si Si3 0.892181 0.668457 0.820553
Si Si4 0.164019 0.266649 0.868646
Si Si5 0.369658 0.735869 0.141188
Si Si6 0.544283 0.044894 0.310363
Si Si7 0.053315 0.136933 0.745706
Si Si8 0.087189 0.673978 0.525683
O O1 0.719904 0.573766 0.735913
O O2 0.408126 0.885047 0.144040
O O3 0.500000 0.000000 0.000000
O O4 0.468139 0.105789 0.291710
O O5 0.410477 0.316984 0.642940
O O6 0.642335 0.995653 0.417733
O O7 0.373879 0.252500 0.849863
O O8 0.386226 0.584281 0.950549
O O9 0.947342 0.407318 0.583796
O O10 0.989929 0.714327 0.724847
O O11 0.933301 0.583883 0.864713
O O12 0.695622 0.973921 0.124425
O O13 0.124758 0.124298 0.783031
O O14 0.110301 0.518297 0.970135
O O15 0.185141 0.977489 0.460359
O O16 0.500000 0.500000 0.000000
O O17 0.011589 0.981186 0.721665
#
# Coordination Sequence:
#
# PCOD8040429 Si02
#       8
#     2   2   2   2   2   2   2   2
#     4  11  22  35  59  89 119 154 196 243 296 351
#     4  10  18  36  67  86 114 153 201 245 289 350
#     4   9  20  36  60  80 119 159 196 231 294 357
#     4  10  21  36  57  91 119 151 185 253 298 341
#     4  12  19  37  62  88 111 153 204 243 288 352
#     4   9  18  36  62  84 114 155 197 236 296 346
#     4  11  22  36  60  89 122 147 198 246 294 347
#     4  10  20  39  57  84 116 162 195 236 290 359
#
# _framework density 21.203254000000001
#
# number of rings (size 3 to 8) (size 9 to 14) (size 15 to 20)
#    0.000    1.750    3.750    0.750    1.750    1.000 
#    0.000    0.625    0.000    0.000    0.000    0.000 
#    0.000    0.000    0.000    0.000    0.000    0.000 
#
# Total GULP energy -198291.423627 kJ/mol
# GULP energy per Si atom -12393.213977 kJ/mol
# Density = 2.115499 g / cm^3
# Si number density = 21.203254 Si / 1000 Ang^3
#
#
#
# Elastic Constant Matrix: (Units=GPa)
#
#
# Indices 1 2 3 4 5 6 
#
# 1 117.5246 51.3973 38.4097 -10.2203 34.1677 7.5793
# 2 51.3973 91.9164 20.1601 -12.6390 11.5843 8.3306
# 3 38.4097 20.1601 55.0919 -6.6298 11.7482 -1.0296
# 4 -10.2203 -12.6390 -6.6298 26.2926 2.7208 5.6804
# 5 34.1677 11.5843 11.7482 2.7208 38.7579 -14.0676
# 6 7.5793 8.3306 -1.0296 5.6804 -14.0676 42.9756
#
#
#
# Elastic Compliance Matrix: (Units=1/GPa)
#
#
# Indices 1 2 3 4 5 6 
#
# 1 0.019319 -0.005314 -0.007245 0.006836 -0.017000 -0.009019
# 2 -0.005314 0.015315 -0.001006 0.005857 -0.001165 -0.003211
# 3 -0.007245 -0.001006 0.023912 0.002375 -0.000111 0.001695
# 4 0.006836 0.005857 0.002375 0.048985 -0.017153 -0.014374
# 5 -0.017000 -0.001165 -0.000111 -0.017153 0.050348 0.021969
# 6 -0.009019 -0.003211 0.001695 -0.014374 0.021969 0.034614
#
#
# Mechanical properties :
#
#
# Convention : Reuss Voigt Hill
#
# Bulk Modulus (GPa) = 31.83154 53.82968 42.83061
# Shear Modulus (GPa) = 21.72999 31.90961 26.81980
#
# Velocity S-wave (km/s) = 3.20479 3.88356 3.56039
# Velocity P-wave (km/s) = 5.36091 6.74922 6.09473
#
# Compressibility (1/GPa) = 0.03141538
#
# Stress axis : x y z
#
# Youngs Moduli (GPa) = 51.76164 65.29727 41.81923
#
# Poissons Ratio (x) = 0.34697 0.30300
# Poissons Ratio (y) = 0.27504 0.04208
# Poissons Ratio (z) = 0.37504 0.06571
#
# Static dielectric constant tensor:
#      x y z
#    x 4.128690 -0.182120 0.215760 
#    y -0.182120 3.289960 -0.386740 
#    z 0.215760 -0.386740 3.856830 
# 
# 
# High freq. dielectric constant tensor:
#      x y z
#    x 1.848380 0.006790 0.009920 
#    y 0.006790 1.802020 -0.031010 
#    z 0.009920 -0.031010 1.823320 
# 
# From -- ./inp_files/462333.got.cif
#   From: 2010.06.25/outbox.cif.g09.slc.cpg/sg2_232_cif.got.tgz:462333.got - 2010.06.27 13:26:56.
