data_PCOD8040185
_publ_section_title
;
Structure prediction by ZEFSAII (Michael W. Deem and Ramdas Pophale) SiO2 
 PCOD8040185
Probable space group: P -1
;
_chemical_formula_sum "Si O2"
_cell_formula_units_Z 16
_cell_length_a 16.663236
_cell_length_b 8.219324
_cell_length_c 9.223815
_cell_angle_alpha 129.831532
_cell_angle_beta 86.972707
_cell_angle_gamma 68.188358
_cell_volume 822.345528
_symmetry_space_group_name_H-M "P -1"
_symmetry_group_IT_number 2
_symmetry_cell_setting 'triclinic'
loop_
_space_group_symop_operation_xyz
x,y,z
-x,-y,-z
loop_
_atom_site_type_symbol
_atom_site_label
_atom_site_fract_x
_atom_site_fract_y
_atom_site_fract_z
Si Si1 0.644651 0.607519 0.214503
Si Si2 0.833326 0.193617 0.074244
Si Si3 0.447698 0.625824 0.724674
Si Si4 0.712334 0.958818 0.464754
Si Si5 0.253535 0.011833 0.853276
Si Si6 0.426310 0.489981 0.103244
Si Si7 0.106115 0.455441 0.632050
Si Si8 0.098821 0.342369 0.254370
O O1 0.752137 0.373389 0.071587
O O2 0.577511 0.558623 0.295570
O O3 0.642926 0.850761 0.412853
O O4 0.614461 0.645833 0.068499
O O5 0.782158 0.178454 0.218336
O O6 0.899136 0.301068 0.164182
O O7 0.894410 0.915688 0.842485
O O8 0.500000 0.500000 0.500000
O O9 0.356433 0.896604 0.852733
O O10 0.519258 0.660234 0.841319
O O11 0.805599 0.797215 0.459164
O O12 0.745912 0.952055 0.295086
O O13 0.658012 0.233915 0.690294
O O14 0.179018 0.280003 0.089562
O O15 0.500000 0.500000 0.000000
O O16 0.116950 0.460944 0.460458
O O17 0.007508 0.474535 0.692814
#
# Coordination Sequence:
#
# PCOD8040185 Si02
#       8
#     2   2   2   2   2   2   2   2
#     4   9  20  36  56  79 104 144 178 215 261 317
#     4   8  17  35  56  75 109 140 174 210 266 314
#     4  10  18  36  57  76 105 144 178 214 269 312
#     4  11  21  37  54  82 110 135 179 220 266 312
#     4   9  20  36  53  75 113 139 168 228 261 310
#     4  10  21  35  58  75 106 143 178 220 261 309
#     4  10  19  33  61  81 101 143 177 217 260 320
#     4   9  19  35  57  80 108 135 183 213 262 317
#
# _framework density 19.456541000000001
#
# number of rings (size 3 to 8) (size 9 to 14) (size 15 to 20)
#    0.750    1.750    1.250    1.125    1.750    2.500 
#    2.250    0.625    0.000    1.500    0.000    0.000 
#    0.000    0.000    0.000    0.000    0.000    0.000 
#
# Total GULP energy -198239.434801 kJ/mol
# GULP energy per Si atom -12389.964675 kJ/mol
# Density = 1.941226 g / cm^3
# Si number density = 19.456541 Si / 1000 Ang^3
#
#
#
# Elastic Constant Matrix: (Units=GPa)
#
#
# Indices 1 2 3 4 5 6 
#
# 1 75.6906 37.4648 36.1634 -13.8827 -1.8007 -27.7988
# 2 37.4648 44.6522 12.9520 -20.3702 4.8167 -18.0131
# 3 36.1634 12.9520 83.3726 -15.8721 -11.2541 -16.2522
# 4 -13.8827 -20.3702 -15.8721 33.7870 -4.2679 1.6557
# 5 -1.8007 4.8167 -11.2541 -4.2679 32.5942 -4.2914
# 6 -27.7988 -18.0131 -16.2522 1.6557 -4.2914 29.5416
#
#
#
# Elastic Compliance Matrix: (Units=1/GPa)
#
#
# Indices 1 2 3 4 5 6 
#
# 1 0.031796 -0.020946 -0.008188 -0.003646 0.003302 0.013328
# 2 -0.020946 0.059209 0.009622 0.030639 0.000058 0.019977
# 3 -0.008188 0.009622 0.019099 0.011908 0.007476 0.009088
# 4 -0.003646 0.030639 0.011908 0.052300 0.008885 0.020162
# 5 0.003302 0.000058 0.007476 0.008885 0.036181 0.012013
# 6 0.013328 0.019977 0.009088 0.020162 0.012013 0.064188
#
#
# Mechanical properties :
#
#
# Convention : Reuss Voigt Hill
#
# Bulk Modulus (GPa) = 14.06862 41.87511 27.97187
# Shear Modulus (GPa) = 15.36142 26.99358 21.17750
#
# Velocity S-wave (km/s) = 2.81290 3.72879 3.30275
# Velocity P-wave (km/s) = 4.21857 6.33306 5.38071
#
# Compressibility (1/GPa) = 0.07108018
#
# Stress axis : x y z
#
# Youngs Moduli (GPa) = 31.45012 16.88921 52.35911
#
# Poissons Ratio (x) = 0.35377 0.42873
# Poissons Ratio (y) = 0.65877 -0.50382
# Poissons Ratio (z) = 0.25752 -0.16252
#
# Static dielectric constant tensor:
#      x y z
#    x 3.550480 -0.333050 0.129940 
#    y -0.333050 3.477700 -0.165290 
#    z 0.129940 -0.165290 3.504790 
# 
# 
# High freq. dielectric constant tensor:
#      x y z
#    x 1.749700 -0.032590 -0.004880 
#    y -0.032590 1.742080 -0.006440 
#    z -0.004880 -0.006440 1.751900 
# 
# From -- ./inp_files/311743.got.cif
#   From: 2010.06.25/outbox.cif.g09.slc.cpg/sg2_156_cif.got.tgz:311743.got - 2010.06.27 13:26:56.
