data_PCOD8040196
_publ_section_title
;
Structure prediction by ZEFSAII (Michael W. Deem and Ramdas Pophale) SiO2 
 PCOD8040196
Probable space group: P -1
;
_chemical_formula_sum "Si O2"
_cell_formula_units_Z 16
_cell_length_a 13.792235
_cell_length_b 19.831421
_cell_length_c 8.532878
_cell_angle_alpha 45.130038
_cell_angle_beta 39.671825
_cell_angle_gamma 36.356289
_cell_volume 860.346316
_symmetry_space_group_name_H-M "P -1"
_symmetry_group_IT_number 2
_symmetry_cell_setting 'triclinic'
loop_
_space_group_symop_operation_xyz
x,y,z
-x,-y,-z
loop_
_atom_site_type_symbol
_atom_site_label
_atom_site_fract_x
_atom_site_fract_y
_atom_site_fract_z
Si Si1 0.665570 0.726329 0.851818
Si Si2 0.282967 0.903646 0.934437
Si Si3 0.608465 0.099081 0.522115
Si Si4 0.299920 0.111648 0.683268
Si Si5 0.016356 0.063408 0.521651
Si Si6 0.970946 0.754222 0.939199
Si Si7 0.957983 0.477018 0.760413
Si Si8 0.703400 0.719978 0.182743
O O1 0.723059 0.802252 0.567099
O O2 0.794156 0.593485 0.854460
O O3 0.451993 0.778281 0.994957
O O4 0.675181 0.730019 0.018418
O O5 0.092082 0.937600 0.191961
O O6 0.278194 0.888313 0.778460
O O7 0.331595 0.996599 0.758725
O O8 0.471570 0.072531 0.651943
O O9 0.489964 0.217167 0.581252
O O10 0.766716 0.997217 0.604980
O O11 0.103964 0.182376 0.903395
O O12 0.927632 0.196423 0.358646
O O13 0.000000 0.000000 0.500000
O O14 0.791180 0.790246 0.000454
O O15 0.102855 0.613023 0.026836
O O16 0.000000 0.500000 0.500000
O O17 0.151448 0.415403 0.720522
#
# Coordination Sequence:
#
# PCOD8040196 Si02
#       8
#     2   2   2   2   2   2   2   2
#     4  11  19  35  59  87 113 144 188 243 278 331
#     4  11  23  36  56  87 117 154 187 226 288 345
#     4  10  21  38  55  82 117 151 185 237 285 334
#     4  10  20  36  58  87 115 142 191 237 288 332
#     4  12  23  37  55  81 122 154 188 228 280 347
#     4   9  21  35  54  83 113 147 187 225 290 324
#     4  10  18  36  57  85 113 145 185 240 285 332
#     4   9  21  33  57  86 111 141 193 234 285 324
#
# _framework density 18.597162000000001
#
# number of rings (size 3 to 8) (size 9 to 14) (size 15 to 20)
#    0.750    1.000    2.500    3.750    3.500    1.000 
#    0.000    0.625    0.000    0.000    0.000    7.000 
#    0.000    0.000    0.000    0.000    0.000    0.000 
#
# Total GULP energy -198214.845622 kJ/mol
# GULP energy per Si atom -12388.427851 kJ/mol
# Density = 1.855483 g / cm^3
# Si number density = 18.597162 Si / 1000 Ang^3
#
#
#
# Elastic Constant Matrix: (Units=GPa)
#
#
# Indices 1 2 3 4 5 6 
#
# 1 71.1217 40.0948 38.4778 -1.8989 25.5028 -2.1466
# 2 40.0948 143.3806 50.9624 3.4667 6.6022 2.1464
# 3 38.4778 50.9624 93.8081 -2.3898 12.8409 5.5959
# 4 -1.8989 3.4667 -2.3898 34.6647 3.3530 7.4893
# 5 25.5028 6.6022 12.8409 3.3530 27.9441 5.5380
# 6 -2.1466 2.1464 5.5959 7.4893 5.5380 26.8823
#
#
#
# Elastic Compliance Matrix: (Units=1/GPa)
#
#
# Indices 1 2 3 4 5 6 
#
# 1 0.029625 -0.005019 -0.006481 0.002220 -0.024847 0.008616
# 2 -0.005019 0.009556 -0.003732 -0.001739 0.004407 -0.000810
# 3 -0.006481 -0.003732 0.015611 0.001951 0.000192 -0.004052
# 4 0.002220 -0.001739 0.001951 0.031436 -0.004723 -0.007875
# 5 -0.024847 0.004407 0.000192 -0.004723 0.060583 -0.013541
# 6 0.008616 -0.000810 -0.004052 -0.007875 -0.013541 0.043779
#
#
# Mechanical properties :
#
#
# Convention : Reuss Voigt Hill
#
# Bulk Modulus (GPa) = 41.10525 63.04229 52.07377
# Shear Modulus (GPa) = 21.81857 29.81658 25.81757
#
# Velocity S-wave (km/s) = 3.42895 4.00845 3.72997
# Velocity P-wave (km/s) = 6.15044 7.44285 6.82729
#
# Compressibility (1/GPa) = 0.02432779
#
# Stress axis : x y z
#
# Youngs Moduli (GPa) = 33.75497 104.65008 64.05803
#
# Poissons Ratio (x) = 0.52528 0.41516
# Poissons Ratio (y) = 0.16943 0.23904
# Poissons Ratio (z) = 0.21876 0.39052
#
# Static dielectric constant tensor:
#      x y z
#    x 3.692550 2.539300 0.928100 
#    y 2.539300 18.125550 4.071440 
#    z 0.928100 4.071440 4.464310 
# 
# 
# High freq. dielectric constant tensor:
#      x y z
#    x 1.704280 -0.002170 0.031890 
#    y -0.002170 1.720080 0.012850 
#    z 0.031890 0.012850 1.718190 
# 
# From -- ./inp_files/318261.got.cif
#   From: 2010.06.25/outbox.cif.g09.slc.cpg/sg2_160_cif.got.tgz:318261.got - 2010.06.27 13:26:56.
