data_PCOD8040379
_publ_section_title
;
Structure prediction by ZEFSAII (Michael W. Deem and Ramdas Pophale) SiO2 
 PCOD8040379
Probable space group: P -1
;
_chemical_formula_sum "Si O2"
_cell_formula_units_Z 14
_cell_length_a 11.908938
_cell_length_b 11.624193
_cell_length_c 12.854348
_cell_angle_alpha 111.963015
_cell_angle_beta 36.938233
_cell_angle_gamma 81.697111
_cell_volume 601.004373
_symmetry_space_group_name_H-M "P -1"
_symmetry_group_IT_number 2
_symmetry_cell_setting 'triclinic'
loop_
_space_group_symop_operation_xyz
x,y,z
-x,-y,-z
loop_
_atom_site_type_symbol
_atom_site_label
_atom_site_fract_x
_atom_site_fract_y
_atom_site_fract_z
Si Si1 0.380339 0.350677 0.297459
Si Si2 0.767422 0.780474 0.279207
Si Si3 0.952042 0.231906 0.348955
Si Si4 0.177616 0.766787 0.902648
Si Si5 0.394991 0.751303 0.530272
Si Si6 0.201993 0.991565 0.288174
Si Si7 0.615932 0.880089 0.661859
O O1 0.114762 0.587320 0.546214
O O2 0.655368 0.267203 0.131611
O O3 0.222667 0.321058 0.467506
O O4 0.513030 0.228816 0.049970
O O5 0.718275 0.658364 0.249786
O O6 0.749713 0.816031 0.426852
O O7 0.500000 0.000000 0.500000
O O8 0.092465 0.665661 0.956395
O O9 0.659229 0.309124 0.548697
O O10 0.003649 0.168159 0.408235
O O11 0.247166 0.046762 0.994488
O O12 0.391557 0.666518 0.607795
O O13 0.865616 0.005540 0.190690
O O14 0.328159 0.021721 0.287864
O O15 0.000000 0.000000 0.500000
#
# Coordination Sequence:
#
# PCOD8040379 Si02
#       7
#     2   2   2   2   2   2   2
#     4  11  22  41  64  93 126 165 211 260 316 378
#     4  10  20  34  68  94 122 169 213 254 315 374
#     4  11  23  40  65  93 124 167 209 258 320 375
#     4  10  18  36  63  92 128 167 210 256 311 371
#     4  10  18  37  62  92 128 166 212 253 311 376
#     4  11  25  43  66  89 125 163 213 265 315 376
#     4  11  22  42  65  91 122 168 210 260 317 372
#
# _framework density 23.294339000000001
#
# number of rings (size 3 to 8) (size 9 to 14) (size 15 to 20)
#    0.000    1.429    4.286    4.286    2.000    3.429 
#    0.000    2.143    0.000    0.000    0.000    0.000 
#    0.000    0.000    0.000    0.000    0.000    0.000 
#
# Total GULP energy -173615.801445 kJ/mol
# GULP energy per Si atom -12401.128675 kJ/mol
# Density = 2.324132 g / cm^3
# Si number density = 23.294339 Si / 1000 Ang^3
#
#
#
# Elastic Constant Matrix: (Units=GPa)
#
#
# Indices 1 2 3 4 5 6 
#
# 1 113.8153 19.0873 22.4232 -12.4563 4.6404 19.0172
# 2 19.0873 153.4869 46.1742 -17.6870 2.3074 11.4752
# 3 22.4232 46.1742 65.2198 -25.4750 -1.6628 -6.0005
# 4 -12.4563 -17.6870 -25.4750 37.9464 6.1098 -1.8712
# 5 4.6404 2.3074 -1.6628 6.1098 27.4376 -12.7458
# 6 19.0172 11.4752 -6.0005 -1.8712 -12.7458 38.6922
#
#
#
# Elastic Compliance Matrix: (Units=1/GPa)
#
#
# Indices 1 2 3 4 5 6 
#
# 1 0.011567 0.001055 -0.005139 0.001501 -0.006864 -0.008984
# 2 0.001055 0.009110 -0.007459 -0.000046 -0.004039 -0.005710
# 3 -0.005139 -0.007459 0.029093 0.014047 0.005601 0.011774
# 4 0.001501 -0.000046 0.014047 0.037480 -0.007352 0.000845
# 5 -0.006864 -0.004039 0.005601 -0.007352 0.049925 0.021531
# 6 -0.008984 -0.005710 0.011774 0.000845 0.021531 0.040913
#
#
# Mechanical properties :
#
#
# Convention : Reuss Voigt Hill
#
# Bulk Modulus (GPa) = 37.47491 56.43238 46.95365
# Shear Modulus (GPa) = 23.80167 37.13770 30.46968
#
# Velocity S-wave (km/s) = 3.20000 3.99718 3.62059
# Velocity P-wave (km/s) = 5.45672 6.75141 6.13830
#
# Compressibility (1/GPa) = 0.02668452
#
# Stress axis : x y z
#
# Youngs Moduli (GPa) = 86.45402 109.76688 34.37226
#
# Poissons Ratio (x) = -0.11585 0.17665
# Poissons Ratio (y) = -0.09125 0.25638
# Poissons Ratio (z) = 0.44432 0.81875
#
# Static dielectric constant tensor:
#      x y z
#    x 4.181270 0.218720 -0.200720 
#    y 0.218720 4.776200 -0.247540 
#    z -0.200720 -0.247540 4.033460 
# 
# 
# High freq. dielectric constant tensor:
#      x y z
#    x 1.926670 0.010170 -0.004310 
#    y 0.010170 1.952090 0.000270 
#    z -0.004310 0.000270 1.899240 
# 
# From -- ./inp_files/260824.got.cif
#   From: 2010.06.25/outbox.cif.g09.slc.cpg/sg2_131_cif.got.tgz:260824.got - 2010.06.27 13:26:56.
