data_PCOD8040764
_publ_section_title
;
Structure prediction by ZEFSAII (Michael W. Deem and Ramdas Pophale) SiO2 
 PCOD8040764
Probable space group: P -1
;
_chemical_formula_sum "Si O2"
_cell_formula_units_Z 16
_cell_length_a 16.304543
_cell_length_b 17.742770
_cell_length_c 9.559424
_cell_angle_alpha 140.304286
_cell_angle_beta 46.067635
_cell_angle_gamma 154.313757
_cell_volume 765.591206
_symmetry_space_group_name_H-M "P -1"
_symmetry_group_IT_number 2
_symmetry_cell_setting 'triclinic'
loop_
_space_group_symop_operation_xyz
x,y,z
-x,-y,-z
loop_
_atom_site_type_symbol
_atom_site_label
_atom_site_fract_x
_atom_site_fract_y
_atom_site_fract_z
Si Si1 0.916098 0.844127 0.760817
Si Si2 0.326360 0.779311 0.340901
Si Si3 0.104372 0.958734 0.111279
Si Si4 0.465953 0.706398 0.860140
Si Si5 0.575779 0.321998 0.722983
Si Si6 0.702234 0.613833 0.187942
Si Si7 0.440547 0.600533 0.444305
Si Si8 0.828268 0.109098 0.344618
O O1 0.905532 0.909059 0.722760
O O2 0.707521 0.626584 0.734341
O O3 0.054548 0.844124 0.593573
O O4 0.000000 0.000000 0.000000
O O5 0.273046 0.647050 0.344716
O O6 0.164341 0.741660 0.443275
O O7 0.500000 0.000000 0.500000
O O8 0.375137 0.746240 0.096164
O O9 0.306410 0.095086 0.133686
O O10 0.069578 0.208854 0.815807
O O11 0.070547 0.849193 0.858224
O O12 0.398107 0.532298 0.771288
O O13 0.389401 0.635468 0.690965
O O14 0.559547 0.308044 0.554883
O O15 0.379107 0.120559 0.739666
O O16 0.631542 0.497590 0.960123
O O17 0.641880 0.701570 0.375434
#
# Coordination Sequence:
#
# PCOD8040764 Si02
#       8
#     2   2   2   2   2   2   2   2
#     4  10  20  35  58  91 120 154 197 248 298 354
#     4   9  18  39  69  81 119 165 206 251 301 356
#     4  11  20  37  65  91 122 160 204 248 302 363
#     4  11  23  42  59  93 129 159 201 253 305 364
#     4  10  19  36  60  91 115 160 207 246 298 362
#     4  11  21  38  63  89 121 167 203 241 308 370
#     4  12  23  38  58  90 136 158 193 261 308 353
#     4  10  18  38  65  91 117 158 210 261 289 352
#
# _framework density 20.898882
#
# number of rings (size 3 to 8) (size 9 to 14) (size 15 to 20)
#    0.000    1.500    5.000    3.750    0.000    0.500 
#    2.250    8.750    0.000    0.000    0.000    0.000 
#    0.000    0.000    0.000    0.000    0.000    0.000 
#
# Total GULP energy -198289.669323 kJ/mol
# GULP energy per Si atom -12393.104333 kJ/mol
# Density = 2.085132 g / cm^3
# Si number density = 20.898882 Si / 1000 Ang^3
#
#
#
# Elastic Constant Matrix: (Units=GPa)
#
#
# Indices 1 2 3 4 5 6 
#
# 1 110.1609 15.8700 55.1576 -18.6937 -22.7369 -2.0096
# 2 15.8700 91.6290 23.7639 -3.9467 -0.2742 5.7194
# 3 55.1576 23.7639 104.1498 -14.1485 -4.1291 -13.3494
# 4 -18.6937 -3.9467 -14.1485 17.9000 -1.2643 3.5757
# 5 -22.7369 -0.2742 -4.1291 -1.2643 36.5813 -5.9236
# 6 -2.0096 5.7194 -13.3494 3.5757 -5.9236 27.6882
#
#
#
# Elastic Compliance Matrix: (Units=1/GPa)
#
#
# Indices 1 2 3 4 5 6 
#
# 1 0.016773 -0.000449 -0.006818 0.013035 0.009851 -0.001553
# 2 -0.000449 0.012071 -0.003042 0.000567 -0.001213 -0.004325
# 3 -0.006818 -0.003042 0.015084 0.002683 -0.001370 0.006767
# 4 0.013035 0.000567 0.002683 0.073477 0.010105 -0.005205
# 5 0.009851 -0.001213 -0.001370 0.010105 0.034685 0.006420
# 6 -0.001553 -0.004325 0.006767 -0.005205 0.006420 0.042205
#
#
# Mechanical properties :
#
#
# Convention : Reuss Voigt Hill
#
# Bulk Modulus (GPa) = 42.90064 55.05806 48.97935
# Shear Modulus (GPa) = 22.45336 30.51046 26.48191
#
# Velocity S-wave (km/s) = 3.28133 3.82502 3.56356
# Velocity P-wave (km/s) = 5.91003 6.77568 6.35761
#
# Compressibility (1/GPa) = 0.02330968
#
# Stress axis : x y z
#
# Youngs Moduli (GPa) = 59.61925 82.84304 66.29487
#
# Poissons Ratio (x) = 0.03719 0.45202
# Poissons Ratio (y) = 0.02676 0.20167
# Poissons Ratio (z) = 0.40651 0.25201
#
# Static dielectric constant tensor:
#      x y z
#    x 4.592790 0.090280 -0.394870 
#    y 0.090280 3.622220 0.022070 
#    z -0.394870 0.022070 3.737900 
# 
# 
# High freq. dielectric constant tensor:
#      x y z
#    x 1.812890 0.002990 -0.006160 
#    y 0.002990 1.806370 0.004600 
#    z -0.006160 0.004600 1.793970 
# 
# From -- ./inp_files/317447.got.cif
#   From: 2010.06.25/outbox.cif.g09.slc.cpg/sg2_159_cif.got.tgz:317447.got - 2010.06.27 13:26:56.
