data_PCOD8040367
_publ_section_title
;
Structure prediction by ZEFSAII (Michael W. Deem and Ramdas Pophale) SiO2 
 PCOD8040367
Probable space group: P -1
;
_chemical_formula_sum "Si O2"
_cell_formula_units_Z 16
_cell_length_a 25.249345
_cell_length_b 7.412171
_cell_length_c 19.229976
_cell_angle_alpha 141.159418
_cell_angle_beta 21.170672
_cell_angle_gamma 130.072859
_cell_volume 759.054952
_symmetry_space_group_name_H-M "P -1"
_symmetry_group_IT_number 2
_symmetry_cell_setting 'triclinic'
loop_
_space_group_symop_operation_xyz
x,y,z
-x,-y,-z
loop_
_atom_site_type_symbol
_atom_site_label
_atom_site_fract_x
_atom_site_fract_y
_atom_site_fract_z
Si Si1 0.431014 0.897349 0.961023
Si Si2 0.733073 0.929043 0.644790
Si Si3 0.912213 0.304515 0.584440
Si Si4 0.911674 0.248544 0.238721
Si Si5 0.316901 0.089218 0.902290
Si Si6 0.228783 0.826163 0.067052
Si Si7 0.614637 0.191936 0.552999
Si Si8 0.226816 0.156412 0.883312
O O1 0.575060 0.025746 0.820075
O O2 0.502902 0.542932 0.787478
O O3 0.342542 0.942763 0.009572
O O4 0.307766 0.080812 0.226166
O O5 0.853397 0.586634 0.375655
O O6 0.819065 0.174423 0.602870
O O7 0.000000 0.500000 0.500000
O O8 0.784582 0.538108 0.862596
O O9 0.046929 0.014233 0.369112
O O10 0.756486 0.170833 0.427225
O O11 0.037848 0.229748 0.138910
O O12 0.000000 0.000000 0.000000
O O13 0.502793 0.018562 0.667341
O O14 0.297614 0.979167 0.814958
O O15 0.255828 0.902600 0.976825
O O16 0.265838 0.465502 0.920893
O O17 0.687308 0.065933 0.351261
#
# Coordination Sequence:
#
# PCOD8040367 Si02
#       8
#     2   2   2   2   2   2   2   2
#     4  10  21  35  60  87 115 152 200 241 292 352
#     4  10  18  36  63  83 112 162 193 238 302 343
#     4  10  21  37  55  86 121 146 195 246 281 349
#     4   9  20  35  61  89 114 152 200 241 292 355
#     4  11  23  38  58  88 121 149 199 250 286 351
#     4  11  23  38  58  90 118 156 199 240 296 352
#     4  10  20  39  59  86 119 152 201 245 285 353
#     4  11  21  38  63  83 117 162 193 242 301 342
#
# _framework density 21.078842999999999
#
# number of rings (size 3 to 8) (size 9 to 14) (size 15 to 20)
#    0.000    1.750    3.750    0.375    1.750    1.500 
#    0.000    5.000    0.000    2.250    0.000    0.000 
#    0.000    0.000    0.000    0.000    0.000    0.000 
#
# Total GULP energy -198258.659381 kJ/mol
# GULP energy per Si atom -12391.166211 kJ/mol
# Density = 2.103087 g / cm^3
# Si number density = 21.078843 Si / 1000 Ang^3
#
#
#
# Elastic Constant Matrix: (Units=GPa)
#
#
# Indices 1 2 3 4 5 6 
#
# 1 86.5985 47.3739 18.5419 -16.8769 -6.1169 18.7328
# 2 47.3739 103.0929 30.1280 -21.5884 -6.3416 30.8614
# 3 18.5419 30.1280 88.3172 -9.9647 -1.7877 9.0693
# 4 -16.8769 -21.5884 -9.9647 41.9330 14.3823 -9.4576
# 5 -6.1169 -6.3416 -1.7877 14.3823 26.8342 -8.8928
# 6 18.7328 30.8614 9.0693 -9.4576 -8.8928 35.0943
#
#
#
# Elastic Compliance Matrix: (Units=1/GPa)
#
#
# Indices 1 2 3 4 5 6 
#
# 1 0.015948 -0.005776 -0.000816 0.002708 -0.000067 -0.002510
# 2 -0.005776 0.017291 -0.003114 0.004570 -0.003526 -0.010980
# 3 -0.000816 -0.003114 0.012688 0.001368 -0.000789 0.000064
# 4 0.002708 0.004570 0.001368 0.032940 -0.016214 -0.001050
# 5 -0.000067 -0.003526 -0.000789 -0.016214 0.048813 0.011340
# 6 -0.002510 -0.010980 0.000064 -0.001050 0.011340 0.042064
#
#
# Mechanical properties :
#
#
# Convention : Reuss Voigt Hill
#
# Bulk Modulus (GPa) = 37.71353 52.23291 44.97322
# Shear Modulus (GPa) = 25.25328 32.90330 29.07829
#
# Velocity S-wave (km/s) = 3.46502 3.95519 3.71819
# Velocity P-wave (km/s) = 5.82572 6.75956 6.30994
#
# Compressibility (1/GPa) = 0.02651568
#
# Stress axis : x y z
#
# Youngs Moduli (GPa) = 62.70444 57.83315 78.81234
#
# Poissons Ratio (x) = 0.33402 0.06431
# Poissons Ratio (y) = 0.36216 0.24544
# Poissons Ratio (z) = 0.05117 0.18011
#
# Static dielectric constant tensor:
#      x y z
#    x 3.709400 0.724140 -0.397590 
#    y 0.724140 4.034070 -0.223210 
#    z -0.397590 -0.223210 4.573620 
# 
# 
# High freq. dielectric constant tensor:
#      x y z
#    x 1.787090 0.045240 -0.013700 
#    y 0.045240 1.823180 -0.004520 
#    z -0.013700 -0.004520 1.848040 
# 
# From -- ./inp_files/284138.got.cif
#   From: 2010.06.25/outbox.cif.g09.slc.cpg/sg2_143_cif.got.tgz:284138.got - 2010.06.27 13:26:56.
