data_PCOD8040806
_publ_section_title
;
Structure prediction by ZEFSAII (Michael W. Deem and Ramdas Pophale) SiO2 
 PCOD8040806
Probable space group: P -1
;
_chemical_formula_sum "Si O2"
_cell_formula_units_Z 14
_cell_length_a 20.705531
_cell_length_b 9.148443
_cell_length_c 8.821444
_cell_angle_alpha 80.227683
_cell_angle_beta 125.674317
_cell_angle_gamma 146.239875
_cell_volume 540.177719
_symmetry_space_group_name_H-M "P -1"
_symmetry_group_IT_number 2
_symmetry_cell_setting 'triclinic'
loop_
_space_group_symop_operation_xyz
x,y,z
-x,-y,-z
loop_
_atom_site_type_symbol
_atom_site_label
_atom_site_fract_x
_atom_site_fract_y
_atom_site_fract_z
Si Si1 0.649567 0.554525 0.482948
Si Si2 0.346439 0.215248 0.973604
Si Si3 0.882556 0.380171 0.731167
Si Si4 0.154244 0.355728 0.443041
Si Si5 0.050237 0.718656 0.402597
Si Si6 0.573840 0.401905 0.751550
Si Si7 0.213378 0.479986 0.840400
O O1 0.426187 0.217281 0.187823
O O2 0.694877 0.469649 0.493286
O O3 0.670191 0.591126 0.686037
O O4 0.802333 0.932248 0.557869
O O5 0.319458 0.314679 0.024519
O O6 0.500000 0.500000 0.000000
O O7 0.140702 0.831304 0.672280
O O8 0.910864 0.605057 0.737122
O O9 0.983487 0.492220 0.696031
O O10 0.654174 0.945296 0.504178
O O11 0.000000 0.500000 0.000000
O O12 0.261840 0.572244 0.711941
O O13 0.965405 0.934769 0.292248
O O14 0.843814 0.453953 0.189606
O O15 0.599415 0.272536 0.859928
#
# Coordination Sequence:
#
# PCOD8040806 Si02
#       7
#     2   2   2   2   2   2   2
#     4  10  22  39  73 105 134 184 234 282 330 413
#     4  10  18  38  69 100 130 175 241 277 320 405
#     4  12  29  45  67 104 151 176 220 295 363 402
#     4  10  24  46  69 101 145 182 223 292 346 408
#     4  10  23  45  71 104 138 183 232 289 341 405
#     4  12  24  41  74 106 134 184 235 282 342 409
#     4  10  23  45  75  98 130 187 248 271 331 419
#
# _framework density 25.917400000000001
#
# number of rings (size 3 to 8) (size 9 to 14) (size 15 to 20)
#    0.000    1.429    2.857    3.857    4.000    4.000 
#    0.000    0.000    0.000    0.000    0.000    0.000 
#    0.000    0.000    0.000    0.000    0.000    0.000 
#
# Total GULP energy -173607.506836 kJ/mol
# GULP energy per Si atom -12400.536203 kJ/mol
# Density = 2.585841 g / cm^3
# Si number density = 25.917400 Si / 1000 Ang^3
#
#
#
# Elastic Constant Matrix: (Units=GPa)
#
#
# Indices 1 2 3 4 5 6 
#
# 1 221.3400 32.6140 62.9313 -28.7045 9.3052 1.3893
# 2 32.6140 50.2772 15.0803 -34.8064 -6.9424 5.1683
# 3 62.9313 15.0803 152.9783 -36.5180 16.0217 1.6182
# 4 -28.7045 -34.8064 -36.5180 44.0441 -7.2872 -0.7480
# 5 9.3052 -6.9424 16.0217 -7.2872 46.9398 -17.8025
# 6 1.3893 5.1683 1.6182 -0.7480 -17.8025 43.5014
#
#
#
# Elastic Compliance Matrix: (Units=1/GPa)
#
#
# Indices 1 2 3 4 5 6 
#
# 1 0.005610 -0.004514 -0.002180 -0.001954 -0.001403 -0.000170
# 2 -0.004514 0.058462 0.006765 0.051389 0.015235 0.000065
# 3 -0.002180 0.006765 0.009648 0.011836 -0.000426 -0.001064
# 4 -0.001954 0.051389 0.011836 0.074531 0.016034 0.001360
# 5 -0.001403 0.015235 -0.000426 0.016034 0.030672 0.011078
# 6 -0.000170 0.000065 -0.001064 0.001360 0.011078 0.027582
#
#
# Mechanical properties :
#
#
# Convention : Reuss Voigt Hill
#
# Bulk Modulus (GPa) = 13.53902 71.76076 42.64989
# Shear Modulus (GPa) = 21.64646 47.82838 34.73742
#
# Velocity S-wave (km/s) = 2.89313 4.30049 3.66500
# Velocity P-wave (km/s) = 4.04914 7.23929 5.86527
#
# Compressibility (1/GPa) = 0.07386057
#
# Stress axis : x y z
#
# Youngs Moduli (GPa) = 178.26471 17.10515 103.64490
#
# Poissons Ratio (x) = 0.07722 0.22599
# Poissons Ratio (y) = 0.80471 -0.70115
# Poissons Ratio (z) = 0.38870 -0.11572
#
# Static dielectric constant tensor:
#      x y z
#    x 5.207580 -0.067620 0.261670 
#    y -0.067620 4.518580 -0.250000 
#    z 0.261670 -0.250000 5.018920 
# 
# 
# High freq. dielectric constant tensor:
#      x y z
#    x 2.057200 0.010970 0.012190 
#    y 0.010970 2.043190 -0.015670 
#    z 0.012190 -0.015670 2.034600 
# 
# From -- ./inp_files/343572.got.cif
#   From: 2010.06.25/outbox.cif.g09.slc.cpg/sg2_172_cif.got.tgz:343572.got - 2010.06.27 13:26:56.
