data_PCOD8040197
_publ_section_title
;
Structure prediction by ZEFSAII (Michael W. Deem and Ramdas Pophale) SiO2 
 PCOD8040197
Probable space group: P -1
;
_chemical_formula_sum "Si O2"
_cell_formula_units_Z 16
_cell_length_a 9.566264
_cell_length_b 9.172893
_cell_length_c 9.504898
_cell_angle_alpha 133.244729
_cell_angle_beta 93.962620
_cell_angle_gamma 92.886141
_cell_volume 600.601217
_symmetry_space_group_name_H-M "P -1"
_symmetry_group_IT_number 2
_symmetry_cell_setting 'triclinic'
loop_
_space_group_symop_operation_xyz
x,y,z
-x,-y,-z
loop_
_atom_site_type_symbol
_atom_site_label
_atom_site_fract_x
_atom_site_fract_y
_atom_site_fract_z
Si Si1 0.507037 0.719022 0.999831
Si Si2 0.812789 0.252223 0.124186
Si Si3 0.675127 0.361913 0.826615
Si Si4 0.893950 0.605414 0.835362
Si Si5 0.254293 0.316002 0.543865
Si Si6 0.699126 0.974898 0.400239
Si Si7 0.336082 0.169936 0.173278
Si Si8 0.932016 0.224563 0.415540
O O1 0.347628 0.690501 0.042412
O O2 0.597053 0.894424 0.212960
O O3 0.557861 0.499640 0.863196
O O4 0.520070 0.789353 0.883420
O O5 0.731029 0.446144 0.266700
O O6 0.879067 0.185701 0.229384
O O7 0.946482 0.290055 0.049996
O O8 0.697296 0.066590 0.944891
O O9 0.830959 0.483769 0.889952
O O10 0.641568 0.160706 0.597853
O O11 0.791556 0.763908 0.885718
O O12 0.901957 0.448263 0.604538
O O13 0.297429 0.210640 0.617884
O O14 0.357318 0.287613 0.400633
O O15 0.097980 0.212312 0.422936
O O16 0.853908 0.051615 0.397781
#
# Coordination Sequence:
#
# PCOD8040197 Si02
#       8
#     2   2   2   2   2   2   2   2
#     4  10  21  39  63  86 107 151 205 238 272 343
#     4  11  19  34  59  88 116 152 194 228 276 352
#     4   9  21  38  62  84 111 148 201 242 277 332
#     4   9  17  32  57  87 109 143 194 240 270 327
#     4  11  23  35  53  90 127 148 181 237 295 340
#     4  11  22  38  59  85 121 151 185 239 297 335
#     4  11  20  33  60  86 113 151 196 231 280 339
#     4  10  18  36  57  85 115 158 190 228 276 353
#
# _framework density 26.639970999999999
#
# number of rings (size 3 to 8) (size 9 to 14) (size 15 to 20)
#    0.000    1.750    3.750    1.875    0.000    1.000 
#    0.000    0.625    0.000   16.500    0.000    0.000 
#    0.000    0.000    0.000    0.000    0.000    0.000 
#
# Total GULP energy -198406.831121 kJ/mol
# GULP energy per Si atom -12400.426945 kJ/mol
# Density = 2.657934 g / cm^3
# Si number density = 26.639971 Si / 1000 Ang^3
#
#
#
# Elastic Constant Matrix: (Units=GPa)
#
#
# Indices 1 2 3 4 5 6 
#
# 1 79.5389 36.4877 28.3542 -9.9196 -18.3277 31.0957
# 2 36.4877 150.2448 54.3070 -3.6481 -17.8577 31.1122
# 3 28.3542 54.3070 115.9878 -3.9034 -13.5456 26.4771
# 4 -9.9196 -3.6481 -3.9034 50.9964 8.4458 -9.4692
# 5 -18.3277 -17.8577 -13.5456 8.4458 34.2819 -7.5557
# 6 31.0957 31.1122 26.4771 -9.4692 -7.5557 40.1013
#
#
#
# Elastic Compliance Matrix: (Units=1/GPa)
#
#
# Indices 1 2 3 4 5 6 
#
# 1 0.019956 -0.001142 -0.000594 0.000219 0.006957 -0.012833
# 2 -0.001142 0.009035 -0.002782 -0.000930 0.002329 -0.004069
# 3 -0.000594 -0.002782 0.011326 -0.000616 0.001833 -0.004659
# 4 0.000219 -0.000930 -0.000616 0.021266 -0.004728 0.005089
# 5 0.006957 0.002329 0.001833 -0.004728 0.035360 -0.002866
# 6 -0.012833 -0.004069 -0.004659 0.005089 -0.002866 0.041783
#
#
# Mechanical properties :
#
#
# Convention : Reuss Voigt Hill
#
# Bulk Modulus (GPa) = 31.96799 64.89657 48.43228
# Shear Modulus (GPa) = 31.60763 40.18410 35.89587
#
# Velocity S-wave (km/s) = 3.44826 3.88804 3.67474
# Velocity P-wave (km/s) = 5.28016 6.67603 6.01870
#
# Compressibility (1/GPa) = 0.03128129
#
# Stress axis : x y z
#
# Youngs Moduli (GPa) = 50.11106 110.67556 88.28964
#
# Poissons Ratio (x) = 0.12637 0.05248
# Poissons Ratio (y) = 0.05722 0.24561
# Poissons Ratio (z) = 0.02978 0.30789
#
# Static dielectric constant tensor:
#      x y z
#    x 4.894970 0.547460 -0.361240 
#    y 0.547460 5.193130 -0.101090 
#    z -0.361240 -0.101090 4.829390 
# 
# 
# High freq. dielectric constant tensor:
#      x y z
#    x 2.062210 0.018680 -0.017160 
#    y 0.018680 2.093480 0.004320 
#    z -0.017160 0.004320 2.074200 
# 
# From -- ./inp_files/245886.got.cif
#   From: 2010.06.25/outbox.cif.g09.slc.cpg/sg2_123_cif.got.tgz:245886.got - 2010.06.27 13:26:56.
