data_PCOD8040750
_publ_section_title
;
Structure prediction by ZEFSAII (Michael W. Deem and Ramdas Pophale) SiO2 
 PCOD8040750
Probable space group: P -1
;
_chemical_formula_sum "Si O2"
_cell_formula_units_Z 14
_cell_length_a 10.249205
_cell_length_b 11.772808
_cell_length_c 12.751079
_cell_angle_alpha 36.522641
_cell_angle_beta 55.821924
_cell_angle_gamma 78.245551
_cell_volume 654.652175
_symmetry_space_group_name_H-M "P -1"
_symmetry_group_IT_number 2
_symmetry_cell_setting 'triclinic'
loop_
_space_group_symop_operation_xyz
x,y,z
-x,-y,-z
loop_
_atom_site_type_symbol
_atom_site_label
_atom_site_fract_x
_atom_site_fract_y
_atom_site_fract_z
Si Si1 0.859293 0.079624 0.910697
Si Si2 0.842754 0.277144 0.561900
Si Si3 0.496085 0.530607 0.198714
Si Si4 0.797141 0.943052 0.661021
Si Si5 0.754844 0.643136 0.380986
Si Si6 0.756043 0.353325 0.886410
Si Si7 0.524533 0.823358 0.683596
O O1 0.781216 0.121481 0.807966
O O2 0.786311 0.151196 0.991876
O O3 0.080333 0.227671 0.705042
O O4 0.782839 0.817593 0.147684
O O5 0.786589 0.133361 0.588981
O O6 0.754708 0.433969 0.483594
O O7 0.059189 0.417785 0.362974
O O8 0.441331 0.443457 0.407886
O O9 0.372305 0.639091 0.150733
O O10 0.438917 0.324740 0.302046
O O11 0.704997 0.719840 0.940232
O O12 0.691130 0.923952 0.615652
O O13 0.000000 0.000000 0.500000
O O14 0.666162 0.322056 0.063484
O O15 0.500000 0.000000 0.500000
#
# Coordination Sequence:
#
# PCOD8040750 Si02
#       7
#     2   2   2   2   2   2   2
#     4  10  19  35  63  95 128 165 216 254 312 386
#     4  11  20  40  62  93 134 163 205 267 325 374
#     4  11  20  40  65  87 124 172 217 253 311 389
#     4  11  25  43  65  93 126 172 211 264 331 372
#     4  10  20  35  63  98 124 170 212 258 311 384
#     4  10  18  38  64  89 124 173 216 250 313 390
#     4  11  24  42  66  93 123 168 222 267 307 386
#
# _framework density 21.385401000000002
#
# number of rings (size 3 to 8) (size 9 to 14) (size 15 to 20)
#    0.000    1.429    2.857    5.143    0.000    0.571 
#    2.571    2.143    0.000    0.000    0.000    0.000 
#    0.000    0.000    0.000    0.000    0.000    0.000 
#
# Total GULP energy -173570.498330 kJ/mol
# GULP energy per Si atom -12397.892738 kJ/mol
# Density = 2.133673 g / cm^3
# Si number density = 21.385401 Si / 1000 Ang^3
#
#
#
# Elastic Constant Matrix: (Units=GPa)
#
#
# Indices 1 2 3 4 5 6 
#
# 1 67.2695 37.3930 49.0230 -5.3161 13.5156 -13.5987
# 2 37.3930 150.5099 66.1127 -9.4012 5.1978 -9.1579
# 3 49.0230 66.1127 129.8485 5.9985 9.1223 -9.0187
# 4 -5.3161 -9.4012 5.9985 38.6311 -10.5704 -1.1312
# 5 13.5156 5.1978 9.1223 -10.5704 34.2079 -2.8501
# 6 -13.5987 -9.1579 -9.0187 -1.1312 -2.8501 19.6787
#
#
#
# Elastic Compliance Matrix: (Units=1/GPa)
#
#
# Indices 1 2 3 4 5 6 
#
# 1 0.025244 -0.001853 -0.007452 0.002975 -0.005744 0.012506
# 2 -0.001853 0.009132 -0.004094 0.003059 0.001505 0.001487
# 3 -0.007452 -0.004094 0.012784 -0.004424 -0.001347 -0.001645
# 4 0.002975 0.003059 -0.004424 0.030408 0.009315 0.004549
# 5 -0.005744 0.001505 -0.001347 0.009315 0.034650 0.001668
# 6 0.012506 0.001487 -0.001645 0.004549 0.001668 0.059899
#
#
# Mechanical properties :
#
#
# Convention : Reuss Voigt Hill
#
# Bulk Modulus (GPa) = 49.11255 72.52061 60.81658
# Shear Modulus (GPa) = 24.30688 31.51016 27.90852
#
# Velocity S-wave (km/s) = 3.37502 3.84271 3.61643
# Velocity P-wave (km/s) = 6.18086 7.32622 6.77777
#
# Compressibility (1/GPa) = 0.02036140
#
# Stress axis : x y z
#
# Youngs Moduli (GPa) = 39.61381 109.50193 78.22329
#
# Poissons Ratio (x) = 0.20291 0.58295
# Poissons Ratio (y) = 0.07341 0.32024
# Poissons Ratio (z) = 0.29522 0.44829
#
# Static dielectric constant tensor:
#      x y z
#    x 3.590830 0.026480 0.201970 
#    y 0.026480 3.189790 -0.091960 
#    z 0.201970 -0.091960 4.225270 
# 
# 
# High freq. dielectric constant tensor:
#      x y z
#    x 1.812180 -0.014340 0.006970 
#    y -0.014340 1.847580 0.006570 
#    z 0.006970 0.006570 1.848600 
# 
# From -- ./inp_files/517595.got.cif
#   From: 2010.06.25/outbox.cif.g09.slc.cpg/sg2_259_cif.got.tgz:517595.got - 2010.06.27 13:26:56.
