data_PCOD8040867
_publ_section_title
;
Structure prediction by ZEFSAII (Michael W. Deem and Ramdas Pophale) SiO2 
 PCOD8040867
Probable space group: P -1
;
_chemical_formula_sum "Si O2"
_cell_formula_units_Z 16
_cell_length_a 13.852844
_cell_length_b 9.203436
_cell_length_c 22.073493
_cell_angle_alpha 146.488840
_cell_angle_beta 144.622938
_cell_angle_gamma 58.376064
_cell_volume 785.940913
_symmetry_space_group_name_H-M "P -1"
_symmetry_group_IT_number 2
_symmetry_cell_setting 'triclinic'
loop_
_space_group_symop_operation_xyz
x,y,z
-x,-y,-z
loop_
_atom_site_type_symbol
_atom_site_label
_atom_site_fract_x
_atom_site_fract_y
_atom_site_fract_z
Si Si1 0.501825 0.816365 0.282514
Si Si2 0.849900 0.298792 0.679095
Si Si3 0.339293 0.777242 0.994553
Si Si4 0.168250 0.170391 0.760680
Si Si5 0.924384 0.326685 0.963241
Si Si6 0.945908 0.725540 0.767394
Si Si7 0.533011 0.768601 0.975503
Si Si8 0.300536 0.862416 0.629149
O O1 0.626126 0.045613 0.479685
O O2 0.609289 0.970538 0.329096
O O3 0.284922 0.743617 0.148776
O O4 0.502148 0.502431 0.181276
O O5 0.874341 0.564476 0.739159
O O6 0.956560 0.115203 0.646200
O O7 0.921632 0.450297 0.832861
O O8 0.294248 0.528596 0.936998
O O9 0.171508 0.851865 0.921501
O O10 0.380607 0.648498 0.909927
O O11 0.525813 0.082921 0.218015
O O12 0.255363 0.091778 0.837200
O O13 0.169941 0.983652 0.637615
O O14 0.000000 0.500000 0.000000
O O15 0.910978 0.004796 0.841050
O O16 0.833864 0.492309 0.574686
O O17 0.500000 0.000000 0.000000
#
# Coordination Sequence:
#
# PCOD8040867 Si02
#       8
#     2   2   2   2   2   2   2   2
#     4  11  22  41  66  93 122 167 207 251 315 360
#     4  10  23  41  70  93 117 162 215 261 301 366
#     4  10  19  36  63  91 128 158 199 251 307 367
#     4  10  18  39  64  96 132 155 192 256 322 364
#     4  12  27  47  61  82 134 169 209 257 305 365
#     4  10  24  38  66  95 119 163 210 255 304 365
#     4  11  21  35  61  91 130 165 197 245 308 378
#     4  10  19  37  66  99 124 154 201 263 308 366
#
# _framework density 20.357764
#
# number of rings (size 3 to 8) (size 9 to 14) (size 15 to 20)
#    0.000    1.500    3.750    1.875    3.500    5.000 
#    4.500    0.625    0.000    0.000    0.000    0.000 
#    0.000    0.000    0.000    0.000    0.000    0.000 
#
# Total GULP energy -198348.544361 kJ/mol
# GULP energy per Si atom -12396.784023 kJ/mol
# Density = 2.031143 g / cm^3
# Si number density = 20.357764 Si / 1000 Ang^3
#
#
#
# Elastic Constant Matrix: (Units=GPa)
#
#
# Indices 1 2 3 4 5 6 
#
# 1 53.2562 33.4271 35.8538 12.4551 -24.7759 0.6636
# 2 33.4271 135.8000 53.1356 12.5326 -10.3821 -8.2301
# 3 35.8538 53.1356 129.7142 -0.1909 -33.1607 -0.2011
# 4 12.4551 12.5326 -0.1909 18.4012 -3.9322 -14.3100
# 5 -24.7759 -10.3821 -33.1607 -3.9322 27.2118 0.6768
# 6 0.6636 -8.2301 -0.2011 -14.3100 0.6768 19.7881
#
#
#
# Elastic Compliance Matrix: (Units=1/GPa)
#
#
# Indices 1 2 3 4 5 6 
#
# 1 0.066080 -0.007637 -0.004869 -0.082558 0.041043 -0.066549
# 2 -0.007637 0.010621 -0.004374 -0.000177 -0.008376 0.004788
# 3 -0.004869 -0.004374 0.014411 0.017885 0.013771 0.010953
# 4 -0.082558 -0.000177 0.017885 0.248226 -0.022127 0.183142
# 5 0.041043 -0.008376 0.013771 -0.022127 0.085094 -0.023632
# 6 -0.066549 0.004788 0.010953 0.183142 -0.023632 0.188120
#
#
# Mechanical properties :
#
#
# Convention : Reuss Voigt Hill
#
# Bulk Modulus (GPa) = 17.43611 62.62262 40.02936
# Shear Modulus (GPa) = 7.51397 26.17048 16.84222
#
# Velocity S-wave (km/s) = 1.92327 3.58932 2.87942
# Velocity P-wave (km/s) = 3.67633 6.92859 5.54621
#
# Compressibility (1/GPa) = 0.05735225
#
# Stress axis : x y z
#
# Youngs Moduli (GPa) = 15.13327 94.15203 69.39350
#
# Poissons Ratio (x) = 0.71901 0.33787
# Poissons Ratio (y) = 0.11557 0.30353
# Poissons Ratio (z) = 0.07368 0.41182
#
# Static dielectric constant tensor:
#      x y z
#    x 3.728220 -0.139040 -0.123260 
#    y -0.139040 3.611350 -0.241340 
#    z -0.123260 -0.241340 3.953590 
# 
# 
# High freq. dielectric constant tensor:
#      x y z
#    x 1.785500 -0.014430 -0.011770 
#    y -0.014430 1.784430 -0.015910 
#    z -0.011770 -0.015910 1.800010 
# 
# From -- ./inp_files/207839.got.cif
#   From: 2010.06.25/outbox.cif.g09.slc.cpg/sg2_104_cif.got.tgz:207839.got - 2010.06.27 13:26:56.
