data_PCOD8040963
_publ_section_title
;
Structure prediction by ZEFSAII (Michael W. Deem and Ramdas Pophale) SiO2 
 PCOD8040963
Probable space group: P -1
;
_chemical_formula_sum "Si O2"
_cell_formula_units_Z 16
_cell_length_a 9.523158
_cell_length_b 26.513662
_cell_length_c 11.768853
_cell_angle_alpha 152.464539
_cell_angle_beta 140.340079
_cell_angle_gamma 30.044718
_cell_volume 687.768281
_symmetry_space_group_name_H-M "P -1"
_symmetry_group_IT_number 2
_symmetry_cell_setting 'triclinic'
loop_
_space_group_symop_operation_xyz
x,y,z
-x,-y,-z
loop_
_atom_site_type_symbol
_atom_site_label
_atom_site_fract_x
_atom_site_fract_y
_atom_site_fract_z
Si Si1 0.326038 0.876622 0.974346
Si Si2 0.532133 0.834934 0.780365
Si Si3 0.500458 0.793571 0.156781
Si Si4 0.479361 0.579522 0.458206
Si Si5 0.644923 0.552038 0.261406
Si Si6 0.075552 0.137658 0.046834
Si Si7 0.084094 0.497292 0.266785
Si Si8 0.889341 0.727750 0.454445
O O1 0.423253 0.888233 0.184504
O O2 0.506137 0.869792 0.968532
O O3 0.384505 0.731613 0.723935
O O4 0.000000 0.000000 0.000000
O O5 0.496517 0.717030 0.495368
O O6 0.830085 0.792377 0.838053
O O7 0.284787 0.970925 0.828431
O O8 0.629466 0.829186 0.409291
O O9 0.758410 0.632742 0.977827
O O10 0.235211 0.808089 0.069117
O O11 0.649385 0.508874 0.306950
O O12 0.693411 0.483712 0.502609
O O13 0.185108 0.605363 0.331410
O O14 0.954370 0.469372 0.236136
O O15 0.500000 0.500000 0.000000
O O16 0.085124 0.171523 0.252432
O O17 0.842018 0.638140 0.329766
#
# Coordination Sequence:
#
# PCOD8040963 Si02
#       8
#     2   2   2   2   2   2   2   2
#     4  10  18  40  68  93 130 177 221 272 338 397
#     4  10  22  42  74  93 133 187 217 278 340 404
#     4  11  24  39  69 101 137 176 229 280 333 408
#     4  10  22  38  67  93 137 180 226 275 336 409
#     4  11  23  41  66 100 139 173 228 285 333 405
#     4  11  22  45  70  97 138 176 227 277 342 400
#     4  11  22  42  64  97 138 181 225 274 344 398
#     4  12  22  42  66 104 137 177 230 277 338 404
#
# _framework density 23.263649000000001
#
# number of rings (size 3 to 8) (size 9 to 14) (size 15 to 20)
#    0.000    1.250    5.000    1.875    0.000    0.000 
#    0.000    6.250   16.500    0.000    0.000    0.000 
#    0.000    0.000    0.000    0.000    0.000    0.000 
#
# Total GULP energy -198272.486881 kJ/mol
# GULP energy per Si atom -12392.030430 kJ/mol
# Density = 2.321070 g / cm^3
# Si number density = 23.263649 Si / 1000 Ang^3
#
#
#
# Elastic Constant Matrix: (Units=GPa)
#
#
# Indices 1 2 3 4 5 6 
#
# 1 143.8242 31.4311 19.7170 -19.9321 -9.5321 -15.6746
# 2 31.4311 114.4916 33.2530 -27.0235 -9.1372 3.5191
# 3 19.7170 33.2530 58.3002 -14.7065 2.4243 -1.1698
# 4 -19.9321 -27.0235 -14.7065 44.0522 0.5185 -1.4519
# 5 -9.5321 -9.1372 2.4243 0.5185 22.7612 -0.0997
# 6 -15.6746 3.5191 -1.1698 -1.4519 -0.0997 44.2502
#
#
#
# Elastic Compliance Matrix: (Units=1/GPa)
#
#
# Indices 1 2 3 4 5 6 
#
# 1 0.008315 -0.001022 -0.001631 0.002655 0.003199 0.003078
# 2 -0.001022 0.012285 -0.005608 0.005100 0.004979 -0.001309
# 3 -0.001631 -0.005608 0.021951 0.003231 -0.005344 0.000543
# 4 0.002655 0.005100 0.003231 0.028134 0.002181 0.001548
# 5 0.003199 0.004979 -0.005344 0.002181 0.047796 0.000775
# 6 0.003078 -0.001309 0.000543 0.001548 0.000775 0.023860
#
#
# Mechanical properties :
#
#
# Convention : Reuss Voigt Hill
#
# Bulk Modulus (GPa) = 38.41848 53.93535 46.17692
# Shear Modulus (GPa) = 29.84371 37.69371 33.76871
#
# Velocity S-wave (km/s) = 3.58557 4.02964 3.81407
# Velocity P-wave (km/s) = 5.80448 6.69966 6.26807
#
# Compressibility (1/GPa) = 0.02602914
#
# Stress axis : x y z
#
# Youngs Moduli (GPa) = 120.26172 81.40042 45.55581
#
# Poissons Ratio (x) = 0.08317 0.07430
# Poissons Ratio (y) = 0.12288 0.25549
# Poissons Ratio (z) = 0.19614 0.45652
#
# Static dielectric constant tensor:
#      x y z
#    x 4.654350 -0.062570 -0.225120 
#    y -0.062570 4.437130 0.034070 
#    z -0.225120 0.034070 4.020690 
# 
# 
# High freq. dielectric constant tensor:
#      x y z
#    x 1.939310 -0.003090 -0.010340 
#    y -0.003090 1.907010 0.012690 
#    z -0.010340 0.012690 1.895530 
# 
# From -- ./inp_files/407362.got.cif
#   From: 2010.06.25/outbox.cif.g09.slc.cpg/sg2_204_cif.got.tgz:407362.got - 2010.06.27 13:26:56.
