data_PCOD8040707
_publ_section_title
;
Structure prediction by ZEFSAII (Michael W. Deem and Ramdas Pophale) SiO2 
 PCOD8040707
Probable space group: P -1
;
_chemical_formula_sum "Si O2"
_cell_formula_units_Z 14
_cell_length_a 23.120297
_cell_length_b 9.164550
_cell_length_c 13.767885
_cell_angle_alpha 129.743484
_cell_angle_beta 31.369927
_cell_angle_gamma 150.699859
_cell_volume 676.800975
_symmetry_space_group_name_H-M "P -1"
_symmetry_group_IT_number 2
_symmetry_cell_setting 'triclinic'
loop_
_space_group_symop_operation_xyz
x,y,z
-x,-y,-z
loop_
_atom_site_type_symbol
_atom_site_label
_atom_site_fract_x
_atom_site_fract_y
_atom_site_fract_z
Si Si1 0.336545 0.508994 0.278315
Si Si2 0.382253 0.663932 0.482042
Si Si3 0.827694 0.321851 0.453998
Si Si4 0.008198 0.366324 0.844640
Si Si5 0.027359 0.834414 0.531133
Si Si6 0.663484 0.794003 0.594330
Si Si7 0.314457 0.370390 0.044422
O O1 0.466110 0.690254 0.269811
O O2 0.314206 0.697655 0.362063
O O3 0.410683 0.501055 0.071741
O O4 0.132078 0.131747 0.437624
O O5 0.165305 0.423202 0.667023
O O6 0.382103 0.491414 0.486214
O O7 0.500000 0.000000 0.500000
O O8 0.933006 0.429143 0.246864
O O9 0.983999 0.585329 0.424903
O O10 0.707024 0.967343 0.506671
O O11 0.801574 0.984182 0.962538
O O12 0.000000 0.500000 0.000000
O O13 0.827030 0.648067 0.772404
O O14 0.151672 0.941776 0.489329
O O15 0.482565 0.637026 0.839847
#
# Coordination Sequence:
#
# PCOD8040707 Si02
#       7
#     2   2   2   2   2   2   2
#     4   9  18  36  64  83 122 162 196 244 291 355
#     4  10  21  40  57  87 123 157 201 247 292 353
#     4  10  19  38  60  89 122 158 193 252 308 337
#     4  11  21  40  67  82 115 169 205 239 296 363
#     4  10  18  38  61  86 129 157 190 248 294 361
#     4  11  23  34  63  93 124 150 196 255 302 350
#     4  11  19  38  63  89 118 160 204 233 300 363
#
# _framework density 20.685549000000002
#
# number of rings (size 3 to 8) (size 9 to 14) (size 15 to 20)
#    0.000    1.714    5.714    2.143    0.000    4.571 
#    2.571    7.143    6.286    0.000    0.000    0.000 
#    0.000    0.000    0.000    0.000    0.000    0.000 
#
# Total GULP energy -173499.637494 kJ/mol
# GULP energy per Si atom -12392.831250 kJ/mol
# Density = 2.063847 g / cm^3
# Si number density = 20.685549 Si / 1000 Ang^3
#
#
#
# Elastic Constant Matrix: (Units=GPa)
#
#
# Indices 1 2 3 4 5 6 
#
# 1 76.3288 55.4918 31.4230 -9.0318 17.7989 -16.3961
# 2 55.4918 138.4609 30.8870 8.7324 23.6314 -3.9666
# 3 31.4230 30.8870 83.1406 -5.4836 21.9086 -3.3253
# 4 -9.0318 8.7324 -5.4836 27.4861 10.0416 8.3265
# 5 17.7989 23.6314 21.9086 10.0416 29.3284 1.4060
# 6 -16.3961 -3.9666 -3.3253 8.3265 1.4060 47.0403
#
#
#
# Elastic Compliance Matrix: (Units=1/GPa)
#
#
# Indices 1 2 3 4 5 6 
#
# 1 0.025919 -0.008476 -0.002379 0.013233 -0.011950 0.006166
# 2 -0.008476 0.011415 -0.001184 -0.005952 -0.001085 -0.000989
# 3 -0.002379 -0.001184 0.017396 0.008172 -0.013360 -0.000747
# 4 0.013233 -0.005952 0.008172 0.055901 -0.028270 -0.004362
# 5 -0.011950 -0.001085 -0.013360 -0.028270 0.061980 -0.002050
# 6 0.006166 -0.000989 -0.000747 -0.004362 -0.002050 0.024105
#
#
# Mechanical properties :
#
#
# Convention : Reuss Voigt Hill
#
# Bulk Modulus (GPa) = 32.62221 59.28156 45.95189
# Shear Modulus (GPa) = 21.64396 32.77954 27.21175
#
# Velocity S-wave (km/s) = 3.23822 3.98510 3.63091
# Velocity P-wave (km/s) = 5.45767 7.06366 6.31195
#
# Compressibility (1/GPa) = 0.03065396
#
# Stress axis : x y z
#
# Youngs Moduli (GPa) = 38.58118 87.60208 57.48328
#
# Poissons Ratio (x) = 0.74247 0.13676
# Poissons Ratio (y) = 0.32700 0.06805
# Poissons Ratio (z) = 0.09179 0.10370
#
# Static dielectric constant tensor:
#      x y z
#    x 3.788600 0.165510 0.121050 
#    y 0.165510 3.852130 0.180620 
#    z 0.121050 0.180620 3.712510 
# 
# 
# High freq. dielectric constant tensor:
#      x y z
#    x 1.799770 0.005980 -0.004400 
#    y 0.005980 1.806970 0.008600 
#    z -0.004400 0.008600 1.794520 
# 
# From -- ./inp_files/175559.got.cif
#   From: 2010.06.25/outbox.cif.g09.slc.cpg/sg2_88_cif.got.tgz:175559.got - 2010.06.27 13:26:56.
