data_PCOD8040249
_publ_section_title
;
Structure prediction by ZEFSAII (Michael W. Deem and Ramdas Pophale) SiO2 
 PCOD8040249
Probable space group: P -1
;
_chemical_formula_sum "Si O2"
_cell_formula_units_Z 12
_cell_length_a 11.518076
_cell_length_b 9.337864
_cell_length_c 8.938003
_cell_angle_alpha 52.056886
_cell_angle_beta 128.667885
_cell_angle_gamma 106.369409
_cell_volume 583.689010
_symmetry_space_group_name_H-M "P -1"
_symmetry_group_IT_number 2
_symmetry_cell_setting 'triclinic'
loop_
_space_group_symop_operation_xyz
x,y,z
-x,-y,-z
loop_
_atom_site_type_symbol
_atom_site_label
_atom_site_fract_x
_atom_site_fract_y
_atom_site_fract_z
Si Si1 0.337481 0.539574 0.773882
Si Si2 0.131664 0.440435 0.898674
Si Si3 0.867495 0.923170 0.029586
Si Si4 0.700646 0.618096 0.631732
Si Si5 0.163369 0.311278 0.583853
Si Si6 0.369427 0.727577 0.388453
O O1 0.222227 0.580688 0.793164
O O2 0.295100 0.366459 0.758882
O O3 0.330584 0.707628 0.545108
O O4 0.500000 0.500000 0.000000
O O5 0.181291 0.231775 0.016817
O O6 0.956937 0.507891 0.675213
O O7 0.169623 0.443751 0.101783
O O8 0.914757 0.835726 0.289658
O O9 0.724733 0.076686 0.856888
O O10 0.000000 0.000000 0.000000
O O11 0.759277 0.757499 0.468679
O O12 0.548211 0.724999 0.514921
O O13 0.677210 0.432470 0.647980
#
# Coordination Sequence:
#
# PCOD8040249 Si02
#       6
#     2   2   2   2   2   2
#     4  10  18  36  59  87 112 152 197 234 287 348
#     4  11  21  39  64  88 116 156 200 238 291 351
#     4  11  22  39  60  86 120 155 195 249 289 335
#     4  10  21  39  60  86 117 159 193 235 298 356
#     4  10  22  38  60  86 121 156 193 240 295 353
#     4  10  21  38  61  87 122 150 195 243 293 347
#
# _framework density 20.558892
#
# number of rings (size 3 to 8) (size 9 to 14) (size 15 to 20)
#    0.000    1.667    1.667    5.500    0.000    1.333 
#    0.000    5.000    0.000    0.000    0.000    0.000 
#    0.000    0.000    0.000    0.000    0.000    0.000 
#
# Total GULP energy -148686.162935 kJ/mol
# GULP energy per Si atom -12390.513578 kJ/mol
# Density = 2.051210 g / cm^3
# Si number density = 20.558892 Si / 1000 Ang^3
#
#
#
# Elastic Constant Matrix: (Units=GPa)
#
#
# Indices 1 2 3 4 5 6 
#
# 1 139.6116 31.1160 59.3404 3.5520 -26.9790 12.7180
# 2 31.1160 43.3858 47.9353 5.8998 3.0748 0.5711
# 3 59.3404 47.9353 135.4697 11.6143 -11.9148 0.2667
# 4 3.5520 5.8998 11.6143 37.0951 -5.1268 2.5989
# 5 -26.9790 3.0748 -11.9148 -5.1268 55.8893 0.3931
# 6 12.7180 0.5711 0.2667 2.5989 0.3931 21.2516
#
#
#
# Elastic Compliance Matrix: (Units=1/GPa)
#
#
# Indices 1 2 3 4 5 6 
#
# 1 0.011119 -0.005741 -0.002513 0.001853 0.005365 -0.006794
# 2 -0.005741 0.042491 -0.012948 -0.003502 -0.008212 0.003037
# 3 -0.002513 -0.012948 0.013400 -0.001724 0.002185 0.001854
# 4 0.001853 -0.003502 -0.001724 0.028664 0.003381 -0.004561
# 5 0.005365 -0.008212 0.002185 0.003381 0.021737 -0.003833
# 6 -0.006794 0.003037 0.001854 -0.004561 -0.003833 0.051645
#
#
# Mechanical properties :
#
#
# Convention : Reuss Voigt Hill
#
# Bulk Modulus (GPa) = 40.64056 66.13895 53.38976
# Shear Modulus (GPa) = 22.76228 34.85222 28.80725
#
# Velocity S-wave (km/s) = 3.33103 4.12179 3.74733
# Velocity P-wave (km/s) = 5.88262 7.40895 6.68946
#
# Compressibility (1/GPa) = 0.02460596
#
# Stress axis : x y z
#
# Youngs Moduli (GPa) = 89.93823 23.53450 74.62494
#
# Poissons Ratio (x) = 0.13511 0.18750
# Poissons Ratio (y) = 0.51633 0.96628
# Poissons Ratio (z) = 0.22597 0.30473
#
# Static dielectric constant tensor:
#      x y z
#    x 4.497640 0.072280 -0.388420 
#    y 0.072280 3.328920 0.054240 
#    z -0.388420 0.054240 3.936550 
# 
# 
# High freq. dielectric constant tensor:
#      x y z
#    x 1.831210 0.007740 -0.014870 
#    y 0.007740 1.757240 0.017230 
#    z -0.014870 0.017230 1.808920 
# 
# From -- ./inp_files/144589.got.cif
#   From: 2010.06.25/outbox.cif.g09.slc.cpg/sg2_73_cif.got.tgz:144589.got - 2010.06.27 13:26:56.
