data_PCOD8040018
_publ_section_title
;
Structure prediction by ZEFSAII (Michael W. Deem and Ramdas Pophale) SiO2 
 PCOD8040018
Probable space group: P -1
;
_chemical_formula_sum "Si O2"
_cell_formula_units_Z 16
_cell_length_a 14.175971
_cell_length_b 8.305137
_cell_length_c 18.709128
_cell_angle_alpha 86.527346
_cell_angle_beta 30.194108
_cell_angle_gamma 66.845843
_cell_volume 811.807746
_symmetry_space_group_name_H-M "P -1"
_symmetry_group_IT_number 2
_symmetry_cell_setting 'triclinic'
loop_
_space_group_symop_operation_xyz
x,y,z
-x,-y,-z
loop_
_atom_site_type_symbol
_atom_site_label
_atom_site_fract_x
_atom_site_fract_y
_atom_site_fract_z
Si Si1 0.465329 0.481643 0.236871
Si Si2 0.434271 0.728566 0.036764
Si Si3 0.059206 0.363703 0.069671
Si Si4 0.076528 0.108333 0.623341
Si Si5 0.946470 0.716991 0.514641
Si Si6 0.444928 0.895523 0.875428
Si Si7 0.822782 0.462099 0.897491
Si Si8 0.602604 0.640969 0.261291
O O1 0.514210 0.260363 0.210433
O O2 0.530646 0.519993 0.269519
O O3 0.165722 0.695304 0.410494
O O4 0.644931 0.446315 0.058827
O O5 0.132984 0.913830 0.248100
O O6 0.500000 0.500000 0.000000
O O7 0.485555 0.785976 0.927327
O O8 0.631490 0.685140 0.967690
O O9 0.014765 0.519006 0.157344
O O10 0.788263 0.481980 0.208497
O O11 0.260104 0.310531 0.881091
O O12 0.168126 0.136510 0.039748
O O13 0.050401 0.248834 0.572126
O O14 0.024584 0.238620 0.726403
O O15 0.353717 0.867040 0.452364
O O16 0.659451 0.913505 0.727733
O O17 0.000000 0.500000 0.500000
#
# Coordination Sequence:
#
# PCOD8040018 Si02
#       8
#     2   2   2   2   2   2   2   2
#     4  10  19  36  61  84 118 155 186 229 294 350
#     4  10  18  35  61  89 118 151 183 227 300 363
#     4  10  23  40  57  84 117 152 203 242 272 333
#     4  11  19  36  61  86 114 156 186 233 290 349
#     4  10  19  32  59  93 119 140 190 241 284 344
#     4  11  20  37  61  90 119 149 185 244 289 334
#     4  10  19  36  61  84 118 156 183 229 299 350
#     4  10  23  40  58  83 114 158 204 233 274 343
#
# _framework density 19.709098999999998
#
# number of rings (size 3 to 8) (size 9 to 14) (size 15 to 20)
#    0.000    1.750    5.000    2.250    0.000    3.000 
#    0.000    3.125    0.000    0.000    0.000    0.000 
#    0.000    0.000    0.000    0.000    0.000    0.000 
#
# Total GULP energy -198309.346802 kJ/mol
# GULP energy per Si atom -12394.334175 kJ/mol
# Density = 1.966424 g / cm^3
# Si number density = 19.709099 Si / 1000 Ang^3
#
#
#
# Elastic Constant Matrix: (Units=GPa)
#
#
# Indices 1 2 3 4 5 6 
#
# 1 147.2648 44.2629 71.9279 6.4967 -10.6886 -11.6037
# 2 44.2629 58.7171 37.1938 4.8509 -2.5885 -8.9515
# 3 71.9279 37.1938 125.7488 12.9217 -3.5425 -3.1895
# 4 6.4967 4.8509 12.9217 29.5609 -5.2969 -3.6454
# 5 -10.6886 -2.5885 -3.5425 -5.2969 27.1242 1.7639
# 6 -11.6037 -8.9515 -3.1895 -3.6454 1.7639 21.6714
#
#
#
# Elastic Compliance Matrix: (Units=1/GPa)
#
#
# Indices 1 2 3 4 5 6 
#
# 1 0.011021 -0.004694 -0.004892 0.001482 0.003336 0.003220
# 2 -0.004694 0.024366 -0.004330 -0.000330 -0.000604 0.006908
# 3 -0.004892 -0.004330 0.012349 -0.004248 -0.001350 -0.003195
# 4 0.001482 -0.000330 -0.004248 0.037363 0.006920 0.005753
# 5 0.003336 -0.000604 -0.001350 0.006920 0.039345 -0.000700
# 6 0.003220 0.006908 -0.003195 0.005753 -0.000700 0.051276
#
#
# Mechanical properties :
#
#
# Convention : Reuss Voigt Hill
#
# Bulk Modulus (GPa) = 50.24147 70.94442 60.59294
# Shear Modulus (GPa) = 23.78841 27.56106 25.67474
#
# Velocity S-wave (km/s) = 3.47793 3.74357 3.61319
# Velocity P-wave (km/s) = 6.45560 7.39997 6.94386
#
# Compressibility (1/GPa) = 0.01990388
#
# Stress axis : x y z
#
# Youngs Moduli (GPa) = 90.73305 41.04160 80.97814
#
# Poissons Ratio (x) = 0.19263 0.39618
# Poissons Ratio (y) = 0.42586 0.35063
# Poissons Ratio (z) = 0.44391 0.17771
#
# Static dielectric constant tensor:
#      x y z
#    x 3.810900 -0.058180 -0.235110 
#    y -0.058180 3.362760 -0.020590 
#    z -0.235110 -0.020590 3.915590 
# 
# 
# High freq. dielectric constant tensor:
#      x y z
#    x 1.760520 -0.006010 -0.004670 
#    y -0.006010 1.748120 -0.001750 
#    z -0.004670 -0.001750 1.770550 
# 
# From -- ./inp_files/214520.got.cif
#   From: 2010.06.25/outbox.cif.g09.slc.cpg/sg2_108_cif.got.tgz:214520.got - 2010.06.27 13:26:56.
