data_PCOD8040391
_publ_section_title
;
Structure prediction by ZEFSAII (Michael W. Deem and Ramdas Pophale) SiO2 
 PCOD8040391
Probable space group: P -1
;
_chemical_formula_sum "Si O2"
_cell_formula_units_Z 16
_cell_length_a 8.536643
_cell_length_b 19.177245
_cell_length_c 13.738146
_cell_angle_alpha 22.712305
_cell_angle_beta 88.175903
_cell_angle_gamma 97.918419
_cell_volume 782.319273
_symmetry_space_group_name_H-M "P -1"
_symmetry_group_IT_number 2
_symmetry_cell_setting 'triclinic'
loop_
_space_group_symop_operation_xyz
x,y,z
-x,-y,-z
loop_
_atom_site_type_symbol
_atom_site_label
_atom_site_fract_x
_atom_site_fract_y
_atom_site_fract_z
Si Si1 0.209750 0.705975 0.402580
Si Si2 0.685716 0.154929 0.076186
Si Si3 0.662732 0.456390 0.565427
Si Si4 0.985901 0.267618 0.046511
Si Si5 0.963809 0.059562 0.650101
Si Si6 0.028440 0.829946 0.095554
Si Si7 0.888109 0.598419 0.923250
Si Si8 0.663655 0.187349 0.529833
O O1 0.328725 0.671912 0.362608
O O2 0.113337 0.838324 0.189699
O O3 0.332094 0.824453 0.337626
O O4 0.064968 0.496481 0.714476
O O5 0.774846 0.172306 0.157708
O O6 0.531345 0.936274 0.345121
O O7 0.618901 0.322140 0.837786
O O8 0.851083 0.216962 0.921550
O O9 0.500000 0.500000 0.500000
O O10 0.836014 0.655595 0.320148
O O11 0.014812 0.259708 0.170563
O O12 0.074064 0.143719 0.147054
O O13 0.126848 0.248920 0.353497
O O14 0.792943 0.099176 0.598415
O O15 0.017723 0.032882 0.795052
O O16 0.710566 0.413764 0.200075
O O17 0.000000 0.500000 0.000000
#
# Coordination Sequence:
#
# PCOD8040391 Si02
#       8
#     2   2   2   2   2   2   2   2
#     4  10  19  37  56  80 117 155 179 227 290 326
#     4  10  19  34  57  82 113 150 184 228 281 333
#     4  11  19  32  56  85 114 144 192 232 266 337
#     4  10  18  36  64  79 107 153 191 224 281 336
#     4  10  19  35  58  86 107 147 196 230 269 336
#     4  10  19  35  57  82 116 146 190 228 275 337
#     4   9  20  38  59  82 113 146 188 236 283 328
#     4  10  22  36  56  84 117 145 189 235 282 327
#
# _framework density 20.452007999999999
#
# number of rings (size 3 to 8) (size 9 to 14) (size 15 to 20)
#    0.000    2.000    3.750    1.875    0.000    2.500 
#    0.000    7.500    0.000    0.000    0.000    0.000 
#    0.000    0.000    0.000    0.000    0.000    0.000 
#
# Total GULP energy -198214.516031 kJ/mol
# GULP energy per Si atom -12388.407252 kJ/mol
# Density = 2.040546 g / cm^3
# Si number density = 20.452008 Si / 1000 Ang^3
#
#
#
# Elastic Constant Matrix: (Units=GPa)
#
#
# Indices 1 2 3 4 5 6 
#
# 1 87.2182 28.2632 31.3384 -10.1611 -13.3790 15.4162
# 2 28.2632 76.4201 35.6980 -5.2204 -3.2879 3.6147
# 3 31.3384 35.6980 124.2010 12.1954 -0.4899 26.0932
# 4 -10.1611 -5.2204 12.1954 21.5363 2.8000 -4.7684
# 5 -13.3790 -3.2879 -0.4899 2.8000 23.7876 -6.4371
# 6 15.4162 3.6147 26.0932 -4.7684 -6.4371 21.4889
#
#
#
# Elastic Compliance Matrix: (Units=1/GPa)
#
#
# Indices 1 2 3 4 5 6 
#
# 1 0.016187 -0.003801 -0.002695 0.006432 0.006604 -0.004295
# 2 -0.003801 0.018232 -0.007627 0.009227 0.002293 0.011655
# 3 -0.002695 -0.007627 0.017717 -0.017645 -0.006680 -0.024213
# 4 0.006432 0.009227 -0.017645 0.068093 0.005150 0.031912
# 5 0.006604 0.002293 -0.006680 0.005150 0.050541 0.019271
# 6 -0.004295 0.011655 -0.024213 0.031912 0.019271 0.089912
#
#
# Mechanical properties :
#
#
# Convention : Reuss Voigt Hill
#
# Bulk Modulus (GPa) = 41.85855 53.15983 47.50919
# Shear Modulus (GPa) = 16.84122 26.19855 21.51988
#
# Velocity S-wave (km/s) = 2.87270 3.58296 3.24730
# Velocity P-wave (km/s) = 5.61376 6.57006 6.11065
#
# Compressibility (1/GPa) = 0.02388998
#
# Stress axis : x y z
#
# Youngs Moduli (GPa) = 61.77716 54.84946 56.44367
#
# Poissons Ratio (x) = 0.20849 0.15212
# Poissons Ratio (y) = 0.23482 0.43048
# Poissons Ratio (z) = 0.16649 0.41833
#
# Static dielectric constant tensor:
#      x y z
#    x 3.604970 0.238480 0.316300 
#    y 0.238480 3.879630 0.398530 
#    z 0.316300 0.398530 4.434700 
# 
# 
# High freq. dielectric constant tensor:
#      x y z
#    x 1.776480 0.007690 0.011580 
#    y 0.007690 1.784510 0.011900 
#    z 0.011580 0.011900 1.810860 
# 
# From -- ./inp_files/188933.got.cif
#   From: 2010.06.25/outbox.cif.g09.slc.cpg/sg2_95_cif.got.tgz:188933.got - 2010.06.27 13:26:56.
