data_PCOD8040363
_publ_section_title
;
Structure prediction by ZEFSAII (Michael W. Deem and Ramdas Pophale) SiO2 
 PCOD8040363
Probable space group: P -1
;
_chemical_formula_sum "Si O2"
_cell_formula_units_Z 16
_cell_length_a 11.895867
_cell_length_b 11.169275
_cell_length_c 12.228314
_cell_angle_alpha 57.527061
_cell_angle_beta 36.545568
_cell_angle_gamma 50.148368
_cell_volume 741.872190
_symmetry_space_group_name_H-M "P -1"
_symmetry_group_IT_number 2
_symmetry_cell_setting 'triclinic'
loop_
_space_group_symop_operation_xyz
x,y,z
-x,-y,-z
loop_
_atom_site_type_symbol
_atom_site_label
_atom_site_fract_x
_atom_site_fract_y
_atom_site_fract_z
Si Si1 0.269267 0.938509 0.526287
Si Si2 0.457384 0.231191 0.932303
Si Si3 0.855851 0.178868 0.514493
Si Si4 0.280760 0.466753 0.271152
Si Si5 0.074175 0.280042 0.446482
Si Si6 0.699327 0.432344 0.024626
Si Si7 0.623133 0.951343 0.103226
Si Si8 0.950573 0.114227 0.084063
O O1 0.232143 0.806850 0.546658
O O2 0.492469 0.934090 0.318810
O O3 0.242986 0.894037 0.692989
O O4 0.096265 0.116653 0.560899
O O5 0.675357 0.227566 0.722801
O O6 0.309066 0.406578 0.998625
O O7 0.345507 0.182291 0.945265
O O8 0.491986 0.117657 0.065629
O O9 0.998488 0.274168 0.381976
O O10 0.000000 0.000000 0.500000
O O11 0.094882 0.562641 0.448638
O O12 0.482705 0.416843 0.214428
O O13 0.280339 0.308543 0.293945
O O14 0.265766 0.581597 0.126297
O O15 0.884152 0.290626 0.008836
O O16 0.846948 0.935387 0.973899
O O17 0.000000 0.000000 0.000000
#
# Coordination Sequence:
#
# PCOD8040363 Si02
#       8
#     2   2   2   2   2   2   2   2
#     4  10  22  40  65  91 127 166 215 264 318 391
#     4  10  20  41  72  95 128 166 218 277 311 378
#     4   9  17  33  62  96 124 156 209 267 321 366
#     4  10  22  36  62  90 128 160 218 261 321 384
#     4  10  18  36  62  96 118 160 210 271 318 376
#     4  11  24  41  60  91 128 176 210 267 323 379
#     4  10  23  43  69 102 125 168 220 265 327 382
#     4  12  28  44  63  93 137 178 210 264 331 394
#
# _framework density 21.567056999999998
#
# number of rings (size 3 to 8) (size 9 to 14) (size 15 to 20)
#    0.000    1.750    1.250    3.000    5.250    4.000 
#    4.500    2.500    0.000    0.000    0.000    0.000 
#    0.000    0.000    0.000    0.000    0.000    0.000 
#
# Total GULP energy -198210.804440 kJ/mol
# GULP energy per Si atom -12388.175277 kJ/mol
# Density = 2.151797 g / cm^3
# Si number density = 21.567057 Si / 1000 Ang^3
#
#
#
# Elastic Constant Matrix: (Units=GPa)
#
#
# Indices 1 2 3 4 5 6 
#
# 1 101.2603 45.1453 30.3731 -8.1388 -9.2770 20.2901
# 2 45.1453 112.2202 19.4775 -1.1224 4.2166 17.5651
# 3 30.3731 19.4775 75.7492 -1.2921 16.5749 5.1354
# 4 -8.1388 -1.1224 -1.2921 26.3884 5.3558 0.1752
# 5 -9.2770 4.2166 16.5749 5.3558 31.5080 -5.7177
# 6 20.2901 17.5651 5.1354 0.1752 -5.7177 38.8720
#
#
#
# Elastic Compliance Matrix: (Units=1/GPa)
#
#
# Indices 1 2 3 4 5 6 
#
# 1 0.015629 -0.004799 -0.006313 0.002845 0.007339 -0.004089
# 2 -0.004799 0.011477 -0.000062 -0.000274 -0.003447 -0.003179
# 3 -0.006313 -0.000062 0.018446 0.001384 -0.011949 -0.000878
# 4 0.002845 -0.000274 0.001384 0.040311 -0.007212 -0.002786
# 5 0.007339 -0.003447 -0.011949 -0.007212 0.042897 0.005647
# 6 -0.004089 -0.003179 -0.000878 -0.002786 0.005647 0.030255
#
#
# Mechanical properties :
#
#
# Convention : Reuss Voigt Hill
#
# Bulk Modulus (GPa) = 43.09543 53.24682 48.17112
# Shear Modulus (GPa) = 26.44141 32.30261 29.37201
#
# Velocity S-wave (km/s) = 3.50524 3.87431 3.69439
# Velocity P-wave (km/s) = 6.03388 6.69001 6.37040
#
# Compressibility (1/GPa) = 0.02320432
#
# Stress axis : x y z
#
# Youngs Moduli (GPa) = 63.98357 87.13328 54.21122
#
# Poissons Ratio (x) = 0.41816 0.34224
# Poissons Ratio (y) = 0.30706 0.00335
# Poissons Ratio (z) = 0.40393 0.00538
#
# Static dielectric constant tensor:
#      x y z
#    x 4.261790 0.476720 -0.065550 
#    y 0.476720 3.700900 0.102700 
#    z -0.065550 0.102700 3.886150 
# 
# 
# High freq. dielectric constant tensor:
#      x y z
#    x 1.844120 0.036620 -0.007230 
#    y 0.036620 1.828530 0.018270 
#    z -0.007230 0.018270 1.848360 
# 
# From -- ./inp_files/425407.got.cif
#   From: 2010.06.25/outbox.cif.g09.slc.cpg/sg2_213_cif.got.tgz:425407.got - 2010.06.27 13:26:56.
