data_PCOD8040090
_publ_section_title
;
Structure prediction by ZEFSAII (Michael W. Deem and Ramdas Pophale) SiO2 
 PCOD8040090
Probable space group: P -1
;
_chemical_formula_sum "Si O2"
_cell_formula_units_Z 16
_cell_length_a 12.635791
_cell_length_b 12.962098
_cell_length_c 8.826809
_cell_angle_alpha 51.538033
_cell_angle_beta 136.449383
_cell_angle_gamma 122.311530
_cell_volume 770.509083
_symmetry_space_group_name_H-M "P -1"
_symmetry_group_IT_number 2
_symmetry_cell_setting 'triclinic'
loop_
_space_group_symop_operation_xyz
x,y,z
-x,-y,-z
loop_
_atom_site_type_symbol
_atom_site_label
_atom_site_fract_x
_atom_site_fract_y
_atom_site_fract_z
Si Si1 0.157479 0.841249 0.773412
Si Si2 0.768684 0.235787 0.547418
Si Si3 0.549361 0.442780 0.762192
Si Si4 0.764738 0.012676 0.993961
Si Si5 0.712815 0.507245 0.383311
Si Si6 0.823587 0.443516 0.873695
Si Si7 0.067896 0.223186 0.670739
Si Si8 0.557309 0.156070 0.125989
O O1 0.304388 0.901208 0.766666
O O2 0.002583 0.794072 0.556662
O O3 0.135024 0.946921 0.785403
O O4 0.200258 0.714939 0.024220
O O5 0.757943 0.139606 0.766785
O O6 0.763319 0.387427 0.452538
O O7 0.621127 0.195986 0.323308
O O8 0.931773 0.230665 0.640877
O O9 0.500000 0.500000 0.500000
O O10 0.476959 0.498883 0.790135
O O11 0.739594 0.476351 0.916923
O O12 0.503423 0.281911 0.869394
O O13 0.588621 0.959162 0.908064
O O14 0.846074 0.903306 0.089437
O O15 0.749393 0.507275 0.598285
O O16 0.803856 0.646410 0.288995
O O17 0.000000 0.500000 0.000000
#
# Coordination Sequence:
#
# PCOD8040090 Si02
#       8
#     2   2   2   2   2   2   2   2
#     4  10  21  38  64  90 118 157 204 252 306 367
#     4  11  25  40  62  87 126 168 207 243 304 367
#     4   9  20  37  62  92 122 153 197 259 306 347
#     4  12  22  42  63  87 123 165 205 252 304 362
#     4  11  20  40  62  86 122 165 200 247 306 364
#     4  10  18  35  63  92 123 150 195 256 313 348
#     4  11  23  40  61  90 124 157 205 261 306 351
#     4  10  22  41  62  90 122 162 202 253 302 363
#
# _framework density 20.765491999999998
#
# number of rings (size 3 to 8) (size 9 to 14) (size 15 to 20)
#    0.000    1.500    3.750    1.875    0.000    0.500 
#    0.000    0.000    2.750    0.000    0.000    0.000 
#    0.000    0.000    0.000    0.000    0.000    0.000 
#
# Total GULP energy -198234.678332 kJ/mol
# GULP energy per Si atom -12389.667396 kJ/mol
# Density = 2.071823 g / cm^3
# Si number density = 20.765492 Si / 1000 Ang^3
#
#
#
# Elastic Constant Matrix: (Units=GPa)
#
#
# Indices 1 2 3 4 5 6 
#
# 1 120.9849 60.9225 13.8362 -1.8456 11.5461 7.8521
# 2 60.9225 106.2246 26.5311 -6.4167 0.5452 -3.2048
# 3 13.8362 26.5311 53.1862 -8.8658 -6.1636 -3.1515
# 4 -1.8456 -6.4167 -8.8658 25.1458 -2.4474 5.5906
# 5 11.5461 0.5452 -6.1636 -2.4474 33.2264 -0.9888
# 6 7.8521 -3.2048 -3.1515 5.5906 -0.9888 35.3928
#
#
#
# Elastic Compliance Matrix: (Units=1/GPa)
#
#
# Indices 1 2 3 4 5 6 
#
# 1 0.012615 -0.007231 -0.000535 -0.000769 -0.004525 -0.003506
# 2 -0.007231 0.014962 -0.005086 0.001110 0.001476 0.002372
# 3 -0.000535 -0.005086 0.023323 0.007223 0.005150 0.000738
# 4 -0.000769 0.001110 0.007223 0.044321 0.004676 -0.005956
# 5 -0.004525 0.001476 0.005150 0.004676 0.032998 0.001779
# 6 -0.003506 0.002372 0.000738 -0.005956 0.001779 0.030303
#
#
# Mechanical properties :
#
#
# Convention : Reuss Voigt Hill
#
# Bulk Modulus (GPa) = 39.68781 53.66393 46.67587
# Shear Modulus (GPa) = 25.95717 30.69338 28.32527
#
# Velocity S-wave (km/s) = 3.53939 3.84877 3.69732
# Velocity P-wave (km/s) = 5.98806 6.75645 6.38383
#
# Compressibility (1/GPa) = 0.02519666
#
# Stress axis : x y z
#
# Youngs Moduli (GPa) = 79.26827 66.83482 42.87652
#
# Poissons Ratio (x) = 0.48325 0.02295
# Poissons Ratio (y) = 0.57315 0.21807
# Poissons Ratio (z) = 0.04244 0.33992
#
# Static dielectric constant tensor:
#      x y z
#    x 4.155880 0.142260 0.080630 
#    y 0.142260 3.562170 -0.070550 
#    z 0.080630 -0.070550 3.643750 
# 
# 
# High freq. dielectric constant tensor:
#      x y z
#    x 1.833690 0.008000 0.007570 
#    y 0.008000 1.790080 -0.014830 
#    z 0.007570 -0.014830 1.812670 
# 
# From -- ./inp_files/179062.got.cif
#   From: 2010.06.25/outbox.cif.g09.slc.cpg/sg2_90_cif.got.tgz:179062.got - 2010.06.27 13:26:56.
