data_PCOD8040455
_publ_section_title
;
Structure prediction by ZEFSAII (Michael W. Deem and Ramdas Pophale) SiO2 
 PCOD8040455
Probable space group: P -1
;
_chemical_formula_sum "Si O2"
_cell_formula_units_Z 16
_cell_length_a 9.670268
_cell_length_b 19.723146
_cell_length_c 9.670283
_cell_angle_alpha 132.430431
_cell_angle_beta 44.099614
_cell_angle_gamma 113.471398
_cell_volume 933.924499
_symmetry_space_group_name_H-M "P -1"
_symmetry_group_IT_number 2
_symmetry_cell_setting 'triclinic'
loop_
_space_group_symop_operation_xyz
x,y,z
-x,-y,-z
loop_
_atom_site_type_symbol
_atom_site_label
_atom_site_fract_x
_atom_site_fract_y
_atom_site_fract_z
Si Si1 0.282763 0.132646 0.130491
Si Si2 0.134800 0.867353 0.451943
Si Si3 0.465094 0.609770 0.684627
Si Si4 0.592438 0.988268 0.568969
Si Si5 0.874204 0.246828 0.961862
Si Si6 0.548725 0.739283 0.027288
Si Si7 0.296505 0.228486 0.753481
Si Si8 0.468206 0.246826 0.367858
O O1 0.312142 0.202290 0.080457
O O2 0.345301 0.172495 0.286456
O O3 0.049790 0.119069 0.287929
O O4 0.425084 0.034136 0.863010
O O5 0.205259 0.965863 0.506646
O O6 0.058532 0.827504 0.309707
O O7 0.324126 0.797709 0.283271
O O8 0.500000 0.500000 0.500000
O O9 0.540354 0.641308 0.822960
O O10 0.588644 0.653650 0.534916
O O11 0.227621 0.653650 0.895941
O O12 0.500000 0.000000 0.500000
O O13 0.653213 0.881471 0.416138
O O14 0.060303 0.261415 0.942493
O O15 0.706906 0.208681 0.124268
O O16 0.644071 0.718237 0.080548
O O17 0.419665 0.261409 0.583124
#
# Coordination Sequence:
#
# PCOD8040455 Si02
#       8
#     2   2   2   2   2   2   2   2
#     4  10  18  37  56  75 108 152 199 221 262 328
#     4  10  18  37  56  75 108 152 199 221 262 328
#     4   8  17  41  66  79 106 144 181 221 271 351
#     4  11  22  36  50  79 115 149 200 233 255 309
#     4   9  20  36  58  81 112 140 180 227 288 319
#     4   9  20  36  57  81 116 145 175 233 278 323
#     4  12  21  36  55  80 117 148 179 233 282 313
#     4   9  20  36  58  81 112 140 180 227 288 319
#
# _framework density 17.132007000000002
#
# number of rings (size 3 to 8) (size 9 to 14) (size 15 to 20)
#    0.750    1.500    6.250    0.000    0.000    3.500 
#    0.000    1.875    0.000    0.000    0.000    0.000 
#    0.000    0.000    0.000    0.000    0.000    0.000 
#
# Total GULP energy -198300.866571 kJ/mol
# GULP energy per Si atom -12393.804161 kJ/mol
# Density = 1.709301 g / cm^3
# Si number density = 17.132007 Si / 1000 Ang^3
#
#
#
# Elastic Constant Matrix: (Units=GPa)
#
#
# Indices 1 2 3 4 5 6 
#
# 1 123.3300 42.5200 53.6337 -6.5498 13.3461 -0.3579
# 2 42.5200 78.8197 64.7127 7.8361 0.1657 3.3599
# 3 53.6337 64.7127 92.8008 -10.4868 2.1697 9.9726
# 4 -6.5498 7.8361 -10.4868 40.1772 8.1577 -1.6683
# 5 13.3461 0.1657 2.1697 8.1577 31.5173 -10.0099
# 6 -0.3579 3.3599 9.9726 -1.6683 -10.0099 20.7154
#
#
#
# Elastic Compliance Matrix: (Units=1/GPa)
#
#
# Indices 1 2 3 4 5 6 
#
# 1 0.011714 -0.003026 -0.004319 0.002433 -0.005120 0.000494
# 2 -0.003026 0.039888 -0.029627 -0.017848 0.011497 0.011859
# 3 -0.004319 -0.029627 0.037862 0.016336 -0.010299 -0.017158
# 4 0.002433 -0.017848 0.016336 0.035520 -0.014070 -0.008866
# 5 -0.005120 0.011497 -0.010299 -0.014070 0.045812 0.024009
# 6 0.000494 0.011859 -0.017158 -0.008866 0.024009 0.065506
#
#
# Mechanical properties :
#
#
# Convention : Reuss Voigt Hill
#
# Bulk Modulus (GPa) = 64.42393 68.52038 66.47215
# Shear Modulus (GPa) = 15.85193 27.42090 21.63641
#
# Velocity S-wave (km/s) = 3.04514 4.00505 3.55762
# Velocity P-wave (km/s) = 7.07460 7.84025 7.46724
#
# Compressibility (1/GPa) = 0.01552218
#
# Stress axis : x y z
#
# Youngs Moduli (GPa) = 85.36542 25.06993 26.41174
#
# Poissons Ratio (x) = 0.07586 0.11407
# Poissons Ratio (y) = 0.25829 0.78249
# Poissons Ratio (z) = 0.36868 0.74274
#
# Static dielectric constant tensor:
#      x y z
#    x 3.359320 -0.117730 0.025300 
#    y -0.117730 3.171740 -0.064050 
#    z 0.025300 -0.064050 3.133890 
# 
# 
# High freq. dielectric constant tensor:
#      x y z
#    x 1.658950 0.010100 0.005920 
#    y 0.010100 1.634280 -0.014140 
#    z 0.005920 -0.014140 1.654570 
# 
# From -- ./inp_files/222399.got.cif
#   From: 2010.06.25/outbox.cif.g09.slc.cpg/sg2_112_cif.got.tgz:222399.got - 2010.06.27 13:26:56.
