data_PCOD8040486
_publ_section_title
;
Structure prediction by ZEFSAII (Michael W. Deem and Ramdas Pophale) SiO2 
 PCOD8040486
Probable space group: P -1
;
_chemical_formula_sum "Si O2"
_cell_formula_units_Z 16
_cell_length_a 15.367160
_cell_length_b 9.348266
_cell_length_c 8.073378
_cell_angle_alpha 65.765758
_cell_angle_beta 69.135507
_cell_angle_gamma 49.112981
_cell_volume 793.072728
_symmetry_space_group_name_H-M "P -1"
_symmetry_group_IT_number 2
_symmetry_cell_setting 'triclinic'
loop_
_space_group_symop_operation_xyz
x,y,z
-x,-y,-z
loop_
_atom_site_type_symbol
_atom_site_label
_atom_site_fract_x
_atom_site_fract_y
_atom_site_fract_z
Si Si1 0.337013 0.702886 0.353563
Si Si2 0.172597 0.156853 0.303414
Si Si3 0.448244 0.353779 0.672195
Si Si4 0.546192 0.123974 0.387434
Si Si5 0.674552 0.552123 0.756301
Si Si6 0.221085 0.248961 0.571622
Si Si7 0.261341 0.382549 0.976527
Si Si8 0.063279 0.545327 0.809161
O O1 0.352165 0.572001 0.563928
O O2 0.463636 0.653037 0.254000
O O3 0.293693 0.648558 0.247850
O O4 0.240796 0.927450 0.352495
O O5 0.162902 0.229498 0.461203
O O6 0.039713 0.248765 0.299445
O O7 0.237842 0.225294 0.116503
O O8 0.533504 0.216948 0.531209
O O9 0.381714 0.275707 0.842502
O O10 0.467151 0.290768 0.223441
O O11 0.500000 0.000000 0.500000
O O12 0.681819 0.971460 0.319200
O O13 0.723748 0.637614 0.561962
O O14 0.728321 0.513750 0.920763
O O15 0.124038 0.371565 0.716617
O O16 0.158268 0.549599 0.846838
O O17 0.000000 0.500000 0.000000
#
# Coordination Sequence:
#
# PCOD8040486 Si02
#       8
#     2   2   2   2   2   2   2   2
#     4  10  20  38  57  87 120 152 190 235 285 350
#     4  10  21  38  62  88 112 149 204 239 283 336
#     4  10  20  36  60  83 125 150 185 235 295 341
#     4   9  16  31  54  85 110 148 187 229 273 354
#     4   9  20  35  57  84 123 153 186 225 295 354
#     4  10  18  37  59  84 111 154 195 235 288 346
#     4  10  21  39  57  84 119 159 190 236 284 336
#     4  10  21  38  58  85 115 147 196 253 281 321
#
# _framework density 20.174696000000001
#
# number of rings (size 3 to 8) (size 9 to 14) (size 15 to 20)
#    0.000    2.250    1.250    2.625    0.000    1.000 
#    4.500    5.625    0.000    0.000    0.000    0.000 
#    0.000    0.000    0.000    0.000    0.000    0.000 
#
# Total GULP energy -198232.474574 kJ/mol
# GULP energy per Si atom -12389.529661 kJ/mol
# Density = 2.012878 g / cm^3
# Si number density = 20.174696 Si / 1000 Ang^3
#
#
#
# Elastic Constant Matrix: (Units=GPa)
#
#
# Indices 1 2 3 4 5 6 
#
# 1 110.0341 60.1520 38.2413 5.7222 29.2957 0.2783
# 2 60.1520 147.6713 54.2393 8.8903 14.3808 -5.0286
# 3 38.2413 54.2393 67.0381 13.4146 10.5419 -9.9615
# 4 5.7222 8.8903 13.4146 14.3036 -3.5181 -4.3438
# 5 29.2957 14.3808 10.5419 -3.5181 33.7041 2.7065
# 6 0.2783 -5.0286 -9.9615 -4.3438 2.7065 30.6715
#
#
#
# Elastic Compliance Matrix: (Units=1/GPa)
#
#
# Indices 1 2 3 4 5 6 
#
# 1 0.015515 -0.003772 -0.003539 -0.003702 -0.011039 -0.001459
# 2 -0.003772 0.010675 -0.007048 0.001650 0.001130 -0.000371
# 3 -0.003539 -0.007048 0.028428 -0.020466 -0.005401 0.005688
# 4 -0.003702 0.001650 -0.020466 0.095803 0.018466 0.005596
# 5 -0.011039 0.001130 -0.005401 0.018466 0.042609 -0.002613
# 6 -0.001459 -0.000371 0.005688 0.005596 -0.002613 0.035426
#
#
# Mechanical properties :
#
#
# Convention : Reuss Voigt Hill
#
# Bulk Modulus (GPa) = 38.60972 70.00097 54.30535
# Shear Modulus (GPa) = 18.81050 27.20989 23.01020
#
# Velocity S-wave (km/s) = 3.05680 3.67647 3.38086
# Velocity P-wave (km/s) = 5.62476 7.26599 6.49741
#
# Compressibility (1/GPa) = 0.02590021
#
# Stress axis : x y z
#
# Youngs Moduli (GPa) = 64.45314 93.67650 35.17644
#
# Poissons Ratio (x) = 0.35334 0.12449
# Poissons Ratio (y) = 0.24311 0.24793
# Poissons Ratio (z) = 0.22809 0.66026
#
# Static dielectric constant tensor:
#      x y z
#    x 4.530550 -0.513610 0.324800 
#    y -0.513610 4.110050 -0.049750 
#    z 0.324800 -0.049750 3.498290 
# 
# 
# High freq. dielectric constant tensor:
#      x y z
#    x 1.800460 -0.003620 0.020340 
#    y -0.003620 1.771560 0.006920 
#    z 0.020340 0.006920 1.761450 
# 
# From -- ./inp_files/270138.got.cif
#   From: 2010.06.25/outbox.cif.g09.slc.cpg/sg2_136_cif.got.tgz:270138.got - 2010.06.27 13:26:56.
