data_PCOD8040681
_publ_section_title
;
Structure prediction by ZEFSAII (Michael W. Deem and Ramdas Pophale) SiO2 
 PCOD8040681
Probable space group: P -1
;
_chemical_formula_sum "Si O2"
_cell_formula_units_Z 16
_cell_length_a 14.698537
_cell_length_b 8.492620
_cell_length_c 14.746517
_cell_angle_alpha 51.719530
_cell_angle_beta 47.221724
_cell_angle_gamma 87.361288
_cell_volume 805.680177
_symmetry_space_group_name_H-M "P -1"
_symmetry_group_IT_number 2
_symmetry_cell_setting 'triclinic'
loop_
_space_group_symop_operation_xyz
x,y,z
-x,-y,-z
loop_
_atom_site_type_symbol
_atom_site_label
_atom_site_fract_x
_atom_site_fract_y
_atom_site_fract_z
Si Si1 0.619852 0.293818 0.131863
Si Si2 0.639161 0.639808 0.280811
Si Si3 0.336931 0.074828 0.534454
Si Si4 0.385931 0.293280 0.073502
Si Si5 0.443041 0.596491 0.260792
Si Si6 0.197952 0.884017 0.882495
Si Si7 0.336367 0.854879 0.350912
Si Si8 0.833099 0.453928 0.250517
O O1 0.775032 0.314343 0.031113
O O2 0.511182 0.188900 0.334624
O O3 0.506820 0.082851 0.204174
O O4 0.699458 0.596008 0.947972
O O5 0.500000 0.500000 0.500000
O O6 0.576208 0.648374 0.223150
O O7 0.714938 0.497503 0.272420
O O8 0.781226 0.939389 0.112071
O O9 0.336638 0.072109 0.644977
O O10 0.191916 0.780744 0.702099
O O11 0.307904 0.277005 0.452856
O O12 0.271828 0.997199 0.298999
O O13 0.500000 0.500000 0.000000
O O14 0.481076 0.280990 0.932471
O O15 0.362610 0.716604 0.305462
O O16 0.018893 0.719455 0.020327
O O17 0.203498 0.624452 0.590957
#
# Coordination Sequence:
#
# PCOD8040681 Si02
#       8
#     2   2   2   2   2   2   2   2
#     4   9  19  34  58  83 109 147 194 236 278 327
#     4  12  21  37  58  85 117 150 188 230 282 341
#     4  10  21  34  54  82 115 152 187 228 275 337
#     4   9  20  35  59  88 109 138 192 251 282 321
#     4  11  20  34  63  87 108 145 193 236 287 328
#     4  12  21  36  54  84 121 153 186 227 283 343
#     4  10  18  38  57  83 110 146 192 238 280 331
#     4  11  24  35  54  84 120 156 184 228 284 341
#
# _framework density 19.858996000000001
#
# number of rings (size 3 to 8) (size 9 to 14) (size 15 to 20)
#    0.000    1.500    3.750    3.000    3.500    0.000 
#    0.000    0.625    0.000    0.750    0.000    0.000 
#    0.000    0.000    0.000    0.000    0.000    0.000 
#
# Total GULP energy -198286.131194 kJ/mol
# GULP energy per Si atom -12392.883200 kJ/mol
# Density = 1.981380 g / cm^3
# Si number density = 19.858996 Si / 1000 Ang^3
#
#
#
# Elastic Constant Matrix: (Units=GPa)
#
#
# Indices 1 2 3 4 5 6 
#
# 1 56.9567 16.5867 29.8751 -0.2645 10.2648 -6.5630
# 2 16.5867 120.1305 20.9350 -7.8558 6.3525 1.0450
# 3 29.8751 20.9350 43.9717 -5.9618 9.2130 -5.1582
# 4 -0.2645 -7.8558 -5.9618 29.2089 3.5633 11.5647
# 5 10.2648 6.3525 9.2130 3.5633 31.6486 -2.6154
# 6 -6.5630 1.0450 -5.1582 11.5647 -2.6154 37.5100
#
#
#
# Elastic Compliance Matrix: (Units=1/GPa)
#
#
# Indices 1 2 3 4 5 6 
#
# 1 0.028465 -0.000906 -0.018550 -0.004929 -0.002783 0.003780
# 2 -0.000906 0.009290 -0.003450 0.002608 -0.001006 -0.001766
# 3 -0.018550 -0.003450 0.039157 0.007804 -0.005615 -0.000562
# 4 -0.004929 0.002608 0.007804 0.042710 -0.007123 -0.013527
# 5 -0.002783 -0.001006 -0.005615 -0.007123 0.035422 0.003435
# 6 0.003780 -0.001766 -0.000562 -0.013527 0.003435 0.031703
#
#
# Mechanical properties :
#
#
# Convention : Reuss Voigt Hill
#
# Bulk Modulus (GPa) = 32.15551 39.53916 35.84734
# Shear Modulus (GPa) = 20.58246 29.91765 25.25006
#
# Velocity S-wave (km/s) = 3.22286 3.88558 3.56963
# Velocity P-wave (km/s) = 5.48417 6.33115 5.92282
#
# Compressibility (1/GPa) = 0.03109887
#
# Stress axis : x y z
#
# Youngs Moduli (GPa) = 35.13044 107.64594 25.53852
#
# Poissons Ratio (x) = 0.09748 0.47375
# Poissons Ratio (y) = 0.03181 0.08812
# Poissons Ratio (z) = 0.65168 0.37142
#
# Static dielectric constant tensor:
#      x y z
#    x 3.499390 -0.053710 0.481930 
#    y -0.053710 4.076180 -0.208150 
#    z 0.481930 -0.208150 3.430450 
# 
# 
# High freq. dielectric constant tensor:
#      x y z
#    x 1.746580 0.000210 0.036120 
#    y 0.000210 1.806880 -0.012230 
#    z 0.036120 -0.012230 1.740440 
# 
# From -- ./inp_files/170553.got.cif
#   From: 2010.06.25/outbox.cif.g09.slc.cpg/sg2_86_cif.got.tgz:170553.got - 2010.06.27 13:26:56.
