data_PCOD8040657
_publ_section_title
;
Structure prediction by ZEFSAII (Michael W. Deem and Ramdas Pophale) SiO2 
 PCOD8040657
Probable space group: P -1
;
_chemical_formula_sum "Si O2"
_cell_formula_units_Z 16
_cell_length_a 14.398299
_cell_length_b 11.635626
_cell_length_c 8.805718
_cell_angle_alpha 38.595358
_cell_angle_beta 112.382695
_cell_angle_gamma 97.371171
_cell_volume 813.465007
_symmetry_space_group_name_H-M "P -1"
_symmetry_group_IT_number 2
_symmetry_cell_setting 'triclinic'
loop_
_space_group_symop_operation_xyz
x,y,z
-x,-y,-z
loop_
_atom_site_type_symbol
_atom_site_label
_atom_site_fract_x
_atom_site_fract_y
_atom_site_fract_z
Si Si1 0.915311 0.573047 0.001199
Si Si2 0.001622 0.845391 0.951759
Si Si3 0.991029 0.240815 0.626108
Si Si4 0.186577 0.980415 0.882046
Si Si5 0.569309 0.708310 0.243293
Si Si6 0.285518 0.207249 0.499405
Si Si7 0.491128 0.048593 0.619495
Si Si8 0.596611 0.282011 0.623793
O O1 0.929704 0.772144 0.867315
O O2 0.929389 0.422213 0.301684
O O3 0.798735 0.614014 0.818868
O O4 0.000000 0.500000 0.000000
O O5 0.025522 0.707938 0.258684
O O6 0.111684 0.844314 0.938933
O O7 0.941283 0.064749 0.740251
O O8 0.116561 0.166443 0.742107
O O9 0.225467 0.056653 0.674069
O O10 0.285078 0.855303 0.168781
O O11 0.663235 0.708970 0.415524
O O12 0.594070 0.503874 0.385448
O O13 0.459326 0.758064 0.214597
O O14 0.561388 0.868482 0.945700
O O15 0.370022 0.099369 0.539243
O O16 0.534572 0.230786 0.493764
O O17 0.500000 0.000000 0.500000
#
# Coordination Sequence:
#
# PCOD8040657 Si02
#       8
#     2   2   2   2   2   2   2   2
#     4  12  23  37  60  93 125 159 201 247 293 352
#     4   9  22  41  58  86 123 160 202 246 293 348
#     4   9  21  41  59  83 123 159 200 250 291 348
#     4  10  18  37  68  84 112 162 206 235 298 351
#     4  10  21  41  65  84 119 153 199 249 292 362
#     4  11  22  40  62  90 118 163 203 240 300 359
#     4  11  23  43  61  91 126 149 193 258 304 354
#     4  10  20  38  67  89 109 158 203 239 298 359
#
# _framework density 19.668945999999998
#
# number of rings (size 3 to 8) (size 9 to 14) (size 15 to 20)
#    0.750    1.000    3.750    1.125    1.750    3.500 
#    2.250    0.000    0.000    0.000    0.000    0.000 
#    0.000    0.000    0.000    0.000    0.000    0.000 
#
# Total GULP energy -198347.426079 kJ/mol
# GULP energy per Si atom -12396.714130 kJ/mol
# Density = 1.962418 g / cm^3
# Si number density = 19.668946 Si / 1000 Ang^3
#
#
#
# Elastic Constant Matrix: (Units=GPa)
#
#
# Indices 1 2 3 4 5 6 
#
# 1 96.7169 41.7546 59.4144 5.0884 9.6628 3.6498
# 2 41.7546 125.9132 53.7042 9.1066 -1.5921 -0.7907
# 3 59.4144 53.7042 102.9465 5.8950 9.4796 6.5179
# 4 5.0884 9.1066 5.8950 20.0529 1.1655 -0.8518
# 5 9.6628 -1.5921 9.4796 1.1655 33.9345 1.0238
# 6 3.6498 -0.7907 6.5179 -0.8518 1.0238 24.1198
#
#
#
# Elastic Compliance Matrix: (Units=1/GPa)
#
#
# Indices 1 2 3 4 5 6 
#
# 1 0.016540 -0.001947 -0.008243 -0.000757 -0.002464 -0.000261
# 2 -0.001947 0.010857 -0.004693 -0.003126 0.002431 0.001705
# 3 -0.008243 -0.004693 0.017435 -0.000901 -0.002606 -0.003539
# 4 -0.000757 -0.003126 -0.000901 0.051925 -0.001528 0.002154
# 5 -0.002464 0.002431 -0.002606 -0.001528 0.031071 -0.000216
# 6 -0.000261 0.001705 -0.003539 0.002154 -0.000216 0.042597
#
#
# Mechanical properties :
#
#
# Convention : Reuss Voigt Hill
#
# Bulk Modulus (GPa) = 66.37658 70.59145 68.48401
# Shear Modulus (GPa) = 24.36503 27.00167 25.68335
#
# Velocity S-wave (km/s) = 3.52341 3.70916 3.61748
# Velocity P-wave (km/s) = 7.09738 7.36964 7.23479
#
# Compressibility (1/GPa) = 0.01506556
#
# Stress axis : x y z
#
# Youngs Moduli (GPa) = 60.45991 92.10950 57.35592
#
# Poissons Ratio (x) = 0.17934 0.47280
# Poissons Ratio (y) = 0.11771 0.26915
# Poissons Ratio (z) = 0.49839 0.43224
#
# Static dielectric constant tensor:
#      x y z
#    x 3.577580 0.068090 -0.050860 
#    y 0.068090 3.508270 -0.071410 
#    z -0.050860 -0.071410 3.531760 
# 
# 
# High freq. dielectric constant tensor:
#      x y z
#    x 1.760940 0.005190 -0.001650 
#    y 0.005190 1.754320 -0.006250 
#    z -0.001650 -0.006250 1.761530 
# 
# From -- ./inp_files/304576.got.cif
#   From: 2010.06.25/outbox.cif.g09.slc.cpg/sg2_153_cif.got.tgz:304576.got - 2010.06.27 13:26:56.
