data_PCOD8040596
_publ_section_title
;
Structure prediction by ZEFSAII (Michael W. Deem and Ramdas Pophale) SiO2 
 PCOD8040596
Probable space group: P -1
;
_chemical_formula_sum "Si O2"
_cell_formula_units_Z 16
_cell_length_a 9.320254
_cell_length_b 13.012915
_cell_length_c 9.169619
_cell_angle_alpha 109.019913
_cell_angle_beta 126.219553
_cell_angle_gamma 60.582653
_cell_volume 780.526375
_symmetry_space_group_name_H-M "P -1"
_symmetry_group_IT_number 2
_symmetry_cell_setting 'triclinic'
loop_
_space_group_symop_operation_xyz
x,y,z
-x,-y,-z
loop_
_atom_site_type_symbol
_atom_site_label
_atom_site_fract_x
_atom_site_fract_y
_atom_site_fract_z
Si Si1 0.063500 0.202845 0.675501
Si Si2 0.577682 0.957453 0.295476
Si Si3 0.902845 0.038709 0.653533
Si Si4 0.012605 0.622996 0.030399
Si Si5 0.041887 0.793176 0.708113
Si Si6 0.436969 0.798052 0.329815
Si Si7 0.288708 0.200982 0.270109
Si Si8 0.345411 0.621764 0.017998
O O1 0.300818 0.139565 0.798779
O O2 0.991089 0.096614 0.611583
O O3 0.975310 0.311581 0.782528
O O4 0.994326 0.252171 0.493819
O O5 0.501948 0.894201 0.341816
O O6 0.737395 0.997799 0.479409
O O7 0.397836 0.075511 0.191809
O O8 0.795936 0.142066 0.755213
O O9 0.064499 0.920104 0.767319
O O10 0.199667 0.600823 0.034385
O O11 0.000000 0.500000 0.000000
O O12 0.815685 0.701916 0.867921
O O13 0.862694 0.810994 0.712626
O O14 0.236476 0.697400 0.847577
O O15 0.557619 0.758709 0.534852
O O16 0.472755 0.685042 0.199592
O O17 0.500000 0.500000 0.000000
#
# Coordination Sequence:
#
# PCOD8040596 Si02
#       8
#     2   2   2   2   2   2   2   2
#     4  11  22  39  64  97 130 159 194 256 319 359
#     4  10  19  35  67  97 127 155 199 246 309 385
#     4  10  18  37  63  98 130 155 192 251 318 374
#     4  11  27  47  60  86 127 166 213 259 301 354
#     4  10  20  40  67  91 125 165 200 244 314 373
#     4  11  19  39  67  96 123 157 202 254 305 369
#     4  10  20  40  68  91 123 166 202 244 308 376
#     4  11  27  45  63  88 119 167 224 254 286 367
#
# _framework density 20.498988000000001
#
# number of rings (size 3 to 8) (size 9 to 14) (size 15 to 20)
#    0.000    1.500    5.000    2.250    1.750    3.000 
#    6.750    3.750    0.000    0.000    0.000    0.000 
#    0.000    0.000    0.000    0.000    0.000    0.000 
#
# Total GULP energy -198297.356477 kJ/mol
# GULP energy per Si atom -12393.584780 kJ/mol
# Density = 2.045233 g / cm^3
# Si number density = 20.498988 Si / 1000 Ang^3
#
#
#
# Elastic Constant Matrix: (Units=GPa)
#
#
# Indices 1 2 3 4 5 6 
#
# 1 83.2209 24.2309 22.1285 -7.8744 -6.6981 -7.1717
# 2 24.2309 96.9521 40.6939 1.2041 0.3999 -10.0418
# 3 22.1285 40.6939 76.4044 0.6902 -4.0639 -3.3775
# 4 -7.8744 1.2041 0.6902 29.8750 -2.6702 -2.5263
# 5 -6.6981 0.3999 -4.0639 -2.6702 24.6321 0.0209
# 6 -7.1717 -10.0418 -3.3775 -2.5263 0.0209 43.4169
#
#
#
# Elastic Compliance Matrix: (Units=1/GPa)
#
#
# Indices 1 2 3 4 5 6 
#
# 1 0.014301 -0.002344 -0.002640 0.004438 0.003971 0.001871
# 2 -0.002344 0.014002 -0.006781 -0.001021 -0.002096 0.002265
# 3 -0.002640 -0.006781 0.017558 -0.000688 0.002215 -0.000680
# 4 0.004438 -0.001021 -0.000688 0.035352 0.004940 0.002498
# 5 0.003971 -0.002096 0.002215 0.004940 0.042612 0.000610
# 6 0.001871 0.002265 -0.000680 0.002498 0.000610 0.023958
#
#
# Mechanical properties :
#
#
# Convention : Reuss Voigt Hill
#
# Bulk Modulus (GPa) = 44.77759 47.85379 46.31569
# Shear Modulus (GPa) = 27.97077 30.88640 29.42858
#
# Velocity S-wave (km/s) = 3.69791 3.88587 3.79306
# Velocity P-wave (km/s) = 6.33435 6.59761 6.46732
#
# Compressibility (1/GPa) = 0.02233260
#
# Stress axis : x y z
#
# Youngs Moduli (GPa) = 69.92324 71.41626 56.95257
#
# Poissons Ratio (x) = 0.16740 0.15034
# Poissons Ratio (y) = 0.16390 0.38620
# Poissons Ratio (z) = 0.18458 0.48428
#
# Static dielectric constant tensor:
#      x y z
#    x 4.005950 -0.310940 -0.058150 
#    y -0.310940 3.931620 -0.072810 
#    z -0.058150 -0.072810 3.624630 
# 
# 
# High freq. dielectric constant tensor:
#      x y z
#    x 1.814470 -0.010030 -0.006940 
#    y -0.010030 1.798840 0.001070 
#    z -0.006940 0.001070 1.780770 
# 
# From -- ./inp_files/179424.got.cif
#   From: 2010.06.25/outbox.cif.g09.slc.cpg/sg2_90_cif.got.tgz:179424.got - 2010.06.27 13:26:56.
