data_PCOD8040380
_publ_section_title
;
Structure prediction by ZEFSAII (Michael W. Deem and Ramdas Pophale) SiO2 
 PCOD8040380
Probable space group: P -1
;
_chemical_formula_sum "Si O2"
_cell_formula_units_Z 14
_cell_length_a 27.299449
_cell_length_b 8.880451
_cell_length_c 17.853790
_cell_angle_alpha 151.683635
_cell_angle_beta 19.990447
_cell_angle_gamma 142.968447
_cell_volume 690.564988
_symmetry_space_group_name_H-M "P -1"
_symmetry_group_IT_number 2
_symmetry_cell_setting 'triclinic'
loop_
_space_group_symop_operation_xyz
x,y,z
-x,-y,-z
loop_
_atom_site_type_symbol
_atom_site_label
_atom_site_fract_x
_atom_site_fract_y
_atom_site_fract_z
Si Si1 0.378377 0.790256 0.710738
Si Si2 0.814069 0.539883 0.696524
Si Si3 0.595226 0.711976 0.664546
Si Si4 0.631332 0.223407 0.714234
Si Si5 0.274342 0.888505 0.242374
Si Si6 0.687832 0.683076 0.277812
Si Si7 0.918700 0.251312 0.667770
O O1 0.335212 0.615777 0.621196
O O2 0.552133 0.765485 0.452609
O O3 0.326246 0.626195 0.787366
O O4 0.302649 0.155991 0.976627
O O5 0.761577 0.389804 0.630258
O O6 0.824651 0.286531 0.637734
O O7 0.970014 0.632854 0.498991
O O8 0.572381 0.011847 0.770584
O O9 0.704780 0.770861 0.600292
O O10 0.437002 0.680747 0.910084
O O11 0.696528 0.998395 0.452662
O O12 0.500000 0.500000 0.000000
O O13 0.192231 0.932489 0.299880
O O14 0.832681 0.573327 0.972588
O O15 0.000000 0.000000 0.500000
#
# Coordination Sequence:
#
# PCOD8040380 Si02
#       7
#     2   2   2   2   2   2   2
#     4  10  18  36  63  93 115 156 207 252 298 352
#     4  11  23  38  63  88 125 162 201 246 307 357
#     4   9  20  38  64  86 123 154 203 251 306 343
#     4  10  20  35  63  95 120 151 202 258 299 345
#     4  10  22  41  60  89 123 160 199 252 303 361
#     4  10  20  36  61  91 125 154 202 255 296 354
#     4  12  24  40  63  89 124 167 199 243 307 369
#
# _framework density 20.273256
#
# number of rings (size 3 to 8) (size 9 to 14) (size 15 to 20)
#    0.000    1.714    4.286    0.429    2.000    1.143 
#    0.000    0.714    3.143    0.000    0.000    0.000 
#    0.000    0.000    0.000    0.000    0.000    0.000 
#
# Total GULP energy -173602.268471 kJ/mol
# GULP energy per Si atom -12400.162034 kJ/mol
# Density = 2.022711 g / cm^3
# Si number density = 20.273256 Si / 1000 Ang^3
#
#
#
# Elastic Constant Matrix: (Units=GPa)
#
#
# Indices 1 2 3 4 5 6 
#
# 1 133.6827 34.1759 47.8413 8.3235 9.2846 35.6636
# 2 34.1759 67.6743 32.6444 -7.6241 5.1405 17.9762
# 3 47.8413 32.6444 106.0735 0.4335 12.7868 11.7557
# 4 8.3235 -7.6241 0.4335 33.9021 4.7465 10.2976
# 5 9.2846 5.1405 12.7868 4.7465 28.4687 1.3186
# 6 35.6636 17.9762 11.7557 10.2976 1.3186 32.5687
#
#
#
# Elastic Compliance Matrix: (Units=1/GPa)
#
#
# Indices 1 2 3 4 5 6 
#
# 1 0.012266 -0.001155 -0.003695 0.000522 -0.001684 -0.011557
# 2 -0.001155 0.022057 -0.004665 0.009321 -0.002506 -0.012071
# 3 -0.003695 -0.004665 0.012717 -0.000498 -0.003690 0.002337
# 4 0.000522 0.009321 -0.000498 0.037680 -0.007117 -0.017162
# 5 -0.001684 -0.002506 -0.003690 -0.007117 0.038729 0.005241
# 6 -0.011557 -0.012071 0.002337 -0.017162 0.005241 0.054392
#
#
# Mechanical properties :
#
#
# Convention : Reuss Voigt Hill
#
# Bulk Modulus (GPa) = 35.70260 59.63930 47.67095
# Shear Modulus (GPa) = 24.24715 31.83917 28.04316
#
# Velocity S-wave (km/s) = 3.46210 3.96725 3.72325
# Velocity P-wave (km/s) = 5.79917 7.10402 6.48450
#
# Compressibility (1/GPa) = 0.02800917
#
# Stress axis : x y z
#
# Youngs Moduli (GPa) = 81.52916 45.33621 78.63227
#
# Poissons Ratio (x) = 0.05238 0.29053
# Poissons Ratio (y) = 0.09420 0.36685
# Poissons Ratio (z) = 0.30123 0.21151
#
# Static dielectric constant tensor:
#      x y z
#    x 3.855600 0.227590 0.194460 
#    y 0.227590 3.639890 -0.017760 
#    z 0.194460 -0.017760 3.480560 
# 
# 
# High freq. dielectric constant tensor:
#      x y z
#    x 1.802460 0.014240 0.018100 
#    y 0.014240 1.782210 -0.003560 
#    z 0.018100 -0.003560 1.774350 
# 
# From -- ./inp_files/154192.got.cif
#   From: 2010.06.25/outbox.cif.g09.slc.cpg/sg2_78_cif.got.tgz:154192.got - 2010.06.27 13:26:56.
