data_PCOD8040304
_publ_section_title
;
Structure prediction by ZEFSAII (Michael W. Deem and Ramdas Pophale) SiO2 
 PCOD8040304
Probable space group: P -1
;
_chemical_formula_sum "Si O2"
_cell_formula_units_Z 16
_cell_length_a 13.990342
_cell_length_b 11.336783
_cell_length_c 19.578066
_cell_angle_alpha 53.537119
_cell_angle_beta 146.444649
_cell_angle_gamma 149.076909
_cell_volume 798.579276
_symmetry_space_group_name_H-M "P -1"
_symmetry_group_IT_number 2
_symmetry_cell_setting 'triclinic'
loop_
_space_group_symop_operation_xyz
x,y,z
-x,-y,-z
loop_
_atom_site_type_symbol
_atom_site_label
_atom_site_fract_x
_atom_site_fract_y
_atom_site_fract_z
Si Si1 0.295429 0.298438 0.210318
Si Si2 0.760122 0.187398 0.501935
Si Si3 0.546206 0.274400 0.825794
Si Si4 0.665072 0.965806 0.918573
Si Si5 0.127927 0.732640 0.754717
Si Si6 0.410939 0.677375 0.735015
Si Si7 0.911472 0.440312 0.864148
Si Si8 0.377193 0.683693 0.503990
O O1 0.480235 0.577560 0.214484
O O2 0.335174 0.223734 0.193258
O O3 0.417167 0.302547 0.348545
O O4 0.941267 0.081438 0.082884
O O5 0.657112 0.200479 0.367980
O O6 0.726848 0.276601 0.513868
O O7 0.105660 0.376067 0.643294
O O8 0.568190 0.907725 0.486321
O O9 0.669978 0.365259 0.790197
O O10 0.228127 0.970406 0.746255
O O11 0.772917 0.336821 0.985634
O O12 0.791774 0.190826 0.873049
O O13 0.423231 0.842991 0.873825
O O14 0.516890 0.748804 0.851971
O O15 0.955652 0.543341 0.781169
O O16 0.908339 0.584027 0.610392
#
# Coordination Sequence:
#
# PCOD8040304 Si02
#       8
#     2   2   2   2   2   2   2   2
#     4  10  22  38  54  82 125 150 174 240 293 327
#     4   9  19  35  59  82 111 150 194 229 276 343
#     4   9  20  38  57  83 117 148 190 233 282 334
#     4  10  20  37  60  89 116 144 193 235 281 339
#     4  11  20  36  65  85 107 154 198 231 272 340
#     4  10  18  36  61  83 111 153 188 230 286 337
#     4   9  19  37  61  85 110 150 192 238 276 329
#     4  10  20  37  56  84 115 146 189 237 280 334
#
# _framework density 20.035581000000001
#
# number of rings (size 3 to 8) (size 9 to 14) (size 15 to 20)
#    0.000    2.250    1.250    2.250    0.000    0.500 
#    6.750    1.250    0.000    0.000    0.000    0.000 
#    0.000    0.000    0.000    0.000    0.000    0.000 
#
# Total GULP energy -198381.580037 kJ/mol
# GULP energy per Si atom -12398.848752 kJ/mol
# Density = 1.998998 g / cm^3
# Si number density = 20.035581 Si / 1000 Ang^3
#
#
#
# Elastic Constant Matrix: (Units=GPa)
#
#
# Indices 1 2 3 4 5 6 
#
# 1 53.3445 9.8683 25.0515 -1.3681 -3.5966 3.8455
# 2 9.8683 76.6314 25.9795 2.4521 -1.5312 3.0836
# 3 25.0515 25.9795 101.4100 3.7739 -2.0070 -2.8329
# 4 -1.3681 2.4521 3.7739 22.2944 -3.3679 -3.4198
# 5 -3.5966 -1.5312 -2.0070 -3.3679 23.5535 1.8253
# 6 3.8455 3.0836 -2.8329 -3.4198 1.8253 31.6349
#
#
#
# Elastic Compliance Matrix: (Units=1/GPa)
#
#
# Indices 1 2 3 4 5 6 
#
# 1 0.021902 -0.000919 -0.005280 0.002396 0.003409 -0.002983
# 2 -0.000919 0.014466 -0.003472 -0.001262 0.000461 -0.001772
# 3 -0.005280 -0.003472 0.012166 -0.001770 -0.000396 0.001901
# 4 0.002396 -0.001262 -0.001770 0.047099 0.006528 0.004388
# 5 0.003409 0.000461 -0.000396 0.006528 0.044087 -0.002333
# 6 -0.002983 -0.001772 0.001901 0.004388 -0.002333 0.032925
#
#
# Mechanical properties :
#
#
# Convention : Reuss Voigt Hill
#
# Bulk Modulus (GPa) = 34.25693 39.24272 36.74983
# Shear Modulus (GPa) = 24.78699 26.86234 25.82467
#
# Velocity S-wave (km/s) = 3.52113 3.66557 3.59408
# Velocity P-wave (km/s) = 5.80227 6.12734 5.96702
#
# Compressibility (1/GPa) = 0.02919117
#
# Stress axis : x y z
#
# Youngs Moduli (GPa) = 45.65787 69.12806 82.19622
#
# Poissons Ratio (x) = 0.06352 0.43401
# Poissons Ratio (y) = 0.04196 0.28541
# Poissons Ratio (z) = 0.24108 0.24004
#
# Static dielectric constant tensor:
#      x y z
#    x 3.489910 -0.001730 -0.019250 
#    y -0.001730 3.645670 0.136620 
#    z -0.019250 0.136620 3.525880 
# 
# 
# High freq. dielectric constant tensor:
#      x y z
#    x 1.769730 -0.002960 -0.007550 
#    y -0.002960 1.775780 0.016900 
#    z -0.007550 0.016900 1.773540 
# 
# From -- ./inp_files/398157.got.cif
#   From: 2010.06.25/outbox.cif.g09.slc.cpg/sg2_200_cif.got.tgz:398157.got - 2010.06.27 13:26:56.
