data_PCOD8040742
_publ_section_title
;
Structure prediction by ZEFSAII (Michael W. Deem and Ramdas Pophale) SiO2 
 PCOD8040742
Probable space group: P -1
;
_chemical_formula_sum "Si O2"
_cell_formula_units_Z 14
_cell_length_a 10.521624
_cell_length_b 9.100249
_cell_length_c 11.406747
_cell_angle_alpha 121.466976
_cell_angle_beta 92.452425
_cell_angle_gamma 125.378012
_cell_volume 659.495094
_symmetry_space_group_name_H-M "P -1"
_symmetry_group_IT_number 2
_symmetry_cell_setting 'triclinic'
loop_
_space_group_symop_operation_xyz
x,y,z
-x,-y,-z
loop_
_atom_site_type_symbol
_atom_site_label
_atom_site_fract_x
_atom_site_fract_y
_atom_site_fract_z
Si Si1 0.486172 0.952373 0.206424
Si Si2 0.124729 0.616436 0.938000
Si Si3 0.875582 0.218319 0.353887
Si Si4 0.985387 0.182710 0.107264
Si Si5 0.155960 0.850780 0.417116
Si Si6 0.440998 0.264088 0.453564
Si Si7 0.347907 0.694222 0.321248
O O1 0.472363 0.819943 0.265472
O O2 0.689288 0.105974 0.239155
O O3 0.453198 0.123820 0.299981
O O4 0.327094 0.740574 0.023333
O O5 0.161330 0.844225 0.980670
O O6 0.030005 0.402126 0.747775
O O7 0.000000 0.500000 0.000000
O O8 0.966453 0.180324 0.246297
O O9 0.866452 0.106657 0.431497
O O10 0.000000 0.500000 0.500000
O O11 0.158605 0.440564 0.168626
O O12 0.000000 0.000000 0.000000
O O13 0.315941 0.859225 0.435315
O O14 0.240161 0.076839 0.427406
O O15 0.500000 0.500000 0.500000
O O16 0.583517 0.368713 0.604411
#
# Coordination Sequence:
#
# PCOD8040742 Si02
#       7
#     2   2   2   2   2   2   2
#     4  11  21  38  68  94 129 174 229 262 319 399
#     4  11  20  38  67  99 127 176 218 271 318 396
#     4  12  21  43  70  96 126 179 230 271 316 404
#     4  11  25  40  66  95 133 172 220 277 343 387
#     4  10  19  38  65  91 129 173 225 258 318 397
#     4  11  20  32  62 102 132 166 220 273 325 383
#     4  10  18  38  63  91 122 178 224 252 322 403
#
# _framework density 21.228361
#
# number of rings (size 3 to 8) (size 9 to 14) (size 15 to 20)
#    0.000    1.143   10.000    0.857    2.000    0.571 
#    0.000    0.714    3.143    2.571    0.000    0.000 
#    0.000    0.000    0.000    0.000    0.000    0.000 
#
# Total GULP energy -173454.317859 kJ/mol
# GULP energy per Si atom -12389.594133 kJ/mol
# Density = 2.118004 g / cm^3
# Si number density = 21.228361 Si / 1000 Ang^3
#
#
#
# Elastic Constant Matrix: (Units=GPa)
#
#
# Indices 1 2 3 4 5 6 
#
# 1 59.9199 39.4107 53.6968 5.9171 13.1592 2.4974
# 2 39.4107 128.8826 47.2493 9.2993 -12.6998 -16.2035
# 3 53.6968 47.2493 105.2571 -13.1447 6.3675 0.0234
# 4 5.9171 9.2993 -13.1447 24.7188 2.9685 5.3771
# 5 13.1592 -12.6998 6.3675 2.9685 46.1145 -1.1316
# 6 2.4974 -16.2035 0.0234 5.3771 -1.1316 34.5573
#
#
#
# Elastic Compliance Matrix: (Units=1/GPa)
#
#
# Indices 1 2 3 4 5 6 
#
# 1 0.043570 -0.005643 -0.021300 -0.017705 -0.009988 -0.003352
# 2 -0.005643 0.013597 -0.004754 -0.008935 0.006792 0.008399
# 3 -0.021300 -0.004754 0.025153 0.021154 -0.000164 -0.004004
# 4 -0.017705 -0.008935 0.021154 0.062655 -0.004678 -0.012827
# 5 -0.009988 0.006792 -0.000164 -0.004678 0.026865 0.005514
# 6 -0.003352 0.008399 -0.004004 -0.012827 0.005514 0.035297
#
#
# Mechanical properties :
#
#
# Convention : Reuss Voigt Hill
#
# Bulk Modulus (GPa) = 52.83401 63.86369 58.34885
# Shear Modulus (GPa) = 18.06093 31.32498 24.69296
#
# Velocity S-wave (km/s) = 2.92000 3.84555 3.41428
# Velocity P-wave (km/s) = 6.02586 7.06166 6.56422
#
# Compressibility (1/GPa) = 0.01892720
#
# Stress axis : x y z
#
# Youngs Moduli (GPa) = 22.95163 73.54439 39.75613
#
# Poissons Ratio (x) = 0.41497 0.84682
# Poissons Ratio (y) = 0.12950 0.18899
# Poissons Ratio (z) = 0.48888 0.34962
#
# Static dielectric constant tensor:
#      x y z
#    x 3.496390 0.451670 0.198590 
#    y 0.451670 3.029190 0.272720 
#    z 0.198590 0.272720 3.850290 
# 
# 
# High freq. dielectric constant tensor:
#      x y z
#    x 1.793100 0.011690 0.039400 
#    y 0.011690 1.842870 -0.004470 
#    z 0.039400 -0.004470 1.829260 
# 
# From -- ./inp_files/238744.got.cif
#   From: 2010.06.25/outbox.cif.g09.slc.cpg/sg2_120_cif.got.tgz:238744.got - 2010.06.27 13:26:56.
