data_PCOD8040406
_publ_section_title
;
Structure prediction by ZEFSAII (Michael W. Deem and Ramdas Pophale) SiO2 
 PCOD8040406
Probable space group: P -1
;
_chemical_formula_sum "Si O2"
_cell_formula_units_Z 16
_cell_length_a 8.425981
_cell_length_b 15.450908
_cell_length_c 9.067637
_cell_angle_alpha 118.372532
_cell_angle_beta 121.277720
_cell_angle_gamma 94.439895
_cell_volume 801.038461
_symmetry_space_group_name_H-M "P -1"
_symmetry_group_IT_number 2
_symmetry_cell_setting 'triclinic'
loop_
_space_group_symop_operation_xyz
x,y,z
-x,-y,-z
loop_
_atom_site_type_symbol
_atom_site_label
_atom_site_fract_x
_atom_site_fract_y
_atom_site_fract_z
Si Si1 0.306485 0.488544 0.308192
Si Si2 0.021331 0.561193 0.409047
Si Si3 0.207362 0.561076 0.053469
Si Si4 0.152331 0.785082 0.789264
Si Si5 0.717520 0.029822 0.552279
Si Si6 0.025927 0.974824 0.824087
Si Si7 0.594889 0.938573 0.096947
Si Si8 0.074892 0.731542 0.046114
O O1 0.500000 0.500000 0.500000
O O2 0.379866 0.551176 0.234726
O O3 0.207052 0.553939 0.405495
O O4 0.153694 0.361001 0.104006
O O5 0.000000 0.500000 0.500000
O O6 0.058910 0.684141 0.552210
O O7 0.814013 0.502035 0.162921
O O8 0.240509 0.684356 0.132603
O O9 0.000000 0.500000 0.000000
O O10 0.070076 0.868812 0.751359
O O11 0.400224 0.824938 0.946558
O O12 0.074215 0.754806 0.892163
O O13 0.869001 0.157890 0.746982
O O14 0.500000 0.000000 0.500000
O O15 0.689427 0.003889 0.345540
O O16 0.821023 0.958668 0.623177
O O17 0.222464 0.072559 0.917479
O O18 0.000000 0.000000 0.000000
O O19 0.500000 0.000000 0.000000
#
# Coordination Sequence:
#
# PCOD8040406 Si02
#       8
#     2   2   2   2   2   2   2   2
#     4  10  22  40  60  96 126 158 212 260 308 381
#     4  10  18  36  65  85 119 164 202 253 315 371
#     4   8  18  36  60  88 116 155 202 244 305 378
#     4  11  20  40  64  91 125 168 213 259 326 372
#     4  12  22  41  65  92 128 170 212 264 318 378
#     4  11  23  41  60  89 128 164 209 273 309 373
#     4  10  23  39  60  92 122 163 217 259 310 379
#     4  10  19  38  66  85 124 167 204 254 326 366
#
# _framework density 19.974072
#
# number of rings (size 3 to 8) (size 9 to 14) (size 15 to 20)
#    0.000    2.000    5.000    1.125    0.000    7.000 
#    2.250    1.875    0.000    0.000    0.000    0.000 
#    0.000    0.000    0.000    0.000    0.000    0.000 
#
# Total GULP energy -198236.945793 kJ/mol
# GULP energy per Si atom -12389.809112 kJ/mol
# Density = 1.992861 g / cm^3
# Si number density = 19.974072 Si / 1000 Ang^3
#
#
#
# Elastic Constant Matrix: (Units=GPa)
#
#
# Indices 1 2 3 4 5 6 
#
# 1 86.8271 30.5945 42.3393 -10.1203 -2.3922 -5.6892
# 2 30.5945 123.2622 72.6377 -14.6467 3.3221 -12.2947
# 3 42.3393 72.6377 146.9104 -20.5595 -14.8837 -11.6358
# 4 -10.1203 -14.6467 -20.5595 54.3493 -3.6117 -2.4022
# 5 -2.3922 3.3221 -14.8837 -3.6117 35.2517 -8.1276
# 6 -5.6892 -12.2947 -11.6358 -2.4022 -8.1276 26.5560
#
#
#
# Elastic Compliance Matrix: (Units=1/GPa)
#
#
# Indices 1 2 3 4 5 6 
#
# 1 0.013673 -0.001392 -0.002992 0.001100 0.000168 0.001124
# 2 -0.001392 0.012168 -0.005667 0.000757 -0.003102 0.001971
# 3 -0.002992 -0.005667 0.011911 0.003052 0.006657 0.004267
# 4 0.001100 0.000757 0.003052 0.020497 0.004587 0.005181
# 5 0.000168 -0.003102 0.006657 0.004587 0.034856 0.012599
# 6 0.001124 0.001971 0.004267 0.005181 0.012599 0.045004
#
#
# Mechanical properties :
#
#
# Convention : Reuss Voigt Hill
#
# Bulk Modulus (GPa) = 56.66116 72.01585 64.33850
# Shear Modulus (GPa) = 30.46988 37.32663 33.89826
#
# Velocity S-wave (km/s) = 3.90997 4.32760 4.12407
# Velocity P-wave (km/s) = 6.98661 7.81689 7.41338
#
# Compressibility (1/GPa) = 0.01764877
#
# Stress axis : x y z
#
# Youngs Moduli (GPa) = 73.13517 82.18102 83.95646
#
# Poissons Ratio (x) = 0.11440 0.25123
# Poissons Ratio (y) = 0.10181 0.47581
# Poissons Ratio (z) = 0.21885 0.46575
#
# Static dielectric constant tensor:
#      x y z
#    x 3.745660 0.115640 0.149500 
#    y 0.115640 4.163080 -0.297200 
#    z 0.149500 -0.297200 3.712040 
# 
# 
# High freq. dielectric constant tensor:
#      x y z
#    x 1.755670 0.006580 -0.010940 
#    y 0.006580 1.790130 -0.020010 
#    z -0.010940 -0.020010 1.784030 
# 
# From -- ./inp_files/208819.got.cif
#   From: 2010.06.25/outbox.cif.g09.slc.cpg/sg2_105_cif.got.tgz:208819.got - 2010.06.27 13:26:56.
