data_PCOD8040688
_publ_section_title
;
Structure prediction by ZEFSAII (Michael W. Deem and Ramdas Pophale) SiO2 
 PCOD8040688
Probable space group: P -1
;
_chemical_formula_sum "Si O2"
_cell_formula_units_Z 14
_cell_length_a 17.358916
_cell_length_b 8.847162
_cell_length_c 8.942319
_cell_angle_alpha 51.052490
_cell_angle_beta 62.810233
_cell_angle_gamma 40.067049
_cell_volume 686.702437
_symmetry_space_group_name_H-M "P -1"
_symmetry_group_IT_number 2
_symmetry_cell_setting 'triclinic'
loop_
_space_group_symop_operation_xyz
x,y,z
-x,-y,-z
loop_
_atom_site_type_symbol
_atom_site_label
_atom_site_fract_x
_atom_site_fract_y
_atom_site_fract_z
Si Si1 0.587466 0.427310 0.838488
Si Si2 0.989091 0.813773 0.354091
Si Si3 0.833527 0.422606 0.078459
Si Si4 0.023099 0.410996 0.778916
Si Si5 0.254033 0.481712 0.218433
Si Si6 0.740313 0.852392 0.114876
Si Si7 0.591115 0.026148 0.438237
O O1 0.677643 0.450483 0.804719
O O2 0.495680 0.652207 0.652093
O O3 0.500000 0.500000 0.000000
O O4 0.666554 0.119617 0.909526
O O5 0.934313 0.784651 0.278424
O O6 0.983951 0.685455 0.584829
O O7 0.123432 0.672037 0.288521
O O8 0.911194 0.126036 0.260335
O O9 0.749357 0.634786 0.153362
O O10 0.752949 0.470789 0.982432
O O11 0.912746 0.480261 0.915599
O O12 0.128801 0.263122 0.896755
O O13 0.324290 0.167241 0.378288
O O14 0.675879 0.922020 0.285273
O O15 0.500000 0.000000 0.500000
#
# Coordination Sequence:
#
# PCOD8040688 Si02
#       7
#     2   2   2   2   2   2   2
#     4   9  19  35  60  80 101 147 198 234 277 336
#     4  10  20  36  58  86 117 156 190 218 275 353
#     4  11  23  35  55  92 122 146 182 234 289 335
#     4  10  20  36  58  85 120 153 191 219 272 357
#     4  10  18  38  59  79 114 152 189 230 278 342
#     4  11  20  37  56  85 117 145 184 242 289 322
#     4   9  19  37  58  78 101 148 199 231 272 341
#
# _framework density 20.387286
#
# number of rings (size 3 to 8) (size 9 to 14) (size 15 to 20)
#    0.000    2.000    1.429    3.857    0.000    0.571 
#    5.143    7.143    0.000    0.000    0.000    0.000 
#    0.000    0.000    0.000    0.000    0.000    0.000 
#
# Total GULP energy -173495.467271 kJ/mol
# GULP energy per Si atom -12392.533377 kJ/mol
# Density = 2.034088 g / cm^3
# Si number density = 20.387286 Si / 1000 Ang^3
#
#
#
# Elastic Constant Matrix: (Units=GPa)
#
#
# Indices 1 2 3 4 5 6 
#
# 1 44.6063 36.5684 13.2054 -12.8133 -2.8995 -1.3137
# 2 36.5684 111.7011 47.9539 -50.3160 12.6971 5.1369
# 3 13.2054 47.9539 81.9213 -38.3008 -2.6941 -1.4271
# 4 -12.8133 -50.3160 -38.3008 44.8541 -7.7423 0.7129
# 5 -2.8995 12.6971 -2.6941 -7.7423 25.3837 -6.5290
# 6 -1.3137 5.1369 -1.4271 0.7129 -6.5290 18.5171
#
#
#
# Elastic Compliance Matrix: (Units=1/GPa)
#
#
# Indices 1 2 3 4 5 6 
#
# 1 0.035804 -0.017173 0.003182 -0.003906 0.015184 0.013054
# 2 -0.017173 0.028128 -0.005028 0.020120 -0.014349 -0.015243
# 3 0.003182 -0.005028 0.023137 0.017046 0.012361 0.007106
# 4 -0.003906 0.020120 0.017046 0.059844 0.008567 -0.003828
# 5 0.015184 -0.014349 0.012361 0.008567 0.059049 0.026501
# 6 0.013054 -0.015243 0.007106 -0.003828 0.026501 0.069198
#
#
# Mechanical properties :
#
#
# Convention : Reuss Voigt Hill
#
# Bulk Modulus (GPa) = 20.39539 48.18711 34.29125
# Shear Modulus (GPa) = 15.17257 27.11771 21.14514
#
# Velocity S-wave (km/s) = 2.73099 3.65105 3.22401
# Velocity P-wave (km/s) = 4.46880 6.43900 5.54215
#
# Compressibility (1/GPa) = 0.04903068
#
# Stress axis : x y z
#
# Youngs Moduli (GPa) = 27.92948 35.55182 43.22087
#
# Poissons Ratio (x) = 0.61054 -0.13751
# Poissons Ratio (y) = 0.47964 0.21730
# Poissons Ratio (z) = -0.08886 0.17874
#
# Static dielectric constant tensor:
#      x y z
#    x 3.903150 -0.430320 -0.053870 
#    y -0.430320 4.057840 -0.565050 
#    z -0.053870 -0.565050 4.308890 
# 
# 
# High freq. dielectric constant tensor:
#      x y z
#    x 1.784600 -0.023690 -0.011290 
#    y -0.023690 1.782820 -0.031150 
#    z -0.011290 -0.031150 1.802870 
# 
# From -- ./inp_files/176032.got.cif
#   From: 2010.06.25/outbox.cif.g09.slc.cpg/sg2_89_cif.got.tgz:176032.got - 2010.06.27 13:26:56.
