data_PCOD8040595
_publ_section_title
;
Structure prediction by ZEFSAII (Michael W. Deem and Ramdas Pophale) SiO2 
 PCOD8040595
Probable space group: P -1
;
_chemical_formula_sum "Si O2"
_cell_formula_units_Z 16
_cell_length_a 21.138651
_cell_length_b 11.323839
_cell_length_c 11.750709
_cell_angle_alpha 55.888135
_cell_angle_beta 141.394109
_cell_angle_gamma 151.313715
_cell_volume 765.922373
_symmetry_space_group_name_H-M "P -1"
_symmetry_group_IT_number 2
_symmetry_cell_setting 'triclinic'
loop_
_space_group_symop_operation_xyz
x,y,z
-x,-y,-z
loop_
_atom_site_type_symbol
_atom_site_label
_atom_site_fract_x
_atom_site_fract_y
_atom_site_fract_z
Si Si1 0.169796 0.271116 0.304101
Si Si2 0.835010 0.210410 0.980879
Si Si3 0.246603 0.124208 0.131582
Si Si4 0.557922 0.823788 0.441836
Si Si5 0.783025 0.638865 0.416617
Si Si6 0.520787 0.063185 0.363485
Si Si7 0.834735 0.006318 0.294424
Si Si8 0.388101 0.254275 0.669052
O O1 0.338004 0.556918 0.320822
O O2 0.152031 0.303013 0.391374
O O3 0.237070 0.187317 0.440409
O O4 0.964126 0.053777 0.070364
O O5 0.694218 0.162439 0.858627
O O6 0.736041 0.987035 0.870861
O O7 0.000000 0.500000 0.000000
O O8 0.896973 0.189197 0.185353
O O9 0.299885 0.122966 0.330887
O O10 0.413784 0.439307 0.171298
O O11 0.626863 0.066091 0.439453
O O12 0.564077 0.807900 0.323713
O O13 0.708662 0.712100 0.245999
O O14 0.618811 0.330241 0.328845
O O15 0.958343 0.816526 0.479006
O O16 0.500000 0.000000 0.500000
O O17 0.724515 0.954049 0.270680
#
# Coordination Sequence:
#
# PCOD8040595 Si02
#       8
#     2   2   2   2   2   2   2   2
#     4  10  18  37  63  96 123 160 217 266 305 356
#     4  12  23  38  66  99 122 153 211 274 317 368
#     4  11  21  36  68  94 122 168 215 261 313 359
#     4  11  23  39  59  92 132 169 211 254 308 370
#     4  10  20  38  63  91 127 159 202 267 318 360
#     4  12  21  38  63  92 125 165 207 263 315 360
#     4  10  22  41  61  90 129 158 203 263 319 368
#     4  10  24  41  58  89 135 173 202 254 308 386
#
# _framework density 20.889845999999999
#
# number of rings (size 3 to 8) (size 9 to 14) (size 15 to 20)
#    0.000    1.250    3.750    4.500    0.000    4.000 
#    0.000    1.250    0.000    0.000    0.000    0.000 
#    0.000    0.000    0.000    0.000    0.000    0.000 
#
# Total GULP energy -198210.637723 kJ/mol
# GULP energy per Si atom -12388.164858 kJ/mol
# Density = 2.084230 g / cm^3
# Si number density = 20.889846 Si / 1000 Ang^3
#
#
#
# Elastic Constant Matrix: (Units=GPa)
#
#
# Indices 1 2 3 4 5 6 
#
# 1 122.1124 50.7228 25.2775 5.2962 -0.7394 5.7814
# 2 50.7228 126.0399 33.6331 -10.9823 -0.3768 8.7757
# 3 25.2775 33.6331 100.5519 12.0562 17.4548 6.2458
# 4 5.2962 -10.9823 12.0562 27.1871 3.9508 1.3299
# 5 -0.7394 -0.3768 17.4548 3.9508 27.0304 0.0760
# 6 5.7814 8.7757 6.2458 1.3299 0.0760 25.5831
#
#
#
# Elastic Compliance Matrix: (Units=1/GPa)
#
#
# Indices 1 2 3 4 5 6 
#
# 1 0.010293 -0.004132 -0.001005 -0.003404 0.001372 -0.000490
# 2 -0.004132 0.011359 -0.003689 0.006942 0.001419 -0.002427
# 3 -0.001005 -0.003689 0.013645 -0.006110 -0.007993 -0.001497
# 4 -0.003404 0.006942 -0.006110 0.043423 -0.002391 -0.002370
# 5 0.001372 0.001419 -0.007993 -0.002391 0.042560 0.001152
# 6 -0.000490 -0.002427 -0.001497 -0.002370 0.001152 0.040517
#
#
# Mechanical properties :
#
#
# Convention : Reuss Voigt Hill
#
# Bulk Modulus (GPa) = 56.67301 63.10790 59.89045
# Shear Modulus (GPa) = 26.97887 31.89816 29.43851
#
# Velocity S-wave (km/s) = 3.59762 3.91188 3.75804
# Velocity P-wave (km/s) = 6.66675 7.11893 6.89655
#
# Compressibility (1/GPa) = 0.01764508
#
# Stress axis : x y z
#
# Youngs Moduli (GPa) = 97.15470 88.03210 73.28924
#
# Poissons Ratio (x) = 0.36379 0.07364
# Poissons Ratio (y) = 0.40149 0.27034
# Poissons Ratio (z) = 0.09762 0.32472
#
# Static dielectric constant tensor:
#      x y z
#    x 3.870980 -0.093460 0.362870 
#    y -0.093460 4.075960 -0.184720 
#    z 0.362870 -0.184720 3.816990 
# 
# 
# High freq. dielectric constant tensor:
#      x y z
#    x 1.803320 0.008840 0.025510 
#    y 0.008840 1.815560 0.003490 
#    z 0.025510 0.003490 1.802260 
# 
# From -- ./inp_files/471187.got.cif
#   From: 2010.06.25/outbox.cif.g09.slc.cpg/sg2_236_cif.got.tgz:471187.got - 2010.06.27 13:26:56.
