data_PCOD8040258
_publ_section_title
;
Structure prediction by ZEFSAII (Michael W. Deem and Ramdas Pophale) SiO2 
 PCOD8040258
Probable space group: P -1
;
_chemical_formula_sum "Si O2"
_cell_formula_units_Z 16
_cell_length_a 23.731479
_cell_length_b 11.334773
_cell_length_c 9.054830
_cell_angle_alpha 84.074112
_cell_angle_beta 94.218523
_cell_angle_gamma 159.314132
_cell_volume 853.947787
_symmetry_space_group_name_H-M "P -1"
_symmetry_group_IT_number 2
_symmetry_cell_setting 'triclinic'
loop_
_space_group_symop_operation_xyz
x,y,z
-x,-y,-z
loop_
_atom_site_type_symbol
_atom_site_label
_atom_site_fract_x
_atom_site_fract_y
_atom_site_fract_z
Si Si1 0.995378 0.876783 0.329709
Si Si2 0.222821 0.110476 0.319184
Si Si3 0.968618 0.517854 0.132690
Si Si4 0.825855 0.182541 0.447673
Si Si5 0.489917 0.815571 0.263439
Si Si6 0.252740 0.562582 0.247012
Si Si7 0.182081 0.533394 0.929409
Si Si8 0.293717 0.794422 0.487962
O O1 0.940747 0.775886 0.161419
O O2 0.835978 0.556311 0.436395
O O3 0.094372 0.952163 0.375973
O O4 0.103053 0.202767 0.344418
O O5 0.378558 0.485052 0.242269
O O6 0.276761 0.127622 0.461869
O O7 0.139797 0.876795 0.198185
O O8 0.840314 0.212361 0.267612
O O9 0.889963 0.479415 0.053463
O O10 0.000000 0.500000 0.000000
O O11 0.758846 0.174150 0.499440
O O12 0.000000 0.500000 0.500000
O O13 0.399711 0.761817 0.228881
O O14 0.642519 0.109491 0.151175
O O15 0.540589 0.903974 0.433702
O O16 0.312387 0.795675 0.319361
O O17 0.190996 0.480334 0.088086
#
# Coordination Sequence:
#
# PCOD8040258 Si02
#       8
#     2   2   2   2   2   2   2   2
#     4   9  18  37  54  82 112 138 180 232 271 315
#     4   9  19  35  60  80 107 147 179 218 278 323
#     4  10  20  36  59  83 108 137 183 231 267 319
#     4  10  18  36  60  79 109 140 180 228 277 313
#     4  10  21  40  53  77 118 148 176 221 275 324
#     4  11  22  32  59  83 107 147 189 220 264 329
#     4  10  20  37  56  80 113 150 178 219 282 320
#     4  11  20  36  56  83 111 141 184 228 271 316
#
# _framework density 18.736508000000001
#
# number of rings (size 3 to 8) (size 9 to 14) (size 15 to 20)
#    0.000    2.000    5.000    1.500    3.500    0.500 
#    0.000    1.875    0.000    0.000    0.000    0.000 
#    0.000    0.000    0.000    0.000    0.000    0.000 
#
# Total GULP energy -198284.563705 kJ/mol
# GULP energy per Si atom -12392.785232 kJ/mol
# Density = 1.869386 g / cm^3
# Si number density = 18.736508 Si / 1000 Ang^3
#
#
#
# Elastic Constant Matrix: (Units=GPa)
#
#
# Indices 1 2 3 4 5 6 
#
# 1 109.0950 30.5433 64.4836 9.4567 3.7183 -0.3889
# 2 30.5433 70.1813 16.8545 2.5790 0.4149 -2.0013
# 3 64.4836 16.8545 81.9375 14.4187 2.8314 -10.6161
# 4 9.4567 2.5790 14.4187 19.8840 4.1314 3.2440
# 5 3.7183 0.4149 2.8314 4.1314 33.3261 7.5926
# 6 -0.3889 -2.0013 -10.6161 3.2440 7.5926 21.6920
#
#
#
# Elastic Compliance Matrix: (Units=1/GPa)
#
#
# Indices 1 2 3 4 5 6 
#
# 1 0.020061 -0.005142 -0.016780 0.004646 0.000794 -0.009300
# 2 -0.005142 0.016310 0.001109 -0.000797 -0.000106 0.002111
# 3 -0.016780 0.001109 0.030592 -0.016740 -0.002827 0.018266
# 4 0.004646 -0.000797 -0.016740 0.063696 -0.003204 -0.016587
# 5 0.000794 -0.000106 -0.002827 -0.003204 0.033427 -0.012600
# 6 -0.009300 0.002111 0.018266 -0.016587 -0.012600 0.061958
#
#
# Mechanical properties :
#
#
# Convention : Reuss Voigt Hill
#
# Bulk Modulus (GPa) = 39.46702 53.88628 46.67665
# Shear Modulus (GPa) = 18.10823 24.93591 21.52207
#
# Velocity S-wave (km/s) = 3.11218 3.65207 3.39288
# Velocity P-wave (km/s) = 5.83302 6.82686 6.34942
#
# Compressibility (1/GPa) = 0.02533761
#
# Stress axis : x y z
#
# Youngs Moduli (GPa) = 49.84723 61.31108 32.68796
#
# Poissons Ratio (x) = 0.31523 0.54851
# Poissons Ratio (y) = 0.25629 -0.03624
# Poissons Ratio (z) = 0.83645 -0.06798
#
# Static dielectric constant tensor:
#      x y z
#    x 3.627810 -0.120990 0.397920 
#    y -0.120990 3.549620 0.003880 
#    z 0.397920 0.003880 3.593680 
# 
# 
# High freq. dielectric constant tensor:
#      x y z
#    x 1.728980 0.003080 0.013460 
#    y 0.003080 1.719650 0.006820 
#    z 0.013460 0.006820 1.719820 
# 
# From -- ./inp_files/170562.got.cif
#   From: 2010.06.25/outbox.cif.g09.slc.cpg/sg2_86_cif.got.tgz:170562.got - 2010.06.27 13:26:56.
