data_PCOD8040198
_publ_section_title
;
Structure prediction by ZEFSAII (Michael W. Deem and Ramdas Pophale) SiO2 
 PCOD8040198
Probable space group: P -1
;
_chemical_formula_sum "Si O2"
_cell_formula_units_Z 16
_cell_length_a 19.499386
_cell_length_b 9.479800
_cell_length_c 14.837796
_cell_angle_alpha 125.550040
_cell_angle_beta 21.757268
_cell_angle_gamma 115.667021
_cell_volume 773.515571
_symmetry_space_group_name_H-M "P -1"
_symmetry_group_IT_number 2
_symmetry_cell_setting 'triclinic'
loop_
_space_group_symop_operation_xyz
x,y,z
-x,-y,-z
loop_
_atom_site_type_symbol
_atom_site_label
_atom_site_fract_x
_atom_site_fract_y
_atom_site_fract_z
Si Si1 0.822282 0.332031 0.911378
Si Si2 0.246431 0.562926 0.170330
Si Si3 0.780959 0.397785 0.277891
Si Si4 0.194634 0.216576 0.174392
Si Si5 0.617801 0.189919 0.262902
Si Si6 0.237071 0.092165 0.274532
Si Si7 0.524407 0.715008 0.836431
Si Si8 0.169083 0.369612 0.861701
O O1 0.738939 0.419055 0.949228
O O2 0.008744 0.139002 0.600096
O O3 0.661127 0.298371 0.163102
O O4 0.897636 0.486546 0.920652
O O5 0.301622 0.349325 0.051179
O O6 0.040646 0.685640 0.511948
O O7 0.415989 0.645029 0.024856
O O8 0.682253 0.259478 0.303692
O O9 0.634007 0.534968 0.577941
O O10 0.819667 0.521123 0.199719
O O11 0.993031 0.286890 0.028139
O O12 0.257111 0.182507 0.189123
O O13 0.258676 0.027307 0.970915
O O14 0.385691 0.215939 0.558645
O O15 0.332210 0.183412 0.267484
O O16 0.347698 0.869965 0.051516
#
# Coordination Sequence:
#
# PCOD8040198 Si02
#       8
#     2   2   2   2   2   2   2   2
#     4  10  18  36  57  86 110 149 187 236 283 338
#     4  10  21  37  62  78 113 151 190 233 291 339
#     4  10  20  34  56  87 119 149 187 234 288 342
#     4  10  22  40  54  86 110 151 191 234 284 344
#     4  11  21  36  61  84 118 152 188 235 288 336
#     4  10  21  34  60  84 119 140 190 242 280 340
#     4  11  20  36  57  90 110 150 186 237 291 334
#     4  10  19  33  55  86 119 150 185 235 286 337
#
# _framework density 20.68478
#
# number of rings (size 3 to 8) (size 9 to 14) (size 15 to 20)
#    0.000    1.750    1.250    5.250    0.000    2.500 
#    2.250    2.500    0.000    1.500    0.000    0.000 
#    0.000    0.000    0.000    0.000    0.000    0.000 
#
# Total GULP energy -198297.228145 kJ/mol
# GULP energy per Si atom -12393.576759 kJ/mol
# Density = 2.063770 g / cm^3
# Si number density = 20.684780 Si / 1000 Ang^3
#
#
#
# Elastic Constant Matrix: (Units=GPa)
#
#
# Indices 1 2 3 4 5 6 
#
# 1 79.5929 0.3707 32.3083 21.8293 10.4441 12.6757
# 2 0.3707 105.9370 57.0065 -5.7445 -13.3560 -8.9689
# 3 32.3083 57.0065 141.5801 -3.4565 -21.9869 8.8172
# 4 21.8293 -5.7445 -3.4565 37.6456 20.2460 4.8390
# 5 10.4441 -13.3560 -21.9869 20.2460 44.1693 -0.9362
# 6 12.6757 -8.9689 8.8172 4.8390 -0.9362 20.1386
#
#
#
# Elastic Compliance Matrix: (Units=1/GPa)
#
#
# Indices 1 2 3 4 5 6 
#
# 1 0.018325 0.001148 -0.004823 -0.008606 -0.002589 -0.006964
# 2 0.001148 0.013492 -0.006006 -0.000994 0.001449 0.008222
# 3 -0.004823 -0.006006 0.011602 0.001159 0.004467 -0.004790
# 4 -0.008606 -0.000994 0.001159 0.041327 -0.016764 -0.006243
# 5 -0.002589 0.001449 0.004467 -0.016764 0.033724 0.005915
# 6 -0.006964 0.008222 -0.004790 -0.006243 0.005915 0.061573
#
#
# Mechanical properties :
#
#
# Convention : Reuss Voigt Hill
#
# Bulk Modulus (GPa) = 41.56417 56.27567 48.91992
# Shear Modulus (GPa) = 24.10518 36.21900 30.16209
#
# Velocity S-wave (km/s) = 3.41744 4.18903 3.82275
# Velocity P-wave (km/s) = 5.97575 7.11777 6.57162
#
# Compressibility (1/GPa) = 0.02405918
#
# Stress axis : x y z
#
# Youngs Moduli (GPa) = 54.56918 74.11642 86.18998
#
# Poissons Ratio (x) = -0.08511 0.41567
# Poissons Ratio (y) = -0.06267 0.51766
# Poissons Ratio (z) = 0.26317 0.44514
#
# Static dielectric constant tensor:
#      x y z
#    x 4.080660 0.378140 -0.168660 
#    y 0.378140 3.650830 -0.055980 
#    z -0.168660 -0.055980 4.066450 
# 
# 
# High freq. dielectric constant tensor:
#      x y z
#    x 1.804020 0.026550 -0.005160 
#    y 0.026550 1.777700 -0.000190 
#    z -0.005160 -0.000190 1.826560 
# 
# From -- ./inp_files/327629.got.cif
#   From: 2010.06.25/outbox.cif.g09.slc.cpg/sg2_164_cif.got.tgz:327629.got - 2010.06.27 13:26:56.
