data_PCOD8040188
_publ_section_title
;
Structure prediction by ZEFSAII (Michael W. Deem and Ramdas Pophale) SiO2 
 PCOD8040188
Probable space group: P -1
;
_chemical_formula_sum "Si O2"
_cell_formula_units_Z 16
_cell_length_a 11.362637
_cell_length_b 17.806779
_cell_length_c 7.593209
_cell_angle_alpha 104.836685
_cell_angle_beta 93.955488
_cell_angle_gamma 30.778054
_cell_volume 723.676148
_symmetry_space_group_name_H-M "P -1"
_symmetry_group_IT_number 2
_symmetry_cell_setting 'triclinic'
loop_
_space_group_symop_operation_xyz
x,y,z
-x,-y,-z
loop_
_atom_site_type_symbol
_atom_site_label
_atom_site_fract_x
_atom_site_fract_y
_atom_site_fract_z
Si Si1 0.841560 0.149573 0.801024
Si Si2 0.240117 0.521354 0.319825
Si Si3 0.724404 0.326976 0.187309
Si Si4 0.047743 0.876444 0.577627
Si Si5 0.157837 0.567178 0.718984
Si Si6 0.333896 0.366828 0.928019
Si Si7 0.750769 0.826001 0.596205
Si Si8 0.472067 0.892080 0.346120
O O1 0.599738 0.246842 0.890252
O O2 0.806194 0.210092 0.642780
O O3 0.052195 0.962750 0.705755
O O4 0.890926 0.185429 0.978137
O O5 0.443161 0.463631 0.232681
O O6 0.305012 0.458041 0.489960
O O7 0.975563 0.715010 0.416020
O O8 0.213410 0.460300 0.157112
O O9 0.742651 0.406856 0.189211
O O10 0.832437 0.251305 0.348306
O O11 0.773473 0.012423 0.582669
O O12 0.184653 0.488124 0.823599
O O13 0.870182 0.737058 0.744056
O O14 0.345668 0.266832 0.844387
O O15 0.594768 0.843632 0.516529
O O16 0.581158 0.998725 0.702458
#
# Coordination Sequence:
#
# PCOD8040188 Si02
#       8
#     2   2   2   2   2   2   2   2
#     4   9  21  32  54  90 114 146 190 229 284 347
#     4   9  21  37  58  88 116 149 186 236 285 336
#     4  11  19  33  58  85 115 148 186 232 285 339
#     4  10  18  36  57  80 119 154 180 234 289 330
#     4  10  21  35  57  87 114 147 189 230 283 342
#     4  10  21  37  61  85 118 145 189 238 287 332
#     4   9  21  39  61  83 112 152 199 227 283 338
#     4  10  20  39  63  80 112 160 188 235 282 333
#
# _framework density 22.109338000000001
#
# number of rings (size 3 to 8) (size 9 to 14) (size 15 to 20)
#    0.750    1.500    1.250    1.500    0.000    6.000 
#    0.000    0.000    5.500    2.250    0.000    0.000 
#    0.000    0.000    0.000    0.000    0.000    0.000 
#
# Total GULP energy -198288.302565 kJ/mol
# GULP energy per Si atom -12393.018910 kJ/mol
# Density = 2.205902 g / cm^3
# Si number density = 22.109338 Si / 1000 Ang^3
#
#
#
# Elastic Constant Matrix: (Units=GPa)
#
#
# Indices 1 2 3 4 5 6 
#
# 1 54.9995 28.6373 42.2690 6.0510 29.1126 3.0055
# 2 28.6373 78.3846 27.8398 6.1175 19.5927 11.6556
# 3 42.2690 27.8398 124.4042 -5.8448 25.3139 11.3141
# 4 6.0510 6.1175 -5.8448 13.7181 1.4161 0.9598
# 5 29.1126 19.5927 25.3139 1.4161 33.5087 3.2403
# 6 3.0055 11.6556 11.3141 0.9598 3.2403 22.2735
#
#
#
# Elastic Compliance Matrix: (Units=1/GPa)
#
#
# Indices 1 2 3 4 5 6 
#
# 1 0.045724 -0.005439 -0.009984 -0.019495 -0.028835 0.006783
# 2 -0.005439 0.017480 -0.000828 -0.004835 -0.003969 -0.007207
# 3 -0.009984 -0.000828 0.012641 0.010548 -0.000349 -0.005045
# 4 -0.019495 -0.004835 0.010548 0.087624 0.008598 -0.005224
# 5 -0.028835 -0.003969 -0.000349 0.008598 0.057365 -0.002571
# 6 0.006783 -0.007207 -0.005045 -0.005224 -0.002571 0.050914
#
#
# Mechanical properties :
#
#
# Convention : Reuss Voigt Hill
#
# Bulk Modulus (GPa) = 23.07122 50.58674 36.82898
# Shear Modulus (GPa) = 15.68886 24.50287 20.09586
#
# Velocity S-wave (km/s) = 2.66673 3.33266 3.01812
# Velocity P-wave (km/s) = 4.46538 6.14319 5.37021
#
# Compressibility (1/GPa) = 0.04334405
#
# Stress axis : x y z
#
# Youngs Moduli (GPa) = 21.87014 57.20969 79.10531
#
# Poissons Ratio (x) = 0.31114 0.78980
# Poissons Ratio (y) = 0.11894 0.06550
# Poissons Ratio (z) = 0.21835 0.04737
#
# Static dielectric constant tensor:
#      x y z
#    x 3.670830 -0.061540 0.432940 
#    y -0.061540 3.859730 0.156130 
#    z 0.432940 0.156130 4.246690 
# 
# 
# High freq. dielectric constant tensor:
#      x y z
#    x 1.841480 -0.005720 0.029830 
#    y -0.005720 1.863610 0.004350 
#    z 0.029830 0.004350 1.867870 
# 
# From -- ./inp_files/281213.got.cif
#   From: 2010.06.25/outbox.cif.g09.slc.cpg/sg2_141_cif.got.tgz:281213.got - 2010.06.27 13:26:56.
