data_PCOD8040439
_publ_section_title
;
Structure prediction by ZEFSAII (Michael W. Deem and Ramdas Pophale) SiO2 
 PCOD8040439
Probable space group: P -1
;
_chemical_formula_sum "Si O2"
_cell_formula_units_Z 14
_cell_length_a 10.681884
_cell_length_b 10.752116
_cell_length_c 18.661451
_cell_angle_alpha 33.578168
_cell_angle_beta 147.352287
_cell_angle_gamma 147.096180
_cell_volume 566.892944
_symmetry_space_group_name_H-M "P -1"
_symmetry_group_IT_number 2
_symmetry_cell_setting 'triclinic'
loop_
_space_group_symop_operation_xyz
x,y,z
-x,-y,-z
loop_
_atom_site_type_symbol
_atom_site_label
_atom_site_fract_x
_atom_site_fract_y
_atom_site_fract_z
Si Si1 0.577305 0.661708 0.850123
Si Si2 0.053416 0.894310 0.649046
Si Si3 0.688337 0.579289 0.734488
Si Si4 0.687434 0.292669 0.434411
Si Si5 0.452021 0.163361 0.103861
Si Si6 0.909938 0.889586 0.290154
Si Si7 0.852506 0.162315 0.010338
O O1 0.358754 0.665194 0.690112
O O2 0.644636 0.877796 0.840183
O O3 0.834633 0.697042 0.915877
O O4 0.426898 0.395775 0.945307
O O5 0.183816 0.109794 0.672260
O O6 0.246793 0.778301 0.781799
O O7 0.000000 0.000000 0.500000
O O8 0.774918 0.664791 0.652625
O O9 0.383510 0.512855 0.640973
O O10 0.845848 0.826928 0.740117
O O11 0.751066 0.357058 0.897539
O O12 0.983154 0.318463 0.575818
O O13 0.500000 0.000000 0.500000
O O14 0.269144 0.915252 0.090093
O O15 0.739444 0.915937 0.128752
#
# Coordination Sequence:
#
# PCOD8040439 Si02
#       7
#     2   2   2   2   2   2   2
#     4  11  21  43  62  85 126 156 206 246 300 357
#     4  10  20  37  59  85 124 159 198 239 302 356
#     4   9  20  35  64  88 118 164 193 249 301 349
#     4  10  18  36  68  87 112 173 199 237 309 350
#     4  11  26  36  64  93 116 166 195 253 303 356
#     4   9  20  35  65  90 119 164 198 250 297 353
#     4  12  21  41  64  91 122 152 212 245 297 359
#
# _framework density 24.696019
#
# number of rings (size 3 to 8) (size 9 to 14) (size 15 to 20)
#    0.857    0.857    4.286    1.714    2.000    0.571 
#    0.000    1.429    6.286    0.000    0.000    0.000 
#    0.000    0.000    0.000    0.000    0.000    0.000 
#
# Total GULP energy -173480.288375 kJ/mol
# GULP energy per Si atom -12391.449170 kJ/mol
# Density = 2.463981 g / cm^3
# Si number density = 24.696019 Si / 1000 Ang^3
#
#
#
# Elastic Constant Matrix: (Units=GPa)
#
#
# Indices 1 2 3 4 5 6 
#
# 1 146.4662 28.3271 85.9798 -0.1435 2.9800 -6.6015
# 2 28.3271 52.4728 40.7900 -3.0506 6.5350 -9.1579
# 3 85.9798 40.7900 189.7088 -15.0643 -1.0175 -13.1517
# 4 -0.1435 -3.0506 -15.0643 39.4362 -7.9052 11.1914
# 5 2.9800 6.5350 -1.0175 -7.9052 55.6251 4.2966
# 6 -6.6015 -9.1579 -13.1517 11.1914 4.2966 44.3340
#
#
#
# Elastic Compliance Matrix: (Units=1/GPa)
#
#
# Indices 1 2 3 4 5 6 
#
# 1 0.009628 -0.002007 -0.004062 -0.001904 -0.000653 0.000358
# 2 -0.002007 0.024482 -0.004206 -0.001607 -0.003402 0.004246
# 3 -0.004062 -0.004206 0.008272 0.003054 0.001291 0.000084
# 4 -0.001904 -0.001607 0.003054 0.029605 0.005147 -0.007681
# 5 -0.000653 -0.003402 0.001291 0.005147 0.019445 -0.003601
# 6 0.000358 0.004246 0.000084 -0.007681 -0.003601 0.025799
#
#
# Mechanical properties :
#
#
# Convention : Reuss Voigt Hill
#
# Bulk Modulus (GPa) = 45.80446 77.64905 61.72676
# Shear Modulus (GPa) = 34.46929 43.44910 38.95920
#
# Velocity S-wave (km/s) = 3.74002 4.19902 3.97615
# Velocity P-wave (km/s) = 6.10228 7.41749 6.79180
#
# Compressibility (1/GPa) = 0.02183193
#
# Stress axis : x y z
#
# Youngs Moduli (GPa) = 103.86816 40.84699 120.89368
#
# Poissons Ratio (x) = 0.08197 0.49105
# Poissons Ratio (y) = 0.20845 0.50846
# Poissons Ratio (z) = 0.42189 0.17180
#
# Static dielectric constant tensor:
#      x y z
#    x 4.603500 -0.129450 0.135830 
#    y -0.129450 4.696820 -0.008890 
#    z 0.135830 -0.008890 5.009970 
# 
# 
# High freq. dielectric constant tensor:
#      x y z
#    x 1.994810 0.002550 0.011000 
#    y 0.002550 1.992400 -0.011490 
#    z 0.011000 -0.011490 1.993210 
# 
# From -- ./inp_files/595070.got.cif
#   From: 2010.06.25/outbox.cif.g09.slc.cpg/sg2_298_cif.got.tgz:595070.got - 2010.06.27 13:26:56.
