data_PCOD8040761
_publ_section_title
;
Structure prediction by ZEFSAII (Michael W. Deem and Ramdas Pophale) SiO2 
 PCOD8040761
Probable space group: P -1
;
_chemical_formula_sum "Si O2"
_cell_formula_units_Z 14
_cell_length_a 17.212324
_cell_length_b 25.507898
_cell_length_c 9.236915
_cell_angle_alpha 30.631780
_cell_angle_beta 141.441474
_cell_angle_gamma 160.615770
_cell_volume 675.152496
_symmetry_space_group_name_H-M "P -1"
_symmetry_group_IT_number 2
_symmetry_cell_setting 'triclinic'
loop_
_space_group_symop_operation_xyz
x,y,z
-x,-y,-z
loop_
_atom_site_type_symbol
_atom_site_label
_atom_site_fract_x
_atom_site_fract_y
_atom_site_fract_z
Si Si1 0.221698 0.684485 0.784797
Si Si2 0.996009 0.039223 0.240769
Si Si3 0.885737 0.151221 0.401287
Si Si4 0.895403 0.509778 0.218254
Si Si5 0.259858 0.941664 0.263375
Si Si6 0.209391 0.207676 0.728535
Si Si7 0.585797 0.748799 0.831226
O O1 0.214316 0.616808 0.785590
O O2 0.223432 0.806385 0.454128
O O3 0.464080 0.828075 0.885041
O O4 0.000000 0.500000 0.000000
O O5 0.263412 0.213497 0.152731
O O6 0.796363 0.835089 0.344006
O O7 0.913295 0.099783 0.971581
O O8 0.000000 0.000000 0.500000
O O9 0.809193 0.123770 0.515767
O O10 0.152063 0.288404 0.464479
O O11 0.706962 0.945974 0.553480
O O12 0.896222 0.263487 0.057551
O O13 0.683957 0.420472 0.208849
O O14 0.000000 0.500000 0.500000
O O15 0.438077 0.332945 0.856564
O O16 0.000000 0.000000 0.000000
#
# Coordination Sequence:
#
# PCOD8040761 Si02
#       7
#     2   2   2   2   2   2   2
#     4  11  24  39  64  90 120 166 207 244 290 358
#     4  10  19  35  63  93 118 151 194 255 308 348
#     4  10  18  38  65  84 115 160 199 245 297 351
#     4  12  26  39  58  93 126 156 206 251 299 357
#     4  11  20  41  65  88 120 161 208 241 297 364
#     4   8  15  33  61  86 113 146 201 233 292 365
#     4  10  20  41  62  88 120 157 202 245 299 367
#
# _framework density 20.736056999999999
#
# number of rings (size 3 to 8) (size 9 to 14) (size 15 to 20)
#    0.000    2.000    7.143    0.000    0.000    4.571 
#    0.000    1.429    0.000    5.143    0.000    0.000 
#    0.000    0.000    0.000    0.000    0.000    0.000 
#
# Total GULP energy -173488.601466 kJ/mol
# GULP energy per Si atom -12392.042962 kJ/mol
# Density = 2.068886 g / cm^3
# Si number density = 20.736057 Si / 1000 Ang^3
#
#
#
# Elastic Constant Matrix: (Units=GPa)
#
#
# Indices 1 2 3 4 5 6 
#
# 1 76.7047 21.9494 24.5145 8.5134 -3.7735 14.0876
# 2 21.9494 81.4640 37.9820 12.2082 -14.7494 27.2161
# 3 24.5145 37.9820 113.7461 18.6224 -13.2152 14.7440
# 4 8.5134 12.2082 18.6224 33.8642 -3.2035 7.5946
# 5 -3.7735 -14.7494 -13.2152 -3.2035 26.6467 7.6936
# 6 14.0876 27.2161 14.7440 7.5946 7.6936 29.5444
#
#
#
# Elastic Compliance Matrix: (Units=1/GPa)
#
#
# Indices 1 2 3 4 5 6 
#
# 1 0.015157 -0.000502 -0.001812 -0.000965 0.002675 -0.006309
# 2 -0.000502 0.027700 -0.002712 0.000486 0.022619 -0.029939
# 3 -0.001812 -0.002712 0.011546 -0.003963 0.004207 -0.002476
# 4 -0.000965 0.000486 -0.003963 0.033984 0.004542 -0.007928
# 5 0.002675 0.022619 0.004207 0.004542 0.065296 -0.042382
# 6 -0.006309 -0.029939 -0.002476 -0.007928 -0.042382 0.078745
#
#
# Mechanical properties :
#
#
# Convention : Reuss Voigt Hill
#
# Bulk Modulus (GPa) = 22.54809 48.97850 35.76330
# Shear Modulus (GPa) = 19.43519 30.50900 24.97209
#
# Velocity S-wave (km/s) = 3.06480 3.83992 3.47404
# Velocity P-wave (km/s) = 4.83957 6.58264 5.77722
#
# Compressibility (1/GPa) = 0.04434966
#
# Stress axis : x y z
#
# Youngs Moduli (GPa) = 65.97448 36.10144 86.60775
#
# Poissons Ratio (x) = 0.01813 0.15697
# Poissons Ratio (y) = 0.03313 0.23490
# Poissons Ratio (z) = 0.11958 0.09791
#
# Static dielectric constant tensor:
#      x y z
#    x 4.006850 0.101290 0.267810 
#    y 0.101290 4.144850 0.139430 
#    z 0.267810 0.139430 3.763800 
# 
# 
# High freq. dielectric constant tensor:
#      x y z
#    x 1.810780 0.021120 0.017310 
#    y 0.021120 1.793220 0.001570 
#    z 0.017310 0.001570 1.804890 
# 
# From -- ./inp_files/338831.got.cif
#   From: 2010.06.25/outbox.cif.g09.slc.cpg/sg2_170_cif.got.tgz:338831.got - 2010.06.27 13:26:56.
