data_PCOD8040168
_publ_section_title
;
Structure prediction by ZEFSAII (Michael W. Deem and Ramdas Pophale) SiO2 
 PCOD8040168
Probable space group: P -1
;
_chemical_formula_sum "Si O2"
_cell_formula_units_Z 12
_cell_length_a 11.295424
_cell_length_b 14.167406
_cell_length_c 18.423701
_cell_angle_alpha 159.333974
_cell_angle_beta 139.695641
_cell_angle_gamma 30.419123
_cell_volume 510.433659
_symmetry_space_group_name_H-M "P -1"
_symmetry_group_IT_number 2
_symmetry_cell_setting 'triclinic'
loop_
_space_group_symop_operation_xyz
x,y,z
-x,-y,-z
loop_
_atom_site_type_symbol
_atom_site_label
_atom_site_fract_x
_atom_site_fract_y
_atom_site_fract_z
Si Si1 0.632383 0.490719 0.232290
Si Si2 0.799864 0.135180 0.443737
Si Si3 0.453966 0.190780 0.724933
Si Si4 0.269599 0.576158 0.531925
Si Si5 0.402870 0.197938 0.865653
Si Si6 0.027132 0.160679 0.279577
O O1 0.522529 0.819589 0.470922
O O2 0.881927 0.149182 0.138999
O O3 0.699796 0.546705 0.225067
O O4 0.434415 0.442812 0.100278
O O5 0.528980 0.485973 0.595526
O O6 0.860645 0.230511 0.466220
O O7 0.787600 0.822511 0.199652
O O8 0.000000 0.000000 0.500000
O O9 0.686968 0.168322 0.826415
O O10 0.311197 0.329022 0.833749
O O11 0.079429 0.841499 0.695236
O O12 0.331530 0.200104 0.298355
O O13 0.000000 0.500000 0.500000
#
# Coordination Sequence:
#
# PCOD8040168 Si02
#       6
#     2   2   2   2   2   2
#     4  10  20  34  55  82 114 146 178 225 268 325
#     4   9  19  36  58  79 108 147 183 229 277 312
#     4  10  21  37  54  83 118 143 177 223 277 323
#     4   9  19  36  56  81 110 139 187 226 267 327
#     4  10  19  38  56  82 111 141 190 224 265 331
#     4  10  18  36  55  77 113 146 173 220 282 321
#
# _framework density 23.509419999999999
#
# number of rings (size 3 to 8) (size 9 to 14) (size 15 to 20)
#    1.000    1.333    3.333    0.500    0.000    6.000 
#    3.000    0.833    0.000    5.000    0.000    0.000 
#    0.000    0.000    0.000    0.000    0.000    0.000 
#
# Total GULP energy -148668.322503 kJ/mol
# GULP energy per Si atom -12389.026875 kJ/mol
# Density = 2.345591 g / cm^3
# Si number density = 23.509420 Si / 1000 Ang^3
#
#
#
# Elastic Constant Matrix: (Units=GPa)
#
#
# Indices 1 2 3 4 5 6 
#
# 1 100.7162 38.6437 1.3735 -3.7519 7.5604 23.1881
# 2 38.6437 116.3315 13.0775 -25.0566 -5.8510 26.9877
# 3 1.3735 13.0775 86.2173 -28.5362 10.4321 12.8903
# 4 -3.7519 -25.0566 -28.5362 29.5251 5.0371 -2.7102
# 5 7.5604 -5.8510 10.4321 5.0371 21.1309 1.7770
# 6 23.1881 26.9877 12.8903 -2.7102 1.7770 39.8138
#
#
#
# Elastic Compliance Matrix: (Units=1/GPa)
#
#
# Indices 1 2 3 4 5 6 
#
# 1 0.013061 -0.003129 0.002758 0.002314 -0.006955 -0.005911
# 2 -0.003129 0.014264 0.003935 0.014713 0.000303 -0.008133
# 3 0.002758 0.003935 0.024261 0.029369 -0.018091 -0.009322
# 4 0.002314 0.014713 0.029369 0.078647 -0.028807 -0.014190
# 5 -0.006955 0.000303 -0.018091 -0.028807 0.065289 0.004828
# 6 -0.005911 -0.008133 -0.009322 -0.014190 0.004828 0.035909
#
#
# Mechanical properties :
#
#
# Convention : Reuss Voigt Hill
#
# Bulk Modulus (GPa) = 17.03191 45.49493 31.26342
# Shear Modulus (GPa) = 20.50236 34.77199 27.63717
#
# Velocity S-wave (km/s) = 2.95632 3.85004 3.43239
# Velocity P-wave (km/s) = 4.34897 6.25759 5.38846
#
# Compressibility (1/GPa) = 0.05871334
#
# Stress axis : x y z
#
# Youngs Moduli (GPa) = 76.56396 70.10667 41.21832
#
# Poissons Ratio (x) = 0.21936 -0.11366
# Poissons Ratio (y) = 0.23956 -0.16219
# Poissons Ratio (z) = -0.21113 -0.27587
#
# Static dielectric constant tensor:
#      x y z
#    x 3.941040 0.198720 0.222340 
#    y 0.198720 4.693400 -0.091140 
#    z 0.222340 -0.091140 3.994270 
# 
# 
# High freq. dielectric constant tensor:
#      x y z
#    x 1.911100 0.026710 0.015790 
#    y 0.026710 1.933380 -0.002160 
#    z 0.015790 -0.002160 1.906920 
# 
# From -- ./inp_files/595696.got.cif
#   From: 2010.06.25/outbox.cif.g09.slc.cpg/sg2_298_cif.got.tgz:595696.got - 2010.06.27 13:26:56.
