data_PCOD8040790
_publ_section_title
;
Structure prediction by ZEFSAII (Michael W. Deem and Ramdas Pophale) SiO2 
 PCOD8040790
Probable space group: P -1
;
_chemical_formula_sum "Si O2"
_cell_formula_units_Z 16
_cell_length_a 9.307956
_cell_length_b 17.286902
_cell_length_c 12.386352
_cell_angle_alpha 132.374280
_cell_angle_beta 131.903638
_cell_angle_gamma 33.280263
_cell_volume 780.665735
_symmetry_space_group_name_H-M "P -1"
_symmetry_group_IT_number 2
_symmetry_cell_setting 'triclinic'
loop_
_space_group_symop_operation_xyz
x,y,z
-x,-y,-z
loop_
_atom_site_type_symbol
_atom_site_label
_atom_site_fract_x
_atom_site_fract_y
_atom_site_fract_z
Si Si1 0.888173 0.572054 0.627558
Si Si2 0.609755 0.485457 0.425155
Si Si3 0.109109 0.093562 0.820518
Si Si4 0.639486 0.606222 0.166058
Si Si5 0.808085 0.842048 0.624604
Si Si6 0.710070 0.873207 0.840662
Si Si7 0.329302 0.583894 0.158018
Si Si8 0.691529 0.084300 0.652909
O O1 0.612804 0.611172 0.540382
O O2 0.857531 0.705949 0.757155
O O3 0.000000 0.500000 0.500000
O O4 0.078234 0.454910 0.708425
O O5 0.500000 0.500000 0.500000
O O6 0.410904 0.527151 0.268417
O O7 0.909506 0.325139 0.405394
O O8 0.958752 0.247577 0.831637
O O9 0.937460 0.050532 0.682379
O O10 0.392231 0.973474 0.789615
O O11 0.160254 0.101991 0.979991
O O12 0.542345 0.571909 0.186471
O O13 0.433309 0.779960 0.201751
O O14 0.685700 0.524861 0.004081
O O15 0.773702 0.901222 0.783595
O O16 0.551378 0.861627 0.496624
O O17 0.810290 0.939956 0.638525
#
# Coordination Sequence:
#
# PCOD8040790 Si02
#       8
#     2   2   2   2   2   2   2   2
#     4  12  20  40  68  94 121 166 217 264 316 373
#     4  12  27  42  62  96 131 167 210 266 326 376
#     4  10  24  42  65  97 127 165 214 271 314 374
#     4  10  18  38  67  93 117 162 220 255 310 374
#     4  11  24  43  61  91 132 172 209 260 321 388
#     4  11  23  42  66  96 129 163 214 268 320 377
#     4  10  21  39  65  94 123 161 212 266 306 378
#     4  10  23  40  63  94 127 171 210 258 321 383
#
# _framework density 20.495325999999999
#
# number of rings (size 3 to 8) (size 9 to 14) (size 15 to 20)
#    0.000    1.250    5.000    0.000    7.000    3.000 
#    0.000    0.625    0.000    0.000    0.000    0.000 
#    0.000    0.000    0.000    0.000    0.000    0.000 
#
# Total GULP energy -198317.704258 kJ/mol
# GULP energy per Si atom -12394.856516 kJ/mol
# Density = 2.044868 g / cm^3
# Si number density = 20.495326 Si / 1000 Ang^3
#
#
#
# Elastic Constant Matrix: (Units=GPa)
#
#
# Indices 1 2 3 4 5 6 
#
# 1 76.6420 21.2071 39.8627 -5.0071 -11.0636 -7.1090
# 2 21.2071 98.4016 25.4120 -12.7894 -1.9646 -5.9857
# 3 39.8627 25.4120 97.0960 -13.8176 -10.7435 -4.1173
# 4 -5.0071 -12.7894 -13.8176 32.6174 5.6124 1.2636
# 5 -11.0636 -1.9646 -10.7435 5.6124 35.4234 1.8743
# 6 -7.1090 -5.9857 -4.1173 1.2636 1.8743 29.1852
#
#
#
# Elastic Compliance Matrix: (Units=1/GPa)
#
#
# Indices 1 2 3 4 5 6 
#
# 1 0.017627 -0.002108 -0.006394 -0.001548 0.003546 0.002799
# 2 -0.002108 0.011604 -0.001720 0.003644 -0.001195 0.001543
# 3 -0.006394 -0.001720 0.014117 0.004064 0.001555 -0.000195
# 4 -0.001548 0.003644 0.004064 0.034352 -0.004478 -0.000256
# 5 0.003546 -0.001195 0.001555 -0.004478 0.030501 -0.000927
# 6 0.002799 0.001543 -0.000195 -0.000256 -0.000927 0.035305
#
#
# Mechanical properties :
#
#
# Convention : Reuss Voigt Hill
#
# Bulk Modulus (GPa) = 43.66081 49.45592 46.55836
# Shear Modulus (GPa) = 29.13998 31.82238 30.48118
#
# Velocity S-wave (km/s) = 3.77475 3.94466 3.86064
# Velocity P-wave (km/s) = 6.35196 6.70297 6.52983
#
# Compressibility (1/GPa) = 0.02290384
#
# Stress axis : x y z
#
# Youngs Moduli (GPa) = 56.73092 86.17355 70.83834
#
# Poissons Ratio (x) = 0.18163 0.45297
# Poissons Ratio (y) = 0.11957 0.12185
# Poissons Ratio (z) = 0.36276 0.14823
#
# Static dielectric constant tensor:
#      x y z
#    x 1.621940 -1.379420 -1.524680 
#    y -1.379420 2.843230 -1.277260 
#    z -1.524680 -1.277260 2.378980 
# 
# 
# High freq. dielectric constant tensor:
#      x y z
#    x 1.772970 -0.000240 0.008430 
#    y -0.000240 1.812730 -0.005050 
#    z 0.008430 -0.005050 1.812010 
# 
# From -- ./inp_files/391050.got.cif
#   From: 2010.06.25/outbox.cif.g09.slc.cpg/sg2_196_cif.got.tgz:391050.got - 2010.06.27 13:26:56.
