data_PCOD8040886
_publ_section_title
;
Structure prediction by ZEFSAII (Michael W. Deem and Ramdas Pophale) SiO2 
 PCOD8040886
Probable space group: P -1
;
_chemical_formula_sum "Si O2"
_cell_formula_units_Z 16
_cell_length_a 9.971540
_cell_length_b 25.591462
_cell_length_c 10.033213
_cell_angle_alpha 154.882498
_cell_angle_beta 123.438432
_cell_angle_gamma 50.887250
_cell_volume 841.676103
_symmetry_space_group_name_H-M "P -1"
_symmetry_group_IT_number 2
_symmetry_cell_setting 'triclinic'
loop_
_space_group_symop_operation_xyz
x,y,z
-x,-y,-z
loop_
_atom_site_type_symbol
_atom_site_label
_atom_site_fract_x
_atom_site_fract_y
_atom_site_fract_z
Si Si1 0.693972 0.493802 0.585790
Si Si2 0.754030 0.748094 0.809973
Si Si3 0.546666 0.021674 0.222809
Si Si4 0.015687 0.222815 0.756885
Si Si5 0.183558 0.511611 0.648288
Si Si6 0.980581 0.720323 0.620489
Si Si7 0.777150 0.744537 0.301122
Si Si8 0.093237 0.988675 0.664030
O O1 0.500000 0.500000 0.500000
O O2 0.744635 0.456626 0.375684
O O3 0.819479 0.378062 0.482684
O O4 0.713767 0.631126 0.951029
O O5 0.690111 0.629627 0.546592
O O6 0.867096 0.693020 0.612474
O O7 0.869314 0.780438 0.059167
O O8 0.591460 0.883007 0.006140
O O9 0.392188 0.131421 0.467056
O O10 0.707468 0.067890 0.402940
O O11 0.500000 0.000000 0.000000
O O12 0.943813 0.106051 0.466501
O O13 0.127069 0.204182 0.641582
O O14 0.849957 0.362820 0.982407
O O15 0.000000 0.500000 0.500000
O O16 0.907181 0.691678 0.374037
O O17 0.965642 0.871429 0.969453
O O18 0.000000 0.000000 0.500000
#
# Coordination Sequence:
#
# PCOD8040886 Si02
#       8
#     2   2   2   2   2   2   2   2
#     4  12  25  40  67 100 127 161 217 274 308 380
#     4  10  18  39  67  85 120 174 211 246 311 386
#     4  11  23  42  62  97 128 166 209 267 324 370
#     4  11  21  39  68  95 122 174 219 256 311 385
#     4  10  18  40  63  90 121 166 212 254 312 375
#     4  11  22  43  65  92 131 171 207 258 329 380
#     4  12  25  41  66  97 128 166 214 265 325 373
#     4  11  21  40  69  89 123 179 215 249 312 389
#
# _framework density 19.009687
#
# number of rings (size 3 to 8) (size 9 to 14) (size 15 to 20)
#    0.000    1.000   10.000    0.375    3.500    1.000 
#    2.250    0.000    0.000    2.250    0.000    0.000 
#    0.000    0.000    0.000    0.000    0.000    0.000 
#
# Total GULP energy -198341.914847 kJ/mol
# GULP energy per Si atom -12396.369678 kJ/mol
# Density = 1.896642 g / cm^3
# Si number density = 19.009687 Si / 1000 Ang^3
#
#
#
# Elastic Constant Matrix: (Units=GPa)
#
#
# Indices 1 2 3 4 5 6 
#
# 1 138.5548 60.4446 50.2641 6.2439 -8.8321 2.9360
# 2 60.4446 108.6390 37.7762 14.5970 -0.7399 -1.2856
# 3 50.2641 37.7762 94.7726 19.2366 -5.4413 0.6373
# 4 6.2439 14.5970 19.2366 45.0917 3.4727 -2.3645
# 5 -8.8321 -0.7399 -5.4413 3.4727 34.4063 5.1651
# 6 2.9360 -1.2856 0.6373 -2.3645 5.1651 32.1678
#
#
#
# Elastic Compliance Matrix: (Units=1/GPa)
#
#
# Indices 1 2 3 4 5 6 
#
# 1 0.010894 -0.004873 -0.004021 0.001553 0.002099 -0.001332
# 2 -0.004873 0.013008 -0.002178 -0.002459 -0.001221 0.001023
# 3 -0.004021 -0.002178 0.014720 -0.005199 0.001878 -0.000695
# 4 0.001553 -0.002459 -0.005199 0.025355 -0.003376 0.002269
# 5 0.002099 -0.001221 0.001878 -0.003376 0.031042 -0.005510
# 6 -0.001332 0.001023 -0.000695 0.002269 -0.005510 0.032315
#
#
# Mechanical properties :
#
#
# Convention : Reuss Voigt Hill
#
# Bulk Modulus (GPa) = 60.69011 70.99290 65.84150
# Shear Modulus (GPa) = 32.26409 35.23193 33.74801
#
# Velocity S-wave (km/s) = 4.12423 4.30975 4.21801
# Velocity P-wave (km/s) = 7.39420 7.88619 7.64415
#
# Compressibility (1/GPa) = 0.01647715
#
# Stress axis : x y z
#
# Youngs Moduli (GPa) = 91.79280 76.87748 67.93367
#
# Poissons Ratio (x) = 0.37463 0.27317
# Poissons Ratio (y) = 0.44732 0.14797
# Poissons Ratio (z) = 0.36911 0.16745
#
# Static dielectric constant tensor:
#      x y z
#    x 3.415410 0.375490 0.301130 
#    y 0.375490 3.760170 0.351470 
#    z 0.301130 0.351470 3.882040 
# 
# 
# High freq. dielectric constant tensor:
#      x y z
#    x 1.727880 0.013630 -0.004070 
#    y 0.013630 1.740030 0.014770 
#    z -0.004070 0.014770 1.746340 
# 
# From -- ./inp_files/226800.got.cif
#   From: 2010.06.25/outbox.cif.g09.slc.cpg/sg2_114_cif.got.tgz:226800.got - 2010.06.27 13:26:56.
