data_PCOD8040414
_publ_section_title
;
Structure prediction by ZEFSAII (Michael W. Deem and Ramdas Pophale) SiO2 
 PCOD8040414
Probable space group: P -1
;
_chemical_formula_sum "Si O2"
_cell_formula_units_Z 16
_cell_length_a 14.837915
_cell_length_b 8.396447
_cell_length_c 9.695013
_cell_angle_alpha 99.227871
_cell_angle_beta 107.365609
_cell_angle_gamma 40.832290
_cell_volume 749.599508
_symmetry_space_group_name_H-M "P -1"
_symmetry_group_IT_number 2
_symmetry_cell_setting 'triclinic'
loop_
_space_group_symop_operation_xyz
x,y,z
-x,-y,-z
loop_
_atom_site_type_symbol
_atom_site_label
_atom_site_fract_x
_atom_site_fract_y
_atom_site_fract_z
Si Si1 0.946742 0.622392 0.247463
Si Si2 0.756840 0.616174 0.288038
Si Si3 0.303585 0.466082 0.271749
Si Si4 0.359144 0.480691 0.996788
Si Si5 0.575310 0.043811 0.457781
Si Si6 0.319038 0.889175 0.968295
Si Si7 0.093041 0.735873 0.451189
Si Si8 0.251776 0.164477 0.235234
O O1 0.901181 0.524168 0.299270
O O2 0.995625 0.703453 0.381267
O O3 0.078967 0.394442 0.181121
O O4 0.812872 0.854904 0.129692
O O5 0.695345 0.599339 0.127818
O O6 0.786859 0.457665 0.407154
O O7 0.642833 0.894595 0.325057
O O8 0.452755 0.329925 0.395652
O O9 0.168619 0.690791 0.335840
O O10 0.311767 0.261764 0.232204
O O11 0.289492 0.562606 0.128428
O O12 0.303470 0.715960 0.932201
O O13 0.531516 0.252972 0.054284
O O14 0.500000 0.000000 0.500000
O O15 0.697669 0.955700 0.604211
O O16 0.318070 0.946504 0.134351
O O17 0.000000 0.000000 0.500000
#
# Coordination Sequence:
#
# PCOD8040414 Si02
#       8
#     2   2   2   2   2   2   2   2
#     4  11  23  41  64  97 126 168 221 258 318 376
#     4  12  22  41  70  93 127 171 219 262 310 382
#     4  10  21  41  64  97 123 169 217 258 317 378
#     4  11  25  42  64  96 130 170 213 261 325 380
#     4  10  18  36  65  93 120 162 216 264 305 362
#     4  11  24  42  63  93 135 168 209 267 324 378
#     4  11  24  42  65  94 138 170 205 263 325 384
#     4  10  21  39  64  92 131 161 215 267 312 372
#
# _framework density 21.344730999999999
#
# number of rings (size 3 to 8) (size 9 to 14) (size 15 to 20)
#    0.000    1.250    3.750    4.500    0.000    3.500 
#    0.000    4.375    0.000    0.000    0.000    0.000 
#    0.000    0.000    0.000    0.000    0.000    0.000 
#
# Total GULP energy -198394.100940 kJ/mol
# GULP energy per Si atom -12399.631309 kJ/mol
# Density = 2.129615 g / cm^3
# Si number density = 21.344731 Si / 1000 Ang^3
#
#
#
# Elastic Constant Matrix: (Units=GPa)
#
#
# Indices 1 2 3 4 5 6 
#
# 1 92.3032 29.2282 38.6657 2.8527 -7.9258 -17.6100
# 2 29.2282 84.7185 36.2041 15.6497 5.2144 -16.1950
# 3 38.6657 36.2041 118.4091 3.9472 -9.6449 -10.7950
# 4 2.8527 15.6497 3.9472 31.5088 -4.9245 3.4334
# 5 -7.9258 5.2144 -9.6449 -4.9245 26.9598 3.3196
# 6 -17.6100 -16.1950 -10.7950 3.4334 3.3196 24.8710
#
#
#
# Elastic Compliance Matrix: (Units=1/GPa)
#
#
# Indices 1 2 3 4 5 6 
#
# 1 0.014488 -0.002532 -0.003102 0.000021 0.002795 0.006887
# 2 -0.002532 0.019685 -0.004501 -0.011824 -0.009801 0.012012
# 3 -0.003102 -0.004501 0.011018 0.001956 0.004406 -0.001203
# 4 0.000021 -0.011824 0.001956 0.040803 0.012181 -0.014095
# 5 0.002795 -0.009801 0.004406 0.012181 0.044862 -0.010160
# 6 0.006887 0.012012 -0.001203 -0.014095 -0.010160 0.055685
#
#
# Mechanical properties :
#
#
# Convention : Reuss Voigt Hill
#
# Bulk Modulus (GPa) = 40.12630 55.95852 48.04241
# Shear Modulus (GPa) = 23.24298 29.42345 26.33321
#
# Velocity S-wave (km/s) = 3.30348 3.71683 3.51623
# Velocity P-wave (km/s) = 5.77846 6.68530 6.24835
#
# Compressibility (1/GPa) = 0.02492131
#
# Stress axis : x y z
#
# Youngs Moduli (GPa) = 69.02026 50.80132 90.75734
#
# Poissons Ratio (x) = 0.12864 0.28153
# Poissons Ratio (y) = 0.17478 0.40848
# Poissons Ratio (z) = 0.21410 0.22865
#
# Static dielectric constant tensor:
#      x y z
#    x 3.875510 -0.238720 -0.006680 
#    y -0.238720 3.870930 -0.094700 
#    z -0.006680 -0.094700 4.097410 
# 
# 
# High freq. dielectric constant tensor:
#      x y z
#    x 1.824390 -0.020900 -0.002290 
#    y -0.020900 1.835230 -0.001260 
#    z -0.002290 -0.001260 1.844470 
# 
# From -- ./inp_files/208955.got.cif
#   From: 2010.06.25/outbox.cif.g09.slc.cpg/sg2_105_cif.got.tgz:208955.got - 2010.06.27 13:26:56.
