data_PCOD8040710
_publ_section_title
;
Structure prediction by ZEFSAII (Michael W. Deem and Ramdas Pophale) SiO2 
 PCOD8040710
Probable space group: P -1
;
_chemical_formula_sum "Si O2"
_cell_formula_units_Z 16
_cell_length_a 11.640903
_cell_length_b 17.626129
_cell_length_c 10.195689
_cell_angle_alpha 122.265637
_cell_angle_beta 50.038831
_cell_angle_gamma 149.654144
_cell_volume 808.975049
_symmetry_space_group_name_H-M "P -1"
_symmetry_group_IT_number 2
_symmetry_cell_setting 'triclinic'
loop_
_space_group_symop_operation_xyz
x,y,z
-x,-y,-z
loop_
_atom_site_type_symbol
_atom_site_label
_atom_site_fract_x
_atom_site_fract_y
_atom_site_fract_z
Si Si1 0.930787 0.094243 0.533732
Si Si2 0.724510 0.437011 0.504886
Si Si3 0.667572 0.591235 0.587214
Si Si4 0.854168 0.856639 0.330753
Si Si5 0.435556 0.540931 0.975421
Si Si6 0.497231 0.906150 0.495707
Si Si7 0.004364 0.602350 0.707948
Si Si8 0.243163 0.144656 0.873898
O O1 0.126340 0.234473 0.422268
O O2 0.990375 0.139941 0.688287
O O3 0.980116 0.013579 0.401656
O O4 0.655349 0.993263 0.595685
O O5 0.817373 0.570915 0.487120
O O6 0.434786 0.281830 0.539489
O O7 0.881215 0.428050 0.328493
O O8 0.775277 0.465049 0.650475
O O9 0.500000 0.500000 0.500000
O O10 0.488478 0.524926 0.780355
O O11 0.858162 0.840336 0.157159
O O12 0.577961 0.705282 0.033170
O O13 0.132726 0.407482 0.086427
O O14 0.500000 0.500000 0.000000
O O15 0.211641 0.753760 0.609760
O O16 0.608517 0.873887 0.303483
O O17 0.500000 0.000000 0.500000
O O18 0.000000 0.000000 0.000000
#
# Coordination Sequence:
#
# PCOD8040710 Si02
#       8
#     2   2   2   2   2   2   2   2
#     4  10  21  36  62  90 122 167 215 256 322 391
#     4  11  19  39  63  92 122 174 207 266 323 384
#     4  12  24  40  64  96 129 166 223 275 326 392
#     4  10  18  38  61  90 123 168 214 255 321 388
#     4  12  24  39  64 100 125 171 224 275 324 383
#     4  11  23  40  63 100 134 175 215 271 333 394
#     4  11  21  38  66  90 132 164 224 267 328 385
#     4  11  22  39  64  99 131 164 223 276 320 380
#
# _framework density 19.778113999999999
#
# number of rings (size 3 to 8) (size 9 to 14) (size 15 to 20)
#    0.000    1.000    6.250    3.000    1.750    0.000 
#    0.000    0.625    0.000    4.500    0.000    0.000 
#    0.000    0.000    0.000    0.000    0.000    0.000 
#
# Total GULP energy -198249.367147 kJ/mol
# GULP energy per Si atom -12390.585447 kJ/mol
# Density = 1.973310 g / cm^3
# Si number density = 19.778114 Si / 1000 Ang^3
#
#
#
# Elastic Constant Matrix: (Units=GPa)
#
#
# Indices 1 2 3 4 5 6 
#
# 1 141.5914 42.8252 46.9871 0.1010 8.2315 -6.8949
# 2 42.8252 104.0264 39.1945 -14.4333 -7.1815 -9.0047
# 3 46.9871 39.1945 102.1476 -15.2825 2.5882 -3.3059
# 4 0.1010 -14.4333 -15.2825 30.2381 4.6580 6.2405
# 5 8.2315 -7.1815 2.5882 4.6580 27.7973 1.8500
# 6 -6.8949 -9.0047 -3.3059 6.2405 1.8500 32.8161
#
#
#
# Elastic Compliance Matrix: (Units=1/GPa)
#
#
# Indices 1 2 3 4 5 6 
#
# 1 0.009384 -0.003042 -0.003497 -0.003135 -0.002816 0.001540
# 2 -0.003042 0.012937 -0.003051 0.003711 0.003793 0.001684
# 3 -0.003497 -0.003051 0.013462 0.005908 -0.001914 -0.001232
# 4 -0.003135 0.003711 0.005908 0.039910 -0.004928 -0.006357
# 5 -0.002816 0.003793 -0.001914 -0.004928 0.038859 -0.000997
# 6 0.001540 0.001684 -0.001232 -0.006357 -0.000997 0.032399
#
#
# Mechanical properties :
#
#
# Convention : Reuss Voigt Hill
#
# Bulk Modulus (GPa) = 60.23098 67.30877 63.76987
# Shear Modulus (GPa) = 29.12634 32.75422 30.94028
#
# Velocity S-wave (km/s) = 3.84168 4.07392 3.95950
# Velocity P-wave (km/s) = 7.08502 7.49899 7.29494
#
# Compressibility (1/GPa) = 0.01660275
#
# Stress axis : x y z
#
# Youngs Moduli (GPa) = 106.56408 77.29576 74.28402
#
# Poissons Ratio (x) = 0.23510 0.25979
# Poissons Ratio (y) = 0.32412 0.22667
# Poissons Ratio (z) = 0.37269 0.23586
#
# Static dielectric constant tensor:
#      x y z
#    x 4.028900 -0.056890 0.166340 
#    y -0.056890 4.005890 -0.056510 
#    z 0.166340 -0.056510 3.547120 
# 
# 
# High freq. dielectric constant tensor:
#      x y z
#    x 1.775350 -0.008070 0.010470 
#    y -0.008070 1.792720 -0.008470 
#    z 0.010470 -0.008470 1.734360 
# 
# From -- ./inp_files/258923.got.cif
#   From: 2010.06.25/outbox.cif.g09.slc.cpg/sg2_130_cif.got.tgz:258923.got - 2010.06.27 13:26:56.
