data_PCOD8040695
_publ_section_title
;
Structure prediction by ZEFSAII (Michael W. Deem and Ramdas Pophale) SiO2 
 PCOD8040695
Probable space group: P -1
;
_chemical_formula_sum "Si O2"
_cell_formula_units_Z 12
_cell_length_a 9.911302
_cell_length_b 9.334701
_cell_length_c 15.784922
_cell_angle_alpha 49.854932
_cell_angle_beta 71.502687
_cell_angle_gamma 112.053089
_cell_volume 635.069179
_symmetry_space_group_name_H-M "P -1"
_symmetry_group_IT_number 2
_symmetry_cell_setting 'triclinic'
loop_
_space_group_symop_operation_xyz
x,y,z
-x,-y,-z
loop_
_atom_site_type_symbol
_atom_site_label
_atom_site_fract_x
_atom_site_fract_y
_atom_site_fract_z
Si Si1 0.985130 0.377422 0.137512
Si Si2 0.137317 0.565619 0.698802
Si Si3 0.580073 0.810755 0.534581
Si Si4 0.290759 0.800331 0.185350
Si Si5 0.579959 0.396464 0.978220
Si Si6 0.749006 0.649543 0.661434
O O1 0.009220 0.561732 0.135542
O O2 0.189219 0.437329 0.083429
O O3 0.734203 0.002630 0.344085
O O4 0.000000 0.500000 0.000000
O O5 0.301623 0.553764 0.670807
O O6 0.945170 0.346741 0.746782
O O7 0.314828 0.932807 0.513316
O O8 0.599113 0.623077 0.639102
O O9 0.219301 0.512572 0.334147
O O10 0.500000 0.000000 0.000000
O O11 0.379346 0.019986 0.163384
O O12 0.615840 0.480552 0.840666
O O13 0.500000 0.500000 0.000000
O O14 0.000000 0.000000 0.500000
#
# Coordination Sequence:
#
# PCOD8040695 Si02
#       6
#     2   2   2   2   2   2
#     4  10  19  35  57  82 120 150 185 234 297 336
#     4   9  17  33  59  86 111 147 198 226 278 341
#     4   9  18  32  57  92 107 150 197 228 282 340
#     4  10  18  38  60  84 114 152 196 238 274 346
#     4  11  24  37  58  88 116 149 193 240 296 328
#     4  11  17  36  65  81 112 150 197 234 274 345
#
# _framework density 18.895579999999999
#
# number of rings (size 3 to 8) (size 9 to 14) (size 15 to 20)
#    1.000    1.000    6.667    0.000    2.333    0.000 
#    0.000    5.833    0.000    2.000    0.000    0.000 
#    0.000    0.000    0.000    0.000    0.000    0.000 
#
# Total GULP energy -148666.399365 kJ/mol
# GULP energy per Si atom -12388.866614 kJ/mol
# Density = 1.885257 g / cm^3
# Si number density = 18.895580 Si / 1000 Ang^3
#
#
#
# Elastic Constant Matrix: (Units=GPa)
#
#
# Indices 1 2 3 4 5 6 
#
# 1 195.2671 47.9893 55.4009 2.9108 -5.9885 -15.4033
# 2 47.9893 82.0827 30.7047 -12.6277 3.8721 -22.6964
# 3 55.4009 30.7047 60.7293 -7.2789 6.3394 -8.8824
# 4 2.9108 -12.6277 -7.2789 31.8739 5.8905 7.4497
# 5 -5.9885 3.8721 6.3394 5.8905 40.6841 1.2712
# 6 -15.4033 -22.6964 -8.8824 7.4497 1.2712 21.3162
#
#
#
# Elastic Compliance Matrix: (Units=1/GPa)
#
#
# Indices 1 2 3 4 5 6 
#
# 1 0.007844 -0.002507 -0.006458 -0.004093 0.002943 0.001563
# 2 -0.002507 0.021054 -0.005086 0.003861 -0.002680 0.017297
# 3 -0.006458 -0.005086 0.026036 0.005718 -0.005323 -0.000913
# 4 -0.004093 0.003861 0.005718 0.038077 -0.007082 -0.009349
# 5 0.002943 -0.002680 -0.005323 -0.007082 0.027188 -0.002091
# 6 0.001563 0.017297 -0.000913 -0.009349 -0.002091 0.069471
#
#
# Mechanical properties :
#
#
# Convention : Reuss Voigt Hill
#
# Bulk Modulus (GPa) = 37.26582 67.36323 52.31453
# Shear Modulus (GPa) = 22.05413 32.37377 27.21395
#
# Velocity S-wave (km/s) = 3.42008 4.14369 3.79915
# Velocity P-wave (km/s) = 5.94649 7.65645 6.85500
#
# Compressibility (1/GPa) = 0.02683424
#
# Stress axis : x y z
#
# Youngs Moduli (GPa) = 127.48635 47.49714 38.40791
#
# Poissons Ratio (x) = 0.11906 0.24802
# Poissons Ratio (y) = 0.31956 0.19533
# Poissons Ratio (z) = 0.82326 0.24156
#
# Static dielectric constant tensor:
#      x y z
#    x 3.532860 -0.198680 0.009640 
#    y -0.198680 3.384390 -0.378450 
#    z 0.009640 -0.378450 3.595430 
# 
# 
# High freq. dielectric constant tensor:
#      x y z
#    x 1.749170 -0.009410 -0.008140 
#    y -0.009410 1.689730 -0.011050 
#    z -0.008140 -0.011050 1.719610 
# 
# From -- ./inp_files/554019.got.cif
#   From: 2010.06.25/outbox.cif.g09.slc.cpg/sg2_278_cif.got.tgz:554019.got - 2010.06.27 13:26:56.
