data_PCOD8040873
_publ_section_title
;
Structure prediction by ZEFSAII (Michael W. Deem and Ramdas Pophale) SiO2 
 PCOD8040873
Probable space group: P -1
;
_chemical_formula_sum "Si O2"
_cell_formula_units_Z 16
_cell_length_a 15.413005
_cell_length_b 12.666152
_cell_length_c 8.873777
_cell_angle_alpha 78.362076
_cell_angle_beta 30.452490
_cell_angle_gamma 66.671646
_cell_volume 769.078564
_symmetry_space_group_name_H-M "P -1"
_symmetry_group_IT_number 2
_symmetry_cell_setting 'triclinic'
loop_
_space_group_symop_operation_xyz
x,y,z
-x,-y,-z
loop_
_atom_site_type_symbol
_atom_site_label
_atom_site_fract_x
_atom_site_fract_y
_atom_site_fract_z
Si Si1 0.505131 0.529736 0.732494
Si Si2 0.095558 0.679994 0.174044
Si Si3 0.344929 0.668693 0.217415
Si Si4 0.120104 0.493227 0.971290
Si Si5 0.951806 0.067043 0.897047
Si Si6 0.695113 0.970104 0.134721
Si Si7 0.053166 0.295352 0.281990
Si Si8 0.197742 0.946141 0.314942
O O1 0.558782 0.394103 0.750903
O O2 0.665546 0.531876 0.382834
O O3 0.305714 0.578471 0.930839
O O4 0.490683 0.611334 0.877044
O O5 0.122934 0.789520 0.024367
O O6 0.955773 0.722287 0.518058
O O7 0.016345 0.619377 0.183723
O O8 0.278313 0.809008 0.279836
O O9 0.161346 0.644004 0.477349
O O10 0.140696 0.386211 0.083833
O O11 0.000000 0.500000 0.000000
O O12 0.150638 0.018743 0.520229
O O13 0.799498 0.032192 0.056789
O O14 0.000000 0.000000 0.000000
O O15 0.500000 0.000000 0.500000
O O16 0.824521 0.828673 0.954628
O O17 0.647075 0.033387 0.023039
O O18 0.000000 0.000000 0.500000
#
# Coordination Sequence:
#
# PCOD8040873 Si02
#       8
#     2   2   2   2   2   2   2   2
#     4  10  22  40  63  97 126 170 219 271 310 386
#     4  11  25  46  65  94 134 176 224 263 328 399
#     4  10  19  37  66  93 130 169 220 258 319 392
#     4  12  26  40  66  96 132 173 219 276 328 378
#     4  11  24  42  70  96 126 172 224 268 324 402
#     4  11  23  41  69 100 130 168 217 274 334 389
#     4  11  21  42  67  92 135 174 215 263 336 394
#     4  10  18  39  65  94 123 173 214 259 323 399
#
# _framework density 20.804116
#
# number of rings (size 3 to 8) (size 9 to 14) (size 15 to 20)
#    0.000    1.250    5.000    3.000    7.000    0.000 
#    0.000    0.625    0.000    0.000    0.000    0.000 
#    0.000    0.000    0.000    0.000    0.000    0.000 
#
# Total GULP energy -198315.893689 kJ/mol
# GULP energy per Si atom -12394.743356 kJ/mol
# Density = 2.075677 g / cm^3
# Si number density = 20.804116 Si / 1000 Ang^3
#
#
#
# Elastic Constant Matrix: (Units=GPa)
#
#
# Indices 1 2 3 4 5 6 
#
# 1 97.4849 58.2830 34.3831 -3.8669 20.7738 -5.3823
# 2 58.2830 180.6394 43.9575 -2.3076 7.8982 -8.8663
# 3 34.3831 43.9575 119.1774 -10.7149 24.9718 -6.7870
# 4 -3.8669 -2.3076 -10.7149 35.0438 -6.5587 4.4775
# 5 20.7738 7.8982 24.9718 -6.5587 21.8089 -1.0526
# 6 -5.3823 -8.8663 -6.7870 4.4775 -1.0526 40.9055
#
#
#
# Elastic Compliance Matrix: (Units=1/GPa)
#
#
# Indices 1 2 3 4 5 6 
#
# 1 0.015897 -0.004472 -0.000126 -0.001259 -0.013715 0.000887
# 2 -0.004472 0.007384 -0.002278 -0.000008 0.004226 0.000744
# 3 -0.000126 -0.002278 0.012034 0.001048 -0.012468 0.001051
# 4 -0.001259 -0.000008 0.001048 0.030824 0.009121 -0.003133
# 5 -0.013715 0.004226 -0.012468 0.009121 0.074307 -0.002043
# 6 0.000887 0.000744 0.001051 -0.003133 -0.002043 0.025189
#
#
# Mechanical properties :
#
#
# Convention : Reuss Voigt Hill
#
# Bulk Modulus (GPa) = 46.37050 74.50546 60.43798
# Shear Modulus (GPa) = 26.79888 36.93018 31.86453
#
# Velocity S-wave (km/s) = 3.59298 4.21781 3.91787
# Velocity P-wave (km/s) = 6.28889 7.72078 7.04133
#
# Compressibility (1/GPa) = 0.02156543
#
# Stress axis : x y z
#
# Youngs Moduli (GPa) = 62.90298 135.41937 83.09869
#
# Poissons Ratio (x) = 0.60553 0.01048
# Poissons Ratio (y) = 0.28127 0.18926
# Poissons Ratio (z) = 0.00794 0.30842
#
# Static dielectric constant tensor:
#      x y z
#    x 3.900550 -0.161670 0.467520 
#    y -0.161670 3.913630 -0.087670 
#    z 0.467520 -0.087670 4.096330 
# 
# 
# High freq. dielectric constant tensor:
#      x y z
#    x 1.793320 -0.009910 0.031140 
#    y -0.009910 1.827900 0.000190 
#    z 0.031140 0.000190 1.816050 
# 
# From -- ./inp_files/305093.got.cif
#   From: 2010.06.25/outbox.cif.g09.slc.cpg/sg2_153_cif.got.tgz:305093.got - 2010.06.27 13:26:56.
