data_PCOD8040146
_publ_section_title
;
Structure prediction by ZEFSAII (Michael W. Deem and Ramdas Pophale) SiO2 
 PCOD8040146
Probable space group: P -1
;
_chemical_formula_sum "Si O2"
_cell_formula_units_Z 16
_cell_length_a 13.959842
_cell_length_b 11.427202
_cell_length_c 14.022838
_cell_angle_alpha 49.322181
_cell_angle_beta 149.076135
_cell_angle_gamma 142.220476
_cell_volume 701.805887
_symmetry_space_group_name_H-M "P -1"
_symmetry_group_IT_number 2
_symmetry_cell_setting 'triclinic'
loop_
_space_group_symop_operation_xyz
x,y,z
-x,-y,-z
loop_
_atom_site_type_symbol
_atom_site_label
_atom_site_fract_x
_atom_site_fract_y
_atom_site_fract_z
Si Si1 0.282779 0.801495 0.960687
Si Si2 0.012050 0.438291 0.439664
Si Si3 0.602484 0.336832 0.030833
Si Si4 0.866297 0.809530 0.548284
Si Si5 0.441523 0.518577 0.685739
Si Si6 0.934576 0.912990 0.884635
Si Si7 0.199351 0.977243 0.464822
Si Si8 0.649801 0.055445 0.863558
O O1 0.310411 0.654101 0.008168
O O2 0.039592 0.757982 0.749257
O O3 0.294042 0.786725 0.092517
O O4 0.500000 0.000000 0.000000
O O5 0.263733 0.568409 0.536198
O O6 0.000000 0.500000 0.500000
O O7 0.839210 0.466393 0.221917
O O8 0.941200 0.222065 0.490286
O O9 0.432118 0.133252 0.044869
O O10 0.468437 0.431807 0.852880
O O11 0.650364 0.629555 0.402634
O O12 0.781793 0.855298 0.547550
O O13 0.000000 0.000000 0.500000
O O14 0.684558 0.714199 0.765201
O O15 0.925870 0.051135 0.728427
O O16 0.126714 0.880582 0.039442
O O17 0.000000 0.000000 0.000000
O O18 0.456082 0.029997 0.640855
#
# Coordination Sequence:
#
# PCOD8040146 Si02
#       8
#     2   2   2   2   2   2   2   2
#     4  10  18  35  68 103 137 164 218 287 348 421
#     4  11  25  42  70 105 132 176 243 295 343 398
#     4  10  21  41  70 103 131 171 230 298 351 395
#     4  12  19  41  73 109 140 166 228 298 367 403
#     4  12  26  43  70 106 142 182 229 290 347 416
#     4  12  30  47  64  96 146 201 238 269 338 426
#     4  11  24  46  75  98 140 185 226 298 351 409
#     4  10  21  44  67  99 132 182 228 281 353 404
#
# _framework density 22.798327
#
# number of rings (size 3 to 8) (size 9 to 14) (size 15 to 20)
#    0.000    1.000    3.750    4.500    5.250    2.500 
#    0.000    1.250    0.000    0.000    0.000    0.000 
#    0.000    0.000    0.000    0.000    0.000    0.000 
#
# Total GULP energy -198311.242638 kJ/mol
# GULP energy per Si atom -12394.452665 kJ/mol
# Density = 2.274644 g / cm^3
# Si number density = 22.798327 Si / 1000 Ang^3
#
#
#
# Elastic Constant Matrix: (Units=GPa)
#
#
# Indices 1 2 3 4 5 6 
#
# 1 127.1172 17.0889 32.8504 28.1421 2.8083 -11.6134
# 2 17.0889 50.7714 15.5922 20.4268 8.3815 -1.1618
# 3 32.8504 15.5922 139.4292 24.0600 -1.9503 4.3293
# 4 28.1421 20.4268 24.0600 29.1658 8.9492 -1.0699
# 5 2.8083 8.3815 -1.9503 8.9492 41.8161 9.5750
# 6 -11.6134 -1.1618 4.3293 -1.0699 9.5750 25.2256
#
#
#
# Elastic Compliance Matrix: (Units=1/GPa)
#
#
# Indices 1 2 3 4 5 6 
#
# 1 0.010623 0.000773 -0.001041 -0.009798 0.000116 0.004645
# 2 0.000773 0.027597 0.000029 -0.019511 -0.001740 0.001455
# 3 -0.001041 0.000029 0.008812 -0.007267 0.002800 -0.003361
# 4 -0.009798 -0.019511 -0.007267 0.066780 -0.010686 0.002726
# 5 0.000116 -0.001740 0.002800 -0.010686 0.029452 -0.012140
# 6 0.004645 0.001455 -0.003361 0.002726 -0.012140 0.047148
#
#
# Mechanical properties :
#
#
# Convention : Reuss Voigt Hill
#
# Bulk Modulus (GPa) = 21.48024 49.82009 35.65016
# Shear Modulus (GPa) = 24.22382 36.02726 30.12554
#
# Velocity S-wave (km/s) = 3.26318 3.97956 3.63904
# Velocity P-wave (km/s) = 4.86211 6.55864 5.77304
#
# Compressibility (1/GPa) = 0.04655442
#
# Stress axis : x y z
#
# Youngs Moduli (GPa) = 94.13707 36.23536 113.48483
#
# Poissons Ratio (x) = -0.02802 0.11815
# Poissons Ratio (y) = -0.07280 -0.00329
# Poissons Ratio (z) = 0.09801 -0.00105
#
# Static dielectric constant tensor:
#      x y z
#    x 4.160650 -0.212800 0.160230 
#    y -0.212800 3.809030 0.090070 
#    z 0.160230 0.090070 4.314210 
# 
# 
# High freq. dielectric constant tensor:
#      x y z
#    x 1.897070 -0.012470 0.008430 
#    y -0.012470 1.858010 0.013160 
#    z 0.008430 0.013160 1.927660 
# 
# From -- ./inp_files/516267.got.cif
#   From: 2010.06.25/outbox.cif.g09.slc.cpg/sg2_259_cif.got.tgz:516267.got - 2010.06.27 13:26:56.
