data_PCOD8040531
_publ_section_title
;
Structure prediction by ZEFSAII (Michael W. Deem and Ramdas Pophale) SiO2 
 PCOD8040531
Probable space group: P -1
;
_chemical_formula_sum "Si O2"
_cell_formula_units_Z 16
_cell_length_a 17.611374
_cell_length_b 11.458409
_cell_length_c 11.736504
_cell_angle_alpha 53.398678
_cell_angle_beta 74.697730
_cell_angle_gamma 31.655025
_cell_volume 814.100357
_symmetry_space_group_name_H-M "P -1"
_symmetry_group_IT_number 2
_symmetry_cell_setting 'triclinic'
loop_
_space_group_symop_operation_xyz
x,y,z
-x,-y,-z
loop_
_atom_site_type_symbol
_atom_site_label
_atom_site_fract_x
_atom_site_fract_y
_atom_site_fract_z
Si Si1 0.484206 0.492590 0.182120
Si Si2 0.686910 0.806945 0.135868
Si Si3 0.923480 0.900891 0.034352
Si Si4 0.302867 0.512081 0.777285
Si Si5 0.650086 0.272664 0.480320
Si Si6 0.506440 0.245560 0.130088
Si Si7 0.011104 0.464321 0.150298
Si Si8 0.871581 0.173746 0.099258
O O1 0.579553 0.319674 0.364824
O O2 0.576179 0.214600 0.230782
O O3 0.522249 0.587613 0.057970
O O4 0.276757 0.803395 0.094100
O O5 0.767312 0.517922 0.239763
O O6 0.825160 0.703035 0.116637
O O7 0.645350 0.892568 0.238629
O O8 0.503041 0.146882 0.947679
O O9 0.038305 0.570055 0.147206
O O10 0.941482 0.912522 0.155990
O O11 0.992080 0.921308 0.918734
O O12 0.303934 0.634534 0.610431
O O13 0.166290 0.781312 0.776760
O O14 0.500000 0.500000 0.500000
O O15 0.826845 0.904318 0.666153
O O16 0.317328 0.479654 0.089255
O O17 0.000000 0.500000 0.000000
#
# Coordination Sequence:
#
# PCOD8040531 Si02
#       8
#     2   2   2   2   2   2   2   2
#     4  10  18  37  61  86 117 155 199 239 292 357
#     4  10  19  36  61  88 114 157 199 242 292 359
#     4  10  19  35  61  91 118 155 205 239 295 355
#     4  10  20  37  60  86 122 156 199 244 299 357
#     4  12  25  39  58  86 121 158 200 251 302 352
#     4   9  17  33  65  86 116 156 197 235 293 359
#     4  12  24  38  58  84 117 157 205 250 299 355
#     4   9  18  33  61  92 118 156 194 248 291 357
#
# _framework density 19.653594999999999
#
# number of rings (size 3 to 8) (size 9 to 14) (size 15 to 20)
#    0.000    1.750    3.750    2.250    0.000    2.500 
#    0.000    2.500    0.000   12.000    0.000    0.000 
#    0.000    0.000    0.000    0.000    0.000    0.000 
#
# Total GULP energy -198258.371852 kJ/mol
# GULP energy per Si atom -12391.148241 kJ/mol
# Density = 1.960886 g / cm^3
# Si number density = 19.653595 Si / 1000 Ang^3
#
#
#
# Elastic Constant Matrix: (Units=GPa)
#
#
# Indices 1 2 3 4 5 6 
#
# 1 121.2092 47.8834 28.1577 3.2331 -11.4437 19.3162
# 2 47.8834 120.4472 32.4081 9.4711 -8.1506 21.1693
# 3 28.1577 32.4081 72.9366 9.8636 -4.6792 10.5562
# 4 3.2331 9.4711 9.8636 22.4565 2.8578 4.1104
# 5 -11.4437 -8.1506 -4.6792 2.8578 21.8518 -3.3767
# 6 19.3162 21.1693 10.5562 4.1104 -3.3767 51.5788
#
#
#
# Elastic Compliance Matrix: (Units=1/GPa)
#
#
# Indices 1 2 3 4 5 6 
#
# 1 0.010642 -0.003059 -0.002318 0.000709 0.003522 -0.002082
# 2 -0.003059 0.011073 -0.002890 -0.002750 0.001888 -0.002465
# 3 -0.002318 -0.002890 0.016945 -0.005997 0.001997 -0.000805
# 4 0.000709 -0.002750 -0.005997 0.049796 -0.008830 -0.002456
# 5 0.003522 0.001888 0.001997 -0.008830 0.050123 0.001483
# 6 -0.002082 -0.002465 -0.000805 -0.002456 0.001483 0.021637
#
#
# Mechanical properties :
#
#
# Convention : Reuss Voigt Hill
#
# Bulk Modulus (GPa) = 45.19204 59.05460 52.12332
# Shear Modulus (GPa) = 27.15556 32.92033 30.03795
#
# Velocity S-wave (km/s) = 3.72117 4.09715 3.91368
# Velocity P-wave (km/s) = 6.44259 7.24535 6.85573
#
# Compressibility (1/GPa) = 0.02212779
#
# Stress axis : x y z
#
# Youngs Moduli (GPa) = 93.96404 90.30916 59.01426
#
# Poissons Ratio (x) = 0.27623 0.13680
# Poissons Ratio (y) = 0.28740 0.17052
# Poissons Ratio (z) = 0.21782 0.26095
#
# Static dielectric constant tensor:
#      x y z
#    x 3.926460 0.497290 -0.004950 
#    y 0.497290 3.375330 -0.010780 
#    z -0.004950 -0.010780 2.996280 
# 
# 
# High freq. dielectric constant tensor:
#      x y z
#    x 1.793280 0.007350 0.005170 
#    y 0.007350 1.792630 0.000960 
#    z 0.005170 0.000960 1.696890 
# 
# From -- ./inp_files/464372.got.cif
#   From: 2010.06.25/outbox.cif.g09.slc.cpg/sg2_233_cif.got.tgz:464372.got - 2010.06.27 13:26:56.
