data_PCOD8040326
_publ_section_title
;
Structure prediction by ZEFSAII (Michael W. Deem and Ramdas Pophale) SiO2 
 PCOD8040326
Probable space group: P -1
;
_chemical_formula_sum "Si O2"
_cell_formula_units_Z 16
_cell_length_a 9.960099
_cell_length_b 11.118831
_cell_length_c 13.336922
_cell_angle_alpha 125.320746
_cell_angle_beta 106.161764
_cell_angle_gamma 42.082099
_cell_volume 776.369464
_symmetry_space_group_name_H-M "P -1"
_symmetry_group_IT_number 2
_symmetry_cell_setting 'triclinic'
loop_
_space_group_symop_operation_xyz
x,y,z
-x,-y,-z
loop_
_atom_site_type_symbol
_atom_site_label
_atom_site_fract_x
_atom_site_fract_y
_atom_site_fract_z
Si Si1 0.104569 0.170703 0.585303
Si Si2 0.631909 0.752089 0.291002
Si Si3 0.466605 0.667258 0.379788
Si Si4 0.715795 0.496220 0.787440
Si Si5 0.773990 0.640985 0.056928
Si Si6 0.452723 0.097620 0.145066
Si Si7 0.776745 0.807746 0.680751
Si Si8 0.838973 0.422532 0.461884
O O1 0.237240 0.215881 0.617793
O O2 0.963285 0.290503 0.714294
O O3 0.940152 0.273702 0.510656
O O4 0.264594 0.909694 0.497957
O O5 0.603579 0.651159 0.320581
O O6 0.759845 0.589271 0.142276
O O7 0.401602 0.976004 0.317176
O O8 0.391716 0.577318 0.268199
O O9 0.627217 0.503434 0.424806
O O10 0.601068 0.687278 0.770671
O O11 0.679971 0.595767 0.937586
O O12 0.653684 0.894734 0.155689
O O13 0.000000 0.500000 0.000000
O O14 0.262043 0.160998 0.191732
O O15 0.500000 0.000000 0.000000
O O16 0.776550 0.639741 0.566211
O O17 0.991321 0.723466 0.662684
#
# Coordination Sequence:
#
# PCOD8040326 Si02
#       8
#     2   2   2   2   2   2   2   2
#     4  12  22  42  64  93 128 173 212 254 305 381
#     4  11  21  39  69  91 126 161 219 259 304 374
#     4  12  26  40  59  99 134 167 202 259 322 374
#     4  11  24  43  61  92 133 162 207 263 321 370
#     4  10  21  41  70  94 113 166 216 262 312 368
#     4   9  20  37  62  86 116 157 212 258 298 365
#     4  10  18  36  61  92 115 163 212 262 293 363
#     4  11  22  35  62  88 127 162 209 252 311 360
#
# _framework density 20.608744000000002
#
# number of rings (size 3 to 8) (size 9 to 14) (size 15 to 20)
#    0.000    1.250    5.000    2.250    0.000    1.000 
#    2.250    0.000    0.000    7.500    0.000    0.000 
#    0.000    0.000    0.000    0.000    0.000    0.000 
#
# Total GULP energy -198294.921354 kJ/mol
# GULP energy per Si atom -12393.432585 kJ/mol
# Density = 2.056184 g / cm^3
# Si number density = 20.608744 Si / 1000 Ang^3
#
#
#
# Elastic Constant Matrix: (Units=GPa)
#
#
# Indices 1 2 3 4 5 6 
#
# 1 58.0362 26.5745 26.0596 5.4167 10.0524 -8.8695
# 2 26.5745 94.3903 34.9597 3.4934 3.4132 -13.6901
# 3 26.0596 34.9597 95.1614 7.3918 -11.9129 -5.6989
# 4 5.4167 3.4934 7.3918 27.5350 -3.2309 -6.3115
# 5 10.0524 3.4132 -11.9129 -3.2309 38.9925 -4.4673
# 6 -8.8695 -13.6901 -5.6989 -6.3115 -4.4673 23.6362
#
#
#
# Elastic Compliance Matrix: (Units=1/GPa)
#
#
# Indices 1 2 3 4 5 6 
#
# 1 0.023432 -0.003710 -0.005559 -0.002770 -0.007279 0.003188
# 2 -0.003710 0.013935 -0.003933 0.001302 -0.000675 0.005951
# 3 -0.005559 -0.003933 0.014339 -0.001598 0.006003 -0.000199
# 4 -0.002770 0.001302 -0.001598 0.040187 0.004696 0.010948
# 5 -0.007279 -0.000675 0.006003 0.004696 0.030415 0.005328
# 6 0.003188 0.005951 -0.000199 0.010948 0.005328 0.050834
#
#
# Mechanical properties :
#
#
# Convention : Reuss Voigt Hill
#
# Bulk Modulus (GPa) = 39.52106 46.97505 43.24806
# Shear Modulus (GPa) = 24.04098 28.69901 26.37000
#
# Velocity S-wave (km/s) = 3.41917 3.73576 3.58097
# Velocity P-wave (km/s) = 5.89967 6.43825 6.17484
#
# Compressibility (1/GPa) = 0.02530296
#
# Stress axis : x y z
#
# Youngs Moduli (GPa) = 42.67667 71.76378 69.73889
#
# Poissons Ratio (x) = 0.26624 0.38767
# Poissons Ratio (y) = 0.15833 0.27425
# Poissons Ratio (z) = 0.23724 0.28221
#
# Static dielectric constant tensor:
#      x y z
#    x 3.623360 0.116540 -0.393660 
#    y 0.116540 4.362840 0.100310 
#    z -0.393660 0.100310 4.123270 
# 
# 
# High freq. dielectric constant tensor:
#      x y z
#    x 1.777940 -0.003610 -0.034350 
#    y -0.003610 1.816340 0.007020 
#    z -0.034350 0.007020 1.807680 
# 
# From -- ./inp_files/308459.got.cif
#   From: 2010.06.25/outbox.cif.g09.slc.cpg/sg2_155_cif.got.tgz:308459.got - 2010.06.27 13:26:56.
