data_PCOD8040376
_publ_section_title
;
Structure prediction by ZEFSAII (Michael W. Deem and Ramdas Pophale) SiO2 
 PCOD8040376
Probable space group: P -1
;
_chemical_formula_sum "Si O2"
_cell_formula_units_Z 16
_cell_length_a 8.285365
_cell_length_b 10.896699
_cell_length_c 12.685256
_cell_angle_alpha 95.487863
_cell_angle_beta 129.264697
_cell_angle_gamma 62.396166
_cell_volume 752.465912
_symmetry_space_group_name_H-M "P -1"
_symmetry_group_IT_number 2
_symmetry_cell_setting 'triclinic'
loop_
_space_group_symop_operation_xyz
x,y,z
-x,-y,-z
loop_
_atom_site_type_symbol
_atom_site_label
_atom_site_fract_x
_atom_site_fract_y
_atom_site_fract_z
Si Si1 0.189219 0.420668 0.479466
Si Si2 0.122457 0.910208 0.741325
Si Si3 0.582641 0.962633 0.209273
Si Si4 0.953522 0.922339 0.068428
Si Si5 0.574141 0.375708 0.783739
Si Si6 0.478543 0.401532 0.069037
Si Si7 0.215064 0.346916 0.794415
Si Si8 0.311462 0.102817 0.515705
O O1 0.442966 0.407807 0.617360
O O2 0.223366 0.265800 0.459936
O O3 0.000000 0.500000 0.500000
O O4 0.063036 0.524529 0.334817
O O5 0.266646 0.748482 0.832469
O O6 0.913414 0.922959 0.579113
O O7 0.299963 0.939564 0.747013
O O8 0.007708 0.020410 0.800273
O O9 0.761512 0.808039 0.214469
O O10 0.558404 0.936619 0.320254
O O11 0.320373 0.045793 0.050917
O O12 0.147726 0.752538 0.125321
O O13 0.000000 0.000000 0.000000
O O14 0.582823 0.515326 0.837598
O O15 0.421665 0.338077 0.799768
O O16 0.500000 0.500000 0.000000
O O17 0.268716 0.372734 0.938906
O O18 0.500000 0.000000 0.500000
#
# Coordination Sequence:
#
# PCOD8040376 Si02
#       8
#     2   2   2   2   2   2   2   2
#     4  10  18  36  63  91 118 161 211 263 298 365
#     4  12  25  40  64  94 130 168 208 261 318 381
#     4  12  24  41  62  95 133 168 205 258 329 374
#     4  12  21  40  65  93 126 167 213 258 310 375
#     4  10  19  35  61  91 119 155 212 266 300 349
#     4  10  20  36  60  94 119 162 217 254 302 376
#     4  10  19  35  62  92 122 161 212 255 302 376
#     4  12  24  41  66  96 125 162 219 265 309 372
#
# _framework density 21.26342
#
# number of rings (size 3 to 8) (size 9 to 14) (size 15 to 20)
#    0.000    1.000    5.000    5.250    0.000    1.000 
#    0.000    0.625    2.750    1.500    0.000    0.000 
#    0.000    0.000    0.000    0.000    0.000    0.000 
#
# Total GULP energy -198397.404435 kJ/mol
# GULP energy per Si atom -12399.837777 kJ/mol
# Density = 2.121502 g / cm^3
# Si number density = 21.263420 Si / 1000 Ang^3
#
#
#
# Elastic Constant Matrix: (Units=GPa)
#
#
# Indices 1 2 3 4 5 6 
#
# 1 37.5744 34.1584 14.1977 -2.8216 10.2972 -0.3721
# 2 34.1584 152.7810 50.2997 6.9702 14.2565 -12.9693
# 3 14.1977 50.2997 131.5383 11.3902 26.5640 -2.9769
# 4 -2.8216 6.9702 11.3902 42.4441 -2.1168 2.1182
# 5 10.2972 14.2565 26.5640 -2.1168 24.2369 1.5989
# 6 -0.3721 -12.9693 -2.9769 2.1182 1.5989 23.0938
#
#
#
# Elastic Compliance Matrix: (Units=1/GPa)
#
#
# Indices 1 2 3 4 5 6 
#
# 1 0.036784 -0.007895 0.001075 0.003029 -0.011689 -0.003171
# 2 -0.007895 0.009672 -0.002590 -0.001673 0.000019 0.005123
# 3 0.001075 -0.002590 0.011073 -0.003097 -0.011411 0.001065
# 4 0.003029 -0.001673 -0.003097 0.025345 0.005569 -0.004000
# 5 -0.011689 0.000019 -0.011411 0.005569 0.059622 -0.006287
# 6 -0.003171 0.005123 0.001065 -0.004000 -0.006287 0.047067
#
#
# Mechanical properties :
#
#
# Convention : Reuss Voigt Hill
#
# Bulk Modulus (GPa) = 25.83230 57.68948 41.76089
# Shear Modulus (GPa) = 22.59529 32.83749 27.71639
#
# Velocity S-wave (km/s) = 3.26335 3.93404 3.61429
# Velocity P-wave (km/s) = 5.13559 6.91559 6.09096
#
# Compressibility (1/GPa) = 0.03871123
#
# Stress axis : x y z
#
# Youngs Moduli (GPa) = 27.18588 103.38703 90.30838
#
# Poissons Ratio (x) = 0.81620 -0.09709
# Poissons Ratio (y) = 0.21462 0.23386
# Poissons Ratio (z) = -0.02923 0.26772
#
# Static dielectric constant tensor:
#      x y z
#    x 36.525880 -24.377880 55.023130 
#    y -24.377880 22.089890 -40.031540 
#    z 55.023130 -40.031540 95.127930 
# 
# 
# High freq. dielectric constant tensor:
#      x y z
#    x 1.780660 -0.001100 0.012900 
#    y -0.001100 1.849740 0.004610 
#    z 0.012900 0.004610 1.855580 
# 
# From -- ./inp_files/274682.got.cif
#   From: 2010.06.25/outbox.cif.g09.slc.cpg/sg2_138_cif.got.tgz:274682.got - 2010.06.27 13:26:56.
