data_PCOD8040585
_publ_section_title
;
Structure prediction by ZEFSAII (Michael W. Deem and Ramdas Pophale) SiO2 
 PCOD8040585
Probable space group: P -1
;
_chemical_formula_sum "Si O2"
_cell_formula_units_Z 16
_cell_length_a 18.737879
_cell_length_b 12.423245
_cell_length_c 12.063172
_cell_angle_alpha 122.124683
_cell_angle_beta 57.250804
_cell_angle_gamma 160.749365
_cell_volume 776.430664
_symmetry_space_group_name_H-M "P -1"
_symmetry_group_IT_number 2
_symmetry_cell_setting 'triclinic'
loop_
_space_group_symop_operation_xyz
x,y,z
-x,-y,-z
loop_
_atom_site_type_symbol
_atom_site_label
_atom_site_fract_x
_atom_site_fract_y
_atom_site_fract_z
Si Si1 0.820898 0.650906 0.488357
Si Si2 0.394625 0.419489 0.940215
Si Si3 0.959693 0.703669 0.974277
Si Si4 0.493432 0.564506 0.368416
Si Si5 0.171671 0.537258 0.811693
Si Si6 0.838405 0.037465 0.520677
Si Si7 0.500929 0.835323 0.006971
Si Si8 0.114051 0.675029 0.208417
O O1 0.595776 0.416098 0.576340
O O2 0.771843 0.497912 0.338355
O O3 0.923795 0.706916 0.533659
O O4 0.000000 0.000000 0.500000
O O5 0.484482 0.482516 0.787491
O O6 0.500000 0.500000 0.000000
O O7 0.461731 0.658875 0.019929
O O8 0.134654 0.042098 0.961967
O O9 0.725433 0.435012 0.999893
O O10 0.990054 0.607582 0.838373
O O11 0.977797 0.718487 0.100871
O O12 0.730029 0.892740 0.410876
O O13 0.319249 0.251424 0.418986
O O14 0.037016 0.461850 0.826375
O O15 0.398346 0.911231 0.867224
O O16 0.870832 0.227992 0.635917
O O17 0.647220 0.007554 0.871504
#
# Coordination Sequence:
#
# PCOD8040585 Si02
#       8
#     2   2   2   2   2   2   2   2
#     4   9  20  34  61  96 117 153 205 258 306 355
#     4  12  25  43  60  85 130 168 203 244 316 383
#     4  11  24  35  60  93 123 166 199 260 309 370
#     4  10  21  38  61  90 120 165 198 254 312 356
#     4  10  20  37  66  92 122 156 209 262 303 361
#     4   9  19  36  63  90 122 150 209 263 293 369
#     4  11  22  38  59  91 122 159 212 257 302 364
#     4  10  18  37  63  90 121 157 208 254 312 352
#
# _framework density 20.607119000000001
#
# number of rings (size 3 to 8) (size 9 to 14) (size 15 to 20)
#    0.000    1.750    1.250    4.875    7.000    1.000 
#    2.250    0.625    0.000    2.250    0.000    0.000 
#    0.000    0.000    0.000    0.000    0.000    0.000 
#
# Total GULP energy -198358.357423 kJ/mol
# GULP energy per Si atom -12397.397339 kJ/mol
# Density = 2.056022 g / cm^3
# Si number density = 20.607119 Si / 1000 Ang^3
#
#
#
# Elastic Constant Matrix: (Units=GPa)
#
#
# Indices 1 2 3 4 5 6 
#
# 1 112.7459 21.9052 82.0028 10.0987 -12.9121 32.1640
# 2 21.9052 74.0789 23.5548 6.7174 -7.8368 -0.0447
# 3 82.0028 23.5548 153.2926 25.4982 -18.1652 42.6226
# 4 10.0987 6.7174 25.4982 23.2064 0.3292 0.5010
# 5 -12.9121 -7.8368 -18.1652 0.3292 32.5091 -3.0180
# 6 32.1640 -0.0447 42.6226 0.5010 -3.0180 55.8942
#
#
#
# Elastic Compliance Matrix: (Units=1/GPa)
#
#
# Indices 1 2 3 4 5 6 
#
# 1 0.015452 -0.002342 -0.007107 0.001819 0.001265 -0.003422
# 2 -0.002342 0.014974 -0.001032 -0.002264 0.002339 0.002293
# 3 -0.007107 -0.001032 0.015278 -0.013310 0.004934 -0.007175
# 4 0.001819 -0.002264 -0.013310 0.057503 -0.007082 0.008203
# 5 0.001265 0.002339 0.004934 -0.007082 0.034417 -0.002567
# 6 -0.003422 0.002293 -0.007175 0.008203 -0.002567 0.025122
#
#
# Mechanical properties :
#
#
# Convention : Reuss Voigt Hill
#
# Bulk Modulus (GPa) = 40.41858 66.11586 53.26722
# Shear Modulus (GPa) = 26.04772 36.49890 31.27331
#
# Velocity S-wave (km/s) = 3.55916 4.21310 3.89986
# Velocity P-wave (km/s) = 6.04538 7.47132 6.79585
#
# Compressibility (1/GPa) = 0.02474110
#
# Stress axis : x y z
#
# Youngs Moduli (GPa) = 64.71648 66.78273 65.45515
#
# Poissons Ratio (x) = 0.15644 0.46520
# Poissons Ratio (y) = 0.15160 0.06753
# Poissons Ratio (z) = 0.45995 0.06890
#
# Static dielectric constant tensor:
#      x y z
#    x 4.328140 -0.074050 -0.182500 
#    y -0.074050 4.097930 0.319590 
#    z -0.182500 0.319590 3.533970 
# 
# 
# High freq. dielectric constant tensor:
#      x y z
#    x 1.817910 0.018450 -0.015050 
#    y 0.018450 1.794210 0.026700 
#    z -0.015050 0.026700 1.793040 
# 
# From -- ./inp_files/437168.got.cif
#   From: 2010.06.25/outbox.cif.g09.slc.cpg/sg2_219_cif.got.tgz:437168.got - 2010.06.27 13:26:56.
