data_PCOD8040041
_publ_section_title
;
Structure prediction by ZEFSAII (Michael W. Deem and Ramdas Pophale) SiO2 
 PCOD8040041
Probable space group: P -1
;
_chemical_formula_sum "Si O2"
_cell_formula_units_Z 14
_cell_length_a 12.825777
_cell_length_b 8.551570
_cell_length_c 9.156867
_cell_angle_alpha 66.688731
_cell_angle_beta 46.340014
_cell_angle_gamma 75.771508
_cell_volume 666.701950
_symmetry_space_group_name_H-M "P -1"
_symmetry_group_IT_number 2
_symmetry_cell_setting 'triclinic'
loop_
_space_group_symop_operation_xyz
x,y,z
-x,-y,-z
loop_
_atom_site_type_symbol
_atom_site_label
_atom_site_fract_x
_atom_site_fract_y
_atom_site_fract_z
Si Si1 0.119358 0.321263 0.322251
Si Si2 0.216088 0.954081 0.899497
Si Si3 0.544517 0.337340 0.826653
Si Si4 0.823077 0.217535 0.534138
Si Si5 0.339384 0.615117 0.986341
Si Si6 0.301415 0.098960 0.047388
Si Si7 0.894221 0.954398 0.326005
O O1 0.192380 0.506839 0.210497
O O2 0.186121 0.239622 0.143414
O O3 0.158121 0.205328 0.466505
O O4 0.948898 0.327053 0.455470
O O5 0.211788 0.038459 0.712853
O O6 0.292355 0.773987 0.876961
O O7 0.056311 0.928610 0.129055
O O8 0.308635 0.077902 0.872660
O O9 0.692508 0.345615 0.584036
O O10 0.580069 0.321148 0.969427
O O11 0.449723 0.502193 0.828049
O O12 0.456884 0.162803 0.933201
O O13 0.754206 0.079955 0.764308
O O14 0.882424 0.129868 0.364011
#
# Coordination Sequence:
#
# PCOD8040041 Si02
#       7
#     2   2   2   2   2   2   2
#     4  10  19  37  63  87 115 142 198 237 285 329
#     4  11  20  37  60  86 118 146 193 235 292 332
#     4  10  21  35  60  82 119 151 198 223 285 338
#     4  11  18  35  60  91 107 151 196 240 268 342
#     4  10  22  37  59  90 114 152 187 241 281 342
#     4  10  18  35  62  83 111 155 194 230 273 349
#     4  10  21  35  60  90 114 146 190 247 281 333
#
# _framework density 20.998888000000001
#
# number of rings (size 3 to 8) (size 9 to 14) (size 15 to 20)
#    0.000    1.714    4.286    1.286    0.000    2.286 
#    0.000    2.143    6.286    0.000    0.000    0.000 
#    0.000    0.000    0.000    0.000    0.000    0.000 
#
# Total GULP energy -173548.908207 kJ/mol
# GULP energy per Si atom -12396.350586 kJ/mol
# Density = 2.095109 g / cm^3
# Si number density = 20.998888 Si / 1000 Ang^3
#
#
#
# Elastic Constant Matrix: (Units=GPa)
#
#
# Indices 1 2 3 4 5 6 
#
# 1 146.1032 64.6300 54.2076 -4.4862 -14.6009 18.1328
# 2 64.6300 85.5165 27.3560 7.0651 -3.4626 -9.8590
# 3 54.2076 27.3560 48.4892 5.2910 -7.0177 -3.7168
# 4 -4.4862 7.0651 5.2910 26.1735 2.5081 -15.3295
# 5 -14.6009 -3.4626 -7.0177 2.5081 39.7675 7.3815
# 6 18.1328 -9.8590 -3.7168 -15.3295 7.3815 36.3930
#
#
#
# Elastic Compliance Matrix: (Units=1/GPa)
#
#
# Indices 1 2 3 4 5 6 
#
# 1 0.021844 -0.012601 -0.017599 -0.000334 0.007120 -0.017679
# 2 -0.012601 0.021912 0.002076 -0.000245 -0.004805 0.013298
# 3 -0.017599 0.002076 0.040400 -0.004841 -0.001003 0.011621
# 4 -0.000334 -0.000245 -0.004841 0.054267 -0.008926 0.024274
# 5 0.007120 -0.004805 -0.001003 -0.008926 0.030493 -0.014896
# 6 -0.017679 0.013298 0.011621 0.024274 -0.014896 0.054322
#
#
# Mechanical properties :
#
#
# Convention : Reuss Voigt Hill
#
# Bulk Modulus (GPa) = 35.83270 63.61068 49.72169
# Shear Modulus (GPa) = 17.31372 29.39449 23.35410
#
# Velocity S-wave (km/s) = 2.87454 3.74546 3.33852
# Velocity P-wave (km/s) = 5.30268 7.00449 6.21214
#
# Compressibility (1/GPa) = 0.02790747
#
# Stress axis : x y z
#
# Youngs Moduli (GPa) = 45.77941 45.63718 24.75239
#
# Poissons Ratio (x) = 0.57509 0.43562
# Poissons Ratio (y) = 0.57688 -0.05139
# Poissons Ratio (z) = 0.80567 -0.09475
#
# Static dielectric constant tensor:
#      x y z
#    x 3.977810 0.025300 -0.230960 
#    y 0.025300 4.057470 0.378820 
#    z -0.230960 0.378820 3.532160 
# 
# 
# High freq. dielectric constant tensor:
#      x y z
#    x 1.826600 0.006880 -0.025210 
#    y 0.006880 1.828320 0.029150 
#    z -0.025210 0.029150 1.782570 
# 
# From -- ./inp_files/154093.got.cif
#   From: 2010.06.25/outbox.cif.g09.slc.cpg/sg2_78_cif.got.tgz:154093.got - 2010.06.27 13:26:56.
