data_PCOD8040099
_publ_section_title
;
Structure prediction by ZEFSAII (Michael W. Deem and Ramdas Pophale) SiO2 
 PCOD8040099
Probable space group: P -1
;
_chemical_formula_sum "Si O2"
_cell_formula_units_Z 14
_cell_length_a 11.617286
_cell_length_b 13.838289
_cell_length_c 16.621284
_cell_angle_alpha 33.690251
_cell_angle_beta 124.601494
_cell_angle_gamma 148.337456
_cell_volume 681.707551
_symmetry_space_group_name_H-M "P -1"
_symmetry_group_IT_number 2
_symmetry_cell_setting 'triclinic'
loop_
_space_group_symop_operation_xyz
x,y,z
-x,-y,-z
loop_
_atom_site_type_symbol
_atom_site_label
_atom_site_fract_x
_atom_site_fract_y
_atom_site_fract_z
Si Si1 0.092621 0.896923 0.920469
Si Si2 0.982243 0.536991 0.708467
Si Si3 0.196713 0.552217 0.022116
Si Si4 0.462475 0.853610 0.505331
Si Si5 0.389195 0.693995 0.167939
Si Si6 0.029178 0.144960 0.834309
Si Si7 0.295971 0.865411 0.272360
O O1 0.929271 0.715604 0.901257
O O2 0.385880 0.209075 0.795940
O O3 0.015153 0.002217 0.851987
O O4 0.043476 0.681371 0.109494
O O5 0.810795 0.511438 0.697132
O O6 0.917485 0.449734 0.648429
O O7 0.256614 0.898417 0.582810
O O8 0.262429 0.520747 0.152084
O O9 0.000000 0.500000 0.000000
O O10 0.447774 0.883885 0.850026
O O11 0.300711 0.515525 0.692190
O O12 0.316966 0.801228 0.412303
O O13 0.500000 0.000000 0.500000
O O14 0.500000 0.000000 0.000000
O O15 0.793646 0.031467 0.816582
O O16 0.000000 0.000000 0.000000
#
# Coordination Sequence:
#
# PCOD8040099 Si02
#       7
#     2   2   2   2   2   2   2
#     4  11  21  39  59  98 130 162 205 268 312 362
#     4  11  20  40  68  95 124 167 219 259 305 385
#     4  12  19  34  65  96 124 165 216 256 307 376
#     4  12  25  44  65  91 127 173 219 255 314 391
#     4  10  18  35  63  97 125 162 211 264 302 371
#     4  12  25  44  62  93 136 162 208 276 319 371
#     4  12  23  40  67  96 126 172 213 254 320 382
#
# _framework density 20.536663999999998
#
# number of rings (size 3 to 8) (size 9 to 14) (size 15 to 20)
#    0.000    0.571   10.000    0.429    0.000    0.571 
#    2.571    0.714    0.000    6.000    0.000    0.000 
#    0.000    0.000    0.000    0.000    0.000    0.000 
#
# Total GULP energy -173556.144102 kJ/mol
# GULP energy per Si atom -12396.867436 kJ/mol
# Density = 2.048992 g / cm^3
# Si number density = 20.536664 Si / 1000 Ang^3
#
#
#
# Elastic Constant Matrix: (Units=GPa)
#
#
# Indices 1 2 3 4 5 6 
#
# 1 129.8332 50.1374 44.5625 -8.3884 -1.7807 -7.0984
# 2 50.1374 153.9753 45.5544 -1.1082 1.1468 -21.5677
# 3 44.5625 45.5544 88.4384 -9.2347 -5.5628 2.8551
# 4 -8.3884 -1.1082 -9.2347 33.1805 -3.0827 -11.2061
# 5 -1.7807 1.1468 -5.5628 -3.0827 17.8597 -5.9580
# 6 -7.0984 -21.5677 2.8551 -11.2061 -5.9580 53.5051
#
#
#
# Elastic Compliance Matrix: (Units=1/GPa)
#
#
# Indices 1 2 3 4 5 6 
#
# 1 0.009956 -0.001933 -0.003826 0.001856 0.000648 0.001207
# 2 -0.001933 0.008679 -0.003674 -0.000180 -0.000822 0.003309
# 3 -0.003826 -0.003674 0.015816 0.003208 0.004792 -0.001627
# 4 0.001856 -0.000180 0.003208 0.035316 0.010136 0.008528
# 5 0.000648 -0.000822 0.004792 0.010136 0.062203 0.008549
# 6 0.001207 0.003309 -0.001627 0.008528 0.008549 0.023009
#
#
# Mechanical properties :
#
#
# Convention : Reuss Voigt Hill
#
# Bulk Modulus (GPa) = 64.15605 72.52837 68.34221
# Shear Modulus (GPa) = 27.92669 36.37524 32.15096
#
# Velocity S-wave (km/s) = 3.69161 4.21317 3.96098
# Velocity P-wave (km/s) = 7.03408 7.68511 7.36679
#
# Compressibility (1/GPa) = 0.01558699
#
# Stress axis : x y z
#
# Youngs Moduli (GPa) = 100.43828 115.21864 63.22513
#
# Poissons Ratio (x) = 0.22266 0.24189
# Poissons Ratio (y) = 0.19410 0.23230
# Poissons Ratio (z) = 0.38426 0.42333
#
# Static dielectric constant tensor:
#      x y z
#    x 3.991890 0.200550 -0.523070 
#    y 0.200550 4.455930 -0.267870 
#    z -0.523070 -0.267870 3.491270 
# 
# 
# High freq. dielectric constant tensor:
#      x y z
#    x 1.820070 -0.002150 -0.030180 
#    y -0.002150 1.824070 -0.011690 
#    z -0.030180 -0.011690 1.757040 
# 
# From -- ./inp_files/241496.got.cif
#   From: 2010.06.25/outbox.cif.g09.slc.cpg/sg2_121_cif.got.tgz:241496.got - 2010.06.27 13:26:56.
