data_PCOD8040981
_publ_section_title
;
Structure prediction by ZEFSAII (Michael W. Deem and Ramdas Pophale) SiO2 
 PCOD8040981
Probable space group: P -1
;
_chemical_formula_sum "Si O2"
_cell_formula_units_Z 16
_cell_length_a 7.999852
_cell_length_b 11.444384
_cell_length_c 18.531773
_cell_angle_alpha 47.939450
_cell_angle_beta 105.945519
_cell_angle_gamma 67.364002
_cell_volume 731.617382
_symmetry_space_group_name_H-M "P -1"
_symmetry_group_IT_number 2
_symmetry_cell_setting 'triclinic'
loop_
_space_group_symop_operation_xyz
x,y,z
-x,-y,-z
loop_
_atom_site_type_symbol
_atom_site_label
_atom_site_fract_x
_atom_site_fract_y
_atom_site_fract_z
Si Si1 0.758589 0.641955 0.971244
Si Si2 0.276110 0.563628 0.818303
Si Si3 0.238453 0.173676 0.450395
Si Si4 0.245413 0.955435 0.674638
Si Si5 0.082818 0.609951 0.323863
Si Si6 0.798583 0.491980 0.468536
Si Si7 0.470367 0.927049 0.149400
Si Si8 0.182033 0.960597 0.979449
O O1 0.462157 0.839758 0.811969
O O2 0.770881 0.786607 0.963675
O O3 0.796207 0.463528 0.101587
O O4 0.000000 0.500000 0.000000
O O5 0.225685 0.784458 0.730683
O O6 0.605366 0.294419 0.941684
O O7 0.057631 0.659370 0.692347
O O8 0.204016 0.367480 0.402019
O O9 0.500000 0.000000 0.500000
O O10 0.332222 0.975917 0.601714
O O11 0.940510 0.247454 0.541839
O O12 0.753598 0.827076 0.218579
O O13 0.279666 0.507776 0.459733
O O14 0.074173 0.768220 0.206596
O O15 0.519431 0.743053 0.285013
O O16 0.000000 0.500000 0.500000
O O17 0.379777 0.942411 0.052465
O O18 0.000000 0.000000 0.000000
#
# Coordination Sequence:
#
# PCOD8040981 Si02
#       8
#     2   2   2   2   2   2   2   2
#     4  12  25  42  69  97 130 175 225 269 323 401
#     4  12  26  44  64  99 139 172 209 279 345 381
#     4  12  25  42  69  97 130 175 225 269 323 401
#     4  12  23  42  66  93 134 168 211 276 335 380
#     4  11  20  43  71  90 124 172 227 267 317 383
#     4  10  18  40  71  89 112 169 219 260 313 379
#     4  11  20  43  71  90 124 172 227 267 317 383
#     4  12  26  41  65  98 134 173 219 273 326 387
#
# _framework density 21.869356
#
# number of rings (size 3 to 8) (size 9 to 14) (size 15 to 20)
#    0.000    0.500    7.500    2.625    3.500    0.000 
#    0.000    0.625    0.000    0.000    0.000    0.000 
#    0.000    0.000    0.000    0.000    0.000    0.000 
#
# Total GULP energy -198358.504858 kJ/mol
# GULP energy per Si atom -12397.406554 kJ/mol
# Density = 2.181958 g / cm^3
# Si number density = 21.869356 Si / 1000 Ang^3
#
#
#
# Elastic Constant Matrix: (Units=GPa)
#
#
# Indices 1 2 3 4 5 6 
#
# 1 76.0864 49.3966 30.9218 -12.8287 -33.4630 -12.8267
# 2 49.3966 138.5108 36.0447 -20.6597 -31.9471 -9.4007
# 3 30.9218 36.0447 97.8790 3.2401 -49.2599 -0.7510
# 4 -12.8287 -20.6597 3.2401 50.8577 -1.1048 -7.1056
# 5 -33.4630 -31.9471 -49.2599 -1.1048 42.8732 3.2410
# 6 -12.8267 -9.4007 -0.7510 -7.1056 3.2410 30.5076
#
#
#
# Elastic Compliance Matrix: (Units=1/GPa)
#
#
# Indices 1 2 3 4 5 6 
#
# 1 0.026102 -0.003757 0.003725 0.006566 0.021329 0.009172
# 2 -0.003757 0.010325 -0.000841 0.003666 0.003735 0.002039
# 3 0.003725 -0.000841 0.025024 -0.000531 0.031132 -0.001508
# 4 0.006566 0.003666 -0.000531 0.024222 0.007209 0.008753
# 5 0.021329 0.003735 0.031132 0.007209 0.078391 0.004236
# 6 0.009172 0.002039 -0.001508 0.008753 0.004236 0.038815
#
#
# Mechanical properties :
#
#
# Convention : Reuss Voigt Hill
#
# Bulk Modulus (GPa) = 16.74923 60.57801 38.66362
# Shear Modulus (GPa) = 22.26917 37.92190 30.09553
#
# Velocity S-wave (km/s) = 3.19452 4.16867 3.71368
# Velocity P-wave (km/s) = 4.61324 7.13656 6.00885
#
# Compressibility (1/GPa) = 0.05970424
#
# Stress axis : x y z
#
# Youngs Moduli (GPa) = 38.31149 96.85174 39.96193
#
# Poissons Ratio (x) = 0.36384 -0.14884
# Poissons Ratio (y) = 0.14392 0.03362
# Poissons Ratio (z) = -0.14270 0.08148
#
# Static dielectric constant tensor:
#      x y z
#    x 3.761060 -0.076350 -0.509200 
#    y -0.076350 4.248410 0.704430 
#    z -0.509200 0.704430 5.031010 
# 
# 
# High freq. dielectric constant tensor:
#      x y z
#    x 1.832290 -0.001330 -0.022310 
#    y -0.001330 1.878190 0.011040 
#    z -0.022310 0.011040 1.878280 
# 
# From -- ./inp_files/559778.got.cif
#   From: 2010.06.25/outbox.cif.g09.slc.cpg/sg2_280_cif.got.tgz:559778.got - 2010.06.27 13:26:56.
