data_PCOD8040395
_publ_section_title
;
Structure prediction by ZEFSAII (Michael W. Deem and Ramdas Pophale) SiO2 
 PCOD8040395
Probable space group: P -1
;
_chemical_formula_sum "Si O2"
_cell_formula_units_Z 16
_cell_length_a 8.940319
_cell_length_b 21.965149
_cell_length_c 7.876067
_cell_angle_alpha 120.644500
_cell_angle_beta 102.989442
_cell_angle_gamma 125.182036
_cell_volume 734.742727
_symmetry_space_group_name_H-M "P -1"
_symmetry_group_IT_number 2
_symmetry_cell_setting 'triclinic'
loop_
_space_group_symop_operation_xyz
x,y,z
-x,-y,-z
loop_
_atom_site_type_symbol
_atom_site_label
_atom_site_fract_x
_atom_site_fract_y
_atom_site_fract_z
Si Si1 0.689597 0.675611 0.826549
Si Si2 0.275298 0.149560 0.468746
Si Si3 0.004437 0.182020 0.568343
Si Si4 0.505741 0.974762 0.655204
Si Si5 0.176120 0.383096 0.749045
Si Si6 0.837991 0.589575 0.585300
Si Si7 0.178749 0.709077 0.170007
Si Si8 0.036905 0.106055 0.995948
O O1 0.716558 0.622426 0.622469
O O2 0.385200 0.556624 0.651672
O O3 0.745240 0.774317 0.901743
O O4 0.903414 0.742473 0.127355
O O5 0.171395 0.173396 0.593479
O O6 0.601968 0.271302 0.732052
O O7 0.194092 0.135996 0.237590
O O8 0.126490 0.021090 0.313765
O O9 0.068337 0.261028 0.546268
O O10 0.678956 0.042396 0.300412
O O11 0.354554 0.843623 0.449491
O O12 0.500000 0.000000 0.500000
O O13 0.812844 0.081679 0.953159
O O14 0.067733 0.379070 0.542675
O O15 0.062148 0.385919 0.884831
O O16 0.500000 0.500000 0.000000
O O17 0.077174 0.667596 0.891107
#
# Coordination Sequence:
#
# PCOD8040395 Si02
#       8
#     2   2   2   2   2   2   2   2
#     4  11  20  37  64  95 125 156 211 262 312 368
#     4  10  24  42  61  88 130 171 207 255 316 377
#     4  11  21  38  62  97 124 163 209 258 316 374
#     4  10  18  36  64  89 123 155 208 271 305 359
#     4  11  20  38  67  93 125 160 212 263 307 367
#     4  11  20  38  67  95 121 167 205 262 316 361
#     4  10  22  42  59  94 129 163 210 259 307 377
#     4  10  21  42  62  86 126 170 206 256 317 371
#
# _framework density 21.776330999999999
#
# number of rings (size 3 to 8) (size 9 to 14) (size 15 to 20)
#    0.000    1.500    5.000    1.500    0.000    1.000 
#    2.250    8.125    0.000    0.000    0.000    0.000 
#    0.000    0.000    0.000    0.000    0.000    0.000 
#
# Total GULP energy -198291.451070 kJ/mol
# GULP energy per Si atom -12393.215692 kJ/mol
# Density = 2.172677 g / cm^3
# Si number density = 21.776331 Si / 1000 Ang^3
#
#
#
# Elastic Constant Matrix: (Units=GPa)
#
#
# Indices 1 2 3 4 5 6 
#
# 1 112.4467 45.1817 29.3853 8.6287 25.5890 9.6127
# 2 45.1817 147.2457 46.3103 7.3401 8.5139 -2.7005
# 3 29.3853 46.3103 74.4328 -4.9410 15.9276 -3.6907
# 4 8.6287 7.3401 -4.9410 39.4950 -5.7630 -0.9945
# 5 25.5890 8.5139 15.9276 -5.7630 33.8862 -0.0029
# 6 9.6127 -2.7005 -3.6907 -0.9945 -0.0029 27.0385
#
#
#
# Elastic Compliance Matrix: (Units=1/GPa)
#
#
# Indices 1 2 3 4 5 6 
#
# 1 0.013462 -0.002818 -0.002152 -0.004161 -0.009154 -0.005515
# 2 -0.002818 0.009236 -0.005089 -0.001422 0.001958 0.001178
# 3 -0.002152 -0.005089 0.018976 0.003063 -0.005495 0.002959
# 4 -0.004161 -0.001422 0.003063 0.027940 0.006812 0.002784
# 5 -0.009154 0.001958 -0.005495 0.006812 0.039673 0.002955
# 6 -0.005515 0.001178 0.002959 0.002784 0.002955 0.039569
#
#
# Mechanical properties :
#
#
# Convention : Reuss Voigt Hill
#
# Bulk Modulus (GPa) = 46.39006 63.98664 55.18835
# Shear Modulus (GPa) = 28.38333 34.30048 31.34190
#
# Velocity S-wave (km/s) = 3.61418 3.97309 3.79788
# Velocity P-wave (km/s) = 6.22621 7.10596 6.68058
#
# Compressibility (1/GPa) = 0.02155634
#
# Stress axis : x y z
#
# Youngs Moduli (GPa) = 74.28408 108.27349 52.69707
#
# Poissons Ratio (x) = 0.30515 0.11340
# Poissons Ratio (y) = 0.20936 0.26816
# Poissons Ratio (z) = 0.15985 0.55097
#
# Static dielectric constant tensor:
#      x y z
#    x 4.013200 0.053180 0.281860 
#    y 0.053180 4.077410 0.228730 
#    z 0.281860 0.228730 3.971050 
# 
# 
# High freq. dielectric constant tensor:
#      x y z
#    x 1.828480 -0.003700 0.016000 
#    y -0.003700 1.861640 0.004530 
#    z 0.016000 0.004530 1.851780 
# 
# From -- ./inp_files/226387.got.cif
#   From: 2010.06.25/outbox.cif.g09.slc.cpg/sg2_114_cif.got.tgz:226387.got - 2010.06.27 13:26:56.
