data_PCOD8040582
_publ_section_title
;
Structure prediction by ZEFSAII (Michael W. Deem and Ramdas Pophale) SiO2 
 PCOD8040582
Probable space group: P -1
;
_chemical_formula_sum "Si O2"
_cell_formula_units_Z 16
_cell_length_a 15.489254
_cell_length_b 8.530399
_cell_length_c 12.802728
_cell_angle_alpha 78.424032
_cell_angle_beta 151.943400
_cell_angle_gamma 102.945992
_cell_volume 775.401684
_symmetry_space_group_name_H-M "P -1"
_symmetry_group_IT_number 2
_symmetry_cell_setting 'triclinic'
loop_
_space_group_symop_operation_xyz
x,y,z
-x,-y,-z
loop_
_atom_site_type_symbol
_atom_site_label
_atom_site_fract_x
_atom_site_fract_y
_atom_site_fract_z
Si Si1 0.257272 0.067286 0.942217
Si Si2 0.408451 0.556172 0.046011
Si Si3 0.098832 0.563731 0.993230
Si Si4 0.759332 0.648813 0.268349
Si Si5 0.062208 0.218018 0.370506
Si Si6 0.685918 0.693306 0.856835
Si Si7 0.548378 0.837122 0.284213
Si Si8 0.521487 0.313040 0.559553
O O1 0.269943 0.184073 0.841211
O O2 0.213609 0.157153 0.991473
O O3 0.095285 0.926981 0.772304
O O4 0.459836 0.004374 0.175724
O O5 0.230972 0.491484 0.791634
O O6 0.588130 0.585239 0.164863
O O7 0.441661 0.417893 0.184274
O O8 0.388160 0.717915 0.068946
O O9 0.963096 0.654249 0.764287
O O10 0.164517 0.411937 0.021245
O O11 0.263213 0.699167 0.185515
O O12 0.000000 0.500000 0.000000
O O13 0.933854 0.684139 0.527498
O O14 0.258807 0.144955 0.574666
O O15 0.556199 0.766733 0.620853
O O16 0.593047 0.768982 0.455214
O O17 0.500000 0.500000 0.500000
#
# Coordination Sequence:
#
# PCOD8040582 Si02
#       8
#     2   2   2   2   2   2   2   2
#     4  11  23  43  57  91 131 164 202 248 307 371
#     4   9  17  37  61  91 112 156 210 255 293 351
#     4  11  22  39  63  95 120 156 208 262 303 357
#     4   9  21  36  63  89 122 160 207 259 301 353
#     4  11  22  40  62  90 125 164 205 248 309 368
#     4  10  21  39  64  88 125 159 204 254 307 363
#     4  11  21  39  65  88 125 163 203 249 311 362
#     4  10  18  37  63  88 114 157 199 251 304 352
#
# _framework density 20.634466
#
# number of rings (size 3 to 8) (size 9 to 14) (size 15 to 20)
#    0.000    1.750    3.750    1.875    1.750    2.500 
#    2.250    9.375    0.000    0.000    0.000    0.000 
#    0.000    0.000    0.000    0.000    0.000    0.000 
#
# Total GULP energy -198250.510538 kJ/mol
# GULP energy per Si atom -12390.656909 kJ/mol
# Density = 2.058750 g / cm^3
# Si number density = 20.634466 Si / 1000 Ang^3
#
#
#
# Elastic Constant Matrix: (Units=GPa)
#
#
# Indices 1 2 3 4 5 6 
#
# 1 107.9898 46.8255 53.3805 2.3717 -23.8808 2.0437
# 2 46.8255 70.6260 37.9908 -0.3286 -5.3832 -6.7251
# 3 53.3805 37.9908 101.6866 6.6791 -17.4618 -10.3726
# 4 2.3717 -0.3286 6.6791 31.8448 -1.5170 -9.9489
# 5 -23.8808 -5.3832 -17.4618 -1.5170 37.6681 -1.4228
# 6 2.0437 -6.7251 -10.3726 -9.9489 -1.4228 27.2505
#
#
#
# Elastic Compliance Matrix: (Units=1/GPa)
#
#
# Indices 1 2 3 4 5 6 
#
# 1 0.017242 -0.008728 -0.005037 -0.001740 0.007066 -0.005631
# 2 -0.008728 0.022407 -0.004100 0.003315 -0.003885 0.005631
# 3 -0.005037 -0.004100 0.015168 -0.001158 0.003390 0.004893
# 4 -0.001740 0.003315 -0.001158 0.036142 0.000808 0.013745
# 5 0.007066 -0.003885 0.003390 0.000808 0.032143 0.001775
# 6 -0.005631 0.005631 0.004893 0.013745 0.001775 0.045482
#
#
# Mechanical properties :
#
#
# Convention : Reuss Voigt Hill
#
# Bulk Modulus (GPa) = 52.39428 61.85513 57.12470
# Shear Modulus (GPa) = 23.73330 28.82638 26.27984
#
# Velocity S-wave (km/s) = 3.39511 3.74170 3.57261
# Velocity P-wave (km/s) = 6.38872 6.97917 6.69046
#
# Compressibility (1/GPa) = 0.01908605
#
# Stress axis : x y z
#
# Youngs Moduli (GPa) = 57.99913 44.62973 65.92985
#
# Poissons Ratio (x) = 0.38951 0.33209
# Poissons Ratio (y) = 0.50619 0.27033
# Poissons Ratio (z) = 0.29215 0.18300
#
# Static dielectric constant tensor:
#      x y z
#    x 3.988290 -0.152040 -0.622060 
#    y -0.152040 3.777190 0.274130 
#    z -0.622060 0.274130 4.230360 
# 
# 
# High freq. dielectric constant tensor:
#      x y z
#    x 1.812730 0.008540 -0.030060 
#    y 0.008540 1.795300 0.009230 
#    z -0.030060 0.009230 1.803240 
# 
# From -- ./inp_files/417169.got.cif
#   From: 2010.06.25/outbox.cif.g09.slc.cpg/sg2_209_cif.got.tgz:417169.got - 2010.06.27 13:26:56.
