data_PCOD8040313
_publ_section_title
;
Structure prediction by ZEFSAII (Michael W. Deem and Ramdas Pophale) SiO2 
 PCOD8040313
Probable space group: P -1
;
_chemical_formula_sum "Si O2"
_cell_formula_units_Z 14
_cell_length_a 9.318363
_cell_length_b 8.570211
_cell_length_c 12.276126
_cell_angle_alpha 111.658729
_cell_angle_beta 49.641956
_cell_angle_gamma 120.895747
_cell_volume 640.049989
_symmetry_space_group_name_H-M "P -1"
_symmetry_group_IT_number 2
_symmetry_cell_setting 'triclinic'
loop_
_space_group_symop_operation_xyz
x,y,z
-x,-y,-z
loop_
_atom_site_type_symbol
_atom_site_label
_atom_site_fract_x
_atom_site_fract_y
_atom_site_fract_z
Si Si1 0.070956 0.808591 0.812564
Si Si2 0.913142 0.808819 0.123185
Si Si3 0.846654 0.096885 0.579952
Si Si4 0.727360 0.039900 0.857656
Si Si5 0.499265 0.456349 0.661471
Si Si6 0.520737 0.233992 0.398079
Si Si7 0.847210 0.695097 0.683842
O O1 0.264084 0.767478 0.742798
O O2 0.937554 0.669946 0.749455
O O3 0.142016 0.014694 0.785061
O O4 0.931441 0.781412 0.979506
O O5 0.732810 0.626816 0.205587
O O6 0.117404 0.832926 0.095900
O O7 0.974072 0.269468 0.486076
O O8 0.772931 0.146471 0.745932
O O9 0.651307 0.968080 0.574169
O O10 0.000000 0.000000 0.500000
O O11 0.758332 0.852753 0.777400
O O12 0.500000 0.000000 0.000000
O O13 0.538525 0.306763 0.530563
O O14 0.542275 0.640405 0.620769
O O15 0.658563 0.508256 0.697026
#
# Coordination Sequence:
#
# PCOD8040313 Si02
#       7
#     2   2   2   2   2   2   2
#     4  10  23  44  60  86 124 166 201 242 303 379
#     4  10  23  40  65  86 125 162 201 249 306 356
#     4  10  18  36  61  87 116 161 197 246 289 359
#     4  10  19  36  61  91 116 158 207 246 286 365
#     4  11  23  38  62  93 122 156 203 258 300 347
#     4  11  22  38  64  91 121 157 206 250 299 361
#     4  10  22  39  61  86 126 160 198 250 305 356
#
# _framework density 21.873293
#
# number of rings (size 3 to 8) (size 9 to 14) (size 15 to 20)
#    0.000    1.714    2.857    3.429    2.000    4.000 
#    0.000    0.000    0.000    0.000    0.000    0.000 
#    0.000    0.000    0.000    0.000    0.000    0.000 
#
# Total GULP energy -173608.778061 kJ/mol
# GULP energy per Si atom -12400.627004 kJ/mol
# Density = 2.182351 g / cm^3
# Si number density = 21.873293 Si / 1000 Ang^3
#
#
#
# Elastic Constant Matrix: (Units=GPa)
#
#
# Indices 1 2 3 4 5 6 
#
# 1 107.1123 35.0256 45.2490 5.4709 11.9730 44.6479
# 2 35.0256 51.6195 25.4717 -18.3747 6.9040 33.7836
# 3 45.2490 25.4717 125.6825 -14.7450 6.8700 18.7794
# 4 5.4709 -18.3747 -14.7450 23.0771 7.2262 -7.3424
# 5 11.9730 6.9040 6.8700 7.2262 40.3502 6.2562
# 6 44.6479 33.7836 18.7794 -7.3424 6.2562 38.8141
#
#
#
# Elastic Compliance Matrix: (Units=1/GPa)
#
#
# Indices 1 2 3 4 5 6 
#
# 1 0.026911 -0.006509 -0.007555 -0.026035 0.003277 -0.027087
# 2 -0.006509 0.070363 0.000845 0.048227 -0.012210 -0.043074
# 3 -0.007555 0.000845 0.011313 0.012254 -0.002838 0.005258
# 4 -0.026035 0.048227 0.012254 0.104368 -0.022134 0.005353
# 5 0.003277 -0.012210 -0.002838 -0.022134 0.030482 -0.000869
# 6 -0.027087 -0.043074 0.005258 0.005353 -0.000869 0.093023
#
#
# Mechanical properties :
#
#
# Convention : Reuss Voigt Hill
#
# Bulk Modulus (GPa) = 12.17342 55.10076 33.63709
# Shear Modulus (GPa) = 12.81129 32.35948 22.58538
#
# Velocity S-wave (km/s) = 2.42276 3.85048 3.21683
# Velocity P-wave (km/s) = 3.66113 6.70923 5.40452
#
# Compressibility (1/GPa) = 0.08214620
#
# Stress axis : x y z
#
# Youngs Moduli (GPa) = 37.16018 14.21195 88.39692
#
# Poissons Ratio (x) = 0.09251 0.66788
# Poissons Ratio (y) = 0.24189 -0.07466
# Poissons Ratio (z) = 0.28076 -0.01200
#
# Static dielectric constant tensor:
#      x y z
#    x 4.050890 0.281890 0.252410 
#    y 0.281890 3.751000 -0.092060 
#    z 0.252410 -0.092060 4.168700 
# 
# 
# High freq. dielectric constant tensor:
#      x y z
#    x 1.866250 0.024020 0.008570 
#    y 0.024020 1.828920 -0.003610 
#    z 0.008570 -0.003610 1.866450 
# 
# From -- ./inp_files/156738.got.cif
#   From: 2010.06.25/outbox.cif.g09.slc.cpg/sg2_79_cif.got.tgz:156738.got - 2010.06.27 13:26:56.
