data_PCOD8040392
_publ_section_title
;
Structure prediction by ZEFSAII (Michael W. Deem and Ramdas Pophale) SiO2 
 PCOD8040392
Probable space group: P -1
;
_chemical_formula_sum "Si O2"
_cell_formula_units_Z 16
_cell_length_a 18.172439
_cell_length_b 11.877528
_cell_length_c 17.212363
_cell_angle_alpha 27.700959
_cell_angle_beta 147.340762
_cell_angle_gamma 129.273970
_cell_volume 833.237467
_symmetry_space_group_name_H-M "P -1"
_symmetry_group_IT_number 2
_symmetry_cell_setting 'triclinic'
loop_
_space_group_symop_operation_xyz
x,y,z
-x,-y,-z
loop_
_atom_site_type_symbol
_atom_site_label
_atom_site_fract_x
_atom_site_fract_y
_atom_site_fract_z
Si Si1 0.278795 0.594503 0.742981
Si Si2 0.698751 0.273376 0.730268
Si Si3 0.192002 0.453722 0.138107
Si Si4 0.541896 0.810732 0.337326
Si Si5 0.511852 0.378233 0.958469
Si Si6 0.001993 0.131218 0.170399
Si Si7 0.657014 0.918186 0.794645
Si Si8 0.358100 0.325611 0.216011
O O1 0.364952 0.698388 0.816580
O O2 0.100961 0.806930 0.459185
O O3 0.346197 0.574795 0.727866
O O4 0.302370 0.295202 0.969088
O O5 0.598687 0.599621 0.444517
O O6 0.620111 0.153385 0.795607
O O7 0.701351 0.152515 0.719875
O O8 0.872780 0.191805 0.954623
O O9 0.333039 0.302440 0.413872
O O10 0.110277 0.266313 0.160244
O O11 0.243592 0.519470 0.060539
O O12 0.074443 0.744204 0.890666
O O13 0.519682 0.095661 0.108989
O O14 0.550169 0.523964 0.832400
O O15 0.733359 0.759721 0.878871
O O16 0.475903 0.054278 0.531540
#
# Coordination Sequence:
#
# PCOD8040392 Si02
#       8
#     2   2   2   2   2   2   2   2
#     4  10  19  34  58  85 114 142 195 235 270 330
#     4  10  20  35  58  86 114 147 188 232 280 333
#     4  10  19  39  59  85 111 149 195 229 273 340
#     4  10  18  36  64  81 109 148 198 234 267 327
#     4  10  19  33  59  90 107 143 195 241 267 323
#     4  10  22  33  61  85 115 148 187 233 281 330
#     4  10  20  36  56  85 111 146 186 235 277 325
#     4  10  21  34  62  85 111 144 193 239 276 324
#
# _framework density 19.202210999999998
#
# number of rings (size 3 to 8) (size 9 to 14) (size 15 to 20)
#    0.000    2.000    3.750    0.000    5.250    0.500 
#    0.000    3.750    0.000    0.000    0.000    0.000 
#    0.000    0.000    0.000    0.000    0.000    0.000 
#
# Total GULP energy -198293.580514 kJ/mol
# GULP energy per Si atom -12393.348782 kJ/mol
# Density = 1.915851 g / cm^3
# Si number density = 19.202211 Si / 1000 Ang^3
#
#
#
# Elastic Constant Matrix: (Units=GPa)
#
#
# Indices 1 2 3 4 5 6 
#
# 1 113.1776 27.5268 36.9303 -14.9100 9.5368 -9.6921
# 2 27.5268 109.9667 23.2010 -12.4223 -0.5370 -9.7222
# 3 36.9303 23.2010 75.3535 -13.6313 8.7385 3.9063
# 4 -14.9100 -12.4223 -13.6313 35.3642 1.2190 3.4478
# 5 9.5368 -0.5370 8.7385 1.2190 16.2159 -1.4083
# 6 -9.6921 -9.7222 3.9063 3.4478 -1.4083 23.4628
#
#
#
# Elastic Compliance Matrix: (Units=1/GPa)
#
#
# Indices 1 2 3 4 5 6 
#
# 1 0.011727 -0.001308 -0.004652 0.002401 -0.004226 0.004470
# 2 -0.001308 0.010602 -0.002910 0.001531 0.002946 0.004289
# 3 -0.004652 -0.002910 0.018784 0.005287 -0.008535 -0.007544
# 4 0.002401 0.001531 0.005287 0.032543 -0.007044 -0.004459
# 5 -0.004226 0.002946 -0.008535 -0.007044 0.069912 0.006128
# 6 0.004470 0.004289 -0.007544 -0.004459 0.006128 0.048523
#
#
# Mechanical properties :
#
#
# Convention : Reuss Voigt Hill
#
# Bulk Modulus (GPa) = 42.78561 52.64599 47.71580
# Shear Modulus (GPa) = 22.97567 29.06455 26.02011
#
# Velocity S-wave (km/s) = 3.46282 3.89473 3.68510
# Velocity P-wave (km/s) = 6.19016 6.90662 6.55818
#
# Compressibility (1/GPa) = 0.02337234
#
# Stress axis : x y z
#
# Youngs Moduli (GPa) = 85.27329 94.32521 53.23724
#
# Poissons Ratio (x) = 0.12340 0.24765
# Poissons Ratio (y) = 0.11155 0.15492
# Poissons Ratio (z) = 0.39667 0.27449
#
# Static dielectric constant tensor:
#      x y z
#    x 3.355740 -0.165350 0.258490 
#    y -0.165350 3.703900 -0.156630 
#    z 0.258490 -0.156630 3.347110 
# 
# 
# High freq. dielectric constant tensor:
#      x y z
#    x 1.720020 -0.011180 0.018410 
#    y -0.011180 1.753510 -0.018520 
#    z 0.018410 -0.018520 1.726800 
# 
# From -- ./inp_files/238394.got.cif
#   From: 2010.06.25/outbox.cif.g09.slc.cpg/sg2_120_cif.got.tgz:238394.got - 2010.06.27 13:26:56.
