data_PCOD8040346
_publ_section_title
;
Structure prediction by ZEFSAII (Michael W. Deem and Ramdas Pophale) SiO2 
 PCOD8040346
Probable space group: P -1
;
_chemical_formula_sum "Si O2"
_cell_formula_units_Z 16
_cell_length_a 15.709877
_cell_length_b 13.659052
_cell_length_c 11.453421
_cell_angle_alpha 138.333441
_cell_angle_beta 28.144214
_cell_angle_gamma 138.179908
_cell_volume 740.750382
_symmetry_space_group_name_H-M "P -1"
_symmetry_group_IT_number 2
_symmetry_cell_setting 'triclinic'
loop_
_space_group_symop_operation_xyz
x,y,z
-x,-y,-z
loop_
_atom_site_type_symbol
_atom_site_label
_atom_site_fract_x
_atom_site_fract_y
_atom_site_fract_z
Si Si1 0.735583 0.826021 0.195613
Si Si2 0.121397 0.816183 0.653109
Si Si3 0.310188 0.028662 0.212767
Si Si4 0.971968 0.221859 0.520941
Si Si5 0.980378 0.464612 0.128292
Si Si6 0.794901 0.991848 0.943421
Si Si7 0.807685 0.762600 0.301648
Si Si8 0.667598 0.227279 0.427784
O O1 0.694153 0.790804 0.351061
O O2 0.541621 0.752998 0.296274
O O3 0.807727 0.005713 0.244834
O O4 0.898807 0.750211 0.890737
O O5 0.234947 0.731310 0.525860
O O6 0.151852 0.781825 0.449741
O O7 0.301802 0.196599 0.417218
O O8 0.295451 0.025011 0.089442
O O9 0.137688 0.897671 0.356876
O O10 0.500000 0.000000 0.000000
O O11 0.021246 0.388447 0.663507
O O12 0.160781 0.167618 0.213613
O O13 0.787052 0.338534 0.282384
O O14 0.000000 0.500000 0.000000
O O15 0.165900 0.407812 0.881478
O O16 0.985004 0.124564 0.848106
O O17 0.651332 0.048358 0.251936
#
# Coordination Sequence:
#
# PCOD8040346 Si02
#       8
#     2   2   2   2   2   2   2   2
#     4  11  20  40  66  98 125 160 216 264 316 372
#     4  11  21  40  65  95 131 159 211 267 319 367
#     4  11  21  36  60  95 123 156 214 272 312 368
#     4  11  22  39  62  90 124 170 206 259 319 372
#     4  11  23  43  64  90 126 177 210 249 324 381
#     4  10  18  36  62  87 120 163 207 262 314 363
#     4  10  19  39  61  88 124 163 208 254 319 371
#     4  11  23  40  68  95 125 172 209 258 318 381
#
# _framework density 21.599717999999999
#
# number of rings (size 3 to 8) (size 9 to 14) (size 15 to 20)
#    0.000    1.250    5.000    5.625    0.000    0.500 
#    0.000    4.375    0.000    0.000    0.000    0.000 
#    0.000    0.000    0.000    0.000    0.000    0.000 
#
# Total GULP energy -198319.983895 kJ/mol
# GULP energy per Si atom -12394.998993 kJ/mol
# Density = 2.155056 g / cm^3
# Si number density = 21.599718 Si / 1000 Ang^3
#
#
#
# Elastic Constant Matrix: (Units=GPa)
#
#
# Indices 1 2 3 4 5 6 
#
# 1 161.6540 21.0304 20.2952 -10.9442 -13.5406 4.7886
# 2 21.0304 58.0132 29.3884 13.7852 -11.1999 0.0196
# 3 20.2952 29.3884 71.3112 6.7484 -23.5460 12.5867
# 4 -10.9442 13.7852 6.7484 30.4441 5.7778 0.8866
# 5 -13.5406 -11.1999 -23.5460 5.7778 38.3704 -2.7184
# 6 4.7886 0.0196 12.5867 0.8866 -2.7184 25.8227
#
#
#
# Elastic Compliance Matrix: (Units=1/GPa)
#
#
# Indices 1 2 3 4 5 6 
#
# 1 0.007016 -0.002995 -0.000829 0.004011 0.000419 -0.000988
# 2 -0.002995 0.026182 -0.008655 -0.011828 0.003446 0.005523
# 3 -0.000829 -0.008655 0.023768 -0.003553 0.011587 -0.010083
# 4 0.004011 -0.011828 -0.003553 0.042516 -0.010732 -0.001593
# 5 0.000419 0.003446 0.011587 -0.010732 0.035829 -0.001588
# 6 -0.000988 0.005523 -0.010083 -0.001593 -0.001588 0.043707
#
#
# Mechanical properties :
#
#
# Convention : Reuss Voigt Hill
#
# Bulk Modulus (GPa) = 31.24405 48.04515 39.64460
# Shear Modulus (GPa) = 23.29428 33.61175 28.45301
#
# Velocity S-wave (km/s) = 3.28754 3.94905 3.63338
# Velocity P-wave (km/s) = 5.37652 6.56392 5.99967
#
# Compressibility (1/GPa) = 0.03200609
#
# Stress axis : x y z
#
# Youngs Moduli (GPa) = 142.53646 38.19424 42.07415
#
# Poissons Ratio (x) = 0.11440 0.03489
# Poissons Ratio (y) = 0.42693 0.36415
# Poissons Ratio (z) = 0.11820 0.33057
#
# Static dielectric constant tensor:
#      x y z
#    x 4.488610 -0.135500 0.142720 
#    y -0.135500 3.573060 0.219400 
#    z 0.142720 0.219400 4.701020 
# 
# 
# High freq. dielectric constant tensor:
#      x y z
#    x 1.869510 -0.006170 -0.001060 
#    y -0.006170 1.796550 0.004590 
#    z -0.001060 0.004590 1.847480 
# 
# From -- ./inp_files/455039.got.cif
#   From: 2010.06.25/outbox.cif.g09.slc.cpg/sg2_228_cif.got.tgz:455039.got - 2010.06.27 13:26:56.
