data_PCOD8040556
_publ_section_title
;
Structure prediction by ZEFSAII (Michael W. Deem and Ramdas Pophale) SiO2 
 PCOD8040556
Probable space group: P -1
;
_chemical_formula_sum "Si O2"
_cell_formula_units_Z 14
_cell_length_a 13.686874
_cell_length_b 14.303293
_cell_length_c 10.795430
_cell_angle_alpha 43.405007
_cell_angle_beta 33.087726
_cell_angle_gamma 67.442566
_cell_volume 634.220947
_symmetry_space_group_name_H-M "P -1"
_symmetry_group_IT_number 2
_symmetry_cell_setting 'triclinic'
loop_
_space_group_symop_operation_xyz
x,y,z
-x,-y,-z
loop_
_atom_site_type_symbol
_atom_site_label
_atom_site_fract_x
_atom_site_fract_y
_atom_site_fract_z
Si Si1 0.926186 0.672366 0.261982
Si Si2 0.441889 0.325998 0.113020
Si Si3 0.725253 0.855550 0.281744
Si Si4 0.007407 0.470896 0.206094
Si Si5 0.428082 0.643821 0.311517
Si Si6 0.975679 0.247401 0.659404
Si Si7 0.496735 0.362541 0.503235
O O1 0.920359 0.831067 0.085050
O O2 0.040890 0.638485 0.064055
O O3 0.080082 0.723848 0.171093
O O4 0.667609 0.513566 0.717222
O O5 0.393957 0.207918 0.395885
O O6 0.241456 0.340101 0.286624
O O7 0.463306 0.249463 0.034367
O O8 0.556559 0.759722 0.437047
O O9 0.836030 0.051389 0.960633
O O10 0.816487 0.395117 0.375242
O O11 0.906276 0.333740 0.556521
O O12 0.235247 0.506753 0.883912
O O13 0.393710 0.464827 0.495477
O O14 0.579092 0.734248 0.187871
#
# Coordination Sequence:
#
# PCOD8040556 Si02
#       7
#     2   2   2   2   2   2   2
#     4  10  19  35  59  90 118 156 205 242 290 356
#     4  10  18  37  62  88 115 161 198 246 287 354
#     4  11  21  37  60  91 126 157 197 241 309 358
#     4  11  20  38  63  91 115 155 207 248 290 352
#     4  10  22  38  66  90 114 154 216 244 289 350
#     4  11  21  34  58  94 128 155 191 252 305 353
#     4  11  21  41  64  88 119 160 201 251 292 353
#
# _framework density 22.074327
#
# number of rings (size 3 to 8) (size 9 to 14) (size 15 to 20)
#    0.000    1.429    4.286    5.143    0.000    1.143 
#    0.000   10.714    0.000    0.000    0.000    0.000 
#    0.000    0.000    0.000    0.000    0.000    0.000 
#
# Total GULP energy -173472.239757 kJ/mol
# GULP energy per Si atom -12390.874268 kJ/mol
# Density = 2.202409 g / cm^3
# Si number density = 22.074327 Si / 1000 Ang^3
#
#
#
# Elastic Constant Matrix: (Units=GPa)
#
#
# Indices 1 2 3 4 5 6 
#
# 1 151.2744 22.5606 22.8681 -3.3935 7.5043 12.4321
# 2 22.5606 42.3712 16.3763 0.6643 3.1588 -0.4913
# 3 22.8681 16.3763 27.3155 3.1303 -3.6808 3.6661
# 4 -3.3935 0.6643 3.1303 24.2312 -3.0472 -3.5252
# 5 7.5043 3.1588 -3.6808 -3.0472 24.8247 10.3607
# 6 12.4321 -0.4913 3.6661 -3.5252 10.3607 32.1731
#
#
#
# Elastic Compliance Matrix: (Units=1/GPa)
#
#
# Indices 1 2 3 4 5 6 
#
# 1 0.008052 -0.001904 -0.005845 0.001423 -0.002214 -0.001606
# 2 -0.001904 0.033400 -0.020761 0.001302 -0.009427 0.006790
# 3 -0.005845 -0.020761 0.058506 -0.007290 0.016745 -0.010916
# 4 0.001423 0.001302 -0.007290 0.043247 0.001766 0.004471
# 5 -0.002214 -0.009427 0.016745 0.001766 0.052298 -0.017845
# 6 -0.001606 0.006790 -0.010916 0.004471 -0.017845 0.039286
#
#
# Mechanical properties :
#
#
# Convention : Reuss Voigt Hill
#
# Bulk Modulus (GPa) = 23.28941 38.28567 30.78754
# Shear Modulus (GPa) = 16.33338 26.85621 21.59479
#
# Velocity S-wave (km/s) = 2.72311 3.49180 3.13113
# Velocity P-wave (km/s) = 4.52332 5.79987 5.20091
#
# Compressibility (1/GPa) = 0.04293797
#
# Stress axis : x y z
#
# Youngs Moduli (GPa) = 124.19658 29.94037 17.09216
#
# Poissons Ratio (x) = 0.05700 0.09991
# Poissons Ratio (y) = 0.23646 0.35485
# Poissons Ratio (z) = 0.72596 0.62159
#
# Static dielectric constant tensor:
#      x y z
#    x 4.447850 0.146310 0.121770 
#    y 0.146310 3.798740 0.270590 
#    z 0.121770 0.270590 3.559540 
# 
# 
# High freq. dielectric constant tensor:
#      x y z
#    x 1.901000 0.003110 0.004200 
#    y 0.003110 1.850250 0.025030 
#    z 0.004200 0.025030 1.817510 
# 
# From -- ./inp_files/357307.got.cif
#   From: 2010.06.25/outbox.cif.g09.slc.cpg/sg2_179_cif.got.tgz:357307.got - 2010.06.27 13:26:56.
