data_PCOD8040471
_publ_section_title
;
Structure prediction by ZEFSAII (Michael W. Deem and Ramdas Pophale) SiO2 
 PCOD8040471
Probable space group: P -1
;
_chemical_formula_sum "Si O2"
_cell_formula_units_Z 16
_cell_length_a 11.331839
_cell_length_b 12.078542
_cell_length_c 12.301617
_cell_angle_alpha 132.995774
_cell_angle_beta 140.576742
_cell_angle_gamma 59.959536
_cell_volume 780.814178
_symmetry_space_group_name_H-M "P -1"
_symmetry_group_IT_number 2
_symmetry_cell_setting 'triclinic'
loop_
_space_group_symop_operation_xyz
x,y,z
-x,-y,-z
loop_
_atom_site_type_symbol
_atom_site_label
_atom_site_fract_x
_atom_site_fract_y
_atom_site_fract_z
Si Si1 0.270938 0.094808 0.789834
Si Si2 0.794848 0.189274 0.707852
Si Si3 0.369235 0.691637 0.122447
Si Si4 0.180120 0.037472 0.918553
Si Si5 0.541870 0.023584 0.761479
Si Si6 0.739466 0.539827 0.290084
Si Si7 0.128658 0.683760 0.608443
Si Si8 0.914818 0.236463 0.599953
O O1 0.458256 0.114841 0.865962
O O2 0.138148 0.227011 0.747109
O O3 0.302630 0.106359 0.950230
O O4 0.174341 0.932592 0.584983
O O5 0.745197 0.303984 0.844076
O O6 0.846568 0.292825 0.707274
O O7 0.615232 0.075663 0.481485
O O8 0.973281 0.097667 0.809925
O O9 0.360391 0.854878 0.168626
O O10 0.581998 0.657894 0.273027
O O11 0.274380 0.556199 0.894603
O O12 0.167980 0.857024 0.782142
O O13 0.296936 0.078373 0.139932
O O14 0.725631 0.424281 0.305157
O O15 0.929139 0.640308 0.489128
O O16 0.143089 0.658868 0.471259
#
# Coordination Sequence:
#
# PCOD8040471 Si02
#       8
#     2   2   2   2   2   2   2   2
#     4   8  15  28  52  84 112 136 171 219 269 330
#     4  10  22  37  54  83 119 142 166 224 282 334
#     4  11  22  39  52  78 111 147 185 219 267 324
#     4  10  19  34  57  87 112 137 178 222 277 329
#     4  11  19  33  56  86 110 146 173 218 281 325
#     4  10  22  37  58  75 103 146 193 230 256 303
#     4  10  18  37  58  83 102 138 189 234 259 309
#     4   8  15  31  56  78 108 142 172 219 278 318
#
# _framework density 20.491433000000001
#
# number of rings (size 3 to 8) (size 9 to 14) (size 15 to 20)
#    0.000    2.250    1.250    4.500    0.000    0.500 
#    4.500    1.250    0.000    0.000    0.000    0.000 
#    0.000    0.000    0.000    0.000    0.000    0.000 
#
# Total GULP energy -198313.980576 kJ/mol
# GULP energy per Si atom -12394.623786 kJ/mol
# Density = 2.044479 g / cm^3
# Si number density = 20.491433 Si / 1000 Ang^3
#
#
#
# Elastic Constant Matrix: (Units=GPa)
#
#
# Indices 1 2 3 4 5 6 
#
# 1 98.5554 30.0160 26.0193 -11.8429 -26.9398 2.8261
# 2 30.0160 57.7061 31.8090 -22.8604 -21.1174 6.5761
# 3 26.0193 31.8090 58.5894 -28.3261 -2.9653 -8.9920
# 4 -11.8429 -22.8604 -28.3261 28.4330 6.0917 0.7138
# 5 -26.9398 -21.1174 -2.9653 6.0917 28.7908 -4.5558
# 6 2.8261 6.5761 -8.9920 0.7138 -4.5558 21.1800
#
#
#
# Elastic Compliance Matrix: (Units=1/GPa)
#
#
# Indices 1 2 3 4 5 6 
#
# 1 0.016214 0.000952 -0.010368 -0.006061 0.015560 -0.003309
# 2 0.000952 0.043504 -0.020720 0.009611 0.025913 -0.017181
# 3 -0.010368 -0.020720 0.052882 0.036090 -0.023284 0.024043
# 4 -0.006061 0.009611 0.036090 0.078294 -0.010153 0.008324
# 5 0.015560 0.025913 -0.023284 -0.010153 0.067227 -0.005205
# 6 -0.003309 -0.017181 0.024043 0.008324 -0.005205 0.061798
#
#
# Mechanical properties :
#
#
# Convention : Reuss Voigt Hill
#
# Bulk Modulus (GPa) = 19.11084 43.39329 31.25207
# Shear Modulus (GPa) = 12.57440 24.14786 18.36113
#
# Velocity S-wave (km/s) = 2.47987 3.43656 2.99664
# Velocity P-wave (km/s) = 4.18881 6.08020 5.22087
#
# Compressibility (1/GPa) = 0.05232633
#
# Stress axis : x y z
#
# Youngs Moduli (GPa) = 61.67560 22.98634 18.91017
#
# Poissons Ratio (x) = -0.02187 0.19606
# Poissons Ratio (y) = -0.05869 0.39183
# Poissons Ratio (z) = 0.63944 0.47629
#
# Static dielectric constant tensor:
#      x y z
#    x 3.868160 0.200340 -0.130020 
#    y 0.200340 3.658130 -0.482000 
#    z -0.130020 -0.482000 3.687040 
# 
# 
# High freq. dielectric constant tensor:
#      x y z
#    x 1.797400 0.018040 0.004800 
#    y 0.018040 1.781430 -0.034780 
#    z 0.004800 -0.034780 1.790050 
# 
# From -- ./inp_files/251896.got.cif
#   From: 2010.06.25/outbox.cif.g09.slc.cpg/sg2_126_cif.got.tgz:251896.got - 2010.06.27 13:26:56.
