data_PCOD8040232
_publ_section_title
;
Structure prediction by ZEFSAII (Michael W. Deem and Ramdas Pophale) SiO2 
 PCOD8040232
Probable space group: P -1
;
_chemical_formula_sum "Si O2"
_cell_formula_units_Z 14
_cell_length_a 8.621098
_cell_length_b 17.403574
_cell_length_c 16.626070
_cell_angle_alpha 158.177556
_cell_angle_beta 122.590766
_cell_angle_gamma 46.724144
_cell_volume 629.555282
_symmetry_space_group_name_H-M "P -1"
_symmetry_group_IT_number 2
_symmetry_cell_setting 'triclinic'
loop_
_space_group_symop_operation_xyz
x,y,z
-x,-y,-z
loop_
_atom_site_type_symbol
_atom_site_label
_atom_site_fract_x
_atom_site_fract_y
_atom_site_fract_z
Si Si1 0.748529 0.064383 0.587989
Si Si2 0.729893 0.735385 0.393983
Si Si3 0.394797 0.246565 0.316051
Si Si4 0.422861 0.511426 0.306051
Si Si5 0.794460 0.692833 0.845447
Si Si6 0.555687 0.042252 0.807128
Si Si7 0.144594 0.054070 0.675841
O O1 0.475245 0.273997 0.705387
O O2 0.881298 0.195222 0.771045
O O3 0.804873 0.853794 0.464693
O O4 0.857940 0.909529 0.385009
O O5 0.939332 0.445609 0.193387
O O6 0.648004 0.920878 0.628421
O O7 0.414284 0.466721 0.567971
O O8 0.218495 0.356451 0.300436
O O9 0.301442 0.166899 0.285791
O O10 0.646035 0.996790 0.115360
O O11 0.284080 0.452289 0.267231
O O12 0.270691 0.757999 0.447501
O O13 0.570170 0.277474 0.055943
O O14 0.285059 0.150914 0.848208
#
# Coordination Sequence:
#
# PCOD8040232 Si02
#       7
#     2   2   2   2   2   2   2
#     4   9  18  34  59  83 119 146 194 237 282 337
#     4  10  19  35  58  89 120 146 183 248 290 327
#     4   9  20  36  59  85 112 152 194 229 279 352
#     4  10  18  36  59  80 114 154 188 232 278 347
#     4  10  19  35  60  87 112 148 192 240 282 332
#     4   9  20  35  58  85 119 148 188 231 289 342
#     4   9  17  35  60  82 110 155 195 229 273 348
#
# _framework density 22.237918000000001
#
# number of rings (size 3 to 8) (size 9 to 14) (size 15 to 20)
#    0.000    2.571    1.429    0.429    0.000    0.571 
#    0.000   12.143    6.286    0.000    0.000    0.000 
#    0.000    0.000    0.000    0.000    0.000    0.000 
#
# Total GULP energy -173467.183028 kJ/mol
# GULP energy per Si atom -12390.513073 kJ/mol
# Density = 2.218730 g / cm^3
# Si number density = 22.237918 Si / 1000 Ang^3
#
#
#
# Elastic Constant Matrix: (Units=GPa)
#
#
# Indices 1 2 3 4 5 6 
#
# 1 84.0696 31.3808 10.5090 7.1637 5.3457 8.2259
# 2 31.3808 112.4365 13.8679 13.1482 -0.2383 13.2013
# 3 10.5090 13.8679 73.3221 -0.8289 15.2527 -0.4344
# 4 7.1637 13.1482 -0.8289 23.5378 -6.2886 -9.7407
# 5 5.3457 -0.2383 15.2527 -6.2886 17.3950 -0.0733
# 6 8.2259 13.2013 -0.4344 -9.7407 -0.0733 37.6955
#
#
#
# Elastic Compliance Matrix: (Units=1/GPa)
#
#
# Indices 1 2 3 4 5 6 
#
# 1 0.014261 -0.002825 -0.000275 -0.005998 -0.006364 -0.003688
# 2 -0.002825 0.011483 -0.001834 -0.007959 -0.000267 -0.005483
# 3 -0.000275 -0.001834 0.017333 -0.002468 -0.016030 0.000233
# 4 -0.005998 -0.007959 -0.002468 0.064584 0.027334 0.020810
# 5 -0.006364 -0.000267 -0.016030 0.027334 0.083413 0.008523
# 6 -0.003688 -0.005483 0.000233 0.020810 0.008523 0.034650
#
#
# Mechanical properties :
#
#
# Convention : Reuss Voigt Hill
#
# Bulk Modulus (GPa) = 30.11405 42.37149 36.24277
# Shear Modulus (GPa) = 20.27080 29.99704 25.13392
#
# Velocity S-wave (km/s) = 3.02245 3.67674 3.36553
# Velocity P-wave (km/s) = 5.07459 6.09259 5.60674
#
# Compressibility (1/GPa) = 0.03320710
#
# Stress axis : x y z
#
# Youngs Moduli (GPa) = 70.12373 87.08859 57.69416
#
# Poissons Ratio (x) = 0.24604 0.01589
# Poissons Ratio (y) = 0.19811 0.10580
# Poissons Ratio (z) = 0.01932 0.15970
#
# Static dielectric constant tensor:
#      x y z
#    x 4.058840 0.022910 0.088790 
#    y 0.022910 4.392530 -0.167860 
#    z 0.088790 -0.167860 3.648300 
# 
# 
# High freq. dielectric constant tensor:
#      x y z
#    x 1.863500 0.016750 0.006460 
#    y 0.016750 1.898640 -0.011520 
#    z 0.006460 -0.011520 1.838110 
# 
# From -- ./inp_files/293446.got.cif
#   From: 2010.06.25/outbox.cif.g09.slc.cpg/sg2_147_cif.got.tgz:293446.got - 2010.06.27 13:26:56.
