data_PCOD8040930
_publ_section_title
;
Structure prediction by ZEFSAII (Michael W. Deem and Ramdas Pophale) SiO2 
 PCOD8040930
Probable space group: P -1
;
_chemical_formula_sum "Si O2"
_cell_formula_units_Z 16
_cell_length_a 12.142169
_cell_length_b 9.000200
_cell_length_c 17.407660
_cell_angle_alpha 82.039136
_cell_angle_beta 139.030579
_cell_angle_gamma 68.354376
_cell_volume 845.410384
_symmetry_space_group_name_H-M "P -1"
_symmetry_group_IT_number 2
_symmetry_cell_setting 'triclinic'
loop_
_space_group_symop_operation_xyz
x,y,z
-x,-y,-z
loop_
_atom_site_type_symbol
_atom_site_label
_atom_site_fract_x
_atom_site_fract_y
_atom_site_fract_z
Si Si1 0.573466 0.791633 0.522357
Si Si2 0.642325 0.883817 0.397812
Si Si3 0.902046 0.643105 0.188086
Si Si4 0.993839 0.773717 0.377545
Si Si5 0.198218 0.957186 0.424927
Si Si6 0.174139 0.528743 0.642199
Si Si7 0.487358 0.030892 0.837271
Si Si8 0.264174 0.570222 0.842064
O O1 0.555884 0.813677 0.418582
O O2 0.380786 0.802896 0.460103
O O3 0.849658 0.568828 0.709404
O O4 0.500000 0.000000 0.500000
O O5 0.447882 0.024441 0.215571
O O6 0.897718 0.656222 0.510813
O O7 0.668072 0.030881 0.439659
O O8 0.991223 0.681248 0.304688
O O9 0.740548 0.604628 0.130775
O O10 0.736048 0.852016 0.029492
O O11 0.713376 0.966414 0.246884
O O12 0.099656 0.868425 0.413290
O O13 0.173795 0.588148 0.550854
O O14 0.970033 0.203452 0.255843
O O15 0.365878 0.270028 0.773583
O O16 0.250451 0.604826 0.739794
O O17 0.500000 0.500000 0.000000
#
# Coordination Sequence:
#
# PCOD8040930 Si02
#       8
#     2   2   2   2   2   2   2   2
#     4  10  18  40  62  77 111 156 201 227 272 341
#     4   9  18  36  59  83 112 156 194 226 284 340
#     4  12  22  36  59  88 114 153 190 233 289 341
#     4  11  22  36  61  88 117 150 191 233 292 338
#     4  10  22  36  61  86 110 152 199 237 268 341
#     4  10  20  36  58  85 119 153 184 233 291 346
#     4  11  21  33  59  88 120 145 187 238 294 337
#     4  11  22  36  58  89 119 144 186 238 297 334
#
# _framework density 18.925719999999998
#
# number of rings (size 3 to 8) (size 9 to 14) (size 15 to 20)
#    0.000    1.500    5.000    3.375    1.750    6.000 
#    0.000    2.500    2.750    1.500    0.000    0.000 
#    0.000    0.000    0.000    0.000    0.000    0.000 
#
# Total GULP energy -198262.132686 kJ/mol
# GULP energy per Si atom -12391.383293 kJ/mol
# Density = 1.888264 g / cm^3
# Si number density = 18.925720 Si / 1000 Ang^3
#
#
#
# Elastic Constant Matrix: (Units=GPa)
#
#
# Indices 1 2 3 4 5 6 
#
# 1 108.9694 40.1694 53.9393 -5.4612 -12.7338 -4.5804
# 2 40.1694 68.7316 48.8518 -4.5476 -7.2842 2.3216
# 3 53.9393 48.8518 130.7862 -0.3905 -23.3555 -13.2021
# 4 -5.4612 -4.5476 -0.3905 28.3768 0.1493 1.2904
# 5 -12.7338 -7.2842 -23.3555 0.1493 27.1942 1.0456
# 6 -4.5804 2.3216 -13.2021 1.2904 1.0456 26.9210
#
#
#
# Elastic Compliance Matrix: (Units=1/GPa)
#
#
# Indices 1 2 3 4 5 6 
#
# 1 0.012889 -0.005190 -0.002887 0.001549 0.002116 0.001069
# 2 -0.005190 0.023151 -0.007623 0.002922 -0.002536 -0.006660
# 3 -0.002887 -0.007623 0.013827 -0.001936 0.008234 0.006720
# 4 0.001549 0.002922 -0.001936 0.036102 -0.000250 -0.002659
# 5 0.002116 -0.002536 0.008234 -0.000250 0.044045 0.002918
# 6 0.001069 -0.006660 0.006720 -0.002659 0.002918 0.041211
#
#
# Mechanical properties :
#
#
# Convention : Reuss Voigt Hill
#
# Bulk Modulus (GPa) = 54.15280 66.04534 60.09907
# Shear Modulus (GPa) = 23.94861 27.53351 25.74106
#
# Velocity S-wave (km/s) = 3.56111 3.81835 3.69197
# Velocity P-wave (km/s) = 6.75160 7.37649 7.07095
#
# Compressibility (1/GPa) = 0.01846627
#
# Stress axis : x y z
#
# Youngs Moduli (GPa) = 77.58604 43.19547 72.32289
#
# Poissons Ratio (x) = 0.22420 0.20876
# Poissons Ratio (y) = 0.40271 0.55132
# Poissons Ratio (z) = 0.22395 0.32928
#
# Static dielectric constant tensor:
#      x y z
#    x 4.045130 -0.288710 -0.079980 
#    y -0.288710 3.531240 -0.020300 
#    z -0.079980 -0.020300 3.502480 
# 
# 
# High freq. dielectric constant tensor:
#      x y z
#    x 1.725200 -0.009880 -0.016640 
#    y -0.009880 1.735080 -0.002950 
#    z -0.016640 -0.002950 1.717500 
# 
# From -- ./inp_files/189299.got.cif
#   From: 2010.06.25/outbox.cif.g09.slc.cpg/sg2_95_cif.got.tgz:189299.got - 2010.06.27 13:26:56.
