data_PCOD8040054
_publ_section_title
;
Structure prediction by ZEFSAII (Michael W. Deem and Ramdas Pophale) SiO2 
 PCOD8040054
Probable space group: P -1
;
_chemical_formula_sum "Si O2"
_cell_formula_units_Z 14
_cell_length_a 9.551145
_cell_length_b 11.028864
_cell_length_c 7.105275
_cell_angle_alpha 54.208436
_cell_angle_beta 110.733468
_cell_angle_gamma 106.426687
_cell_volume 564.955926
_symmetry_space_group_name_H-M "P -1"
_symmetry_group_IT_number 2
_symmetry_cell_setting 'triclinic'
loop_
_space_group_symop_operation_xyz
x,y,z
-x,-y,-z
loop_
_atom_site_type_symbol
_atom_site_label
_atom_site_fract_x
_atom_site_fract_y
_atom_site_fract_z
Si Si1 0.561107 0.855526 0.249968
Si Si2 0.068733 0.606481 0.596260
Si Si3 0.264677 0.402952 0.056093
Si Si4 0.507331 0.366841 0.908488
Si Si5 0.171477 0.083464 0.214858
Si Si6 0.643736 0.183075 0.462325
Si Si7 0.114818 0.133290 0.706425
O O1 0.489230 0.816503 0.452129
O O2 0.740666 0.892172 0.327096
O O3 0.526150 0.707377 0.240582
O O4 0.500000 0.000000 0.000000
O O5 0.206842 0.719353 0.477727
O O6 0.000000 0.500000 0.500000
O O7 0.941537 0.706502 0.521611
O O8 0.124459 0.502793 0.882661
O O9 0.354514 0.411569 0.890927
O O10 0.204554 0.231156 0.227385
O O11 0.378767 0.479557 0.199575
O O12 0.586027 0.248129 0.182634
O O13 0.312635 0.985824 0.396740
O O14 0.160429 0.132091 0.948486
O O15 0.013811 0.999624 0.284220
#
# Coordination Sequence:
#
# PCOD8040054 Si02
#       7
#     2   2   2   2   2   2   2
#     4  12  22  39  65  96 125 158 206 260 306 361
#     4  10  18  35  62  89 121 168 206 243 306 369
#     4  10  19  36  62  86 123 164 202 250 303 368
#     4  10  22  40  61  95 128 159 200 256 314 364
#     4  10  18  36  64  92 117 168 209 244 312 364
#     4  10  23  38  66  95 121 162 206 255 308 365
#     4  10  20  34  60  94 121 159 213 251 299 371
#
# _framework density 24.780695000000001
#
# number of rings (size 3 to 8) (size 9 to 14) (size 15 to 20)
#    0.000    1.714    4.286    0.000    0.000    2.286 
#    0.000   11.429    0.000   37.714    0.000    0.000 
#    0.000    0.000    0.000    0.000    0.000    0.000 
#
# Total GULP energy -173638.809049 kJ/mol
# GULP energy per Si atom -12402.772075 kJ/mol
# Density = 2.472429 g / cm^3
# Si number density = 24.780695 Si / 1000 Ang^3
#
#
#
# Elastic Constant Matrix: (Units=GPa)
#
#
# Indices 1 2 3 4 5 6 
#
# 1 157.8034 41.7225 35.9657 -13.6254 21.7652 3.2907
# 2 41.7225 120.1459 23.0665 -39.1329 -8.3240 13.8725
# 3 35.9657 23.0665 85.9168 -19.5695 26.8709 -6.5550
# 4 -13.6254 -39.1329 -19.5695 36.1488 -10.4639 2.9645
# 5 21.7652 -8.3240 26.8709 -10.4639 37.1134 -5.3912
# 6 3.2907 13.8725 -6.5550 2.9645 -5.3912 30.4029
#
#
#
# Elastic Compliance Matrix: (Units=1/GPa)
#
#
# Indices 1 2 3 4 5 6 
#
# 1 0.008271 -0.004388 -0.001328 -0.004103 -0.006007 0.000155
# 2 -0.004388 0.020292 -0.003687 0.023432 0.015065 -0.009192
# 3 -0.001328 -0.003687 0.017422 0.001241 -0.011823 0.003365
# 4 -0.004103 0.023432 0.001241 0.059440 0.021791 -0.011912
# 5 -0.006007 0.015065 -0.011823 0.021791 0.048209 -0.002349
# 6 0.000155 -0.009192 0.003365 -0.011912 -0.002349 0.038540
#
#
# Mechanical properties :
#
#
# Convention : Reuss Voigt Hill
#
# Bulk Modulus (GPa) = 36.79272 62.81949 49.80611
# Shear Modulus (GPa) = 22.72318 38.27379 30.49848
#
# Velocity S-wave (km/s) = 3.03144 3.93428 3.51199
# Velocity P-wave (km/s) = 5.20888 6.78552 6.04879
#
# Compressibility (1/GPa) = 0.02717929
#
# Stress axis : x y z
#
# Youngs Moduli (GPa) = 120.90648 49.28049 57.39777
#
# Poissons Ratio (x) = 0.21623 0.07624
# Poissons Ratio (y) = 0.53051 0.21162
# Poissons Ratio (z) = 0.16059 0.18169
#
# Static dielectric constant tensor:
#      x y z
#    x 4.530260 0.274710 0.408790 
#    y 0.274710 4.680330 -0.361690 
#    z 0.408790 -0.361690 4.387820 
# 
# 
# High freq. dielectric constant tensor:
#      x y z
#    x 1.980800 0.018490 0.028290 
#    y 0.018490 1.998950 -0.017630 
#    z 0.028290 -0.017630 1.981190 
# 
# From -- ./inp_files/174583.got.cif
#   From: 2010.06.25/outbox.cif.g09.slc.cpg/sg2_88_cif.got.tgz:174583.got - 2010.06.27 13:26:56.
