data_PCOD8040982
_publ_section_title
;
Structure prediction by ZEFSAII (Michael W. Deem and Ramdas Pophale) SiO2 
 PCOD8040982
Probable space group: P -1
;
_chemical_formula_sum "Si O2"
_cell_formula_units_Z 16
_cell_length_a 11.829718
_cell_length_b 17.558915
_cell_length_c 9.460312
_cell_angle_alpha 131.516927
_cell_angle_beta 103.337018
_cell_angle_gamma 38.565962
_cell_volume 722.500287
_symmetry_space_group_name_H-M "P -1"
_symmetry_group_IT_number 2
_symmetry_cell_setting 'triclinic'
loop_
_space_group_symop_operation_xyz
x,y,z
-x,-y,-z
loop_
_atom_site_type_symbol
_atom_site_label
_atom_site_fract_x
_atom_site_fract_y
_atom_site_fract_z
Si Si1 0.663683 0.972657 0.004244
Si Si2 0.939070 0.081230 0.236057
Si Si3 0.865070 0.868027 0.225881
Si Si4 0.822156 0.194197 0.781707
Si Si5 0.464153 0.328655 0.738032
Si Si6 0.063783 0.567799 0.113696
Si Si7 0.452857 0.346512 0.445555
Si Si8 0.053665 0.694692 0.548538
O O1 0.825228 0.842352 0.753276
O O2 0.819608 0.854820 0.043702
O O3 0.500000 0.000000 0.000000
O O4 0.511373 0.189348 0.215085
O O5 0.681539 0.242054 0.398469
O O6 0.964547 0.183179 0.385207
O O7 0.129700 0.879208 0.135449
O O8 0.000000 0.000000 0.000000
O O9 0.121529 0.727571 0.122641
O O10 0.866189 0.780585 0.237608
O O11 0.676607 0.091877 0.488409
O O12 0.563479 0.361915 0.864348
O O13 0.000000 0.000000 0.500000
O O14 0.341814 0.429928 0.673640
O O15 0.303718 0.401823 0.899709
O O16 0.081230 0.587273 0.305959
O O17 0.000000 0.500000 0.000000
O O18 0.275476 0.530242 0.511674
#
# Coordination Sequence:
#
# PCOD8040982 Si02
#       8
#     2   2   2   2   2   2   2   2
#     4  11  25  46  75  96 131 192 236 272 333 407
#     4  12  22  43  71 105 142 169 224 288 354 403
#     4  10  22  47  70  94 131 179 228 281 332 400
#     4  10  18  40  72  94 127 174 223 271 333 410
#     4  10  23  44  72  96 131 181 230 271 336 413
#     4  12  30  45  64 103 141 179 228 281 337 402
#     4  11  24  45  73 102 135 183 227 277 345 415
#     4  12  27  44  68 105 142 174 223 292 347 398
#
# _framework density 22.145320999999999
#
# number of rings (size 3 to 8) (size 9 to 14) (size 15 to 20)
#    0.000    1.000    5.000    2.625    7.000    2.500 
#    2.250    0.000    0.000    0.000    0.000    0.000 
#    0.000    0.000    0.000    0.000    0.000    0.000 
#
# Total GULP energy -198433.916930 kJ/mol
# GULP energy per Si atom -12402.119808 kJ/mol
# Density = 2.209492 g / cm^3
# Si number density = 22.145321 Si / 1000 Ang^3
#
#
#
# Elastic Constant Matrix: (Units=GPa)
#
#
# Indices 1 2 3 4 5 6 
#
# 1 174.2527 28.8424 51.3391 -11.2992 5.8416 -10.4337
# 2 28.8424 87.1301 20.7831 -22.3871 7.8524 10.6316
# 3 51.3391 20.7831 107.8337 -33.9165 -9.1770 -9.8878
# 4 -11.2992 -22.3871 -33.9165 34.1801 0.8055 0.7092
# 5 5.8416 7.8524 -9.1770 0.8055 35.9057 -0.4717
# 6 -10.4337 10.6316 -9.8878 0.7092 -0.4717 36.2561
#
#
#
# Elastic Compliance Matrix: (Units=1/GPa)
#
#
# Indices 1 2 3 4 5 6 
#
# 1 0.007237 -0.002299 -0.003925 -0.003007 -0.001588 0.001725
# 2 -0.002299 0.015684 0.000519 0.010214 -0.003223 -0.005361
# 3 -0.003925 0.000519 0.016483 0.015232 0.004435 0.002973
# 4 -0.003007 0.010214 0.015232 0.050058 0.001017 -0.000672
# 5 -0.001588 -0.003223 0.004435 0.001017 0.029952 0.002068
# 6 0.001725 -0.005361 0.002973 -0.000672 0.002068 0.030501
#
#
# Mechanical properties :
#
#
# Convention : Reuss Voigt Hill
#
# Bulk Modulus (GPa) = 35.72373 63.46062 49.59218
# Shear Modulus (GPa) = 29.29852 39.15185 34.22518
#
# Velocity S-wave (km/s) = 3.64127 4.20926 3.93553
# Velocity P-wave (km/s) = 5.81764 7.23481 6.56458
#
# Compressibility (1/GPa) = 0.02799259
#
# Stress axis : x y z
#
# Youngs Moduli (GPa) = 138.17160 63.76117 60.66717
#
# Poissons Ratio (x) = 0.14661 0.23813
# Poissons Ratio (y) = 0.31772 -0.03147
# Poissons Ratio (z) = 0.54235 -0.03308
#
# Static dielectric constant tensor:
#      x y z
#    x -0.351540 0.037990 1.081430 
#    y 0.037990 4.880110 -0.465560 
#    z 1.081430 -0.465560 3.967060 
# 
# 
# High freq. dielectric constant tensor:
#      x y z
#    x 1.872660 0.003480 0.004250 
#    y 0.003480 1.880480 -0.006500 
#    z 0.004250 -0.006500 1.885410 
# 
# From -- ./inp_files/279916.got.cif
#   From: 2010.06.25/outbox.cif.g09.slc.cpg/sg2_140_cif.got.tgz:279916.got - 2010.06.27 13:26:56.
