data_PCOD8040630
_publ_section_title
;
Structure prediction by ZEFSAII (Michael W. Deem and Ramdas Pophale) SiO2 
 PCOD8040630
Probable space group: P -1
;
_chemical_formula_sum "Si O2"
_cell_formula_units_Z 16
_cell_length_a 7.790083
_cell_length_b 9.081380
_cell_length_c 15.791549
_cell_angle_alpha 133.507545
_cell_angle_beta 66.260546
_cell_angle_gamma 88.678398
_cell_volume 661.539722
_symmetry_space_group_name_H-M "P -1"
_symmetry_group_IT_number 2
_symmetry_cell_setting 'triclinic'
loop_
_space_group_symop_operation_xyz
x,y,z
-x,-y,-z
loop_
_atom_site_type_symbol
_atom_site_label
_atom_site_fract_x
_atom_site_fract_y
_atom_site_fract_z
Si Si1 0.861107 0.414833 0.937720
Si Si2 0.206450 0.012940 0.773404
Si Si3 0.785510 0.987306 0.036059
Si Si4 0.981025 0.504322 0.771594
Si Si5 0.127228 0.239290 0.467697
Si Si6 0.742588 0.411010 0.489099
Si Si7 0.589319 0.483840 0.264551
Si Si8 0.495492 0.216842 0.754378
O O1 0.959725 0.154305 0.849315
O O2 0.892242 0.413098 0.830050
O O3 0.616632 0.575245 0.073522
O O4 0.000000 0.500000 0.000000
O O5 0.258762 0.059762 0.876824
O O6 0.351170 0.087488 0.714300
O O7 0.258781 0.749578 0.650919
O O8 0.615930 0.232688 0.131203
O O9 0.809967 0.768498 0.889278
O O10 0.000000 0.000000 0.000000
O O11 0.015842 0.343812 0.620695
O O12 0.192211 0.510478 0.761711
O O13 0.269712 0.359411 0.457232
O O14 0.949568 0.279214 0.451326
O O15 0.274837 0.968847 0.334832
O O16 0.537887 0.457399 0.600698
O O17 0.463765 0.672633 0.294352
#
# Coordination Sequence:
#
# PCOD8040630 Si02
#       8
#     2   2   2   2   2   2   2   2
#     4  10  18  37  65  98 130 155 199 263 317 369
#     4  11  20  39  67  92 124 165 203 259 311 371
#     4  10  19  33  63  97 123 153 206 259 310 361
#     4  11  20  39  68  98 125 161 207 258 316 366
#     4  11  27  45  63  86 129 175 210 258 309 375
#     4  11  26  45  61  88 130 170 217 253 311 369
#     4  11  22  37  65 100 124 159 209 266 306 375
#     4  11  22  40  66  97 128 162 205 259 320 368
#
# _framework density 24.186
#
# number of rings (size 3 to 8) (size 9 to 14) (size 15 to 20)
#    0.000    1.250    5.000    3.750    1.750    3.000 
#    0.000    1.250    5.500    0.000    0.000    0.000 
#    0.000    0.000    0.000    0.000    0.000    0.000 
#
# Total GULP energy -198298.635344 kJ/mol
# GULP energy per Si atom -12393.664709 kJ/mol
# Density = 2.413095 g / cm^3
# Si number density = 24.186000 Si / 1000 Ang^3
#
#
#
# Elastic Constant Matrix: (Units=GPa)
#
#
# Indices 1 2 3 4 5 6 
#
# 1 25.9525 6.8164 7.1982 1.3614 -1.1140 -9.3704
# 2 6.8164 115.9604 43.6271 10.1651 -4.8342 -16.3805
# 3 7.1982 43.6271 110.1009 -5.4461 -23.2846 -3.5373
# 4 1.3614 10.1651 -5.4461 47.8011 -17.6666 -5.4455
# 5 -1.1140 -4.8342 -23.2846 -17.6666 8.9798 3.4685
# 6 -9.3704 -16.3805 -3.5373 -5.4455 3.4685 22.7223
#
#
#
# Elastic Compliance Matrix: (Units=1/GPa)
#
#
# Indices 1 2 3 4 5 6 
#
# 1 0.044952 -0.000646 0.001426 0.006641 0.015208 0.017564
# 2 -0.000646 0.008776 0.002272 0.007963 0.024428 0.004593
# 3 0.001426 0.002272 -0.005714 -0.023014 -0.060658 0.005080
# 4 0.006641 0.007963 -0.023014 -0.015337 -0.090549 0.015043
# 5 0.015208 0.024428 -0.060658 -0.090549 -0.219148 0.026190
# 6 0.017564 0.004593 0.005080 0.015043 0.026190 0.054962
#
#
# Mechanical properties :
#
#
# Convention : Reuss Voigt Hill
#
# Bulk Modulus (GPa) = 18.47791 40.81080 29.64436
# Shear Modulus (GPa) = -41.81488 28.85879 -6.47804
#
# Velocity S-wave (km/s) = -4.16250 3.45802 -1.63837
# Velocity P-wave (km/s) = 3.93006 5.73186 2.95033
#
# Compressibility (1/GPa) = 0.05411867
#
# Stress axis : x y z
#
# Youngs Moduli (GPa) = 22.24587 113.94890 -174.99650
#
# Poissons Ratio (x) = 0.07361 0.24956
# Poissons Ratio (y) = 0.01437 0.39767
# Poissons Ratio (z) = -0.03172 -0.25894
#
# Static dielectric constant tensor:
#      x y z
#    x 3.783340 -0.076750 -0.342990 
#    y -0.076750 4.471360 0.507790 
#    z -0.342990 0.507790 5.131990 
# 
# 
# High freq. dielectric constant tensor:
#      x y z
#    x 1.908050 -0.002440 -0.015510 
#    y -0.002440 1.974470 0.011510 
#    z -0.015510 0.011510 1.975360 
# 
# From -- ./inp_files/557558.got.cif
#   From: 2010.06.25/outbox.cif.g09.slc.cpg/sg2_279_cif.got.tgz:557558.got - 2010.06.27 13:26:56.
