data_PCOD8040472
_publ_section_title
;
Structure prediction by ZEFSAII (Michael W. Deem and Ramdas Pophale) SiO2 
 PCOD8040472
Probable space group: P -1
;
_chemical_formula_sum "Si O2"
_cell_formula_units_Z 10
_cell_length_a 9.872375
_cell_length_b 13.668297
_cell_length_c 7.072740
_cell_angle_alpha 55.410333
_cell_angle_beta 44.240658
_cell_angle_gamma 66.002223
_cell_volume 548.153109
_symmetry_space_group_name_H-M "P -1"
_symmetry_group_IT_number 2
_symmetry_cell_setting 'triclinic'
loop_
_space_group_symop_operation_xyz
x,y,z
-x,-y,-z
loop_
_atom_site_type_symbol
_atom_site_label
_atom_site_fract_x
_atom_site_fract_y
_atom_site_fract_z
Si Si1 0.000001 0.859916 0.642663
Si Si2 0.000001 0.744069 0.365839
Si Si3 0.000002 0.480391 0.801027
Si Si4 0.270819 0.273732 0.669947
Si Si5 0.270819 0.726269 0.788415
O O1 1.000000 0.823123 0.464520
O O2 0.192544 0.808845 0.606178
O O3 0.000000 0.000000 0.500000
O O4 0.807458 0.808843 0.991265
O O5 0.000003 0.603921 0.558037
O O6 0.809430 0.774912 0.397281
O O7 0.190573 0.774914 0.016137
O O8 0.807029 0.592597 0.367839
O O9 0.807034 0.407402 0.018096
O O10 0.000000 0.500000 0.000000
O O11 0.500000 0.271917 0.443415
#
# Coordination Sequence:
#
# PCOD8040472 Si02
#       5
#     2   2   2   2   2
#     4  10  22  42  60  77 113 153 189 235 280 325
#     4  10  20  39  57  81 117 150 183 228 284 330
#     4  10  18  37  58  84 119 148 180 224 282 339
#     4  10  22  36  58  89 113 144 190 229 277 338
#     4  10  22  36  58  89 113 144 190 229 277 338
#
# _framework density 18.243075999999999
#
# number of rings (size 3 to 8) (size 9 to 14) (size 15 to 20)
#    0.000    2.400    4.000    2.400    0.000    9.600 
#    0.000    2.000    0.000    0.000    0.000    0.000 
#    0.000    0.000    0.000    0.000    0.000    0.000 
#
# Total GULP energy -123970.833591 kJ/mol
# GULP energy per Si atom -12397.083359 kJ/mol
# Density = 1.820155 g / cm^3
# Si number density = 18.243076 Si / 1000 Ang^3
#
#
#
# Elastic Constant Matrix: (Units=GPa)
#
#
# Indices 1 2 3 4 5 6 
#
# 1 144.2220 62.3265 94.7072 36.7673 -12.4109 0.2164
# 2 62.3265 113.1281 47.9099 7.6122 -1.0388 21.4294
# 3 94.7072 47.9099 105.7613 30.3181 -4.2582 8.4589
# 4 36.7673 7.6122 30.3181 21.5746 0.4463 1.4705
# 5 -12.4109 -1.0388 -4.2582 0.4463 48.8887 18.2396
# 6 0.2164 21.4294 8.4589 1.4705 18.2396 23.5662
#
#
#
# Elastic Compliance Matrix: (Units=1/GPa)
#
#
# Indices 1 2 3 4 5 6 
#
# 1 0.025520 -0.009827 -0.013146 -0.022570 -0.000283 0.015048
# 2 -0.009827 0.017864 -0.001322 0.013600 0.005360 -0.020677
# 3 -0.013146 -0.001322 0.026724 -0.014097 0.002598 -0.009401
# 4 -0.022570 0.013600 -0.014097 0.100621 -0.003650 -0.010553
# 5 -0.000283 0.005360 0.002598 -0.003650 0.032108 -0.030427
# 6 0.015048 -0.020677 -0.009401 -0.010553 -0.030427 0.088679
#
#
# Mechanical properties :
#
#
# Convention : Reuss Voigt Hill
#
# Bulk Modulus (GPa) = 46.47138 85.88872 66.18005
# Shear Modulus (GPa) = 14.39763 29.35044 21.87404
#
# Velocity S-wave (km/s) = 2.81234 4.01540 3.46646
# Velocity P-wave (km/s) = 6.00620 8.28736 7.23722
#
# Compressibility (1/GPa) = 0.02151862
#
# Stress axis : x y z
#
# Youngs Moduli (GPa) = 39.18437 55.97822 37.41986
#
# Poissons Ratio (x) = 0.55010 0.49193
# Poissons Ratio (y) = 0.38507 0.04945
# Poissons Ratio (z) = 0.51513 0.07398
#
# Static dielectric constant tensor:
#      x y z
#    x 3.462690 0.028310 0.413240 
#    y 0.028310 3.324330 -0.054210 
#    z 0.413240 -0.054210 3.671540 
# 
# 
# High freq. dielectric constant tensor:
#      x y z
#    x 1.706300 0.004830 0.023440 
#    y 0.004830 1.697640 0.000840 
#    z 0.023440 0.000840 1.715220 
# 
# From -- ./inp_files/29318.got.cif
#   From: 2010.06.25/outbox.cif.g09.slc.cpg/sg2_15_cif.got.tgz:29318.got - 2010.06.27 13:26:56.
