data_PCOD8040501
_publ_section_title
;
Structure prediction by ZEFSAII (Michael W. Deem and Ramdas Pophale) SiO2 
 PCOD8040501
Probable space group: P -1
;
_chemical_formula_sum "Si O2"
_cell_formula_units_Z 14
_cell_length_a 9.424620
_cell_length_b 19.651580
_cell_length_c 10.515203
_cell_angle_alpha 30.948320
_cell_angle_beta 43.376480
_cell_angle_gamma 49.904832
_cell_volume 686.662212
_symmetry_space_group_name_H-M "P -1"
_symmetry_group_IT_number 2
_symmetry_cell_setting 'triclinic'
loop_
_space_group_symop_operation_xyz
x,y,z
-x,-y,-z
loop_
_atom_site_type_symbol
_atom_site_label
_atom_site_fract_x
_atom_site_fract_y
_atom_site_fract_z
Si Si1 0.025856 0.778098 0.492028
Si Si2 0.357529 0.446742 0.511198
Si Si3 0.934097 0.038946 0.271705
Si Si4 0.568676 0.215160 0.637638
Si Si5 0.206537 0.726254 0.184562
Si Si6 0.680603 0.995226 0.743360
Si Si7 0.649557 0.650827 0.063711
O O1 0.217793 0.734445 0.527499
O O2 0.069717 0.753871 0.354362
O O3 0.962750 0.933112 0.309208
O O4 0.836535 0.689725 0.791951
O O5 0.401806 0.342497 0.533088
O O6 0.193737 0.571817 0.392129
O O7 0.582174 0.503136 0.308287
O O8 0.280958 0.356261 0.822540
O O9 0.137264 0.051082 0.204087
O O10 0.750234 0.992321 0.556737
O O11 0.878228 0.182599 0.020440
O O12 0.598188 0.146351 0.590794
O O13 0.500006 0.104517 0.960833
O O14 0.447118 0.752982 0.014109
#
# Coordination Sequence:
#
# PCOD8040501 Si02
#       7
#     2   2   2   2   2   2   2
#     4  11  20  34  61  86 109 150 174 225 289 325
#     4   9  18  36  55  82 119 142 174 226 274 334
#     4  10  21  38  56  79 114 146 189 226 277 314
#     4  10  18  37  60  81 107 144 196 225 265 326
#     4  10  21  37  52  89 119 135 178 231 276 340
#     4   9  21  38  58  78 104 153 195 230 257 319
#     4   9  19  35  53  87 118 140 176 213 285 344
#
# _framework density 20.388483000000001
#
# number of rings (size 3 to 8) (size 9 to 14) (size 15 to 20)
#    0.857    1.429    1.429    1.286    0.000    2.857 
#    7.714    1.429    0.000    0.000    0.000    0.000 
#    0.000    0.000    0.000    0.000    0.000    0.000 
#
# Total GULP energy -173477.196400 kJ/mol
# GULP energy per Si atom -12391.228314 kJ/mol
# Density = 2.034208 g / cm^3
# Si number density = 20.388483 Si / 1000 Ang^3
#
#
#
# Elastic Constant Matrix: (Units=GPa)
#
#
# Indices 1 2 3 4 5 6 
#
# 1 27.1026 33.1919 36.2189 2.9253 6.4469 -5.8451
# 2 33.1919 166.7245 40.5469 -4.9448 17.7764 -16.3493
# 3 36.2189 40.5469 95.4631 19.8324 -2.1341 -15.8621
# 4 2.9253 -4.9448 19.8324 34.2039 -12.7994 -0.7332
# 5 6.4469 17.7764 -2.1341 -12.7994 27.6236 -5.2983
# 6 -5.8451 -16.3493 -15.8621 -0.7332 -5.2983 14.3643
#
#
#
# Elastic Compliance Matrix: (Units=1/GPa)
#
#
# Indices 1 2 3 4 5 6 
#
# 1 0.102699 -0.010470 -0.039396 0.003533 -0.022832 -0.021872
# 2 -0.010470 0.008605 0.001102 0.001169 -0.001249 0.006349
# 3 -0.039396 0.001102 0.031091 -0.010021 0.010651 0.022973
# 4 0.003533 0.001169 -0.010021 0.041170 0.016719 -0.000029
# 5 -0.022832 -0.001249 0.010651 0.016719 0.055171 0.022252
# 6 -0.021872 0.006349 0.022973 -0.000029 0.022252 0.101519
#
#
# Mechanical properties :
#
#
# Convention : Reuss Voigt Hill
#
# Bulk Modulus (GPa) = 22.28820 56.57840 39.43330
# Shear Modulus (GPa) = 11.04388 27.19385 19.11886
#
# Velocity S-wave (km/s) = 2.32991 3.65606 3.06556
# Velocity P-wave (km/s) = 4.26538 6.75521 5.64917
#
# Compressibility (1/GPa) = 0.04486679
#
# Stress axis : x y z
#
# Youngs Moduli (GPa) = 9.73717 116.21294 32.16328
#
# Poissons Ratio (x) = 1.21679 1.26710
# Poissons Ratio (y) = 0.10195 -0.03543
# Poissons Ratio (z) = 0.38360 -0.12803
#
# Static dielectric constant tensor:
#      x y z
#    x 3.148070 -0.111930 -0.148430 
#    y -0.111930 4.004000 0.081420 
#    z -0.148430 0.081420 3.493160 
# 
# 
# High freq. dielectric constant tensor:
#      x y z
#    x 1.744890 -0.006860 -0.015730 
#    y -0.006860 1.818540 0.002230 
#    z -0.015730 0.002230 1.785080 
# 
# From -- ./inp_files/214060.got.cif
#   From: 2010.06.25/outbox.cif.g09.slc.cpg/sg2_108_cif.got.tgz:214060.got - 2010.06.27 13:26:56.
