data_PCOD8040182
_publ_section_title
;
Structure prediction by ZEFSAII (Michael W. Deem and Ramdas Pophale) SiO2 
 PCOD8040182
Probable space group: P -1
;
_chemical_formula_sum "Si O2"
_cell_formula_units_Z 16
_cell_length_a 19.619529
_cell_length_b 10.676060
_cell_length_c 8.963359
_cell_angle_alpha 96.039974
_cell_angle_beta 37.841841
_cell_angle_gamma 123.546476
_cell_volume 731.361072
_symmetry_space_group_name_H-M "P -1"
_symmetry_group_IT_number 2
_symmetry_cell_setting 'triclinic'
loop_
_space_group_symop_operation_xyz
x,y,z
-x,-y,-z
loop_
_atom_site_type_symbol
_atom_site_label
_atom_site_fract_x
_atom_site_fract_y
_atom_site_fract_z
Si Si1 0.607619 0.453186 0.461615
Si Si2 0.203991 0.625309 0.989092
Si Si3 0.948717 0.778013 0.460367
Si Si4 0.803906 0.287973 0.292147
Si Si5 0.681225 0.435004 0.652440
Si Si6 0.607220 0.965474 0.805857
Si Si7 0.755984 0.773748 0.024108
Si Si8 0.144838 0.765737 0.340759
O O1 0.672546 0.386114 0.253125
O O2 0.649263 0.495626 0.571844
O O3 0.701404 0.657013 0.255818
O O4 0.400756 0.278459 0.774485
O O5 0.234800 0.755555 0.822618
O O6 0.239114 0.724983 0.099039
O O7 0.001956 0.406150 0.309576
O O8 0.849842 0.627268 0.474328
O O9 0.059297 0.773008 0.359416
O O10 0.804478 0.713677 0.807533
O O11 0.077868 0.995079 0.197214
O O12 0.694642 0.306390 0.551129
O O13 0.745689 0.104857 0.447154
O O14 0.000000 0.500000 0.000000
O O15 0.511524 0.265538 0.033490
O O16 0.711517 0.034348 0.789301
O O17 0.500000 0.000000 0.000000
#
# Coordination Sequence:
#
# PCOD8040182 Si02
#       8
#     2   2   2   2   2   2   2   2
#     4  10  21  44  65  94 126 164 211 266 313 362
#     4  10  21  35  67  92 126 164 203 259 315 376
#     4  11  23  42  65  95 121 172 214 253 318 375
#     4  10  18  36  56  89 126 165 199 248 305 373
#     4  10  23  39  60  88 129 161 210 259 309 371
#     4  10  22  37  58  89 132 170 200 247 316 379
#     4  10  23  42  69  88 126 167 214 264 308 372
#     4  11  21  38  65  94 126 166 205 255 317 384
#
# _framework density 21.877018
#
# number of rings (size 3 to 8) (size 9 to 14) (size 15 to 20)
#    0.000    1.750    2.500    1.500    5.250    1.000 
#    0.000   18.750    0.000    0.000    0.000    0.000 
#    0.000    0.000    0.000    0.000    0.000    0.000 
#
# Total GULP energy -198298.949762 kJ/mol
# GULP energy per Si atom -12393.684360 kJ/mol
# Density = 2.182723 g / cm^3
# Si number density = 21.877018 Si / 1000 Ang^3
#
#
#
# Elastic Constant Matrix: (Units=GPa)
#
#
# Indices 1 2 3 4 5 6 
#
# 1 143.4898 37.7903 48.0554 -12.8167 8.7340 7.9352
# 2 37.7903 57.8593 24.8920 -11.1175 0.0911 6.5865
# 3 48.0554 24.8920 94.0538 -14.0904 9.2542 -1.1167
# 4 -12.8167 -11.1175 -14.0904 35.7253 -9.6133 -5.8862
# 5 8.7340 0.0911 9.2542 -9.6133 36.1527 -4.7889
# 6 7.9352 6.5865 -1.1167 -5.8862 -4.7889 21.9636
#
#
#
# Elastic Compliance Matrix: (Units=1/GPa)
#
#
# Indices 1 2 3 4 5 6 
#
# 1 0.009592 -0.004446 -0.003626 -0.000329 -0.001837 -0.002805
# 2 -0.004446 0.022908 -0.003450 0.004235 0.002529 -0.003753
# 3 -0.003626 -0.003450 0.014086 0.003435 -0.001318 0.003694
# 4 -0.000329 0.004235 0.003435 0.034941 0.009877 0.010541
# 5 -0.001837 0.002529 -0.001318 0.009877 0.032324 0.009533
# 6 -0.002805 -0.003753 0.003694 0.010541 0.009533 0.052760
#
#
# Mechanical properties :
#
#
# Convention : Reuss Voigt Hill
#
# Bulk Modulus (GPa) = 42.47670 57.43094 49.95382
# Shear Modulus (GPa) = 25.31599 31.07932 28.19766
#
# Velocity S-wave (km/s) = 3.40545 3.77322 3.59404
# Velocity P-wave (km/s) = 5.90940 6.72991 6.33296
#
# Compressibility (1/GPa) = 0.02354232
#
# Stress axis : x y z
#
# Youngs Moduli (GPa) = 104.25354 43.65201 70.99145
#
# Poissons Ratio (x) = 0.19407 0.25742
# Poissons Ratio (y) = 0.46350 0.24493
# Poissons Ratio (z) = 0.37803 0.15061
#
# Static dielectric constant tensor:
#      x y z
#    x 4.032360 -0.120560 0.246120 
#    y -0.120560 3.552790 -0.189070 
#    z 0.246120 -0.189070 4.493150 
# 
# 
# High freq. dielectric constant tensor:
#      x y z
#    x 1.863740 -0.000880 0.012400 
#    y -0.000880 1.823520 -0.014040 
#    z 0.012400 -0.014040 1.880760 
# 
# From -- ./inp_files/329313.got.cif
#   From: 2010.06.25/outbox.cif.g09.slc.cpg/sg2_165_cif.got.tgz:329313.got - 2010.06.27 13:26:56.
