data_PCOD8040385
_publ_section_title
;
Structure prediction by ZEFSAII (Michael W. Deem and Ramdas Pophale) SiO2 
 PCOD8040385
Probable space group: P -1
;
_chemical_formula_sum "Si O2"
_cell_formula_units_Z 16
_cell_length_a 15.614652
_cell_length_b 11.976496
_cell_length_c 9.339089
_cell_angle_alpha 128.809235
_cell_angle_beta 66.128915
_cell_angle_gamma 72.087096
_cell_volume 766.924822
_symmetry_space_group_name_H-M "P -1"
_symmetry_group_IT_number 2
_symmetry_cell_setting 'triclinic'
loop_
_space_group_symop_operation_xyz
x,y,z
-x,-y,-z
loop_
_atom_site_type_symbol
_atom_site_label
_atom_site_fract_x
_atom_site_fract_y
_atom_site_fract_z
Si Si1 0.360039 0.217947 0.676309
Si Si2 0.945526 0.438468 0.686003
Si Si3 0.721353 0.460203 0.448000
Si Si4 0.721935 0.144399 0.248045
Si Si5 0.547345 0.052095 0.885735
Si Si6 0.233540 0.962545 0.193692
Si Si7 0.023842 0.651075 0.726795
Si Si8 0.379714 0.493512 0.764458
O O1 0.333753 0.420797 0.843781
O O2 0.500000 0.000000 0.500000
O O3 0.395797 0.113021 0.413629
O O4 0.208327 0.339594 0.948588
O O5 0.041570 0.468367 0.622825
O O6 0.915290 0.406307 0.523932
O O7 0.051128 0.205519 0.523065
O O8 0.770399 0.250957 0.314418
O O9 0.638657 0.534305 0.410641
O O10 0.872347 0.375059 0.262111
O O11 0.605590 0.671032 0.809887
O O12 0.551159 0.323811 0.559667
O O13 0.720492 0.094268 0.047226
O O14 0.845806 0.907967 0.066358
O O15 0.683500 0.999111 0.770400
O O16 0.500000 0.000000 0.000000
O O17 0.278859 0.757717 0.074570
#
# Coordination Sequence:
#
# PCOD8040385 Si02
#       8
#     2   2   2   2   2   2   2   2
#     4  12  26  42  63  92 131 168 212 264 325 374
#     4  10  23  41  61  89 131 170 207 264 323 376
#     4  11  19  35  63  98 121 162 221 260 304 381
#     4  10  18  36  63  94 129 162 209 262 317 373
#     4  12  21  38  66  97 122 164 215 261 302 379
#     4  10  20  38  63  89 124 167 212 258 316 371
#     4  10  21  38  65  92 127 169 212 258 322 380
#     4  11  21  40  65  92 127 168 211 265 316 375
#
# _framework density 20.862541
#
# number of rings (size 3 to 8) (size 9 to 14) (size 15 to 20)
#    0.000    1.250    3.750    3.375    0.000    3.000 
#    0.000    0.625    2.750    0.000    0.000    0.000 
#    0.000    0.000    0.000    0.000    0.000    0.000 
#
# Total GULP energy -198327.514983 kJ/mol
# GULP energy per Si atom -12395.469686 kJ/mol
# Density = 2.081506 g / cm^3
# Si number density = 20.862541 Si / 1000 Ang^3
#
#
#
# Elastic Constant Matrix: (Units=GPa)
#
#
# Indices 1 2 3 4 5 6 
#
# 1 117.9574 33.4939 35.4120 5.8040 -4.0577 5.5779
# 2 33.4939 78.9387 50.7714 18.8698 1.0450 10.1406
# 3 35.4120 50.7714 113.9249 13.5549 -9.1168 -6.6805
# 4 5.8040 18.8698 13.5549 31.5855 2.8329 -1.5317
# 5 -4.0577 1.0450 -9.1168 2.8329 28.8142 10.4712
# 6 5.5779 10.1406 -6.6805 -1.5317 10.4712 23.5731
#
#
#
# Elastic Compliance Matrix: (Units=1/GPa)
#
#
# Indices 1 2 3 4 5 6 
#
# 1 0.010008 -0.002826 -0.001900 0.000388 0.001762 -0.002449
# 2 -0.002826 0.024170 -0.009273 -0.010786 0.001905 -0.013904
# 3 -0.001900 -0.009273 0.014082 0.000062 0.001733 0.007664
# 4 0.000388 -0.010786 0.000062 0.039142 -0.007115 0.010270
# 5 0.001762 0.001905 0.001733 -0.007115 0.043611 -0.020580
# 6 -0.002449 -0.013904 0.007664 0.010270 -0.020580 0.060962
#
#
# Mechanical properties :
#
#
# Convention : Reuss Voigt Hill
#
# Bulk Modulus (GPa) = 49.35295 61.13065 55.24180
# Shear Modulus (GPa) = 22.05299 29.53746 25.79523
#
# Velocity S-wave (km/s) = 3.25478 3.76681 3.52012
# Velocity P-wave (km/s) = 6.15080 6.94865 6.56186
#
# Compressibility (1/GPa) = 0.02026221
#
# Stress axis : x y z
#
# Youngs Moduli (GPa) = 99.92233 41.37308 71.01481
#
# Poissons Ratio (x) = 0.11690 0.13494
# Poissons Ratio (y) = 0.28234 0.65851
# Poissons Ratio (z) = 0.18988 0.38365
#
# Static dielectric constant tensor:
#      x y z
#    x 3.958730 0.137340 0.231850 
#    y 0.137340 3.560130 0.496700 
#    z 0.231850 0.496700 4.067490 
# 
# 
# High freq. dielectric constant tensor:
#      x y z
#    x 1.824320 0.011430 -0.001680 
#    y 0.011430 1.799080 0.036350 
#    z -0.001680 0.036350 1.812410 
# 
# From -- ./inp_files/308517.got.cif
#   From: 2010.06.25/outbox.cif.g09.slc.cpg/sg2_155_cif.got.tgz:308517.got - 2010.06.27 13:26:56.
