data_PCOD8040753
_publ_section_title
;
Structure prediction by ZEFSAII (Michael W. Deem and Ramdas Pophale) SiO2 
 PCOD8040753
Probable space group: P -1
;
_chemical_formula_sum "Si O2"
_cell_formula_units_Z 14
_cell_length_a 11.664306
_cell_length_b 8.819702
_cell_length_c 8.660676
_cell_angle_alpha 70.922407
_cell_angle_beta 97.620869
_cell_angle_gamma 60.097251
_cell_volume 680.783359
_symmetry_space_group_name_H-M "P -1"
_symmetry_group_IT_number 2
_symmetry_cell_setting 'triclinic'
loop_
_space_group_symop_operation_xyz
x,y,z
-x,-y,-z
loop_
_atom_site_type_symbol
_atom_site_label
_atom_site_fract_x
_atom_site_fract_y
_atom_site_fract_z
Si Si1 0.038146 0.274715 0.909252
Si Si2 0.942158 0.444820 0.364667
Si Si3 0.057159 0.103498 0.290394
Si Si4 0.268106 0.642333 0.529941
Si Si5 0.448876 0.655286 0.806702
Si Si6 0.278053 0.560333 0.217490
Si Si7 0.192754 0.895613 0.866904
O O1 0.096127 0.404887 0.835020
O O2 0.866993 0.423368 0.827103
O O3 0.087985 0.118437 0.831324
O O4 0.097917 0.165150 0.119393
O O5 0.802830 0.460547 0.380059
O O6 0.000000 0.500000 0.500000
O O7 0.059408 0.224474 0.394934
O O8 0.898264 0.159065 0.230276
O O9 0.163227 0.876523 0.419313
O O10 0.398505 0.586172 0.678518
O O11 0.326015 0.548335 0.404762
O O12 0.589090 0.638929 0.776908
O O13 0.318633 0.863441 0.787926
O O14 0.500000 0.500000 0.000000
O O15 0.256450 0.753273 0.073687
#
# Coordination Sequence:
#
# PCOD8040753 Si02
#       7
#     2   2   2   2   2   2   2
#     4  11  21  39  64  93 127 157 197 254 312 362
#     4  12  24  35  58  99 131 154 194 260 311 357
#     4  11  21  38  62  94 118 159 208 252 299 357
#     4  12  21  39  64  92 120 158 210 253 300 357
#     4  10  23  36  61  93 120 158 211 255 293 355
#     4  10  19  37  61  91 122 157 203 248 298 360
#     4  10  18  38  64  91 118 157 209 249 295 361
#
# _framework density 20.564544000000001
#
# number of rings (size 3 to 8) (size 9 to 14) (size 15 to 20)
#    0.000    1.143    5.714    2.143    2.000    0.000 
#    0.000    0.000    0.000    8.571    0.000    0.000 
#    0.000    0.000    0.000    0.000    0.000    0.000 
#
# Total GULP energy -173506.396979 kJ/mol
# GULP energy per Si atom -12393.314070 kJ/mol
# Density = 2.051774 g / cm^3
# Si number density = 20.564544 Si / 1000 Ang^3
#
#
#
# Elastic Constant Matrix: (Units=GPa)
#
#
# Indices 1 2 3 4 5 6 
#
# 1 99.5367 51.4122 43.2757 -5.6608 -18.0228 -21.0663
# 2 51.4122 92.7745 20.1698 14.1308 -13.7545 -15.1609
# 3 43.2757 20.1698 96.1891 6.8619 -0.8940 -3.9230
# 4 -5.6608 14.1308 6.8619 29.9635 4.3318 -3.3607
# 5 -18.0228 -13.7545 -0.8940 4.3318 29.9837 2.2435
# 6 -21.0663 -15.1609 -3.9230 -3.3607 2.2435 33.3345
#
#
#
# Elastic Compliance Matrix: (Units=1/GPa)
#
#
# Indices 1 2 3 4 5 6 
#
# 1 0.022624 -0.009854 -0.008448 0.010976 0.006531 0.009489
# 2 -0.009854 0.018416 0.001458 -0.011380 0.004146 0.000894
# 3 -0.008448 0.001458 0.014116 -0.005468 -0.002946 -0.003367
# 4 0.010976 -0.011380 -0.005468 0.043523 -0.005513 0.005876
# 5 0.006531 0.004146 -0.002946 -0.005513 0.039705 0.002438
# 6 0.009489 0.000894 -0.003367 0.005876 0.002438 0.036434
#
#
# Mechanical properties :
#
#
# Convention : Reuss Voigt Hill
#
# Bulk Modulus (GPa) = 46.57505 57.57952 52.07729
# Shear Modulus (GPa) = 23.18446 30.23250 26.70848
#
# Velocity S-wave (km/s) = 3.36132 3.83838 3.60775
# Velocity P-wave (km/s) = 6.14508 6.90684 6.53707
#
# Compressibility (1/GPa) = 0.02147072
#
# Stress axis : x y z
#
# Youngs Moduli (GPa) = 44.20111 54.29952 70.83965
#
# Poissons Ratio (x) = 0.53504 0.59843
# Poissons Ratio (y) = 0.43554 -0.10330
# Poissons Ratio (z) = 0.37339 -0.07918
#
# Static dielectric constant tensor:
#      x y z
#    x 3.919880 -0.395830 -0.212900 
#    y -0.395830 3.880950 0.238700 
#    z -0.212900 0.238700 4.017770 
# 
# 
# High freq. dielectric constant tensor:
#      x y z
#    x 1.781570 -0.023830 -0.014580 
#    y -0.023830 1.790190 0.023750 
#    z -0.014580 0.023750 1.818850 
# 
# From -- ./inp_files/184905.got.cif
#   From: 2010.06.25/outbox.cif.g09.slc.cpg/sg2_93_cif.got.tgz:184905.got - 2010.06.27 13:26:56.
