data_PCOD8040215
_publ_section_title
;
Structure prediction by ZEFSAII (Michael W. Deem and Ramdas Pophale) SiO2 
 PCOD8040215
Probable space group: P -1
;
_chemical_formula_sum "Si O2"
_cell_formula_units_Z 14
_cell_length_a 13.585158
_cell_length_b 7.277363
_cell_length_c 13.721212
_cell_angle_alpha 83.197540
_cell_angle_beta 30.884995
_cell_angle_gamma 65.756276
_cell_volume 549.917192
_symmetry_space_group_name_H-M "P -1"
_symmetry_group_IT_number 2
_symmetry_cell_setting 'triclinic'
loop_
_space_group_symop_operation_xyz
x,y,z
-x,-y,-z
loop_
_atom_site_type_symbol
_atom_site_label
_atom_site_fract_x
_atom_site_fract_y
_atom_site_fract_z
Si Si1 0.843298 0.492839 0.281010
Si Si2 0.671188 0.290392 0.724827
Si Si3 0.060747 0.989878 0.800617
Si Si4 0.654829 0.839499 0.056599
Si Si5 0.859133 0.064351 0.768053
Si Si6 0.428875 0.605405 0.748471
Si Si7 0.447463 0.199310 0.654852
O O1 0.609273 0.641654 0.539977
O O2 0.783970 0.658805 0.228454
O O3 0.886006 0.258667 0.221860
O O4 0.084725 0.420404 0.136061
O O5 0.546135 0.163606 0.825411
O O6 0.714736 0.288597 0.804394
O O7 0.499053 0.550465 0.808484
O O8 0.926030 0.156698 0.461597
O O9 0.307198 0.964659 0.608297
O O10 0.972727 0.103753 0.760467
O O11 0.847620 0.167166 0.046451
O O12 0.581588 0.935767 0.225911
O O13 0.680734 0.009729 0.962368
O O14 0.471727 0.378135 0.682100
#
# Coordination Sequence:
#
# PCOD8040215 Si02
#       7
#     2   2   2   2   2   2   2
#     4  10  20  35  55  82 112 148 185 224 275 324
#     4  10  19  35  59  83 109 146 184 224 278 328
#     4  10  19  35  57  82 115 144 185 229 271 325
#     4  10  18  36  58  84 112 144 180 234 270 326
#     4  10  19  35  59  83 109 146 184 224 278 328
#     4  10  19  35  57  82 115 144 185 229 271 325
#     4  10  20  35  55  82 112 148 185 224 275 324
#
# _framework density 25.458379000000001
#
# number of rings (size 3 to 8) (size 9 to 14) (size 15 to 20)
#    0.000    2.000    5.714    2.571    0.000    2.857 
#    0.000    5.714    0.000   10.286    0.000    0.000 
#    0.000    0.000    0.000    0.000    0.000    0.000 
#
# Total GULP energy -173484.978509 kJ/mol
# GULP energy per Si atom -12391.784179 kJ/mol
# Density = 2.540043 g / cm^3
# Si number density = 25.458379 Si / 1000 Ang^3
#
#
#
# Elastic Constant Matrix: (Units=GPa)
#
#
# Indices 1 2 3 4 5 6 
#
# 1 31.6903 11.9735 -18.9311 2.3756 -8.2523 -18.9532
# 2 11.9735 46.1237 29.8735 -6.7533 -0.9382 -22.2085
# 3 -18.9311 29.8735 157.5187 0.9309 -3.1914 5.5359
# 4 2.3756 -6.7533 0.9309 40.0768 -2.0089 -4.8123
# 5 -8.2523 -0.9382 -3.1914 -2.0089 21.4186 4.3808
# 6 -18.9532 -22.2085 5.5359 -4.8123 4.3808 27.7496
#
#
#
# Elastic Compliance Matrix: (Units=1/GPa)
#
#
# Indices 1 2 3 4 5 6 
#
# 1 0.063844 -0.002900 0.007278 0.000923 0.018045 0.037144
# 2 -0.002900 0.058080 -0.013462 0.015971 -0.009609 0.051474
# 3 0.007278 -0.013462 0.010234 -0.003793 0.005293 -0.009338
# 4 0.000923 0.015971 -0.003793 0.029981 -0.000682 0.019475
# 5 0.018045 -0.009609 0.005293 -0.000682 0.055013 -0.005224
# 6 0.037144 0.051474 -0.009338 0.019475 -0.005224 0.108667
#
#
# Mechanical properties :
#
#
# Convention : Reuss Voigt Hill
#
# Bulk Modulus (GPa) = 8.77271 31.24049 20.00660
# Shear Modulus (GPa) = 13.08957 32.01012 22.54985
#
# Velocity S-wave (km/s) = 2.26996 3.54976 2.97939
# Velocity P-wave (km/s) = 3.21305 5.39434 4.43974
#
# Compressibility (1/GPa) = 0.11398984
#
# Stress axis : x y z
#
# Youngs Moduli (GPa) = 15.66323 17.21765 97.71413
#
# Poissons Ratio (x) = 0.04993 -0.71113
# Poissons Ratio (y) = 0.04542 1.31538
# Poissons Ratio (z) = -0.11399 0.23178
#
# Static dielectric constant tensor:
#      x y z
#    x 4.521150 -0.604200 -0.088590 
#    y -0.604200 4.278530 -0.215630 
#    z -0.088590 -0.215630 5.137390 
# 
# 
# High freq. dielectric constant tensor:
#      x y z
#    x 1.993510 -0.039070 -0.006380 
#    y -0.039070 1.990300 -0.011180 
#    z -0.006380 -0.011180 2.042150 
# 
# From -- ./inp_files/528450.got.cif
#   From: 2010.06.25/outbox.cif.g09.slc.cpg/sg2_265_cif.got.tgz:528450.got - 2010.06.27 13:26:56.
