data_PCOD8040050
_publ_section_title
;
Structure prediction by ZEFSAII (Michael W. Deem and Ramdas Pophale) SiO2 
 PCOD8040050
Probable space group: P -1
;
_chemical_formula_sum "Si O2"
_cell_formula_units_Z 14
_cell_length_a 11.588854
_cell_length_b 11.385997
_cell_length_c 13.816105
_cell_angle_alpha 136.101460
_cell_angle_beta 38.161118
_cell_angle_gamma 108.567609
_cell_volume 636.690267
_symmetry_space_group_name_H-M "P -1"
_symmetry_group_IT_number 2
_symmetry_cell_setting 'triclinic'
loop_
_space_group_symop_operation_xyz
x,y,z
-x,-y,-z
loop_
_atom_site_type_symbol
_atom_site_label
_atom_site_fract_x
_atom_site_fract_y
_atom_site_fract_z
Si Si1 0.221770 0.357012 0.983349
Si Si2 0.413085 0.046279 0.392836
Si Si3 0.232799 0.957332 0.280397
Si Si4 0.552864 0.616930 0.341023
Si Si5 0.029046 0.318130 0.500652
Si Si6 0.996998 0.318284 0.945776
Si Si7 0.314901 0.470484 0.314487
O O1 0.374312 0.353526 0.795193
O O2 0.044048 0.315404 0.027574
O O3 0.372391 0.184355 0.861890
O O4 0.082586 0.574504 0.259209
O O5 0.335841 0.051478 0.337431
O O6 0.490623 0.201256 0.450516
O O7 0.200802 0.101883 0.635236
O O8 0.176984 0.072580 0.281326
O O9 0.000000 0.000000 0.500000
O O10 0.426060 0.711385 0.996574
O O11 0.330217 0.617037 0.469252
O O12 0.741354 0.389432 0.131353
O O13 0.195637 0.374253 0.384733
O O14 0.830657 0.383255 0.593005
O O15 0.000000 0.500000 0.000000
#
# Coordination Sequence:
#
# PCOD8040050 Si02
#       7
#     2   2   2   2   2   2   2
#     4  10  18  35  62  88 121 160 205 253 306 360
#     4  10  19  35  59  93 125 152 201 263 312 354
#     4  12  24  41  69  96 120 159 215 259 307 367
#     4  10  20  37  61  90 122 156 209 258 304 366
#     4  11  24  43  63  86 133 169 203 255 304 374
#     4   8  15  30  52  85 117 149 189 253 306 343
#     4  11  25  43  62  90 128 170 208 246 314 370
#
# _framework density 21.988714000000002
#
# number of rings (size 3 to 8) (size 9 to 14) (size 15 to 20)
#    0.000    2.000    1.429    6.429    2.000    1.143 
#    2.571    3.571    0.000    0.000    0.000    0.000 
#    0.000    0.000    0.000    0.000    0.000    0.000 
#
# Total GULP energy -173495.546057 kJ/mol
# GULP energy per Si atom -12392.539004 kJ/mol
# Density = 2.193867 g / cm^3
# Si number density = 21.988714 Si / 1000 Ang^3
#
#
#
# Elastic Constant Matrix: (Units=GPa)
#
#
# Indices 1 2 3 4 5 6 
#
# 1 153.7156 46.2210 28.7134 15.9360 -25.3092 4.6755
# 2 46.2210 56.0304 9.5662 7.2912 -17.2840 -4.3328
# 3 28.7134 9.5662 56.6296 14.2272 -16.7815 2.5895
# 4 15.9360 7.2912 14.2272 20.5572 -4.5724 -4.3113
# 5 -25.3092 -17.2840 -16.7815 -4.5724 39.8536 9.4242
# 6 4.6755 -4.3328 2.5895 -4.3113 9.4242 33.6811
#
#
#
# Elastic Compliance Matrix: (Units=1/GPa)
#
#
# Indices 1 2 3 4 5 6 
#
# 1 0.009858 -0.006643 -0.001814 -0.004092 0.002958 -0.003435
# 2 -0.006643 0.025715 0.001833 -0.003340 0.006914 0.001727
# 3 -0.001814 0.001833 0.025572 -0.016033 0.010073 -0.006349
# 4 -0.004092 -0.003340 -0.016033 0.065149 -0.006018 0.011394
# 5 0.002958 0.006914 0.010073 -0.006018 0.036165 -0.011185
# 6 -0.003435 0.001727 -0.006349 0.011394 -0.011185 0.035466
#
#
# Mechanical properties :
#
#
# Convention : Reuss Voigt Hill
#
# Bulk Modulus (GPa) = 20.87787 48.37519 34.62653
# Shear Modulus (GPa) = 22.01308 30.94338 26.47823
#
# Velocity S-wave (km/s) = 3.16746 3.75539 3.47389
# Velocity P-wave (km/s) = 4.78461 6.39153 5.64554
#
# Compressibility (1/GPa) = 0.04789760
#
# Stress axis : x y z
#
# Youngs Moduli (GPa) = 101.44456 38.88746 39.10515
#
# Poissons Ratio (x) = 0.25832 0.07095
# Poissons Ratio (y) = 0.67386 -0.07169
# Poissons Ratio (z) = 0.18404 -0.07129
#
# Static dielectric constant tensor:
#      x y z
#    x 4.773850 0.101210 -0.450360 
#    y 0.101210 3.431750 0.161270 
#    z -0.450360 0.161270 4.092000 
# 
# 
# High freq. dielectric constant tensor:
#      x y z
#    x 1.893970 -0.001100 -0.017130 
#    y -0.001100 1.815970 0.021430 
#    z -0.017130 0.021430 1.854070 
# 
# From -- ./inp_files/519225.got.cif
#   From: 2010.06.25/outbox.cif.g09.slc.cpg/sg2_260_cif.got.tgz:519225.got - 2010.06.27 13:26:56.
