data_PCOD8040061
_publ_section_title
;
Structure prediction by ZEFSAII (Michael W. Deem and Ramdas Pophale) SiO2 
 PCOD8040061
Probable space group: P -1
;
_chemical_formula_sum "Si O2"
_cell_formula_units_Z 14
_cell_length_a 9.494576
_cell_length_b 12.906258
_cell_length_c 7.515935
_cell_angle_alpha 141.880896
_cell_angle_beta 95.302581
_cell_angle_gamma 73.808353
_cell_volume 533.310480
_symmetry_space_group_name_H-M "P -1"
_symmetry_group_IT_number 2
_symmetry_cell_setting 'triclinic'
loop_
_space_group_symop_operation_xyz
x,y,z
-x,-y,-z
loop_
_atom_site_type_symbol
_atom_site_label
_atom_site_fract_x
_atom_site_fract_y
_atom_site_fract_z
Si Si1 0.852494 0.601917 0.230998
Si Si2 0.728893 0.182911 0.315054
Si Si3 0.948011 0.241064 0.905990
Si Si4 0.290949 0.057789 0.711892
Si Si5 0.584425 0.133979 0.878154
Si Si6 0.039169 0.082491 0.328642
Si Si7 0.412761 0.445582 0.069019
O O1 0.862076 0.793800 0.556371
O O2 0.856900 0.456498 0.193142
O O3 0.702334 0.646055 0.152090
O O4 0.000000 0.500000 0.000000
O O5 0.678033 0.120296 0.409328
O O6 0.679818 0.394414 0.597572
O O7 0.908940 0.095325 0.184494
O O8 0.668066 0.104786 0.035206
O O9 0.936717 0.172910 0.611917
O O10 0.876351 0.127133 0.879424
O O11 0.124829 0.199598 0.916168
O O12 0.312127 0.016630 0.447340
O O13 0.417301 0.133484 0.895221
O O14 0.549695 0.323558 0.038141
O O15 0.500000 0.500000 0.000000
#
# Coordination Sequence:
#
# PCOD8040061 Si02
#       7
#     2   2   2   2   2   2   2
#     4  10  18  35  62  92 120 167 217 255 313 390
#     4  11  21  40  61  92 127 163 211 265 316 381
#     4   9  17  33  60  87 120 159 213 262 309 373
#     4  10  22  39  61  93 124 164 215 258 320 384
#     4  11  23  38  62  91 128 170 206 260 325 385
#     4   9  18  32  61  91 114 165 212 250 317 376
#     4  12  23  39  62  95 129 167 210 264 319 377
#
# _framework density 26.251124999999998
#
# number of rings (size 3 to 8) (size 9 to 14) (size 15 to 20)
#    0.000    1.714    4.286    2.571    0.000    0.000 
#    0.000    0.714    0.000    0.857    7.429    0.000 
#    0.000    0.000    0.000    0.000    0.000    0.000 
#
# Total GULP energy -173493.792531 kJ/mol
# GULP energy per Si atom -12392.413752 kJ/mol
# Density = 2.619138 g / cm^3
# Si number density = 26.251125 Si / 1000 Ang^3
#
#
#
# Elastic Constant Matrix: (Units=GPa)
#
#
# Indices 1 2 3 4 5 6 
#
# 1 75.9302 35.5632 39.8007 -14.5746 24.1049 -6.4419
# 2 35.5632 152.3469 56.9662 23.1758 30.6719 -16.2943
# 3 39.8007 56.9662 65.8377 17.6573 20.9189 -9.8532
# 4 -14.5746 23.1758 17.6573 46.4499 -6.7475 15.4811
# 5 24.1049 30.6719 20.9189 -6.7475 44.5901 -0.1483
# 6 -6.4419 -16.2943 -9.8532 15.4811 -0.1483 46.2385
#
#
#
# Elastic Compliance Matrix: (Units=1/GPa)
#
#
# Indices 1 2 3 4 5 6 
#
# 1 0.030520 -0.002828 -0.023644 0.023155 0.000011 -0.009535
# 2 -0.002828 0.011528 -0.003299 -0.008159 -0.006069 0.005678
# 3 -0.023644 -0.003299 0.046286 -0.030145 -0.011174 0.015464
# 4 0.023155 -0.008159 -0.030145 0.054674 0.015430 -0.024329
# 5 0.000011 -0.006069 -0.011174 0.015430 0.034141 -0.009575
# 6 -0.009535 0.005678 0.015464 -0.024329 -0.009575 0.033709
#
#
# Mechanical properties :
#
#
# Convention : Reuss Voigt Hill
#
# Bulk Modulus (GPa) = 34.73075 62.08611 48.40843
# Shear Modulus (GPa) = 17.85742 38.24135 28.04938
#
# Velocity S-wave (km/s) = 2.61100 3.82088 3.27234
# Velocity P-wave (km/s) = 4.72744 6.57021 5.72348
#
# Compressibility (1/GPa) = 0.02879293
#
# Stress axis : x y z
#
# Youngs Moduli (GPa) = 32.76541 86.74584 21.60495
#
# Poissons Ratio (x) = 0.24531 0.51082
# Poissons Ratio (y) = 0.09266 0.07127
# Poissons Ratio (z) = 0.77470 0.28615
#
# Static dielectric constant tensor:
#      x y z
#    x 4.460290 0.128190 0.070850 
#    y 0.128190 5.571110 0.624250 
#    z 0.070850 0.624250 4.601680 
# 
# 
# High freq. dielectric constant tensor:
#      x y z
#    x 2.070650 -0.010690 0.014320 
#    y -0.010690 2.074430 0.020020 
#    z 0.014320 0.020020 2.019100 
# 
# From -- ./inp_files/209436.got.cif
#   From: 2010.06.25/outbox.cif.g09.slc.cpg/sg2_105_cif.got.tgz:209436.got - 2010.06.27 13:26:56.
