data_PCOD8040321
_publ_section_title
;
Structure prediction by ZEFSAII (Michael W. Deem and Ramdas Pophale) SiO2 
 PCOD8040321
Probable space group: P -1
;
_chemical_formula_sum "Si O2"
_cell_formula_units_Z 16
_cell_length_a 26.114474
_cell_length_b 8.428408
_cell_length_c 14.266969
_cell_angle_alpha 116.911480
_cell_angle_beta 20.309623
_cell_angle_gamma 128.229402
_cell_volume 756.436807
_symmetry_space_group_name_H-M "P -1"
_symmetry_group_IT_number 2
_symmetry_cell_setting 'triclinic'
loop_
_space_group_symop_operation_xyz
x,y,z
-x,-y,-z
loop_
_atom_site_type_symbol
_atom_site_label
_atom_site_fract_x
_atom_site_fract_y
_atom_site_fract_z
Si Si1 0.442893 0.140664 0.031358
Si Si2 0.900207 0.408852 0.748875
Si Si3 0.180932 0.150599 0.600182
Si Si4 0.496422 0.974993 0.289283
Si Si5 0.713801 0.366866 0.786861
Si Si6 0.836395 0.652504 0.066389
Si Si7 0.424672 0.276278 0.388464
Si Si8 0.848775 0.483054 0.188592
O O1 0.282657 0.166620 0.333722
O O2 0.349498 0.879585 0.143472
O O3 0.505707 0.180946 0.827422
O O4 0.631029 0.338853 0.818853
O O5 0.000000 0.500000 0.500000
O O6 0.058473 0.442028 0.554035
O O7 0.835889 0.550289 0.940667
O O8 0.711456 0.146025 0.004508
O O9 0.277882 0.124122 0.515302
O O10 0.201963 0.375993 0.631782
O O11 0.963730 0.925236 0.911719
O O12 0.338483 0.780530 0.579592
O O13 0.422696 0.111531 0.419822
O O14 0.631509 0.440681 0.027166
O O15 0.628387 0.577038 0.429556
O O16 0.916558 0.584930 0.994003
O O17 0.000000 0.500000 0.000000
#
# Coordination Sequence:
#
# PCOD8040321 Si02
#       8
#     2   2   2   2   2   2   2   2
#     4   9  17  32  61  87 114 152 201 249 297 340
#     4  12  22  38  60  92 122 160 201 250 294 361
#     4  10  18  36  61  90 114 149 210 257 297 338
#     4  11  22  37  59  90 129 156 197 239 307 361
#     4   9  17  32  58  89 117 148 199 251 295 340
#     4  11  22  37  63  86 120 159 201 250 301 347
#     4   9  18  34  58  88 117 149 199 253 289 349
#     4  11  24  38  59  89 126 157 198 250 303 362
#
# _framework density 21.151800000000001
#
# number of rings (size 3 to 8) (size 9 to 14) (size 15 to 20)
#    0.000    1.750    3.750    3.750    1.750    1.500 
#    0.000    0.000    0.000    6.750    0.000    0.000 
#    0.000    0.000    0.000    0.000    0.000    0.000 
#
# Total GULP energy -198237.878078 kJ/mol
# GULP energy per Si atom -12389.867380 kJ/mol
# Density = 2.110366 g / cm^3
# Si number density = 21.151800 Si / 1000 Ang^3
#
#
#
# Elastic Constant Matrix: (Units=GPa)
#
#
# Indices 1 2 3 4 5 6 
#
# 1 53.2995 38.4280 29.9310 5.1454 -2.9916 7.4187
# 2 38.4280 78.6681 59.2806 1.7305 -3.2314 12.2101
# 3 29.9310 59.2806 122.0578 3.7625 -18.2971 15.2370
# 4 5.1454 1.7305 3.7625 52.6025 13.2073 6.1295
# 5 -2.9916 -3.2314 -18.2971 13.2073 29.5281 7.2142
# 6 7.4187 12.2101 15.2370 6.1295 7.2142 26.2369
#
#
#
# Elastic Compliance Matrix: (Units=1/GPa)
#
#
# Indices 1 2 3 4 5 6 
#
# 1 0.029595 -0.014389 0.000708 -0.003162 0.003865 -0.002408
# 2 -0.014389 0.027788 -0.010750 0.002962 -0.005996 -0.001663
# 3 0.000708 -0.010750 0.015993 -0.003021 0.011878 -0.007046
# 4 -0.003162 0.002962 -0.003021 0.022473 -0.011736 -0.000753
# 5 0.003865 -0.005996 0.011878 -0.011736 0.050183 -0.016257
# 6 -0.002408 -0.001663 -0.007046 -0.000753 -0.016257 0.048307
#
#
# Mechanical properties :
#
#
# Convention : Reuss Voigt Hill
#
# Bulk Modulus (GPa) = 40.78963 56.58937 48.68950
# Shear Modulus (GPa) = 19.89087 30.09923 24.99505
#
# Velocity S-wave (km/s) = 3.06990 3.77637 3.44131
# Velocity P-wave (km/s) = 5.64728 6.76954 6.23372
#
# Compressibility (1/GPa) = 0.02451603
#
# Stress axis : x y z
#
# Youngs Moduli (GPa) = 33.78904 35.98735 62.52551
#
# Poissons Ratio (x) = 0.51780 -0.04428
# Poissons Ratio (y) = 0.48617 0.67215
# Poissons Ratio (z) = -0.02393 0.38686
#
# Static dielectric constant tensor:
#      x y z
#    x 3.683960 0.262210 -0.051850 
#    y 0.262210 3.625910 0.243790 
#    z -0.051850 0.243790 4.226960 
# 
# 
# High freq. dielectric constant tensor:
#      x y z
#    x 1.798220 0.018170 0.001460 
#    y 0.018170 1.801950 0.017250 
#    z 0.001460 0.017250 1.843940 
# 
# From -- ./inp_files/543843.got.cif
#   From: 2010.06.25/outbox.cif.g09.slc.cpg/sg2_272_cif.got.tgz:543843.got - 2010.06.27 13:26:56.
