data_PCOD8040590
_publ_section_title
;
Structure prediction by ZEFSAII (Michael W. Deem and Ramdas Pophale) SiO2 
 PCOD8040590
Probable space group: P -1
;
_chemical_formula_sum "Si O2"
_cell_formula_units_Z 16
_cell_length_a 17.869727
_cell_length_b 23.565283
_cell_length_c 11.267173
_cell_angle_alpha 149.985412
_cell_angle_beta 140.297698
_cell_angle_gamma 19.367799
_cell_volume 754.098171
_symmetry_space_group_name_H-M "P -1"
_symmetry_group_IT_number 2
_symmetry_cell_setting 'triclinic'
loop_
_space_group_symop_operation_xyz
x,y,z
-x,-y,-z
loop_
_atom_site_type_symbol
_atom_site_label
_atom_site_fract_x
_atom_site_fract_y
_atom_site_fract_z
Si Si1 0.326512 0.643701 0.837756
Si Si2 0.851991 0.620405 0.855718
Si Si3 0.356672 0.192546 0.815388
Si Si4 0.164576 0.110392 0.728190
Si Si5 0.671935 0.576975 0.398631
Si Si6 0.963937 0.896956 0.672326
Si Si7 0.566367 0.117296 0.722073
Si Si8 0.243079 0.563181 0.011611
O O1 0.322176 0.540534 0.730080
O O2 0.594143 0.462024 0.824900
O O3 0.226396 0.696556 0.680190
O O4 0.159536 0.882586 0.121577
O O5 0.823580 0.548398 0.591897
O O6 0.117421 0.396712 0.818254
O O7 0.677958 0.736363 0.963584
O O8 0.785215 0.797654 0.038887
O O9 0.542541 0.115916 0.832590
O O10 0.450547 0.985423 0.557927
O O11 0.022657 0.201314 0.598409
O O12 0.014093 0.194749 0.810286
O O13 0.405671 0.839656 0.530513
O O14 0.788712 0.450786 0.186882
O O15 0.813304 0.971066 0.732044
O O16 0.349009 0.373816 0.876950
#
# Coordination Sequence:
#
# PCOD8040590 Si02
#       8
#     2   2   2   2   2   2   2   2
#     4  10  23  44  70  93 124 176 216 268 322 373
#     4  11  23  40  64  94 133 170 214 266 326 381
#     4  10  20  36  64  95 125 169 213 267 317 380
#     4  12  24  43  68  96 134 172 212 266 327 383
#     4  12  25  44  65  93 135 176 211 265 319 393
#     4  10  21  43  71  94 128 168 213 275 327 367
#     4  10  18  37  63  93 132 164 209 265 323 377
#     4  11  24  43  65  94 132 175 216 262 323 385
#
# _framework density 21.217396000000001
#
# number of rings (size 3 to 8) (size 9 to 14) (size 15 to 20)
#    0.000    1.250    5.000    1.500    1.750    1.500 
#    6.750    1.250    0.000    0.000    0.000    0.000 
#    0.000    0.000    0.000    0.000    0.000    0.000 
#
# Total GULP energy -198442.191196 kJ/mol
# GULP energy per Si atom -12402.636950 kJ/mol
# Density = 2.116910 g / cm^3
# Si number density = 21.217396 Si / 1000 Ang^3
#
#
#
# Elastic Constant Matrix: (Units=GPa)
#
#
# Indices 1 2 3 4 5 6 
#
# 1 118.5815 38.2039 68.3970 -14.4026 -3.6237 -4.8820
# 2 38.2039 57.0233 28.1470 -20.6524 -12.3478 -2.3343
# 3 68.3970 28.1470 80.4428 -16.8278 3.2037 -7.8649
# 4 -14.4026 -20.6524 -16.8278 31.2300 -0.4121 1.3085
# 5 -3.6237 -12.3478 3.2037 -0.4121 46.3689 8.9991
# 6 -4.8820 -2.3343 -7.8649 1.3085 8.9991 17.0842
#
#
#
# Elastic Compliance Matrix: (Units=1/GPa)
#
#
# Indices 1 2 3 4 5 6 
#
# 1 0.018206 -0.006143 -0.014320 -0.003255 0.001260 -0.002644
# 2 -0.006143 0.030749 -0.002983 0.016219 0.009013 -0.004917
# 3 -0.014320 -0.002983 0.028260 0.006103 -0.005984 0.011195
# 4 -0.003255 0.016219 0.006103 0.044659 0.004354 -0.001619
# 5 0.001260 0.009013 -0.005984 0.004354 0.027632 -0.016052
# 6 -0.002644 -0.004917 0.011195 -0.001619 -0.016052 0.070840
#
#
# Mechanical properties :
#
#
# Convention : Reuss Voigt Hill
#
# Bulk Modulus (GPa) = 32.97743 58.39369 45.68556
# Shear Modulus (GPa) = 18.02801 27.02328 22.52565
#
# Velocity S-wave (km/s) = 2.91809 3.57268 3.26185
# Velocity P-wave (km/s) = 5.18942 6.67833 5.98039
#
# Compressibility (1/GPa) = 0.03032377
#
# Stress axis : x y z
#
# Youngs Moduli (GPa) = 54.92610 32.52102 35.38568
#
# Poissons Ratio (x) = 0.19979 0.50672
# Poissons Ratio (y) = 0.33743 0.10554
# Poissons Ratio (z) = 0.78654 0.09699
#
# Static dielectric constant tensor:
#      x y z
#    x 3.954850 -0.027380 0.050390 
#    y -0.027380 3.730730 -0.001540 
#    z 0.050390 -0.001540 3.960190 
# 
# 
# High freq. dielectric constant tensor:
#      x y z
#    x 1.837120 0.001120 0.009940 
#    y 0.001120 1.816220 0.003210 
#    z 0.009940 0.003210 1.834420 
# 
# From -- ./inp_files/306166.got.cif
#   From: 2010.06.25/outbox.cif.g09.slc.cpg/sg2_154_cif.got.tgz:306166.got - 2010.06.27 13:26:56.
