data_PCOD8040068
_publ_section_title
;
Structure prediction by ZEFSAII (Michael W. Deem and Ramdas Pophale) SiO2 
 PCOD8040068
Probable space group: P -1
;
_chemical_formula_sum "Si O2"
_cell_formula_units_Z 16
_cell_length_a 7.862584
_cell_length_b 13.797449
_cell_length_c 9.190600
_cell_angle_alpha 70.632474
_cell_angle_beta 48.163927
_cell_angle_gamma 83.312319
_cell_volume 692.982012
_symmetry_space_group_name_H-M "P -1"
_symmetry_group_IT_number 2
_symmetry_cell_setting 'triclinic'
loop_
_space_group_symop_operation_xyz
x,y,z
-x,-y,-z
loop_
_atom_site_type_symbol
_atom_site_label
_atom_site_fract_x
_atom_site_fract_y
_atom_site_fract_z
Si Si1 0.936534 0.114603 0.492830
Si Si2 0.686099 0.157885 0.060757
Si Si3 0.494460 0.816464 0.139500
Si Si4 0.838766 0.793254 0.413644
Si Si5 0.147310 0.738769 0.788521
Si Si6 0.654652 0.614507 0.202171
Si Si7 0.524018 0.606199 0.595537
Si Si8 0.744235 0.941223 0.168213
O O1 0.703822 0.123361 0.711429
O O2 0.908696 0.165540 0.325959
O O3 0.141375 0.175118 0.444890
O O4 0.000000 0.000000 0.500000
O O5 0.716156 0.223545 0.158837
O O6 0.599126 0.036417 0.207826
O O7 0.486327 0.177802 0.050233
O O8 0.922192 0.188698 0.819807
O O9 0.469669 0.693856 0.247142
O O10 0.723198 0.875438 0.061405
O O11 0.716686 0.674309 0.550972
O O12 0.675764 0.863398 0.382235
O O13 0.312819 0.669227 0.648188
O O14 0.908102 0.664806 0.986036
O O15 0.661219 0.585696 0.381841
O O16 0.570042 0.505387 0.220080
O O17 0.000000 0.000000 0.000000
#
# Coordination Sequence:
#
# PCOD8040068 Si02
#       8
#     2   2   2   2   2   2   2   2
#     4  11  25  42  66 100 141 174 218 274 327 397
#     4  10  22  36  64  95 131 171 220 266 325 403
#     4  11  22  43  63  95 134 177 216 269 337 386
#     4  10  20  42  63  94 133 175 216 271 334 391
#     4  12  23  44  68 103 129 173 227 271 325 400
#     4  11  23  44  70  95 130 178 220 278 338 385
#     4  11  23  44  69  96 132 174 220 283 337 379
#     4  10  18  35  62  95 126 173 219 260 321 400
#
# _framework density 23.088622000000001
#
# number of rings (size 3 to 8) (size 9 to 14) (size 15 to 20)
#    0.000    1.250    3.750    2.250    0.000    6.000 
#    0.000    8.750    0.000    0.000    0.000    0.000 
#    0.000    0.000    0.000    0.000    0.000    0.000 
#
# Total GULP energy -198221.314553 kJ/mol
# GULP energy per Si atom -12388.832160 kJ/mol
# Density = 2.303607 g / cm^3
# Si number density = 23.088622 Si / 1000 Ang^3
#
#
#
# Elastic Constant Matrix: (Units=GPa)
#
#
# Indices 1 2 3 4 5 6 
#
# 1 127.5458 63.3232 28.2912 -12.0853 29.5588 29.7048
# 2 63.3232 162.8524 38.1357 -27.4079 2.2554 16.7582
# 3 28.2912 38.1357 74.1081 3.2312 9.9107 14.8695
# 4 -12.0853 -27.4079 3.2312 32.2896 0.3089 -3.9928
# 5 29.5588 2.2554 9.9107 0.3089 25.2442 5.7877
# 6 29.7048 16.7582 14.8695 -3.9928 5.7877 43.5781
#
#
#
# Elastic Compliance Matrix: (Units=1/GPa)
#
#
# Indices 1 2 3 4 5 6 
#
# 1 0.015825 -0.005114 0.000088 0.000921 -0.016615 -0.006560
# 2 -0.005114 0.010285 -0.004735 0.007343 0.006623 0.000939
# 3 0.000088 -0.004735 0.017746 -0.006217 -0.005627 -0.004117
# 4 0.000921 0.007343 -0.006217 0.038448 -0.000276 0.002229
# 5 -0.016615 0.006623 -0.005627 -0.000276 0.060071 0.002695
# 6 -0.006560 0.000939 -0.004117 0.002229 0.002695 0.028308
#
#
# Mechanical properties :
#
#
# Convention : Reuss Voigt Hill
#
# Bulk Modulus (GPa) = 41.09184 69.33406 55.21295
# Shear Modulus (GPa) = 25.21226 35.87280 30.54253
#
# Velocity S-wave (km/s) = 3.30809 3.94598 3.64103
# Velocity P-wave (km/s) = 5.69451 7.13132 6.45303
#
# Compressibility (1/GPa) = 0.02433573
#
# Stress axis : x y z
#
# Youngs Moduli (GPa) = 63.19027 97.22740 56.34987
#
# Poissons Ratio (x) = 0.49722 -0.00497
# Poissons Ratio (y) = 0.32315 0.26680
# Poissons Ratio (z) = -0.00557 0.46035
#
# Static dielectric constant tensor:
#      x y z
#    x 5.127230 -0.330150 0.349730 
#    y -0.330150 4.820090 -0.365780 
#    z 0.349730 -0.365780 4.195840 
# 
# 
# High freq. dielectric constant tensor:
#      x y z
#    x 1.915070 0.009670 -0.006070 
#    y 0.009670 1.913320 -0.003320 
#    z -0.006070 -0.003320 1.905940 
# 
# From -- ./inp_files/200634.got.cif
#   From: 2010.06.25/outbox.cif.g09.slc.cpg/sg2_101_cif.got.tgz:200634.got - 2010.06.27 13:26:56.
