data_PCOD8040052
_publ_section_title
;
Structure prediction by ZEFSAII (Michael W. Deem and Ramdas Pophale) SiO2 
 PCOD8040052
Probable space group: P -1
;
_chemical_formula_sum "Si O2"
_cell_formula_units_Z 14
_cell_length_a 13.661276
_cell_length_b 11.404483
_cell_length_c 8.839712
_cell_angle_alpha 138.598966
_cell_angle_beta 87.628712
_cell_angle_gamma 114.944160
_cell_volume 733.889904
_symmetry_space_group_name_H-M "P -1"
_symmetry_group_IT_number 2
_symmetry_cell_setting 'triclinic'
loop_
_space_group_symop_operation_xyz
x,y,z
-x,-y,-z
loop_
_atom_site_type_symbol
_atom_site_label
_atom_site_fract_x
_atom_site_fract_y
_atom_site_fract_z
Si Si1 0.326141 0.357483 0.485036
Si Si2 0.587823 0.507963 0.714014
Si Si3 0.210456 0.936095 0.247464
Si Si4 0.027757 0.833163 0.386349
Si Si5 0.718526 0.938390 0.315372
Si Si6 0.618869 0.196385 0.599301
Si Si7 0.230930 0.567785 0.895325
O O1 0.453462 0.415698 0.585948
O O2 0.324405 0.394771 0.343239
O O3 0.297108 0.506600 0.718738
O O4 0.223376 0.098260 0.273732
O O5 0.587028 0.308905 0.586081
O O6 0.635168 0.699385 0.017611
O O7 0.074191 0.783261 0.181205
O O8 0.302844 0.089240 0.527248
O O9 0.245443 0.780446 0.030626
O O10 0.911408 0.621664 0.263856
O O11 0.137743 0.944494 0.611021
O O12 0.000000 0.000000 0.500000
O O13 0.681171 0.095307 0.412048
O O14 0.500000 0.000000 0.500000
O O15 0.710532 0.382247 0.893984
#
# Coordination Sequence:
#
# PCOD8040052 Si02
#       7
#     2   2   2   2   2   2   2
#     4  11  23  37  57  84 114 155 189 228 284 346
#     4  11  23  39  56  81 121 152 185 233 286 332
#     4   9  20  35  58  87 110 142 190 233 279 331
#     4  10  18  35  62  89 112 143 189 241 281 326
#     4   9  21  37  57  85 113 144 189 237 279 327
#     4  11  22  36  61  87 112 146 191 236 283 333
#     4  11  20  37  62  85 114 148 188 237 283 329
#
# _framework density 19.076432
#
# number of rings (size 3 to 8) (size 9 to 14) (size 15 to 20)
#    0.857    0.857    1.429    4.714    0.000    2.857 
#    0.000    4.286    0.000    1.714    0.000    0.000 
#    0.000    0.000    0.000    0.000    0.000    0.000 
#
# Total GULP energy -173521.470419 kJ/mol
# GULP energy per Si atom -12394.390744 kJ/mol
# Density = 1.903301 g / cm^3
# Si number density = 19.076432 Si / 1000 Ang^3
#
#
#
# Elastic Constant Matrix: (Units=GPa)
#
#
# Indices 1 2 3 4 5 6 
#
# 1 98.7445 26.7604 26.9477 0.1838 -22.8843 -16.4640
# 2 26.7604 100.8162 29.8697 3.0336 -17.4327 -16.0415
# 3 26.9477 29.8697 62.8328 11.6592 -19.0945 -16.8762
# 4 0.1838 3.0336 11.6592 13.6495 1.1246 -5.6004
# 5 -22.8843 -17.4327 -19.0945 1.1246 40.6511 10.0179
# 6 -16.4640 -16.0415 -16.8762 -5.6004 10.0179 24.8976
#
#
#
# Elastic Compliance Matrix: (Units=1/GPa)
#
#
# Indices 1 2 3 4 5 6 
#
# 1 0.013114 -0.001122 -0.003411 0.004775 0.003900 0.005142
# 2 -0.001122 0.012345 -0.004233 0.002518 0.001548 0.004286
# 3 -0.003411 -0.004233 0.027216 -0.020692 0.008270 0.005483
# 4 0.004775 0.002518 -0.020692 0.098916 -0.013202 0.018316
# 5 0.003900 0.001548 0.008270 -0.013202 0.033499 -0.007267
# 6 0.005142 0.004286 0.005483 0.018316 -0.007267 0.057087
#
#
# Mechanical properties :
#
#
# Convention : Reuss Voigt Hill
#
# Bulk Modulus (GPa) = 28.45438 47.72766 38.09102
# Shear Modulus (GPa) = 18.42139 27.76069 23.09104
#
# Velocity S-wave (km/s) = 3.11088 3.81889 3.48292
# Velocity P-wave (km/s) = 5.27748 6.67224 6.01542
#
# Compressibility (1/GPa) = 0.03514397
#
# Stress axis : x y z
#
# Youngs Moduli (GPa) = 76.25253 81.00527 36.74341
#
# Poissons Ratio (x) = 0.09085 0.12533
# Poissons Ratio (y) = 0.08552 0.15554
# Poissons Ratio (z) = 0.26009 0.34290
#
# Static dielectric constant tensor:
#      x y z
#    x 3.782690 0.052190 -0.080770 
#    y 0.052190 3.440200 0.176410 
#    z -0.080770 0.176410 3.473560 
# 
# 
# High freq. dielectric constant tensor:
#      x y z
#    x 1.757530 0.000950 -0.016450 
#    y 0.000950 1.721490 0.023190 
#    z -0.016450 0.023190 1.727230 
# 
# From -- ./inp_files/305991.got.cif
#   From: 2010.06.25/outbox.cif.g09.slc.cpg/sg2_153_cif.got.tgz:305991.got - 2010.06.27 13:26:56.
