data_PCOD8040625
_publ_section_title
;
Structure prediction by ZEFSAII (Michael W. Deem and Ramdas Pophale) SiO2 
 PCOD8040625
Probable space group: P -1
;
_chemical_formula_sum "Si O2"
_cell_formula_units_Z 14
_cell_length_a 8.532387
_cell_length_b 14.204002
_cell_length_c 8.376954
_cell_angle_alpha 119.600951
_cell_angle_beta 90.485868
_cell_angle_gamma 126.111485
_cell_volume 645.018903
_symmetry_space_group_name_H-M "P -1"
_symmetry_group_IT_number 2
_symmetry_cell_setting 'triclinic'
loop_
_space_group_symop_operation_xyz
x,y,z
-x,-y,-z
loop_
_atom_site_type_symbol
_atom_site_label
_atom_site_fract_x
_atom_site_fract_y
_atom_site_fract_z
Si Si1 0.762038 0.155258 0.439072
Si Si2 0.790569 0.634146 0.549802
Si Si3 0.561188 0.382797 0.558213
Si Si4 0.619685 0.862153 0.141442
Si Si5 0.761616 0.359816 0.825321
Si Si6 0.593504 0.908477 0.815455
Si Si7 0.942900 0.871928 0.002293
O O1 0.742093 0.228598 0.646598
O O2 0.595205 0.102149 0.251486
O O3 0.998512 0.281035 0.478721
O O4 0.717126 0.009453 0.368528
O O5 0.720768 0.485304 0.497457
O O6 0.603898 0.594768 0.400859
O O7 0.813220 0.721962 0.777540
O O8 0.697798 0.422675 0.751148
O O9 0.421020 0.212967 0.373508
O O10 0.402894 0.712488 0.089469
O O11 0.795320 0.847161 0.125432
O O12 0.570819 0.882997 0.982520
O O13 0.000000 0.500000 0.000000
O O14 0.824734 0.066807 0.893367
O O15 0.000000 0.000000 0.000000
#
# Coordination Sequence:
#
# PCOD8040625 Si02
#       7
#     2   2   2   2   2   2   2
#     4  11  23  39  66  94 123 163 211 256 309 360
#     4  11  21  39  68  93 121 159 217 263 295 362
#     4  10  23  41  62  92 124 166 211 252 310 362
#     4  11  21  41  64  91 129 160 199 258 313 372
#     4  11  28  43  59  89 136 169 201 247 319 380
#     4  10  20  37  67  97 121 154 214 262 305 355
#     4  10  18  37  65  95 119 154 208 263 300 358
#
# _framework density 21.704789000000002
#
# number of rings (size 3 to 8) (size 9 to 14) (size 15 to 20)
#    0.000    1.429    5.714    0.857    4.000    1.143 
#    0.000   10.714    0.000    0.000    0.000    0.000 
#    0.000    0.000    0.000    0.000    0.000    0.000 
#
# Total GULP energy -173551.731941 kJ/mol
# GULP energy per Si atom -12396.552281 kJ/mol
# Density = 2.165539 g / cm^3
# Si number density = 21.704789 Si / 1000 Ang^3
#
#
#
# Elastic Constant Matrix: (Units=GPa)
#
#
# Indices 1 2 3 4 5 6 
#
# 1 108.3171 53.0584 35.5521 -5.8662 14.0063 25.8423
# 2 53.0584 95.0389 20.4150 1.0299 12.8800 37.1180
# 3 35.5521 20.4150 79.3541 -2.9077 19.0097 3.3061
# 4 -5.8662 1.0299 -2.9077 20.8893 8.8716 3.8110
# 5 14.0063 12.8800 19.0097 8.8716 32.3728 5.6021
# 6 25.8423 37.1180 3.3061 3.8110 5.6021 40.2821
#
#
#
# Elastic Compliance Matrix: (Units=1/GPa)
#
#
# Indices 1 2 3 4 5 6 
#
# 1 0.015025 -0.005422 -0.004305 0.005824 -0.002637 -0.004474
# 2 -0.005422 0.019807 -0.001441 0.000975 -0.002463 -0.014405
# 3 -0.004305 -0.001441 0.017217 0.004673 -0.009572 0.003565
# 4 0.005824 0.000975 0.004673 0.060391 -0.020846 -0.007832
# 5 -0.002637 -0.002463 -0.009572 -0.020846 0.044247 0.000566
# 6 -0.004474 -0.014405 0.003565 -0.007832 0.000566 0.041338
#
#
# Mechanical properties :
#
#
# Convention : Reuss Voigt Hill
#
# Bulk Modulus (GPa) = 33.65416 55.64013 44.64714
# Shear Modulus (GPa) = 21.71413 30.28782 26.00097
#
# Velocity S-wave (km/s) = 3.16639 3.73962 3.46488
# Velocity P-wave (km/s) = 5.37653 6.65860 6.05161
#
# Compressibility (1/GPa) = 0.02971401
#
# Stress axis : x y z
#
# Youngs Moduli (GPa) = 66.55705 50.48594 58.08292
#
# Poissons Ratio (x) = 0.27372 0.25005
# Poissons Ratio (y) = 0.36085 0.08369
# Poissons Ratio (z) = 0.28653 0.07274
#
# Static dielectric constant tensor:
#      x y z
#    x 4.440520 0.167590 0.138600 
#    y 0.167590 3.828440 0.288050 
#    z 0.138600 0.288050 3.974400 
# 
# 
# High freq. dielectric constant tensor:
#      x y z
#    x 1.864650 0.013920 0.000680 
#    y 0.013920 1.836850 0.025910 
#    z 0.000680 0.025910 1.844070 
# 
# From -- ./inp_files/154754.got.cif
#   From: 2010.06.25/outbox.cif.g09.slc.cpg/sg2_78_cif.got.tgz:154754.got - 2010.06.27 13:26:56.
