data_PCOD8040693
_publ_section_title
;
Structure prediction by ZEFSAII (Michael W. Deem and Ramdas Pophale) SiO2 
 PCOD8040693
Probable space group: P -1
;
_chemical_formula_sum "Si O2"
_cell_formula_units_Z 14
_cell_length_a 15.780806
_cell_length_b 5.316478
_cell_length_c 23.367839
_cell_angle_alpha 50.373698
_cell_angle_beta 22.608987
_cell_angle_gamma 50.509451
_cell_volume 573.099294
_symmetry_space_group_name_H-M "P -1"
_symmetry_group_IT_number 2
_symmetry_cell_setting 'triclinic'
loop_
_space_group_symop_operation_xyz
x,y,z
-x,-y,-z
loop_
_atom_site_type_symbol
_atom_site_label
_atom_site_fract_x
_atom_site_fract_y
_atom_site_fract_z
Si Si1 0.589707 0.615902 0.094409
Si Si2 0.796174 0.688520 0.564453
Si Si3 0.113503 0.420722 0.810660
Si Si4 0.775615 0.741280 0.117361
Si Si5 0.170012 0.135517 0.692793
Si Si6 0.312032 0.787937 0.002087
Si Si7 0.314545 0.561816 0.446564
O O1 0.437573 0.391834 0.254313
O O2 0.562168 0.565590 0.049498
O O3 0.522693 0.007592 0.096091
O O4 0.847797 0.543445 0.964757
O O5 0.829041 0.571368 0.495260
O O6 0.000000 0.500000 0.500000
O O7 0.798970 0.078222 0.512526
O O8 0.205707 0.158651 0.841506
O O9 0.201579 0.250888 0.721294
O O10 0.231961 0.742321 0.702707
O O11 0.559420 0.567910 0.267388
O O12 0.767367 0.051728 0.034877
O O13 0.000000 0.500000 0.000000
O O14 0.327238 0.308530 0.528315
O O15 0.909788 0.254586 0.818673
#
# Coordination Sequence:
#
# PCOD8040693 Si02
#       7
#     2   2   2   2   2   2   2
#     4  10  18  38  59  91 113 160 203 256 302 350
#     4  12  24  44  69  94 120 157 213 271 323 367
#     4  10  22  36  63  88 130 172 207 248 291 376
#     4  12  21  39  63  98 125 172 222 245 297 360
#     4  10  22  40  57  89 132 172 198 247 316 362
#     4  10  20  36  61  85 124 165 206 252 288 358
#     4  12  26  42  65  95 130 162 205 263 316 378
#
# _framework density 24.428577000000001
#
# number of rings (size 3 to 8) (size 9 to 14) (size 15 to 20)
#    0.000    1.143    5.714    1.286    0.000    5.714 
#    0.000    0.000    0.000   20.571    0.000    0.000 
#    0.000    0.000    0.000    0.000    0.000    0.000 
#
# Total GULP energy -173485.068226 kJ/mol
# GULP energy per Si atom -12391.790588 kJ/mol
# Density = 2.437298 g / cm^3
# Si number density = 24.428577 Si / 1000 Ang^3
#
#
#
# Elastic Constant Matrix: (Units=GPa)
#
#
# Indices 1 2 3 4 5 6 
#
# 1 108.4546 47.7134 29.8589 2.8669 -3.5097 34.0312
# 2 47.7134 108.8710 24.4356 -12.3746 -11.7938 47.2669
# 3 29.8589 24.4356 82.2456 -8.0769 7.1208 -8.3149
# 4 2.8669 -12.3746 -8.0769 19.0178 3.3202 -2.7227
# 5 -3.5097 -11.7938 7.1208 3.3202 19.8218 0.9862
# 6 34.0312 47.2669 -8.3149 -2.7227 0.9862 53.1503
#
#
#
# Elastic Compliance Matrix: (Units=1/GPa)
#
#
# Indices 1 2 3 4 5 6 
#
# 1 0.015906 0.000165 -0.008677 -0.009166 0.008179 -0.012310
# 2 0.000165 0.024331 -0.010854 0.004539 0.018817 -0.023558
# 3 -0.008677 -0.010854 0.023177 0.010230 -0.019015 0.019711
# 4 -0.009166 0.004539 0.010230 0.064670 -0.013778 0.007001
# 5 0.008179 0.018817 -0.019015 -0.013778 0.073577 -0.027017
# 6 -0.012310 -0.023558 0.019711 0.007001 -0.027017 0.051591
#
#
# Mechanical properties :
#
#
# Convention : Reuss Voigt Hill
#
# Bulk Modulus (GPa) = 40.51233 55.95409 48.23321
# Shear Modulus (GPa) = 16.65494 31.56886 24.11190
#
# Velocity S-wave (km/s) = 2.61393 3.59875 3.14512
# Velocity P-wave (km/s) = 5.07249 6.34215 5.74252
#
# Compressibility (1/GPa) = 0.02468384
#
# Stress axis : x y z
#
# Youngs Moduli (GPa) = 62.86859 41.09927 43.14590
#
# Poissons Ratio (x) = -0.00679 0.37436
# Poissons Ratio (y) = -0.01038 0.46831
# Poissons Ratio (z) = 0.54548 0.44609
#
# Static dielectric constant tensor:
#      x y z
#    x 4.529070 0.712360 0.117840 
#    y 0.712360 4.777650 -0.037230 
#    z 0.117840 -0.037230 4.507050 
# 
# 
# High freq. dielectric constant tensor:
#      x y z
#    x 1.961010 0.047440 0.004710 
#    y 0.047440 1.964370 -0.010930 
#    z 0.004710 -0.010930 1.969230 
# 
# From -- ./inp_files/620126.got.cif
#   From: 2010.06.25/outbox.cif.g09.slc.cpg/sg2_311_cif.got.tgz:620126.got - 2010.06.27 13:26:56.
