data_PCOD8040611
_publ_section_title
;
Structure prediction by ZEFSAII (Michael W. Deem and Ramdas Pophale) SiO2 
 PCOD8040611
Probable space group: P -1
;
_chemical_formula_sum "Si O2"
_cell_formula_units_Z 14
_cell_length_a 8.895408
_cell_length_b 18.179198
_cell_length_c 17.247274
_cell_angle_alpha 153.246184
_cell_angle_beta 152.193602
_cell_angle_gamma 30.226226
_cell_volume 547.898207
_symmetry_space_group_name_H-M "P -1"
_symmetry_group_IT_number 2
_symmetry_cell_setting 'triclinic'
loop_
_space_group_symop_operation_xyz
x,y,z
-x,-y,-z
loop_
_atom_site_type_symbol
_atom_site_label
_atom_site_fract_x
_atom_site_fract_y
_atom_site_fract_z
Si Si1 0.174022 0.232392 0.023234
Si Si2 0.382598 0.454383 0.219941
Si Si3 0.306565 0.818173 0.482667
Si Si4 0.391442 0.702854 0.977575
Si Si5 0.554535 0.681974 0.197819
Si Si6 0.864657 0.624301 0.438938
Si Si7 0.323740 0.106705 0.136149
O O1 0.820196 0.190041 0.819051
O O2 0.484979 0.092211 0.987756
O O3 0.136790 0.417117 0.138443
O O4 0.276196 0.237338 0.164047
O O5 0.193643 0.648428 0.281326
O O6 0.405938 0.318619 0.031322
O O7 0.757393 0.425508 0.399781
O O8 0.594356 0.782857 0.513625
O O9 0.459578 0.830126 0.646298
O O10 0.000000 0.000000 0.500000
O O11 0.255826 0.540675 0.767197
O O12 0.049604 0.877345 0.985029
O O13 0.615476 0.723491 0.174612
O O14 0.845161 0.685387 0.396100
O O15 0.500000 0.500000 0.000000
#
# Coordination Sequence:
#
# PCOD8040611 Si02
#       7
#     2   2   2   2   2   2   2
#     4  10  23  37  65  93 127 159 214 264 300 374
#     4  11  21  39  67 100 120 154 222 268 295 357
#     4  11  21  37  64  89 129 171 203 251 320 377
#     4   9  17  36  62  87 120 171 202 240 315 386
#     4   9  19  37  59  85 122 175 199 239 318 386
#     4  10  18  37  64  91 121 165 210 251 312 375
#     4  10  19  40  60  87 125 173 203 240 327 376
#
# _framework density 25.552192000000002
#
# number of rings (size 3 to 8) (size 9 to 14) (size 15 to 20)
#    0.000    2.000    2.857    1.714    0.000    1.143 
#    0.000   11.429    6.286    8.571    0.000    0.000 
#    0.000    0.000    0.000    0.000    0.000    0.000 
#
# Total GULP energy -173439.177108 kJ/mol
# GULP energy per Si atom -12388.512651 kJ/mol
# Density = 2.549403 g / cm^3
# Si number density = 25.552192 Si / 1000 Ang^3
#
#
#
# Elastic Constant Matrix: (Units=GPa)
#
#
# Indices 1 2 3 4 5 6 
#
# 1 103.7693 33.4552 44.6426 -8.7289 -30.7516 28.9596
# 2 33.4552 130.1910 21.3690 -5.6603 -19.6167 -4.1376
# 3 44.6426 21.3690 41.0467 -17.8202 -21.4165 7.8343
# 4 -8.7289 -5.6603 -17.8202 30.0623 9.6690 -9.2944
# 5 -30.7516 -19.6167 -21.4165 9.6690 36.7313 0.1440
# 6 28.9596 -4.1376 7.8343 -9.2944 0.1440 40.4693
#
#
#
# Elastic Compliance Matrix: (Units=1/GPa)
#
#
# Indices 1 2 3 4 5 6 
#
# 1 0.032695 -0.002802 -0.032481 -0.021247 0.012618 -0.022319
# 2 -0.002802 0.008958 -0.001097 0.000729 0.001594 0.003295
# 3 -0.032481 -0.001097 0.077891 0.039517 0.007167 0.017103
# 4 -0.021247 0.000729 0.039517 0.060687 -0.010418 0.021604
# 5 0.012618 0.001594 0.007167 -0.010418 0.045611 -0.012809
# 6 -0.022319 0.003295 0.017103 0.021604 -0.012809 0.042715
#
#
# Mechanical properties :
#
#
# Convention : Reuss Voigt Hill
#
# Bulk Modulus (GPa) = 21.37492 52.66006 37.01749
# Shear Modulus (GPa) = 14.00916 33.15526 23.58221
#
# Velocity S-wave (km/s) = 2.34403 3.60606 3.04123
# Velocity P-wave (km/s) = 3.96350 6.16375 5.18175
#
# Compressibility (1/GPa) = 0.04678379
#
# Stress axis : x y z
#
# Youngs Moduli (GPa) = 30.58612 111.63664 12.83850
#
# Poissons Ratio (x) = 0.31282 0.41701
# Poissons Ratio (y) = 0.08571 0.01408
# Poissons Ratio (z) = 0.99346 0.12242
#
# Static dielectric constant tensor:
#      x y z
#    x 5.202970 -0.252650 -0.611230 
#    y -0.252650 5.889200 -0.683680 
#    z -0.611230 -0.683680 4.766200 
# 
# 
# High freq. dielectric constant tensor:
#      x y z
#    x 2.034250 -0.011160 -0.037010 
#    y -0.011160 2.038770 -0.021800 
#    z -0.037010 -0.021800 1.973030 
# 
# From -- ./inp_files/336143.got.cif
#   From: 2010.06.25/outbox.cif.g09.slc.cpg/sg2_169_cif.got.tgz:336143.got - 2010.06.27 13:26:56.
