data_PCOD8040005
_publ_section_title
;
Structure prediction by ZEFSAII (Michael W. Deem and Ramdas Pophale) SiO2 
 PCOD8040005
Probable space group: P -1
;
_chemical_formula_sum "Si O2"
_cell_formula_units_Z 16
_cell_length_a 9.251805
_cell_length_b 19.236329
_cell_length_c 11.271086
_cell_angle_alpha 57.486125
_cell_angle_beta 77.541293
_cell_angle_gamma 125.690846
_cell_volume 871.769971
_symmetry_space_group_name_H-M "P -1"
_symmetry_group_IT_number 2
_symmetry_cell_setting 'triclinic'
loop_
_space_group_symop_operation_xyz
x,y,z
-x,-y,-z
loop_
_atom_site_type_symbol
_atom_site_label
_atom_site_fract_x
_atom_site_fract_y
_atom_site_fract_z
Si Si1 0.820832 0.810163 0.404719
Si Si2 0.705834 0.031923 0.493932
Si Si3 0.182451 0.159177 0.876482
Si Si4 0.580037 0.942323 0.855951
Si Si5 0.722222 0.317347 0.694605
Si Si6 0.734494 0.953196 0.331700
Si Si7 0.256950 0.797753 0.415743
Si Si8 0.779921 0.656957 0.741504
O O1 0.765758 0.756911 0.324899
O O2 0.694376 0.683837 0.633257
O O3 0.675905 0.828827 0.440553
O O4 0.150816 0.979879 0.214344
O O5 0.790780 0.000373 0.415936
O O6 0.000526 0.208410 0.322968
O O7 0.500000 0.000000 0.500000
O O8 0.550398 0.921183 0.738508
O O9 0.474348 0.266816 0.780382
O O10 0.993038 0.109446 0.060329
O O11 0.000000 0.000000 0.000000
O O12 0.621818 0.057014 0.787041
O O13 0.314184 0.769048 0.116928
O O14 0.732211 0.271030 0.614731
O O15 0.000000 0.500000 0.500000
O O16 0.450240 0.866185 0.429537
O O17 0.934297 0.655036 0.646823
O O18 0.500000 0.500000 0.000000
#
# Coordination Sequence:
#
# PCOD8040005 Si02
#       8
#     2   2   2   2   2   2   2   2
#     4   9  18  37  63  87 108 156 206 234 284 356
#     4  10  20  38  59  87 114 151 209 242 275 357
#     4  10  18  35  61  84 116 152 196 246 286 352
#     4  10  20  38  61  88 117 161 201 241 290 358
#     4  12  23  38  57  97 127 143 198 261 302 340
#     4  11  17  35  67  89 107 152 215 237 282 344
#     4  10  20  38  66  83 115 166 199 234 300 364
#     4  10  23  41  58  84 126 155 192 246 301 349
#
# _framework density 18.353465
#
# number of rings (size 3 to 8) (size 9 to 14) (size 15 to 20)
#    0.000    2.000    7.500    0.375    0.000    4.000 
#    4.500    0.625    0.000    4.500    0.000    0.000 
#    0.000    0.000    0.000    0.000    0.000    0.000 
#
# Total GULP energy -198265.470505 kJ/mol
# GULP energy per Si atom -12391.591907 kJ/mol
# Density = 1.831169 g / cm^3
# Si number density = 18.353465 Si / 1000 Ang^3
#
#
#
# Elastic Constant Matrix: (Units=GPa)
#
#
# Indices 1 2 3 4 5 6 
#
# 1 83.8450 13.9055 36.4450 5.3773 -3.2889 14.9990
# 2 13.9055 86.5903 32.2947 19.1215 2.8354 1.9345
# 3 36.4450 32.2947 120.4441 2.6959 1.1240 7.1297
# 4 5.3773 19.1215 2.6959 29.5214 0.1470 -4.0792
# 5 -3.2889 2.8354 1.1240 0.1470 20.0167 4.2944
# 6 14.9990 1.9345 7.1297 -4.0792 4.2944 31.7859
#
#
#
# Elastic Compliance Matrix: (Units=1/GPa)
#
#
# Indices 1 2 3 4 5 6 
#
# 1 0.015476 -0.000166 -0.004167 -0.003374 0.004410 -0.007387
# 2 -0.000166 0.015157 -0.003724 -0.009579 -0.001678 -0.001012
# 3 -0.004167 -0.003724 0.010505 0.002248 -0.000814 0.000235
# 4 -0.003374 -0.009579 0.002248 0.041481 -0.001163 0.007151
# 5 0.004410 -0.001678 -0.000814 -0.001163 0.052926 -0.009096
# 6 -0.007387 -0.001012 0.000235 0.007151 -0.009096 0.037102
#
#
# Mechanical properties :
#
#
# Convention : Reuss Voigt Hill
#
# Bulk Modulus (GPa) = 39.95912 50.68552 45.32232
# Shear Modulus (GPa) = 25.36754 30.14708 27.75731
#
# Velocity S-wave (km/s) = 3.72178 4.05728 3.89314
# Velocity P-wave (km/s) = 6.34729 7.04450 6.70496
#
# Compressibility (1/GPa) = 0.02502558
#
# Stress axis : x y z
#
# Youngs Moduli (GPa) = 64.61501 65.97675 95.18971
#
# Poissons Ratio (x) = 0.01092 0.39665
# Poissons Ratio (y) = 0.01070 0.35449
# Poissons Ratio (z) = 0.26925 0.24570
#
# Static dielectric constant tensor:
#      x y z
#    x 3.511630 0.133850 -0.025520 
#    y 0.133850 3.497180 0.439620 
#    z -0.025520 0.439620 3.438320 
# 
# 
# High freq. dielectric constant tensor:
#      x y z
#    x 1.720490 0.011790 -0.005890 
#    y 0.011790 1.703060 0.030300 
#    z -0.005890 0.030300 1.689960 
# 
# From -- ./inp_files/404178.got.cif
#   From: 2010.06.25/outbox.cif.g09.slc.cpg/sg2_203_cif.got.tgz:404178.got - 2010.06.27 13:26:56.
