data_PCOD8040835
_publ_section_title
;
Structure prediction by ZEFSAII (Michael W. Deem and Ramdas Pophale) SiO2 
 PCOD8040835
Probable space group: P -1
;
_chemical_formula_sum "Si O2"
_cell_formula_units_Z 16
_cell_length_a 19.968978
_cell_length_b 17.375056
_cell_length_c 6.600237
_cell_angle_alpha 70.344722
_cell_angle_beta 72.631788
_cell_angle_gamma 20.916593
_cell_volume 769.086372
_symmetry_space_group_name_H-M "P -1"
_symmetry_group_IT_number 2
_symmetry_cell_setting 'triclinic'
loop_
_space_group_symop_operation_xyz
x,y,z
-x,-y,-z
loop_
_atom_site_type_symbol
_atom_site_label
_atom_site_fract_x
_atom_site_fract_y
_atom_site_fract_z
Si Si1 0.779783 0.250805 0.999074
Si Si2 0.351121 0.442176 0.982565
Si Si3 0.580234 0.024112 0.795358
Si Si4 0.914237 0.364205 0.250180
Si Si5 0.672630 0.106833 0.710381
Si Si6 0.708596 0.629103 0.583741
Si Si7 0.743416 0.682169 0.896219
Si Si8 0.476633 0.579507 0.649683
O O1 0.758981 0.357731 0.040903
O O2 0.688942 0.276135 0.188263
O O3 0.676475 0.365697 0.773153
O O4 0.000000 0.000000 0.000000
O O5 0.250641 0.509714 0.819147
O O6 0.562741 0.236550 0.906408
O O7 0.367057 0.366269 0.227084
O O8 0.671626 0.014293 0.720555
O O9 0.449699 0.157827 0.597768
O O10 0.743630 0.779401 0.844063
O O11 0.457251 0.139435 0.006143
O O12 0.876301 0.414088 0.480151
O O13 0.911574 0.458141 0.070058
O O14 0.109347 0.106850 0.262750
O O15 0.580892 0.265600 0.487087
O O16 0.778244 0.623630 0.680573
O O17 0.500000 0.500000 0.500000
#
# Coordination Sequence:
#
# PCOD8040835 Si02
#       8
#     2   2   2   2   2   2   2   2
#     4  11  27  44  71  98 127 172 213 266 325 387
#     4  11  23  43  63  91 129 168 212 257 322 384
#     4  10  19  37  64  90 125 171 208 264 326 369
#     4  10  24  39  63  94 127 165 218 263 312 388
#     4  12  23  43  65  90 131 172 203 267 327 373
#     4  10  18  39  60  93 122 163 216 261 311 379
#     4   9  19  38  61  92 126 163 219 262 310 388
#     4  11  26  46  64 101 134 161 216 268 318 393
#
# _framework density 20.803905
#
# number of rings (size 3 to 8) (size 9 to 14) (size 15 to 20)
#    0.000    1.500    5.000    1.125    3.500    1.000 
#    6.750    0.625    0.000    0.000    0.000    0.000 
#    0.000    0.000    0.000    0.000    0.000    0.000 
#
# Total GULP energy -198389.681060 kJ/mol
# GULP energy per Si atom -12399.355066 kJ/mol
# Density = 2.075655 g / cm^3
# Si number density = 20.803905 Si / 1000 Ang^3
#
#
#
# Elastic Constant Matrix: (Units=GPa)
#
#
# Indices 1 2 3 4 5 6 
#
# 1 88.0479 35.3060 39.2810 -0.7529 -2.6932 25.1358
# 2 35.3060 147.7112 57.5432 2.9405 3.7139 6.2820
# 3 39.2810 57.5432 123.4215 3.0955 5.8059 8.6404
# 4 -0.7529 2.9405 3.0955 28.6082 11.2478 -0.6507
# 5 -2.6932 3.7139 5.8059 11.2478 35.1972 -2.5218
# 6 25.1358 6.2820 8.6404 -0.6507 -2.5218 36.2364
#
#
#
# Elastic Compliance Matrix: (Units=1/GPa)
#
#
# Indices 1 2 3 4 5 6 
#
# 1 0.016884 -0.002195 -0.003694 0.000329 0.001286 -0.010355
# 2 -0.002195 0.008574 -0.003329 -0.000432 -0.000328 0.000799
# 3 -0.003694 -0.003329 0.010883 -0.000293 -0.001602 0.000428
# 4 0.000329 -0.000432 -0.000293 0.040023 -0.012689 -0.000248
# 5 0.001286 -0.000328 -0.001602 -0.012689 0.032979 0.001614
# 6 -0.010355 0.000799 0.000428 -0.000248 0.001614 0.034647
#
#
# Mechanical properties :
#
#
# Convention : Reuss Voigt Hill
#
# Bulk Modulus (GPa) = 55.84896 69.27124 62.56010
# Shear Modulus (GPa) = 29.69233 35.14504 32.41869
#
# Velocity S-wave (km/s) = 3.78199 4.11463 3.95181
# Velocity P-wave (km/s) = 6.78049 7.47951 7.13856
#
# Compressibility (1/GPa) = 0.01790543
#
# Stress axis : x y z
#
# Youngs Moduli (GPa) = 59.22793 116.62879 91.88894
#
# Poissons Ratio (x) = 0.25600 0.33944
# Poissons Ratio (y) = 0.13001 0.30587
# Poissons Ratio (z) = 0.21879 0.38822
#
# Static dielectric constant tensor:
#      x y z
#    x 3.725150 0.278340 -0.107260 
#    y 0.278340 3.732980 -0.061650 
#    z -0.107260 -0.061650 3.895050 
# 
# 
# High freq. dielectric constant tensor:
#      x y z
#    x 1.807320 0.024540 -0.004390 
#    y 0.024540 1.807770 -0.001140 
#    z -0.004390 -0.001140 1.821870 
# 
# From -- ./inp_files/120007.got.cif
#   From: 2010.06.25/outbox.cif.g09.slc.cpg/sg2_61_cif.got.tgz:120007.got - 2010.06.27 13:26:56.
