data_PCOD8040821
_publ_section_title
;
Structure prediction by ZEFSAII (Michael W. Deem and Ramdas Pophale) SiO2 
 PCOD8040821
Probable space group: P -1
;
_chemical_formula_sum "Si O2"
_cell_formula_units_Z 16
_cell_length_a 8.478838
_cell_length_b 13.779403
_cell_length_c 9.770654
_cell_angle_alpha 71.695276
_cell_angle_beta 79.590098
_cell_angle_gamma 43.957315
_cell_volume 750.485776
_symmetry_space_group_name_H-M "P -1"
_symmetry_group_IT_number 2
_symmetry_cell_setting 'triclinic'
loop_
_space_group_symop_operation_xyz
x,y,z
-x,-y,-z
loop_
_atom_site_type_symbol
_atom_site_label
_atom_site_fract_x
_atom_site_fract_y
_atom_site_fract_z
Si Si1 0.981729 0.737402 0.910152
Si Si2 0.101488 0.005558 0.113642
Si Si3 0.583459 0.739731 0.629598
Si Si4 0.038548 0.275890 0.403297
Si Si5 0.385422 0.231741 0.899501
Si Si6 0.075787 0.032025 0.599618
Si Si7 0.775340 0.574106 0.419432
Si Si8 0.760561 0.564036 0.952872
O O1 0.035983 0.829236 0.901201
O O2 0.936704 0.749629 0.750984
O O3 0.764334 0.791752 0.002777
O O4 0.212487 0.570769 0.986404
O O5 0.362845 0.923057 0.100167
O O6 0.078276 0.930823 0.266051
O O7 0.000000 0.000000 0.000000
O O8 0.734030 0.771196 0.558079
O O9 0.572345 0.674624 0.521039
O O10 0.708476 0.619661 0.782093
O O11 0.339267 0.888354 0.651801
O O12 0.027228 0.172731 0.524373
O O13 0.812510 0.444176 0.405737
O O14 0.266254 0.325875 0.738859
O O15 0.423159 0.307499 0.969307
O O16 0.000000 0.000000 0.500000
O O17 0.000000 0.500000 0.500000
O O18 0.000000 0.500000 0.000000
#
# Coordination Sequence:
#
# PCOD8040821 Si02
#       8
#     2   2   2   2   2   2   2   2
#     4  11  21  42  71  95 125 167 214 263 325 376
#     4  12  28  44  60  95 134 172 215 261 312 377
#     4  11  22  41  68 100 125 166 217 263 317 380
#     4  11  21  42  69  97 125 168 213 265 317 383
#     4  11  21  42  69  94 128 165 212 266 318 377
#     4  12  26  45  63  89 139 180 209 255 319 382
#     4  10  21  37  65 106 126 150 213 278 318 365
#     4  10  18  38  70  97 124 159 208 275 325 368
#
# _framework density 21.319524999999999
#
# number of rings (size 3 to 8) (size 9 to 14) (size 15 to 20)
#    0.000    1.000    5.000    4.500    0.000    3.000 
#    0.000    7.500    0.000    0.000    0.000    0.000 
#    0.000    0.000    0.000    0.000    0.000    0.000 
#
# Total GULP energy -198355.060744 kJ/mol
# GULP energy per Si atom -12397.191297 kJ/mol
# Density = 2.127100 g / cm^3
# Si number density = 21.319525 Si / 1000 Ang^3
#
#
#
# Elastic Constant Matrix: (Units=GPa)
#
#
# Indices 1 2 3 4 5 6 
#
# 1 66.2085 27.0477 42.2788 -6.2185 -2.3967 24.0869
# 2 27.0477 81.5526 38.1966 0.1570 -6.1632 30.1912
# 3 42.2788 38.1966 163.3718 5.7296 -6.0923 20.6394
# 4 -6.2185 0.1570 5.7296 40.1815 6.4533 -4.2392
# 5 -2.3967 -6.1632 -6.0923 6.4533 32.3141 2.0148
# 6 24.0869 30.1912 20.6394 -4.2392 2.0148 31.6531
#
#
#
# Elastic Compliance Matrix: (Units=1/GPa)
#
#
# Indices 1 2 3 4 5 6 
#
# 1 0.023509 -0.000340 -0.004202 0.002493 0.001297 -0.014574
# 2 -0.000340 0.020730 -0.002089 -0.002665 0.005242 -0.018842
# 3 -0.004202 -0.002089 0.007844 -0.001978 0.001180 -0.000264
# 4 0.002493 -0.002665 -0.001978 0.027244 -0.006511 0.005998
# 5 0.001297 0.005242 0.001180 -0.006511 0.034176 -0.009804
# 6 -0.014574 -0.018842 -0.000264 0.005998 -0.009804 0.062254
#
#
# Mechanical properties :
#
#
# Convention : Reuss Voigt Hill
#
# Bulk Modulus (GPa) = 25.76038 58.46434 42.11236
# Shear Modulus (GPa) = 24.75727 34.40374 29.58050
#
# Velocity S-wave (km/s) = 3.41141 4.02147 3.72894
# Velocity P-wave (km/s) = 5.25606 7.00324 6.19159
#
# Compressibility (1/GPa) = 0.03881931
#
# Stress axis : x y z
#
# Youngs Moduli (GPa) = 42.53617 48.23889 127.49061
#
# Poissons Ratio (x) = 0.01642 0.53575
# Poissons Ratio (y) = 0.01448 0.26637
# Poissons Ratio (z) = 0.17875 0.10079
#
# Static dielectric constant tensor:
#      x y z
#    x 3.584480 0.227010 -0.004920 
#    y 0.227010 4.755780 0.166020 
#    z -0.004920 0.166020 4.014890 
# 
# 
# High freq. dielectric constant tensor:
#      x y z
#    x 1.802770 0.011250 0.001650 
#    y 0.011250 1.853400 0.004660 
#    z 0.001650 0.004660 1.853120 
# 
# From -- ./inp_files/206330.got.cif
#   From: 2010.06.25/outbox.cif.g09.slc.cpg/sg2_104_cif.got.tgz:206330.got - 2010.06.27 13:26:56.
