data_PCOD8040613
_publ_section_title
;
Structure prediction by ZEFSAII (Michael W. Deem and Ramdas Pophale) SiO2 
 PCOD8040613
Probable space group: P -1
;
_chemical_formula_sum "Si O2"
_cell_formula_units_Z 16
_cell_length_a 11.999140
_cell_length_b 18.451467
_cell_length_c 15.638186
_cell_angle_alpha 151.958232
_cell_angle_beta 28.609740
_cell_angle_gamma 134.762362
_cell_volume 739.998672
_symmetry_space_group_name_H-M "P -1"
_symmetry_group_IT_number 2
_symmetry_cell_setting 'triclinic'
loop_
_space_group_symop_operation_xyz
x,y,z
-x,-y,-z
loop_
_atom_site_type_symbol
_atom_site_label
_atom_site_fract_x
_atom_site_fract_y
_atom_site_fract_z
Si Si1 0.637814 0.411753 0.503232
Si Si2 0.736302 0.007459 0.720538
Si Si3 0.856533 0.215780 0.988728
Si Si4 0.308640 0.905768 0.615589
Si Si5 0.561766 0.758722 0.963860
Si Si6 0.976847 0.240383 0.237179
Si Si7 0.162075 0.332968 0.759571
Si Si8 0.287968 0.948264 0.484349
O O1 0.697968 0.351518 0.302183
O O2 0.547558 0.606240 0.759940
O O3 0.874235 0.365567 0.359111
O O4 0.423280 0.354076 0.630462
O O5 0.763358 0.816982 0.515438
O O6 0.686646 0.125622 0.959847
O O7 0.507924 0.087138 0.892929
O O8 0.000000 0.000000 0.500000
O O9 0.018167 0.290994 0.894768
O O10 0.017292 0.070004 0.788268
O O11 0.251544 0.756636 0.544856
O O12 0.360456 0.860183 0.434220
O O13 0.538067 0.942171 0.542304
O O14 0.073706 0.066179 0.945345
O O15 0.819688 0.721046 0.800478
O O16 0.343039 0.802095 0.226750
O O17 0.000000 0.500000 0.000000
#
# Coordination Sequence:
#
# PCOD8040613 Si02
#       8
#     2   2   2   2   2   2   2   2
#     4  12  25  43  66 100 133 171 213 275 322 376
#     4  10  21  41  67  91 124 174 216 263 319 385
#     4  11  23  43  69  93 130 171 222 258 326 387
#     4   9  19  34  63  93 123 167 221 261 319 384
#     4  11  23  40  65  90 136 170 213 267 323 382
#     4  10  21  38  62  95 131 164 215 269 323 376
#     4  11  25  43  68  96 132 168 215 273 324 380
#     4  10  18  37  64  92 123 174 214 261 316 395
#
# _framework density 21.621661
#
# number of rings (size 3 to 8) (size 9 to 14) (size 15 to 20)
#    0.000    1.500    3.750    2.625    3.500    2.500 
#    2.250    0.625    0.000    0.000    0.000    0.000 
#    0.000    0.000    0.000    0.000    0.000    0.000 
#
# Total GULP energy -198228.581727 kJ/mol
# GULP energy per Si atom -12389.286358 kJ/mol
# Density = 2.157245 g / cm^3
# Si number density = 21.621661 Si / 1000 Ang^3
#
#
#
# Elastic Constant Matrix: (Units=GPa)
#
#
# Indices 1 2 3 4 5 6 
#
# 1 114.3844 29.3483 50.9156 13.2925 7.5823 2.1092
# 2 29.3483 71.3664 33.2434 9.6081 11.8932 2.3390
# 3 50.9156 33.2434 105.4116 22.0811 26.0053 3.0161
# 4 13.2925 9.6081 22.0811 33.9322 1.9948 -0.2266
# 5 7.5823 11.8932 26.0053 1.9948 46.7632 0.0097
# 6 2.1092 2.3390 3.0161 -0.2266 0.0097 23.8427
#
#
#
# Elastic Compliance Matrix: (Units=1/GPa)
#
#
# Indices 1 2 3 4 5 6 
#
# 1 0.011632 -0.002607 -0.005061 -0.000621 0.001618 -0.000140
# 2 -0.002607 0.017212 -0.003299 -0.001592 -0.002052 -0.001055
# 3 -0.005061 -0.003299 0.016281 -0.007271 -0.007084 -0.001354
# 4 -0.000621 -0.001592 -0.007271 0.034725 0.003067 0.001460
# 5 0.001618 -0.002052 -0.007084 0.003067 0.025452 0.000973
# 6 -0.000140 -0.001055 -0.001354 0.001460 0.000973 0.042242
#
#
# Mechanical properties :
#
#
# Convention : Reuss Voigt Hill
#
# Bulk Modulus (GPa) = 43.12200 57.57521 50.34860
# Shear Modulus (GPa) = 28.21525 32.75128 30.48326
#
# Velocity S-wave (km/s) = 3.61633 3.89619 3.75887
# Velocity P-wave (km/s) = 6.11754 6.85031 6.49427
#
# Compressibility (1/GPa) = 0.02319002
#
# Stress axis : x y z
#
# Youngs Moduli (GPa) = 85.97137 58.09930 61.42133
#
# Poissons Ratio (x) = 0.15148 0.31087
# Poissons Ratio (y) = 0.22415 0.20261
# Poissons Ratio (z) = 0.43512 0.19166
#
# Static dielectric constant tensor:
#      x y z
#    x 4.013970 0.093110 0.114660 
#    y 0.093110 3.734500 0.019890 
#    z 0.114660 0.019890 3.982330 
# 
# 
# High freq. dielectric constant tensor:
#      x y z
#    x 1.859460 0.002710 -0.001910 
#    y 0.002710 1.820610 0.002120 
#    z -0.001910 0.002120 1.845230 
# 
# From -- ./inp_files/274419.got.cif
#   From: 2010.06.25/outbox.cif.g09.slc.cpg/sg2_138_cif.got.tgz:274419.got - 2010.06.27 13:26:56.
