data_PCOD8040598
_publ_section_title
;
Structure prediction by ZEFSAII (Michael W. Deem and Ramdas Pophale) SiO2 
 PCOD8040598
Probable space group: P -1
;
_chemical_formula_sum "Si O2"
_cell_formula_units_Z 16
_cell_length_a 11.443776
_cell_length_b 9.167709
_cell_length_c 9.443840
_cell_angle_alpha 80.380532
_cell_angle_beta 48.109085
_cell_angle_gamma 78.255478
_cell_volume 721.454150
_symmetry_space_group_name_H-M "P -1"
_symmetry_group_IT_number 2
_symmetry_cell_setting 'triclinic'
loop_
_space_group_symop_operation_xyz
x,y,z
-x,-y,-z
loop_
_atom_site_type_symbol
_atom_site_label
_atom_site_fract_x
_atom_site_fract_y
_atom_site_fract_z
Si Si1 0.403930 0.937331 0.402260
Si Si2 0.840260 0.114081 0.622316
Si Si3 0.400460 0.361737 0.608422
Si Si4 0.294139 0.955908 0.966293
Si Si5 0.215871 0.225019 0.562500
Si Si6 0.055246 0.828887 0.014579
Si Si7 0.945040 0.654447 0.591433
Si Si8 0.135840 0.290642 0.032071
O O1 0.267157 0.888722 0.425581
O O2 0.483607 0.792685 0.442727
O O3 0.522952 0.029185 0.204864
O O4 0.312733 0.064930 0.556315
O O5 0.892897 0.275990 0.553313
O O6 0.730920 0.095917 0.846924
O O7 0.000000 0.000000 0.500000
O O8 0.500000 0.500000 0.500000
O O9 0.307451 0.353298 0.536705
O O10 0.266801 0.380894 0.837397
O O11 0.236008 0.833242 0.922583
O O12 0.197233 0.117472 0.002907
O O13 0.194849 0.252595 0.405359
O O14 0.040951 0.228272 0.766438
O O15 0.029424 0.712514 0.924635
O O16 0.000000 0.000000 0.000000
O O17 0.887538 0.643656 0.802157
O O18 0.000000 0.500000 0.500000
#
# Coordination Sequence:
#
# PCOD8040598 Si02
#       8
#     2   2   2   2   2   2   2   2
#     4  11  23  38  68 101 132 168 218 274 329 383
#     4  12  21  40  70  96 130 173 221 272 328 387
#     4  10  24  45  67  95 137 177 213 266 339 393
#     4  10  18  37  64 105 128 163 216 277 324 386
#     4  11  22  45  66  98 132 173 222 272 319 399
#     4   9  18  35  66  96 131 165 217 273 321 380
#     4  12  26  43  66  97 134 172 226 273 330 384
#     4   9  20  41  66  94 132 174 218 270 323 393
#
# _framework density 22.177430999999999
#
# number of rings (size 3 to 8) (size 9 to 14) (size 15 to 20)
#    0.000    1.500    3.750    1.500    3.500    1.000 
#    2.250    4.375    0.000    0.000    0.000    0.000 
#    0.000    0.000    0.000    0.000    0.000    0.000 
#
# Total GULP energy -198209.131485 kJ/mol
# GULP energy per Si atom -12388.070718 kJ/mol
# Density = 2.212695 g / cm^3
# Si number density = 22.177431 Si / 1000 Ang^3
#
#
#
# Elastic Constant Matrix: (Units=GPa)
#
#
# Indices 1 2 3 4 5 6 
#
# 1 106.3772 47.1703 51.0299 9.6725 -0.6759 31.4761
# 2 47.1703 93.8559 44.0593 -5.6914 -6.0029 30.3321
# 3 51.0299 44.0593 110.8434 -6.8676 11.1644 23.6854
# 4 9.6725 -5.6914 -6.8676 25.8720 9.3578 -4.7225
# 5 -0.6759 -6.0029 11.1644 9.3578 37.9536 -2.2343
# 6 31.4761 30.3321 23.6854 -4.7225 -2.2343 40.8516
#
#
#
# Elastic Compliance Matrix: (Units=1/GPa)
#
#
# Indices 1 2 3 4 5 6 
#
# 1 0.017493 -0.003784 -0.005875 -0.011869 0.003872 -0.008423
# 2 -0.003784 0.016839 -0.003590 0.001860 0.002773 -0.007139
# 3 -0.005875 -0.003590 0.014460 0.007593 -0.006838 -0.000688
# 4 -0.011869 0.001860 0.007593 0.052350 -0.014551 0.008618
# 5 0.003872 0.002773 -0.006838 -0.014551 0.032397 -0.000988
# 6 -0.008423 -0.007139 -0.000688 0.008618 -0.000988 0.037611
#
#
# Mechanical properties :
#
#
# Convention : Reuss Voigt Hill
#
# Bulk Modulus (GPa) = 44.85472 66.17728 55.51600
# Shear Modulus (GPa) = 24.38114 32.18990 28.28552
#
# Velocity S-wave (km/s) = 3.31927 3.81395 3.57518
# Velocity P-wave (km/s) = 5.91264 7.02137 6.49072
#
# Compressibility (1/GPa) = 0.02229420
#
# Stress axis : x y z
#
# Youngs Moduli (GPa) = 57.16717 59.38625 69.15860
#
# Poissons Ratio (x) = 0.22470 0.40629
# Poissons Ratio (y) = 0.21630 0.24828
# Poissons Ratio (z) = 0.33585 0.21319
#
# Static dielectric constant tensor:
#      x y z
#    x 4.540360 0.295750 -0.085280 
#    y 0.295750 3.627060 -0.004010 
#    z -0.085280 -0.004010 3.647510 
# 
# 
# High freq. dielectric constant tensor:
#      x y z
#    x 1.889750 0.025870 0.003940 
#    y 0.025870 1.849630 -0.011790 
#    z 0.003940 -0.011790 1.867980 
# 
# From -- ./inp_files/243327.got.cif
#   From: 2010.06.25/outbox.cif.g09.slc.cpg/sg2_122_cif.got.tgz:243327.got - 2010.06.27 13:26:56.
