data_PCOD8040333
_publ_section_title
;
Structure prediction by ZEFSAII (Michael W. Deem and Ramdas Pophale) SiO2 
 PCOD8040333
Probable space group: P -1
;
_chemical_formula_sum "Si O2"
_cell_formula_units_Z 14
_cell_length_a 8.741744
_cell_length_b 14.323664
_cell_length_c 9.117813
_cell_angle_alpha 128.799876
_cell_angle_beta 59.377455
_cell_angle_gamma 110.345944
_cell_volume 764.977447
_symmetry_space_group_name_H-M "P -1"
_symmetry_group_IT_number 2
_symmetry_cell_setting 'triclinic'
loop_
_space_group_symop_operation_xyz
x,y,z
-x,-y,-z
loop_
_atom_site_type_symbol
_atom_site_label
_atom_site_fract_x
_atom_site_fract_y
_atom_site_fract_z
Si Si1 0.312490 0.772367 0.995229
Si Si2 0.707534 0.212928 0.656301
Si Si3 0.957027 0.641186 0.011953
Si Si4 0.417551 0.369182 0.448603
Si Si5 0.210450 0.995386 0.405940
Si Si6 0.377442 0.246291 0.644357
Si Si7 0.978364 0.618318 0.326807
O O1 0.335138 0.723812 0.103921
O O2 0.135369 0.714705 0.947474
O O3 0.289565 0.916535 0.155655
O O4 0.483291 0.736443 0.785732
O O5 0.548230 0.219376 0.628342
O O6 0.882121 0.283946 0.575449
O O7 0.748517 0.073125 0.527866
O O8 0.775844 0.707401 0.125845
O O9 0.956545 0.634096 0.180221
O O10 0.953062 0.514102 0.806405
O O11 0.500000 0.500000 0.500000
O O12 0.430772 0.345315 0.592986
O O13 0.213347 0.364207 0.488643
O O14 0.303811 0.125864 0.481302
O O15 0.000000 0.000000 0.500000
#
# Coordination Sequence:
#
# PCOD8040333 Si02
#       7
#     2   2   2   2   2   2   2
#     4   9  19  35  57  81 108 139 186 223 266 322
#     4   9  21  36  55  83 111 139 182 227 270 318
#     4   9  16  31  55  79 100 144 188 216 254 324
#     4  11  21  36  57  80 111 146 182 223 269 324
#     4  10  18  36  62  81 102 143 190 223 257 325
#     4  11  21  34  57  83 111 143 179 228 272 313
#     4   9  17  33  55  75 108 143 181 219 265 323
#
# _framework density 18.301192
#
# number of rings (size 3 to 8) (size 9 to 14) (size 15 to 20)
#    0.857    1.429    2.857    1.286    2.000    1.143 
#    0.000    2.143    0.000    1.714    0.000    0.000 
#    0.000    0.000    0.000    0.000    0.000    0.000 
#
# Total GULP energy -173485.840818 kJ/mol
# GULP energy per Si atom -12391.845773 kJ/mol
# Density = 1.825954 g / cm^3
# Si number density = 18.301192 Si / 1000 Ang^3
#
#
#
# Elastic Constant Matrix: (Units=GPa)
#
#
# Indices 1 2 3 4 5 6 
#
# 1 122.1391 42.6614 31.0101 -2.3281 -23.4062 4.3655
# 2 42.6614 83.5095 19.9889 12.6599 -9.3341 7.3012
# 3 31.0101 19.9889 83.9237 6.7844 -37.6697 3.7757
# 4 -2.3281 12.6599 6.7844 23.5064 -3.1352 -6.1862
# 5 -23.4062 -9.3341 -37.6697 -3.1352 31.3390 -1.2707
# 6 4.3655 7.3012 3.7757 -6.1862 -1.2707 27.9144
#
#
#
# Elastic Compliance Matrix: (Units=1/GPa)
#
#
# Indices 1 2 3 4 5 6 
#
# 1 0.011905 -0.006250 -0.000016 0.005952 0.007665 0.001443
# 2 -0.006250 0.017583 -0.002278 -0.011491 -0.003562 -0.006022
# 3 -0.000016 -0.002278 0.026756 -0.002946 0.031084 -0.002259
# 4 0.005952 -0.011491 -0.002946 0.054514 0.003532 0.014715
# 5 0.007665 -0.003562 0.031084 0.003532 0.074277 -0.000307
# 6 0.001443 -0.006022 -0.002259 0.014715 -0.000307 0.040726
#
#
# Mechanical properties :
#
#
# Convention : Reuss Voigt Hill
#
# Bulk Modulus (GPa) = 25.53803 52.98813 39.26308
# Shear Modulus (GPa) = 19.53884 29.61276 24.57580
#
# Velocity S-wave (km/s) = 3.27100 4.02690 3.66847
# Velocity P-wave (km/s) = 5.31512 7.11600 6.28044
#
# Compressibility (1/GPa) = 0.03915729
#
# Stress axis : x y z
#
# Youngs Moduli (GPa) = 83.99773 56.87324 37.37441
#
# Poissons Ratio (x) = 0.35544 0.00060
# Poissons Ratio (y) = 0.52496 0.08513
# Poissons Ratio (z) = 0.00136 0.12954
#
# Static dielectric constant tensor:
#      x y z
#    x 3.319070 0.156730 -0.351190 
#    y 0.156730 3.387970 0.201590 
#    z -0.351190 0.201590 3.205720 
# 
# 
# High freq. dielectric constant tensor:
#      x y z
#    x 1.702720 0.016040 -0.031950 
#    y 0.016040 1.701510 0.021950 
#    z -0.031950 0.021950 1.684240 
# 
# From -- ./inp_files/164239.got.cif
#   From: 2010.06.25/outbox.cif.g09.slc.cpg/sg2_83_cif.got.tgz:164239.got - 2010.06.27 13:26:56.
