data_PCOD8040047
_publ_section_title
;
Structure prediction by ZEFSAII (Michael W. Deem and Ramdas Pophale) SiO2 
 PCOD8040047
Probable space group: P -1
;
_chemical_formula_sum "Si O2"
_cell_formula_units_Z 16
_cell_length_a 15.539971
_cell_length_b 8.978116
_cell_length_c 15.506539
_cell_angle_alpha 57.206387
_cell_angle_beta 142.770758
_cell_angle_gamma 94.432960
_cell_volume 790.111054
_symmetry_space_group_name_H-M "P -1"
_symmetry_group_IT_number 2
_symmetry_cell_setting 'triclinic'
loop_
_space_group_symop_operation_xyz
x,y,z
-x,-y,-z
loop_
_atom_site_type_symbol
_atom_site_label
_atom_site_fract_x
_atom_site_fract_y
_atom_site_fract_z
Si Si1 0.530674 0.256484 0.830695
Si Si2 0.842763 0.136548 0.906601
Si Si3 0.805021 0.702296 0.179383
Si Si4 0.823476 0.416789 0.426566
Si Si5 0.922691 0.119792 0.164365
Si Si6 0.331454 0.096388 0.172854
Si Si7 0.046026 0.499667 0.937133
Si Si8 0.689348 0.607424 0.563462
O O1 0.390712 0.402961 0.755595
O O2 0.392017 0.384819 0.595781
O O3 0.693695 0.272669 0.956142
O O4 0.647465 0.969300 0.016384
O O5 0.695855 0.430966 0.686562
O O6 0.719234 0.065401 0.832611
O O7 0.963110 0.048710 0.118487
O O8 0.000000 0.000000 0.000000
O O9 0.794669 0.522605 0.275055
O O10 0.025830 0.591567 0.395838
O O11 0.752570 0.716087 0.033043
O O12 0.918074 0.139187 0.576454
O O13 0.969076 0.283336 0.169462
O O14 0.569194 0.874701 0.428576
O O15 0.263946 0.238407 0.165433
O O16 0.907967 0.502260 0.762929
O O17 0.000000 0.500000 0.000000
#
# Coordination Sequence:
#
# PCOD8040047 Si02
#       8
#     2   2   2   2   2   2   2   2
#     4  10  20  36  62  90 117 150 198 243 287 352
#     4  12  19  37  61  84 117 155 196 240 282 347
#     4   9  19  35  59  94 114 146 199 250 284 349
#     4  10  18  35  62  86 120 151 190 247 303 329
#     4  11  23  39  55  91 121 148 202 242 289 354
#     4  11  22  39  60  85 121 153 198 244 286 351
#     4  12  25  41  56  86 126 157 193 242 298 350
#     4  11  22  36  62  86 115 160 196 233 294 349
#
# _framework density 20.250319999999999
#
# number of rings (size 3 to 8) (size 9 to 14) (size 15 to 20)
#    0.000    1.250    6.250    2.250    0.000    1.500 
#    0.000    0.625    0.000    3.750    0.000    0.000 
#    0.000    0.000    0.000    0.000    0.000    0.000 
#
# Total GULP energy -198365.127290 kJ/mol
# GULP energy per Si atom -12397.820456 kJ/mol
# Density = 2.020423 g / cm^3
# Si number density = 20.250320 Si / 1000 Ang^3
#
#
#
# Elastic Constant Matrix: (Units=GPa)
#
#
# Indices 1 2 3 4 5 6 
#
# 1 115.2129 37.6115 48.7151 -16.3294 -7.7544 2.4570
# 2 37.6115 76.1503 18.3299 -17.4781 -7.7132 14.7856
# 3 48.7151 18.3299 76.9756 -15.4983 -7.0248 7.6987
# 4 -16.3294 -17.4781 -15.4983 25.6340 4.4397 2.3260
# 5 -7.7544 -7.7132 -7.0248 4.4397 37.5230 -13.2406
# 6 2.4570 14.7856 7.6987 2.3260 -13.2406 34.6902
#
#
#
# Elastic Compliance Matrix: (Units=1/GPa)
#
#
# Indices 1 2 3 4 5 6 
#
# 1 0.013713 -0.005562 -0.007639 -0.000293 0.001611 0.003729
# 2 -0.005562 0.020059 0.002148 0.012644 -0.001693 -0.010126
# 3 -0.007639 0.002148 0.019647 0.009062 -0.000481 -0.005526
# 4 -0.000293 0.012644 0.009062 0.055429 -0.007210 -0.013848
# 5 0.001611 -0.001693 -0.000481 -0.007210 0.032151 0.013469
# 6 0.003729 -0.010126 -0.005526 -0.013848 0.013469 0.040174
#
#
# Mechanical properties :
#
#
# Convention : Reuss Voigt Hill
#
# Bulk Modulus (GPa) = 31.93651 53.07242 42.50446
# Shear Modulus (GPa) = 23.39539 30.48159 26.93849
#
# Velocity S-wave (km/s) = 3.40267 3.88395 3.65125
# Velocity P-wave (km/s) = 5.58951 6.81018 6.22981
#
# Compressibility (1/GPa) = 0.03131213
#
# Stress axis : x y z
#
# Youngs Moduli (GPa) = 72.92564 49.85297 50.89784
#
# Poissons Ratio (x) = 0.27730 0.38879
# Poissons Ratio (y) = 0.40564 -0.10931
# Poissons Ratio (z) = 0.55705 -0.10707
#
# Static dielectric constant tensor:
#      x y z
#    x 4.012500 0.154360 0.172040 
#    y 0.154360 3.391550 -0.252350 
#    z 0.172040 -0.252350 4.004230 
# 
# 
# High freq. dielectric constant tensor:
#      x y z
#    x 1.796590 0.007350 0.005620 
#    y 0.007350 1.759330 -0.021290 
#    z 0.005620 -0.021290 1.796780 
# 
# From -- ./inp_files/457483.got.cif
#   From: 2010.06.25/outbox.cif.g09.slc.cpg/sg2_229_cif.got.tgz:457483.got - 2010.06.27 13:26:56.
