data_PCOD8040257
_publ_section_title
;
Structure prediction by ZEFSAII (Michael W. Deem and Ramdas Pophale) SiO2 
 PCOD8040257
Probable space group: P -1
;
_chemical_formula_sum "Si O2"
_cell_formula_units_Z 16
_cell_length_a 12.135565
_cell_length_b 9.708525
_cell_length_c 12.701286
_cell_angle_alpha 133.823655
_cell_angle_beta 60.528171
_cell_angle_gamma 130.727263
_cell_volume 815.967350
_symmetry_space_group_name_H-M "P -1"
_symmetry_group_IT_number 2
_symmetry_cell_setting 'triclinic'
loop_
_space_group_symop_operation_xyz
x,y,z
-x,-y,-z
loop_
_atom_site_type_symbol
_atom_site_label
_atom_site_fract_x
_atom_site_fract_y
_atom_site_fract_z
Si Si1 0.939348 0.846624 0.648075
Si Si2 0.497314 0.910886 0.682467
Si Si3 0.664960 0.773962 0.667674
Si Si4 0.568361 0.726612 0.147332
Si Si5 0.567207 0.674284 0.359267
Si Si6 0.837300 0.758442 0.374480
Si Si7 0.906764 0.060370 0.152618
Si Si8 0.841733 0.435727 0.339961
O O1 0.795307 0.876150 0.747858
O O2 0.891913 0.597305 0.503882
O O3 0.032185 0.910117 0.742995
O O4 0.027752 0.004642 0.592016
O O5 0.584506 0.911374 0.748005
O O6 0.576062 0.883221 0.527197
O O7 0.331408 0.718198 0.658670
O O8 0.507801 0.145612 0.799062
O O9 0.544965 0.538366 0.637817
O O10 0.744951 0.753015 0.516277
O O11 0.519522 0.676881 0.264643
O O12 0.741787 0.863199 0.124886
O O13 0.500000 0.500000 0.000000
O O14 0.724398 0.685562 0.291172
O O15 0.887895 0.579494 0.285247
O O16 0.919800 0.288998 0.229362
O O17 0.000000 0.000000 0.000000
#
# Coordination Sequence:
#
# PCOD8040257 Si02
#       8
#     2   2   2   2   2   2   2   2
#     4  11  21  38  63  93 120 152 195 244 300 350
#     4  10  19  38  63  94 118 149 196 246 297 348
#     4  10  19  34  64  95 120 145 188 249 304 355
#     4  11  26  43  59  83 122 162 203 247 284 345
#     4  11  18  38  65  91 119 150 194 245 299 355
#     4  10  18  36  59  96 124 143 188 252 300 346
#     4  11  26  45  57  81 124 166 202 239 290 351
#     4  10  19  38  65  90 119 153 194 245 296 351
#
# _framework density 19.608628
#
# number of rings (size 3 to 8) (size 9 to 14) (size 15 to 20)
#    0.000    1.500    5.000    3.000    1.750    0.000 
#    6.750    2.500    0.000    0.000    0.000    0.000 
#    0.000    0.000    0.000    0.000    0.000    0.000 
#
# Total GULP energy -198277.489371 kJ/mol
# GULP energy per Si atom -12392.343086 kJ/mol
# Density = 1.956400 g / cm^3
# Si number density = 19.608628 Si / 1000 Ang^3
#
#
#
# Elastic Constant Matrix: (Units=GPa)
#
#
# Indices 1 2 3 4 5 6 
#
# 1 152.9913 56.3649 59.7347 20.6397 -10.0199 -16.7007
# 2 56.3649 94.6857 54.0235 20.5920 -10.5848 -13.2150
# 3 59.7347 54.0235 77.9942 20.1097 -13.6706 -9.7688
# 4 20.6397 20.5920 20.1097 24.0821 6.3009 -3.9862
# 5 -10.0199 -10.5848 -13.6706 6.3009 18.9234 8.3991
# 6 -16.7007 -13.2150 -9.7688 -3.9862 8.3991 31.8941
#
#
#
# Elastic Compliance Matrix: (Units=1/GPa)
#
#
# Indices 1 2 3 4 5 6 
#
# 1 0.009922 -0.002143 -0.005505 -0.001497 -0.000570 0.002584
# 2 -0.002143 0.019423 -0.008077 -0.009411 0.006312 0.001613
# 3 -0.005505 -0.008077 0.032666 -0.023710 0.026836 -0.006255
# 4 -0.001497 -0.009411 -0.023710 0.088583 -0.059214 0.014720
# 5 -0.000570 0.006312 0.026836 -0.059214 0.106198 -0.024831
# 6 0.002584 0.001613 -0.006255 0.014720 -0.024831 0.039838
#
#
# Mechanical properties :
#
#
# Convention : Reuss Voigt Hill
#
# Bulk Modulus (GPa) = 32.72204 73.99082 53.35643
# Shear Modulus (GPa) = 14.78118 25.34980 20.06549
#
# Velocity S-wave (km/s) = 2.74854 3.59944 3.20237
# Velocity P-wave (km/s) = 5.17653 7.42229 6.39870
#
# Compressibility (1/GPa) = 0.03056044
#
# Stress axis : x y z
#
# Youngs Moduli (GPa) = 100.78634 51.48566 30.61270
#
# Poissons Ratio (x) = 0.11033 0.16852
# Poissons Ratio (y) = 0.21598 0.24727
# Poissons Ratio (z) = 0.55483 0.41587
#
# Static dielectric constant tensor:
#      x y z
#    x 4.445800 -0.149530 0.037060 
#    y -0.149530 3.694490 0.084770 
#    z 0.037060 0.084770 3.177390 
# 
# 
# High freq. dielectric constant tensor:
#      x y z
#    x 1.792670 -0.004800 0.009740 
#    y -0.004800 1.773510 0.006750 
#    z 0.009740 0.006750 1.713350 
# 
# From -- ./inp_files/187624.got.cif
#   From: 2010.06.25/outbox.cif.g09.slc.cpg/sg2_94_cif.got.tgz:187624.got - 2010.06.27 13:26:56.
