data_PCOD8040922
_publ_section_title
;
Structure prediction by ZEFSAII (Michael W. Deem and Ramdas Pophale) SiO2 
 PCOD8040922
Probable space group: P -1
;
_chemical_formula_sum "Si O2"
_cell_formula_units_Z 16
_cell_length_a 10.754503
_cell_length_b 16.669738
_cell_length_c 8.888374
_cell_angle_alpha 72.131821
_cell_angle_beta 137.079758
_cell_angle_gamma 76.136550
_cell_volume 720.592602
_symmetry_space_group_name_H-M "P -1"
_symmetry_group_IT_number 2
_symmetry_cell_setting 'triclinic'
loop_
_space_group_symop_operation_xyz
x,y,z
-x,-y,-z
loop_
_atom_site_type_symbol
_atom_site_label
_atom_site_fract_x
_atom_site_fract_y
_atom_site_fract_z
Si Si1 0.503797 0.417234 0.339551
Si Si2 0.662469 0.078894 0.802032
Si Si3 0.126521 0.192335 0.293224
Si Si4 0.166579 0.429655 0.834725
Si Si5 0.530123 0.828972 0.753373
Si Si6 0.934473 0.832502 0.066120
Si Si7 0.966199 0.951777 0.639293
Si Si8 0.200820 0.543717 0.278321
O O1 0.360813 0.436338 0.358888
O O2 0.596918 0.483426 0.404215
O O3 0.753053 0.276705 0.605192
O O4 0.297688 0.473026 0.987875
O O5 0.402380 0.137046 0.630708
O O6 0.576105 0.140137 0.528205
O O7 0.809145 0.104037 0.006447
O O8 0.865607 0.934633 0.049647
O O9 0.013966 0.155536 0.324699
O O10 0.187024 0.116950 0.238448
O O11 0.931417 0.333371 0.999579
O O12 0.000000 0.500000 0.500000
O O13 0.002743 0.446627 0.820336
O O14 0.396086 0.290667 0.069599
O O15 0.322542 0.933391 0.624320
O O16 0.800028 0.792256 0.033819
O O17 0.000000 0.000000 0.500000
#
# Coordination Sequence:
#
# PCOD8040922 Si02
#       8
#     2   2   2   2   2   2   2   2
#     4  10  22  41  69  92 131 169 223 267 316 383
#     4  11  20  39  74  91 121 173 217 255 314 383
#     4  10  20  39  67  94 126 162 216 260 308 379
#     4  12  25  43  64  98 133 170 215 274 327 374
#     4  11  21  44  64  95 125 168 223 258 308 397
#     4  10  18  39  73  93 118 165 224 264 295 375
#     4  12  26  40  59 103 136 161 204 267 334 380
#     4  10  22  44  68  97 126 171 225 267 313 383
#
# _framework density 22.203946999999999
#
# number of rings (size 3 to 8) (size 9 to 14) (size 15 to 20)
#    0.000    1.250    6.250    2.250    3.500    1.000 
#    9.000    0.000    0.000    0.000    0.000    0.000 
#    0.000    0.000    0.000    0.000    0.000    0.000 
#
# Total GULP energy -198292.790563 kJ/mol
# GULP energy per Si atom -12393.299410 kJ/mol
# Density = 2.215341 g / cm^3
# Si number density = 22.203947 Si / 1000 Ang^3
#
#
#
# Elastic Constant Matrix: (Units=GPa)
#
#
# Indices 1 2 3 4 5 6 
#
# 1 95.0948 28.6602 47.6310 -15.5534 6.4582 7.0188
# 2 28.6602 72.2583 61.8131 4.7597 7.8909 8.7984
# 3 47.6310 61.8131 125.6003 2.8241 11.0303 -2.2404
# 4 -15.5534 4.7597 2.8241 19.9757 2.0374 3.3982
# 5 6.4582 7.8909 11.0303 2.0374 34.1576 -2.3850
# 6 7.0188 8.7984 -2.2404 3.3982 -2.3850 21.5734
#
#
#
# Elastic Compliance Matrix: (Units=1/GPa)
#
#
# Indices 1 2 3 4 5 6 
#
# 1 0.017652 -0.001317 -0.006351 0.016715 -0.002593 -0.008785
# 2 -0.001317 0.027277 -0.012835 -0.003451 -0.002523 -0.011764
# 3 -0.006351 -0.012835 0.017024 -0.005962 -0.000279 0.009977
# 4 0.016715 -0.003451 -0.005962 0.068032 -0.005612 -0.015987
# 5 -0.002593 -0.002523 -0.000279 -0.005612 0.031205 0.006177
# 6 -0.008785 -0.011764 0.009977 -0.015987 0.006177 0.058247
#
#
# Mechanical properties :
#
#
# Convention : Reuss Voigt Hill
#
# Bulk Modulus (GPa) = 47.74096 63.24023 55.49059
# Shear Modulus (GPa) = 18.69683 25.46462 22.08072
#
# Velocity S-wave (km/s) = 2.90496 3.39019 3.15691
# Velocity P-wave (km/s) = 5.72708 6.62328 6.19142
#
# Compressibility (1/GPa) = 0.02094637
#
# Stress axis : x y z
#
# Youngs Moduli (GPa) = 56.65070 36.66121 58.74199
#
# Poissons Ratio (x) = 0.04827 0.37307
# Poissons Ratio (y) = 0.07459 0.75398
# Poissons Ratio (z) = 0.35979 0.47056
#
# Static dielectric constant tensor:
#      x y z
#    x 4.071940 0.134750 0.436310 
#    y 0.134750 4.017830 0.027910 
#    z 0.436310 0.027910 3.960100 
# 
# 
# High freq. dielectric constant tensor:
#      x y z
#    x 1.853630 0.013520 0.038660 
#    y 0.013520 1.868360 -0.000870 
#    z 0.038660 -0.000870 1.867580 
# 
# From -- ./inp_files/277905.got.cif
#   From: 2010.06.25/outbox.cif.g09.slc.cpg/sg2_139_cif.got.tgz:277905.got - 2010.06.27 13:26:56.
