data_PCOD8040070
_publ_section_title
;
Structure prediction by ZEFSAII (Michael W. Deem and Ramdas Pophale) SiO2 
 PCOD8040070
Probable space group: P -1
;
_chemical_formula_sum "Si O2"
_cell_formula_units_Z 16
_cell_length_a 20.242004
_cell_length_b 10.023409
_cell_length_c 16.841007
_cell_angle_alpha 134.352699
_cell_angle_beta 160.843114
_cell_angle_gamma 41.845966
_cell_volume 747.879113
_symmetry_space_group_name_H-M "P -1"
_symmetry_group_IT_number 2
_symmetry_cell_setting 'triclinic'
loop_
_space_group_symop_operation_xyz
x,y,z
-x,-y,-z
loop_
_atom_site_type_symbol
_atom_site_label
_atom_site_fract_x
_atom_site_fract_y
_atom_site_fract_z
Si Si1 0.222001 0.274866 0.066798
Si Si2 0.688508 0.394588 0.777378
Si Si3 0.338209 0.977732 0.485214
Si Si4 0.746892 0.973203 0.407863
Si Si5 0.716338 0.992929 0.125335
Si Si6 0.235960 0.608702 0.428055
Si Si7 0.026280 0.748076 0.506286
Si Si8 0.099033 0.406464 0.335234
O O1 0.975777 0.359511 0.856185
O O2 0.196149 0.178856 0.913175
O O3 0.318544 0.449896 0.236281
O O4 0.398285 0.110852 0.253039
O O5 0.758037 0.172116 0.729150
O O6 0.450611 0.452663 0.568381
O O7 0.865633 0.400769 0.045193
O O8 0.241203 0.012106 0.477896
O O9 0.268224 0.182695 0.443052
O O10 0.951489 0.786943 0.529827
O O11 0.738903 0.179145 0.442984
O O12 0.538794 0.930602 0.125613
O O13 0.765752 0.190819 0.242759
O O14 0.825138 0.897760 0.291121
O O15 0.195463 0.517379 0.426973
O O16 0.079645 0.520024 0.444859
#
# Coordination Sequence:
#
# PCOD8040070 Si02
#       8
#     2   2   2   2   2   2   2   2
#     4  10  20  40  64  98 125 156 215 263 308 371
#     4  11  22  44  68  91 125 172 213 257 312 375
#     4  11  25  44  62  93 138 162 205 270 314 367
#     4  11  22  38  65  95 122 165 214 254 314 373
#     4  10  18  35  62  96 123 156 210 267 299 366
#     4  11  20  40  68  91 124 163 215 253 310 378
#     4  11  19  36  63  90 128 164 204 258 313 371
#     4  11  25  44  61  97 131 165 211 260 312 380
#
# _framework density 21.393833000000001
#
# number of rings (size 3 to 8) (size 9 to 14) (size 15 to 20)
#    0.000    1.250    6.250    1.875    0.000    2.500 
#    4.500    2.500    0.000    0.000    0.000    0.000 
#    0.000    0.000    0.000    0.000    0.000    0.000 
#
# Total GULP energy -198376.366272 kJ/mol
# GULP energy per Si atom -12398.522892 kJ/mol
# Density = 2.134514 g / cm^3
# Si number density = 21.393833 Si / 1000 Ang^3
#
#
#
# Elastic Constant Matrix: (Units=GPa)
#
#
# Indices 1 2 3 4 5 6 
#
# 1 60.3391 31.5420 50.0315 6.1385 9.8650 -9.3350
# 2 31.5420 116.3107 57.2078 -0.7663 5.4611 -6.8168
# 3 50.0315 57.2078 129.2612 7.1850 18.2455 -9.4114
# 4 6.1385 -0.7663 7.1850 32.6058 -8.3237 -10.6157
# 5 9.8650 5.4611 18.2455 -8.3237 24.5188 2.4424
# 6 -9.3350 -6.8168 -9.4114 -10.6157 2.4424 24.2925
#
#
#
# Elastic Compliance Matrix: (Units=1/GPa)
#
#
# Indices 1 2 3 4 5 6 
#
# 1 0.026525 -0.002879 -0.007555 -0.003071 -0.006021 0.005721
# 2 -0.002879 0.011537 -0.004441 0.002960 0.002756 0.001427
# 3 -0.007555 -0.004441 0.013926 -0.003535 -0.007580 0.000463
# 4 -0.003071 0.002960 -0.003535 0.040819 0.015615 0.014549
# 5 -0.006021 0.002756 -0.007580 0.015615 0.053841 -0.003067
# 6 0.005721 0.001427 0.000463 0.014549 -0.003067 0.050609
#
#
# Mechanical properties :
#
#
# Convention : Reuss Voigt Hill
#
# Bulk Modulus (GPa) = 44.97129 64.83038 54.90083
# Shear Modulus (GPa) = 21.32925 27.42540 24.37732
#
# Velocity S-wave (km/s) = 3.16093 3.58429 3.37924
# Velocity P-wave (km/s) = 5.86415 6.89192 6.39870
#
# Compressibility (1/GPa) = 0.02223641
#
# Stress axis : x y z
#
# Youngs Moduli (GPa) = 37.70096 86.68108 71.80697
#
# Poissons Ratio (x) = 0.24959 0.54250
# Poissons Ratio (y) = 0.10855 0.31890
# Poissons Ratio (z) = 0.28483 0.38496
#
# Static dielectric constant tensor:
#      x y z
#    x 3.735280 -0.198280 0.076090 
#    y -0.198280 3.739880 0.124430 
#    z 0.076090 0.124430 4.048810 
# 
# 
# High freq. dielectric constant tensor:
#      x y z
#    x 1.822690 -0.022200 0.003390 
#    y -0.022200 1.824030 0.014120 
#    z 0.003390 0.014120 1.853490 
# 
# From -- ./inp_files/577643.got.cif
#   From: 2010.06.25/outbox.cif.g09.slc.cpg/sg2_289_cif.got.tgz:577643.got - 2010.06.27 13:26:56.
