data_PCOD8040081
_publ_section_title
;
Structure prediction by ZEFSAII (Michael W. Deem and Ramdas Pophale) SiO2 
 PCOD8040081
Probable space group: P -1
;
_chemical_formula_sum "Si O2"
_cell_formula_units_Z 14
_cell_length_a 11.101645
_cell_length_b 12.526273
_cell_length_c 12.762889
_cell_angle_alpha 97.807168
_cell_angle_beta 135.459857
_cell_angle_gamma 47.242093
_cell_volume 673.684532
_symmetry_space_group_name_H-M "P -1"
_symmetry_group_IT_number 2
_symmetry_cell_setting 'triclinic'
loop_
_space_group_symop_operation_xyz
x,y,z
-x,-y,-z
loop_
_atom_site_type_symbol
_atom_site_label
_atom_site_fract_x
_atom_site_fract_y
_atom_site_fract_z
Si Si1 0.433812 0.398843 0.838942
Si Si2 0.710025 0.033869 0.982905
Si Si3 0.331329 0.126831 0.212485
Si Si4 0.095147 0.256082 0.583998
Si Si5 0.479745 0.263180 0.223310
Si Si6 0.983670 0.116324 0.630147
Si Si7 0.190593 0.577699 0.931216
O O1 0.612350 0.417006 0.945155
O O2 0.171832 0.528182 0.602709
O O3 0.688037 0.169948 0.950567
O O4 0.252780 0.482675 0.849260
O O5 0.947624 0.897195 0.208023
O O6 0.343737 0.192701 0.800790
O O7 0.841670 0.882233 0.956592
O O8 0.271432 0.271766 0.133887
O O9 0.709952 0.905536 0.412739
O O10 0.183523 0.204824 0.248809
O O11 0.927614 0.257279 0.553549
O O12 0.272225 0.464401 0.068881
O O13 0.669404 0.210398 0.434370
O O14 0.719831 0.102917 0.260064
#
# Coordination Sequence:
#
# PCOD8040081 Si02
#       7
#     2   2   2   2   2   2   2
#     4  11  22  37  64  84 119 156 202 228 292 349
#     4  10  21  38  60  89 114 160 190 242 291 347
#     4   9  23  37  61  85 128 142 197 242 306 324
#     4   9  20  37  58  88 116 155 195 243 279 349
#     4  10  19  35  62  88 118 149 197 250 281 339
#     4  10  18  35  63  88 114 150 205 237 281 344
#     4  11  22  38  58  92 117 157 190 248 285 353
#
# _framework density 20.78124
#
# number of rings (size 3 to 8) (size 9 to 14) (size 15 to 20)
#    0.857    1.143    2.857    1.286    0.000    1.143 
#    0.000    0.714    3.143    0.000    0.000    0.000 
#    0.000    0.000    0.000    0.000    0.000    0.000 
#
# Total GULP energy -173459.838243 kJ/mol
# GULP energy per Si atom -12389.988446 kJ/mol
# Density = 2.073394 g / cm^3
# Si number density = 20.781240 Si / 1000 Ang^3
#
#
#
# Elastic Constant Matrix: (Units=GPa)
#
#
# Indices 1 2 3 4 5 6 
#
# 1 65.7021 41.9928 25.1879 -15.4047 -12.4086 5.5649
# 2 41.9928 78.4229 18.1899 9.3257 -4.1489 17.6088
# 3 25.1879 18.1899 64.4170 4.1506 -19.4688 5.9567
# 4 -15.4047 9.3257 4.1506 21.5811 -1.2794 3.3770
# 5 -12.4086 -4.1489 -19.4688 -1.2794 13.6706 -2.1718
# 6 5.5649 17.6088 5.9567 3.3770 -2.1718 21.8554
#
#
#
# Elastic Compliance Matrix: (Units=1/GPa)
#
#
# Indices 1 2 3 4 5 6 
#
# 1 0.076655 -0.049572 -0.005272 0.078103 0.056788 0.015434
# 2 -0.049572 0.048902 -0.000991 -0.055274 -0.040229 -0.021965
# 3 -0.005272 -0.000991 0.029185 -0.006639 0.035658 -0.001244
# 4 0.078103 -0.055274 -0.006639 0.128790 0.058685 0.012388
# 5 0.056788 -0.040229 0.035658 0.058685 0.171333 0.016192
# 6 0.015434 -0.021965 -0.001244 0.012388 0.016192 0.059557
#
#
# Mechanical properties :
#
#
# Convention : Reuss Voigt Hill
#
# Bulk Modulus (GPa) = 23.21707 42.14258 32.67982
# Shear Modulus (GPa) = 7.80702 19.63283 13.71992
#
# Velocity S-wave (km/s) = 1.94034 3.07699 2.57224
# Velocity P-wave (km/s) = 4.02694 5.73995 4.95799
#
# Compressibility (1/GPa) = 0.04307176
#
# Stress axis : x y z
#
# Youngs Moduli (GPa) = 13.04549 20.44903 34.26430
#
# Poissons Ratio (x) = 1.01370 0.18063
# Poissons Ratio (y) = 0.64669 0.03396
# Poissons Ratio (z) = 0.06877 0.02027
#
# Static dielectric constant tensor:
#      x y z
#    x 3.532580 0.167150 0.026450 
#    y 0.167150 3.759580 0.051180 
#    z 0.026450 0.051180 3.478610 
# 
# 
# High freq. dielectric constant tensor:
#      x y z
#    x 1.796910 0.023720 0.002130 
#    y 0.023720 1.809420 -0.000280 
#    z 0.002130 -0.000280 1.794990 
# 
# From -- ./inp_files/378897.got.cif
#   From: 2010.06.25/outbox.cif.g09.slc.cpg/sg2_190_cif.got.tgz:378897.got - 2010.06.27 13:26:56.
