data_PCOD8040460
_publ_section_title
;
Structure prediction by ZEFSAII (Michael W. Deem and Ramdas Pophale) SiO2 
 PCOD8040460
Probable space group: P -1
;
_chemical_formula_sum "Si O2"
_cell_formula_units_Z 16
_cell_length_a 25.153943
_cell_length_b 8.624938
_cell_length_c 19.661521
_cell_angle_alpha 135.499354
_cell_angle_beta 20.628221
_cell_angle_gamma 145.761737
_cell_volume 805.226291
_symmetry_space_group_name_H-M "P -1"
_symmetry_group_IT_number 2
_symmetry_cell_setting 'triclinic'
loop_
_space_group_symop_operation_xyz
x,y,z
-x,-y,-z
loop_
_atom_site_type_symbol
_atom_site_label
_atom_site_fract_x
_atom_site_fract_y
_atom_site_fract_z
Si Si1 0.873994 0.864743 0.040983
Si Si2 0.191922 0.484038 0.601674
Si Si3 0.110461 0.407885 0.461814
Si Si4 0.487497 0.243217 0.962873
Si Si5 0.875586 0.369474 0.847388
Si Si6 0.878372 0.607529 0.185915
Si Si7 0.455808 0.106405 0.521914
Si Si8 0.762004 0.827709 0.654331
O O1 0.671041 0.802831 0.275687
O O2 0.818154 0.562192 0.996477
O O3 0.000000 0.000000 0.000000
O O4 0.998244 0.078285 0.896102
O O5 0.158873 0.382023 0.686897
O O6 0.289053 0.361073 0.410776
O O7 0.984881 0.350743 0.773177
O O8 0.335878 0.833701 0.528461
O O9 0.299701 0.676374 0.276601
O O10 0.181754 0.278371 0.384193
O O11 0.013653 0.502810 0.656224
O O12 0.949713 0.166780 0.524269
O O13 0.500000 0.500000 0.000000
O O14 0.425998 0.204417 0.104545
O O15 0.325011 0.952674 0.025126
O O16 0.668913 0.389276 0.327495
O O17 0.000000 0.500000 0.000000
O O18 0.500000 0.000000 0.500000
#
# Coordination Sequence:
#
# PCOD8040460 Si02
#       8
#     2   2   2   2   2   2   2   2
#     4  12  23  42  59  89 125 156 201 254 296 352
#     4  10  18  37  56  86 118 153 203 243 292 358
#     4   8  15  30  48  78 119 148 186 236 299 343
#     4   9  16  31  52  83 119 154 193 241 296 352
#     4  10  20  34  56  87 124 151 190 257 295 337
#     4  11  22  41  60  78 117 164 199 243 301 351
#     4  10  21  40  60  83 119 157 202 246 291 358
#     4   8  15  28  49  80 115 144 189 250 279 337
#
# _framework density 19.870190999999998
#
# number of rings (size 3 to 8) (size 9 to 14) (size 15 to 20)
#    0.000    2.250    3.750    2.250    0.000    1.500 
#   15.750    0.000    0.000    3.000    0.000   21.875 
#    0.000    0.000    0.000    0.000    0.000    0.000 
#
# Total GULP energy -198276.333680 kJ/mol
# GULP energy per Si atom -12392.270855 kJ/mol
# Density = 1.982497 g / cm^3
# Si number density = 19.870191 Si / 1000 Ang^3
#
#
#
# Elastic Constant Matrix: (Units=GPa)
#
#
# Indices 1 2 3 4 5 6 
#
# 1 54.7361 40.8022 39.0909 4.5359 13.7848 12.9601
# 2 40.8022 132.1940 66.3647 -0.2229 4.6001 27.8062
# 3 39.0909 66.3647 156.7048 -11.4906 2.6260 22.2118
# 4 4.5359 -0.2229 -11.4906 34.9304 -1.0435 2.6765
# 5 13.7848 4.6001 2.6260 -1.0435 22.4898 7.8505
# 6 12.9601 27.8062 22.2118 2.6765 7.8505 28.8951
#
#
#
# Elastic Compliance Matrix: (Units=1/GPa)
#
#
# Indices 1 2 3 4 5 6 
#
# 1 0.032213 -0.006977 -0.005591 -0.006804 -0.018782 0.002296
# 2 -0.006977 0.012535 -0.002362 0.001017 0.005030 -0.008578
# 3 -0.005591 -0.002362 0.009618 0.004332 0.004463 -0.004227
# 4 -0.006804 0.001017 0.004332 0.031622 0.007054 -0.006102
# 5 -0.018782 0.005030 0.004463 0.007054 0.060684 -0.016988
# 6 0.002296 -0.008578 -0.004227 -0.006102 -0.016988 0.050263
#
#
# Mechanical properties :
#
#
# Convention : Reuss Voigt Hill
#
# Bulk Modulus (GPa) = 40.80403 70.68339 55.74371
# Shear Modulus (GPa) = 21.27987 30.42152 25.85070
#
# Velocity S-wave (km/s) = 3.27608 3.91706 3.61082
# Velocity P-wave (km/s) = 5.90679 7.49050 6.74529
#
# Compressibility (1/GPa) = 0.02450738
#
# Stress axis : x y z
#
# Youngs Moduli (GPa) = 31.04312 79.77684 103.96776
#
# Poissons Ratio (x) = 0.55660 0.58125
# Poissons Ratio (y) = 0.21659 0.24557
# Poissons Ratio (z) = 0.17355 0.18843
#
# Static dielectric constant tensor:
#      x y z
#    x 3.533740 0.195220 0.168050 
#    y 0.195220 3.993880 -0.356720 
#    z 0.168050 -0.356720 4.494910 
# 
# 
# High freq. dielectric constant tensor:
#      x y z
#    x 1.734090 0.023080 0.007810 
#    y 0.023080 1.772830 -0.003110 
#    z 0.007810 -0.003110 1.788960 
# 
# From -- ./inp_files/602279.got.cif
#   From: 2010.06.25/outbox.cif.g09.slc.cpg/sg2_302_cif.got.tgz:602279.got - 2010.06.27 13:26:56.
