data_PCOD8040692
_publ_section_title
;
Structure prediction by ZEFSAII (Michael W. Deem and Ramdas Pophale) SiO2 
 PCOD8040692
Probable space group: P -1
;
_chemical_formula_sum "Si O2"
_cell_formula_units_Z 16
_cell_length_a 10.050471
_cell_length_b 14.605827
_cell_length_c 16.000366
_cell_angle_alpha 37.207997
_cell_angle_beta 144.492203
_cell_angle_gamma 123.837929
_cell_volume 796.468355
_symmetry_space_group_name_H-M "P -1"
_symmetry_group_IT_number 2
_symmetry_cell_setting 'triclinic'
loop_
_space_group_symop_operation_xyz
x,y,z
-x,-y,-z
loop_
_atom_site_type_symbol
_atom_site_label
_atom_site_fract_x
_atom_site_fract_y
_atom_site_fract_z
Si Si1 0.359094 0.625192 0.518916
Si Si2 0.995497 0.701799 0.603612
Si Si3 0.990738 0.775608 0.357370
Si Si4 0.786425 0.424106 0.692426
Si Si5 0.778252 0.119576 0.980076
Si Si6 0.507072 0.272282 0.884816
Si Si7 0.247124 0.871189 0.719602
Si Si8 0.459723 0.125647 0.661205
O O1 0.174869 0.618893 0.354535
O O2 0.520413 0.450175 0.746209
O O3 0.527637 0.737915 0.497012
O O4 0.217773 0.692539 0.480223
O O5 0.033599 0.706162 0.521769
O O6 0.949842 0.534389 0.724531
O O7 0.763955 0.829264 0.423777
O O8 0.227224 0.732127 0.746696
O O9 0.759725 0.737413 0.225402
O O10 0.973985 0.961419 0.218828
O O11 0.500000 0.500000 0.500000
O O12 0.881567 0.270717 0.910365
O O13 0.581431 0.163797 0.919872
O O14 0.682507 0.085396 0.865624
O O15 0.685471 0.205290 0.099690
O O16 0.441629 0.964950 0.722074
O O17 0.000000 0.000000 0.500000
#
# Coordination Sequence:
#
# PCOD8040692 Si02
#       8
#     2   2   2   2   2   2   2   2
#     4  11  23  37  62  94 123 153 194 255 302 346
#     4  11  20  39  60  87 119 159 197 247 295 354
#     4  12  23  36  62  97 120 149 206 250 294 351
#     4  11  18  36  62  89 121 153 195 249 304 341
#     4  11  19  34  64  90 116 156 196 249 298 340
#     4  12  20  39  63  92 119 156 206 246 292 352
#     4  10  23  37  60  89 119 159 202 248 290 353
#     4  10  18  38  59  87 126 154 194 246 304 345
#
# _framework density 20.088681000000001
#
# number of rings (size 3 to 8) (size 9 to 14) (size 15 to 20)
#    0.000    1.000    7.500    2.250    0.000    2.000 
#    0.000    8.125    0.000    0.000    0.000    0.000 
#    0.000    0.000    0.000    0.000    0.000    0.000 
#
# Total GULP energy -198281.868172 kJ/mol
# GULP energy per Si atom -12392.616761 kJ/mol
# Density = 2.004296 g / cm^3
# Si number density = 20.088681 Si / 1000 Ang^3
#
#
#
# Elastic Constant Matrix: (Units=GPa)
#
#
# Indices 1 2 3 4 5 6 
#
# 1 96.7988 39.8342 25.7157 -0.8893 -9.3489 -7.4271
# 2 39.8342 172.2975 40.2645 -10.9467 -16.8957 18.2667
# 3 25.7157 40.2645 71.1684 -7.4051 -21.2080 6.3568
# 4 -0.8893 -10.9467 -7.4051 32.3253 -0.0789 -8.2484
# 5 -9.3489 -16.8957 -21.2080 -0.0789 24.1291 -12.1328
# 6 -7.4271 18.2667 6.3568 -8.2484 -12.1328 22.5667
#
#
#
# Elastic Compliance Matrix: (Units=1/GPa)
#
#
# Indices 1 2 3 4 5 6 
#
# 1 0.013901 -0.003246 -0.001698 0.002185 0.008074 0.012821
# 2 -0.003246 0.007930 -0.003464 -0.000282 -0.002845 -0.008145
# 3 -0.001698 -0.003464 0.023076 0.006731 0.022364 0.010229
# 4 0.002185 -0.000282 0.006731 0.038310 0.018166 0.022821
# 5 0.008074 -0.002845 0.022364 0.018166 0.089030 0.053167
# 6 0.012821 -0.008145 0.010229 0.022821 0.053167 0.089170
#
#
# Mechanical properties :
#
#
# Convention : Reuss Voigt Hill
#
# Bulk Modulus (GPa) = 35.59753 61.32150 48.45952
# Shear Modulus (GPa) = 17.38551 31.43424 24.40987
#
# Velocity S-wave (km/s) = 2.94502 3.96001 3.48962
# Velocity P-wave (km/s) = 5.41506 7.17639 6.35702
#
# Compressibility (1/GPa) = 0.02809183
#
# Stress axis : x y z
#
# Youngs Moduli (GPa) = 71.93676 126.09969 43.33575
#
# Poissons Ratio (x) = 0.40926 0.07360
# Poissons Ratio (y) = 0.23347 0.15010
# Poissons Ratio (z) = 0.12217 0.43677
#
# Static dielectric constant tensor:
#      x y z
#    x 3.545180 0.060370 -0.288320 
#    y 0.060370 4.418670 -0.215080 
#    z -0.288320 -0.215080 3.436590 
# 
# 
# High freq. dielectric constant tensor:
#      x y z
#    x 1.767430 0.003110 -0.029000 
#    y 0.003110 1.795550 -0.028970 
#    z -0.029000 -0.028970 1.752040 
# 
# From -- ./inp_files/271764.got.cif
#   From: 2010.06.25/outbox.cif.g09.slc.cpg/sg2_136_cif.got.tgz:271764.got - 2010.06.27 13:26:56.
