data_PCOD8040368
_publ_section_title
;
Structure prediction by ZEFSAII (Michael W. Deem and Ramdas Pophale) SiO2 
 PCOD8040368
Probable space group: P -1
;
_chemical_formula_sum "Si O2"
_cell_formula_units_Z 16
_cell_length_a 13.525782
_cell_length_b 9.421421
_cell_length_c 9.716355
_cell_angle_alpha 61.779504
_cell_angle_beta 126.930909
_cell_angle_gamma 120.973578
_cell_volume 824.071488
_symmetry_space_group_name_H-M "P -1"
_symmetry_group_IT_number 2
_symmetry_cell_setting 'triclinic'
loop_
_space_group_symop_operation_xyz
x,y,z
-x,-y,-z
loop_
_atom_site_type_symbol
_atom_site_label
_atom_site_fract_x
_atom_site_fract_y
_atom_site_fract_z
Si Si1 0.421316 0.504707 0.618163
Si Si2 0.902889 0.363147 0.078904
Si Si3 0.265647 0.307621 0.832515
Si Si4 0.673504 0.471120 0.760380
Si Si5 0.951548 0.011450 0.302533
Si Si6 0.095995 0.943635 0.205709
Si Si7 0.336183 0.239082 0.209716
Si Si8 0.957687 0.570526 0.296820
O O1 0.350155 0.436221 0.731717
O O2 0.518616 0.396370 0.707251
O O3 0.318409 0.493197 0.414558
O O4 0.515433 0.702779 0.631351
O O5 0.931330 0.421983 0.232094
O O6 0.927776 0.185946 0.164657
O O7 0.752960 0.342898 0.920977
O O8 0.000000 0.500000 0.000000
O O9 0.186206 0.135060 0.767927
O O10 0.173405 0.389865 0.798976
O O11 0.353407 0.271365 0.045035
O O12 0.738319 0.645012 0.824387
O O13 0.064906 0.984748 0.315481
O O14 0.000000 0.000000 0.500000
O O15 0.070728 0.741947 0.260457
O O16 0.248600 0.042958 0.253479
O O17 0.000000 0.000000 0.000000
O O18 0.000000 0.500000 0.500000
#
# Coordination Sequence:
#
# PCOD8040368 Si02
#       8
#     2   2   2   2   2   2   2   2
#     4   9  21  37  62  93 115 166 208 247 292 367
#     4  12  23  37  61  91 124 156 196 254 307 354
#     4  11  21  39  61  86 124 158 209 242 299 370
#     4   9  20  38  59  91 119 156 211 242 301 352
#     4  11  25  36  57  93 123 159 197 247 310 363
#     4  11  19  39  60  86 119 154 201 246 300 363
#     4  10  18  36  63  83 113 159 207 239 293 357
#     4  11  23  38  56  92 123 158 193 251 310 357
#
# _framework density 19.415790000000001
#
# number of rings (size 3 to 8) (size 9 to 14) (size 15 to 20)
#    0.750    0.750    3.750    3.375    5.250    0.000 
#    0.000    0.625    0.000    4.500    0.000    0.000 
#    0.000    0.000    0.000    0.000    0.000    0.000 
#
# Total GULP energy -198292.002330 kJ/mol
# GULP energy per Si atom -12393.250146 kJ/mol
# Density = 1.937160 g / cm^3
# Si number density = 19.415790 Si / 1000 Ang^3
#
#
#
# Elastic Constant Matrix: (Units=GPa)
#
#
# Indices 1 2 3 4 5 6 
#
# 1 47.6314 20.7419 10.9244 4.5353 -14.3782 15.2623
# 2 20.7419 78.4479 21.1101 6.2498 -0.6598 17.9388
# 3 10.9244 21.1101 108.8966 22.0568 -12.6285 9.3470
# 4 4.5353 6.2498 22.0568 34.7650 -6.3973 -6.6612
# 5 -14.3782 -0.6598 -12.6285 -6.3973 33.6852 -6.5590
# 6 15.2623 17.9388 9.3470 -6.6612 -6.5590 28.5653
#
#
#
# Elastic Compliance Matrix: (Units=1/GPa)
#
#
# Indices 1 2 3 4 5 6 
#
# 1 0.030248 -0.005133 0.000974 -0.004062 0.010090 -0.011887
# 2 -0.005133 0.017026 -0.001745 -0.004048 -0.005131 -0.009501
# 3 0.000974 -0.001745 0.011625 -0.007591 0.002433 -0.004440
# 4 -0.004062 -0.004048 -0.007591 0.039415 0.006299 0.017834
# 5 0.010090 -0.005131 0.002433 0.006299 0.037381 0.007087
# 6 -0.011887 -0.009501 -0.004440 0.017834 0.007087 0.054564
#
#
# Mechanical properties :
#
#
# Convention : Reuss Voigt Hill
#
# Bulk Modulus (GPa) = 21.23611 37.83652 29.53631
# Shear Modulus (GPa) = 22.96067 31.54974 27.25520
#
# Velocity S-wave (km/s) = 3.44259 4.03544 3.75075
# Velocity P-wave (km/s) = 5.17332 6.42206 5.83121
#
# Compressibility (1/GPa) = 0.04708961
#
# Stress axis : x y z
#
# Youngs Moduli (GPa) = 33.06031 58.73361 86.02506
#
# Poissons Ratio (x) = 0.30148 -0.08377
# Poissons Ratio (y) = 0.16970 0.15012
# Poissons Ratio (z) = -0.03219 0.10250
#
# Static dielectric constant tensor:
#      x y z
#    x 3.545110 0.075760 -0.232470 
#    y 0.075760 3.957880 -0.154840 
#    z -0.232470 -0.154840 3.883470 
# 
# 
# High freq. dielectric constant tensor:
#      x y z
#    x 1.739890 0.003500 -0.021360 
#    y 0.003500 1.744470 0.023040 
#    z -0.021360 0.023040 1.764090 
# 
# From -- ./inp_files/294583.got.cif
#   From: 2010.06.25/outbox.cif.g09.slc.cpg/sg2_148_cif.got.tgz:294583.got - 2010.06.27 13:26:56.
