data_PCOD8040263
_publ_section_title
;
Structure prediction by ZEFSAII (Michael W. Deem and Ramdas Pophale) SiO2 
 PCOD8040263
Probable space group: P -1
;
_chemical_formula_sum "Si O2"
_cell_formula_units_Z 16
_cell_length_a 19.083562
_cell_length_b 20.280371
_cell_length_c 8.825015
_cell_angle_alpha 125.707286
_cell_angle_beta 40.483463
_cell_angle_gamma 158.257442
_cell_volume 706.186022
_symmetry_space_group_name_H-M "P -1"
_symmetry_group_IT_number 2
_symmetry_cell_setting 'triclinic'
loop_
_space_group_symop_operation_xyz
x,y,z
-x,-y,-z
loop_
_atom_site_type_symbol
_atom_site_label
_atom_site_fract_x
_atom_site_fract_y
_atom_site_fract_z
Si Si1 0.571452 0.901903 0.945349
Si Si2 0.838306 0.978416 0.841541
Si Si3 0.845368 0.498322 0.383019
Si Si4 0.822589 0.633800 0.429033
Si Si5 0.401275 0.814856 0.782366
Si Si6 0.823259 0.235084 0.525573
Si Si7 0.642127 0.677901 0.749987
Si Si8 0.897105 0.686835 0.035439
O O1 0.633376 0.862384 0.883955
O O2 0.453105 0.802917 0.839803
O O3 0.358534 0.810946 0.268175
O O4 0.850961 0.145262 0.793475
O O5 0.696922 0.801414 0.916319
O O6 0.145306 0.169534 0.535424
O O7 0.884391 0.086748 0.022890
O O8 0.696934 0.475556 0.525836
O O9 0.635131 0.277630 0.413689
O O10 0.912437 0.558534 0.529670
O O11 0.122870 0.673818 0.066362
O O12 0.707766 0.641607 0.688918
O O13 0.753935 0.575703 0.285270
O O14 0.651297 0.047592 0.646672
O O15 0.932433 0.275986 0.241215
O O16 0.331916 0.455421 0.904875
#
# Coordination Sequence:
#
# PCOD8040263 Si02
#       8
#     2   2   2   2   2   2   2   2
#     4   9  17  34  57  82 106 141 181 225 263 318
#     4   9  19  35  58  82 105 139 190 224 264 314
#     4  10  20  35  58  82 103 146 191 218 259 322
#     4  10  18  36  60  83 102 140 191 226 261 312
#     4  10  19  34  58  78 111 145 183 220 262 322
#     4  11  20  37  53  81 122 142 166 221 283 328
#     4   9  19  37  55  79 109 142 182 232 261 308
#     4  10  22  34  55  82 116 144 170 223 281 321
#
# _framework density 22.65692
#
# number of rings (size 3 to 8) (size 9 to 14) (size 15 to 20)
#    0.000    2.500    2.500    2.250    1.750    3.000 
#    2.250    1.250    0.000    1.500    0.000    0.000 
#    0.000    0.000    0.000    0.000    0.000    0.000 
#
# Total GULP energy -198283.109856 kJ/mol
# GULP energy per Si atom -12392.694366 kJ/mol
# Density = 2.260535 g / cm^3
# Si number density = 22.656920 Si / 1000 Ang^3
#
#
#
# Elastic Constant Matrix: (Units=GPa)
#
#
# Indices 1 2 3 4 5 6 
#
# 1 65.5065 21.5228 18.6130 1.8370 -25.8080 -4.3947
# 2 21.5228 94.3925 17.4903 22.8862 -9.9403 11.6247
# 3 18.6130 17.4903 47.6126 10.1054 -13.8191 2.3645
# 4 1.8370 22.8862 10.1054 30.6926 -1.0179 -7.8814
# 5 -25.8080 -9.9403 -13.8191 -1.0179 22.9697 -2.0842
# 6 -4.3947 11.6247 2.3645 -7.8814 -2.0842 23.5838
#
#
#
# Elastic Compliance Matrix: (Units=1/GPa)
#
#
# Indices 1 2 3 4 5 6 
#
# 1 0.032834 -0.007975 -0.003252 0.010486 0.033477 0.016838
# 2 -0.007975 0.018412 -0.000028 -0.017654 -0.003312 -0.016751
# 3 -0.003252 -0.000028 0.028329 -0.010173 0.012406 -0.005735
# 4 0.010486 -0.017654 -0.010173 0.056499 0.003325 0.030850
# 5 0.033477 -0.003312 0.012406 0.003325 0.088741 0.015580
# 6 0.016838 -0.016751 -0.005735 0.030850 0.015580 0.066058
#
#
# Mechanical properties :
#
#
# Convention : Reuss Voigt Hill
#
# Bulk Modulus (GPa) = 17.52368 35.86265 26.69316
# Shear Modulus (GPa) = 15.04185 25.44158 20.24172
#
# Velocity S-wave (km/s) = 2.57941 3.35461 2.99222
# Velocity P-wave (km/s) = 4.07705 5.55585 4.87288
#
# Compressibility (1/GPa) = 0.05706565
#
# Stress axis : x y z
#
# Youngs Moduli (GPa) = 30.45583 54.31178 35.29915
#
# Poissons Ratio (x) = 0.43313 0.11479
# Poissons Ratio (y) = 0.24288 0.00101
# Poissons Ratio (z) = 0.09904 0.00155
#
# Static dielectric constant tensor:
#      x y z
#    x 3.842370 -0.066440 -0.421370 
#    y -0.066440 4.201060 0.251530 
#    z -0.421370 0.251530 3.918280 
# 
# 
# High freq. dielectric constant tensor:
#      x y z
#    x 1.866530 -0.001150 -0.034800 
#    y -0.001150 1.897060 0.009120 
#    z -0.034800 0.009120 1.875210 
# 
# From -- ./inp_files/349902.got.cif
#   From: 2010.06.25/outbox.cif.g09.slc.cpg/sg2_175_cif.got.tgz:349902.got - 2010.06.27 13:26:56.
