data_PCOD8040312
_publ_section_title
;
Structure prediction by ZEFSAII (Michael W. Deem and Ramdas Pophale) SiO2 
 PCOD8040312
Probable space group: P -1
;
_chemical_formula_sum "Si O2"
_cell_formula_units_Z 16
_cell_length_a 9.008265
_cell_length_b 11.630159
_cell_length_c 13.852956
_cell_angle_alpha 135.191165
_cell_angle_beta 116.497316
_cell_angle_gamma 48.945007
_cell_volume 770.753884
_symmetry_space_group_name_H-M "P -1"
_symmetry_group_IT_number 2
_symmetry_cell_setting 'triclinic'
loop_
_space_group_symop_operation_xyz
x,y,z
-x,-y,-z
loop_
_atom_site_type_symbol
_atom_site_label
_atom_site_fract_x
_atom_site_fract_y
_atom_site_fract_z
Si Si1 0.516156 0.869296 0.263369
Si Si2 0.740380 0.580149 0.884456
Si Si3 0.171311 0.863751 0.542253
Si Si4 0.228958 0.466499 0.727007
Si Si5 0.180602 0.491021 0.347988
Si Si6 0.595768 0.714939 0.520440
Si Si7 0.587051 0.347633 0.020312
Si Si8 0.147456 0.206251 0.824477
O O1 0.580434 0.732025 0.294088
O O2 0.721404 0.792045 0.222585
O O3 0.408205 0.092067 0.395045
O O4 0.366869 0.849873 0.136195
O O5 0.697783 0.600196 0.769973
O O6 0.559627 0.600750 0.902166
O O7 0.922947 0.365419 0.831028
O O8 0.786937 0.742840 0.026317
O O9 0.135686 0.705198 0.482845
O O10 0.377928 0.754005 0.479309
O O11 0.174471 0.995385 0.708756
O O12 0.000000 0.000000 0.500000
O O13 0.262782 0.453125 0.613677
O O14 0.227219 0.652096 0.881164
O O15 0.023758 0.495161 0.711072
O O16 0.315273 0.346926 0.384379
O O17 0.500000 0.500000 0.000000
#
# Coordination Sequence:
#
# PCOD8040312 Si02
#       8
#     2   2   2   2   2   2   2   2
#     4   9  18  39  59  87 112 147 198 248 281 345
#     4  10  18  36  61  86 115 152 187 244 293 339
#     4  11  21  39  60  87 113 148 199 246 280 349
#     4  11  21  39  59  84 116 162 195 239 288 347
#     4  12  23  39  57  86 122 158 193 238 294 352
#     4  11  24  39  58  85 121 157 192 242 299 343
#     4   9  20  35  60  89 115 142 196 247 291 335
#     4   9  18  33  61  88 110 141 198 241 283 340
#
# _framework density 20.758897999999999
#
# number of rings (size 3 to 8) (size 9 to 14) (size 15 to 20)
#    0.000    1.750    2.500    2.625    1.750    0.000 
#    2.250    7.500    0.000    0.000    0.000    0.000 
#    0.000    0.000    0.000    0.000    0.000    0.000 
#
# Total GULP energy -198340.681541 kJ/mol
# GULP energy per Si atom -12396.292596 kJ/mol
# Density = 2.071165 g / cm^3
# Si number density = 20.758898 Si / 1000 Ang^3
#
#
#
# Elastic Constant Matrix: (Units=GPa)
#
#
# Indices 1 2 3 4 5 6 
#
# 1 93.9796 12.9822 48.1163 -1.8754 18.0516 4.5499
# 2 12.9822 47.0169 14.4151 -14.7348 6.0281 2.7790
# 3 48.1163 14.4151 110.4603 -9.2390 10.2301 3.9218
# 4 -1.8754 -14.7348 -9.2390 28.3745 9.4691 -5.7515
# 5 18.0516 6.0281 10.2301 9.4691 41.9371 -1.5694
# 6 4.5499 2.7790 3.9218 -5.7515 -1.5694 14.5049
#
#
#
# Elastic Compliance Matrix: (Units=1/GPa)
#
#
# Indices 1 2 3 4 5 6 
#
# 1 0.014904 -0.001865 -0.005778 -0.001064 -0.004635 -0.003679
# 2 -0.001865 0.028066 -0.000878 0.016683 -0.006734 0.001332
# 3 -0.005778 -0.000878 0.012078 0.003460 -0.001116 -0.000034
# 4 -0.001064 0.016683 0.003460 0.052846 -0.014132 0.015628
# 5 -0.004635 -0.006734 -0.001116 -0.014132 0.030298 0.000721
# 6 -0.003679 0.001332 -0.000034 0.015628 0.000721 0.076125
#
#
# Mechanical properties :
#
#
# Convention : Reuss Voigt Hill
#
# Bulk Modulus (GPa) = 26.31210 44.72047 35.51629
# Shear Modulus (GPa) = 20.48941 28.69286 24.59113
#
# Velocity S-wave (km/s) = 3.14509 3.72182 3.44555
# Velocity P-wave (km/s) = 5.08836 6.32921 5.74240
#
# Compressibility (1/GPa) = 0.03800532
#
# Stress axis : x y z
#
# Youngs Moduli (GPa) = 67.09817 35.63000 82.79294
#
# Poissons Ratio (x) = 0.06647 0.47835
# Poissons Ratio (y) = 0.12517 0.07272
# Poissons Ratio (z) = 0.38767 0.03130
#
# Static dielectric constant tensor:
#      x y z
#    x 3.803290 0.144410 0.323020 
#    y 0.144410 3.368430 0.133560 
#    z 0.323020 0.133560 4.367740 
# 
# 
# High freq. dielectric constant tensor:
#      x y z
#    x 1.810920 0.007580 0.015430 
#    y 0.007580 1.767200 0.001740 
#    z 0.015430 0.001740 1.835470 
# 
# From -- ./inp_files/244982.got.cif
#   From: 2010.06.25/outbox.cif.g09.slc.cpg/sg2_123_cif.got.tgz:244982.got - 2010.06.27 13:26:56.
