data_PCOD8040837
_publ_section_title
;
Structure prediction by ZEFSAII (Michael W. Deem and Ramdas Pophale) SiO2 
 PCOD8040837
Probable space group: P -1
;
_chemical_formula_sum "Si O2"
_cell_formula_units_Z 16
_cell_length_a 15.074014
_cell_length_b 14.752590
_cell_length_c 8.778538
_cell_angle_alpha 77.119923
_cell_angle_beta 94.446567
_cell_angle_gamma 29.069108
_cell_volume 756.461834
_symmetry_space_group_name_H-M "P -1"
_symmetry_group_IT_number 2
_symmetry_cell_setting 'triclinic'
loop_
_space_group_symop_operation_xyz
x,y,z
-x,-y,-z
loop_
_atom_site_type_symbol
_atom_site_label
_atom_site_fract_x
_atom_site_fract_y
_atom_site_fract_z
Si Si1 0.748118 0.943867 0.041277
Si Si2 0.600468 0.006616 0.316751
Si Si3 0.385060 0.177647 0.794699
Si Si4 0.710611 0.190553 0.910474
Si Si5 0.987887 0.341149 0.317527
Si Si6 0.087045 0.516226 0.061716
Si Si7 0.030513 0.977253 0.263197
Si Si8 0.813417 0.309780 0.361303
O O1 0.665210 0.004927 0.178399
O O2 0.961380 0.674011 0.135916
O O3 0.551829 0.106092 0.832627
O O4 0.809307 0.992444 0.012506
O O5 0.636106 0.861552 0.348101
O O6 0.752617 0.894001 0.518952
O O7 0.346119 0.267186 0.231760
O O8 0.142758 0.444019 0.714548
O O9 0.500000 0.000000 0.000000
O O10 0.774581 0.168789 0.762117
O O11 0.446857 0.445739 0.803199
O O12 0.817676 0.150672 0.071389
O O13 0.890378 0.341873 0.379090
O O14 0.959479 0.364769 0.123218
O O15 0.000000 0.500000 0.000000
O O16 0.134799 0.790146 0.435700
O O17 0.953852 0.130139 0.311327
#
# Coordination Sequence:
#
# PCOD8040837 Si02
#       8
#     2   2   2   2   2   2   2   2
#     4  11  21  40  66  90 125 168 206 255 306 366
#     4  11  23  42  61  91 128 169 210 252 300 365
#     4  10  18  39  61  85 122 166 197 247 302 353
#     4  11  21  41  65  91 123 162 205 251 317 370
#     4  12  23  40  67  92 123 169 212 251 307 370
#     4  12  23  41  61  89 130 165 207 261 305 354
#     4  10  24  40  63  95 121 159 204 256 315 377
#     4  11  22  42  64  91 126 160 202 259 312 367
#
# _framework density 21.151098999999999
#
# number of rings (size 3 to 8) (size 9 to 14) (size 15 to 20)
#    0.000    1.000    5.000    3.375    0.000    0.500 
#    2.250    6.250    0.000    0.000    0.000    0.000 
#    0.000    0.000    0.000    0.000    0.000    0.000 
#
# Total GULP energy -198446.718874 kJ/mol
# GULP energy per Si atom -12402.919930 kJ/mol
# Density = 2.110296 g / cm^3
# Si number density = 21.151099 Si / 1000 Ang^3
#
#
#
# Elastic Constant Matrix: (Units=GPa)
#
#
# Indices 1 2 3 4 5 6 
#
# 1 81.7687 9.3918 26.0020 -8.7185 -2.7796 -4.8535
# 2 9.3918 73.6586 23.3980 -20.0223 0.5730 -9.7285
# 3 26.0020 23.3980 77.7447 -20.9095 10.3114 -5.0954
# 4 -8.7185 -20.0223 -20.9095 32.4307 -6.7093 6.3950
# 5 -2.7796 0.5730 10.3114 -6.7093 38.4088 -10.7561
# 6 -4.8535 -9.7285 -5.0954 6.3950 -10.7561 25.3597
#
#
#
# Elastic Compliance Matrix: (Units=1/GPa)
#
#
# Indices 1 2 3 4 5 6 
#
# 1 0.014116 0.000379 -0.004804 0.001023 0.003335 0.003039
# 2 0.000379 0.017586 -0.003250 0.008527 0.003690 0.005581
# 3 -0.004804 -0.003250 0.017991 0.007861 -0.004432 -0.002413
# 4 0.001023 0.008527 0.007861 0.043114 0.004240 -0.004027
# 5 0.003335 0.003690 -0.004432 0.004240 0.031977 0.013657
# 6 0.003039 0.005581 -0.002413 -0.004027 0.013657 0.048478
#
#
# Mechanical properties :
#
#
# Convention : Reuss Voigt Hill
#
# Bulk Modulus (GPa) = 29.11572 38.97285 34.04429
# Shear Modulus (GPa) = 24.99251 30.86519 27.92885
#
# Velocity S-wave (km/s) = 3.44120 3.82418 3.63773
# Velocity P-wave (km/s) = 5.43917 6.16158 5.81161
#
# Compressibility (1/GPa) = 0.03434570
#
# Stress axis : x y z
#
# Youngs Moduli (GPa) = 70.83990 56.86207 55.58313
#
# Poissons Ratio (x) = -0.02157 0.26699
# Poissons Ratio (y) = -0.02688 0.18064
# Poissons Ratio (z) = 0.34028 0.18480
#
# Static dielectric constant tensor:
#      x y z
#    x 4.076040 -0.035580 0.042370 
#    y -0.035580 3.745770 -0.039190 
#    z 0.042370 -0.039190 3.787360 
# 
# 
# High freq. dielectric constant tensor:
#      x y z
#    x 1.837170 -0.006360 0.001460 
#    y -0.006360 1.828470 -0.008460 
#    z 0.001460 -0.008460 1.820520 
# 
# From -- ./inp_files/314907.got.cif
#   From: 2010.06.25/outbox.cif.g09.slc.cpg/sg2_158_cif.got.tgz:314907.got - 2010.06.27 13:26:56.
