data_PCOD8040071
_publ_section_title
;
Structure prediction by ZEFSAII (Michael W. Deem and Ramdas Pophale) SiO2 
 PCOD8040071
Probable space group: P -1
;
_chemical_formula_sum "Si O2"
_cell_formula_units_Z 14
_cell_length_a 8.816162
_cell_length_b 11.109525
_cell_length_c 9.891953
_cell_angle_alpha 78.857561
_cell_angle_beta 87.037426
_cell_angle_gamma 141.773869
_cell_volume 554.165690
_symmetry_space_group_name_H-M "P -1"
_symmetry_group_IT_number 2
_symmetry_cell_setting 'triclinic'
loop_
_space_group_symop_operation_xyz
x,y,z
-x,-y,-z
loop_
_atom_site_type_symbol
_atom_site_label
_atom_site_fract_x
_atom_site_fract_y
_atom_site_fract_z
Si Si1 0.843227 0.565617 0.942526
Si Si2 0.083830 0.871206 0.282109
Si Si3 0.667417 0.246977 0.203253
Si Si4 0.750220 0.725620 0.580759
Si Si5 0.416860 0.643821 0.283843
Si Si6 0.001361 0.075316 0.187780
Si Si7 0.720502 0.416578 0.413389
O O1 0.721274 0.436738 0.836021
O O2 0.146785 0.725127 0.889582
O O3 0.839317 0.709914 0.941173
O O4 0.690661 0.400041 0.106398
O O5 0.963704 0.846863 0.429377
O O6 0.919645 0.646737 0.290688
O O7 0.373668 0.008615 0.254689
O O8 0.085205 0.992096 0.153873
O O9 0.744843 0.309863 0.344805
O O10 0.553392 0.480399 0.650549
O O11 0.575662 0.729497 0.558844
O O12 0.928219 0.857268 0.674470
O O13 0.241170 0.588392 0.426709
O O14 0.695471 0.892165 0.214013
#
# Coordination Sequence:
#
# PCOD8040071 Si02
#       7
#     2   2   2   2   2   2   2
#     4  10  27  45  58  82 131 171 201 250 304 355
#     4  11  20  35  68  97 117 157 205 250 305 363
#     4  11  25  46  60  83 125 173 208 242 301 372
#     4  10  18  35  62  99 130 153 186 252 322 364
#     4  10  20  38  64  95 125 153 197 258 306 356
#     4  11  19  36  67  92 121 160 199 253 309 353
#     4  11  20  37  68  97 121 155 202 248 309 366
#
# _framework density 25.263204000000002
#
# number of rings (size 3 to 8) (size 9 to 14) (size 15 to 20)
#    0.000    1.429    4.286    2.143    0.000    3.429 
#    0.000   14.286    0.000    0.000    0.000    0.000 
#    0.000    0.000    0.000    0.000    0.000    0.000 
#
# Total GULP energy -173526.933638 kJ/mol
# GULP energy per Si atom -12394.780974 kJ/mol
# Density = 2.520570 g / cm^3
# Si number density = 25.263204 Si / 1000 Ang^3
#
#
#
# Elastic Constant Matrix: (Units=GPa)
#
#
# Indices 1 2 3 4 5 6 
#
# 1 8.9784 11.6087 -4.8698 -3.6463 2.1690 4.0315
# 2 11.6087 123.7519 18.9807 -23.9247 2.0249 11.0990
# 3 -4.8698 18.9807 42.3125 -1.2790 0.1537 14.1055
# 4 -3.6463 -23.9247 -1.2790 25.5208 4.2712 -8.4440
# 5 2.1690 2.0249 0.1537 4.2712 34.8366 -4.8599
# 6 4.0315 11.0990 14.1055 -8.4440 -4.8599 22.7839
#
#
#
# Elastic Compliance Matrix: (Units=1/GPa)
#
#
# Indices 1 2 3 4 5 6 
#
# 1 0.201967 -0.022788 0.055356 -0.008337 -0.019708 -0.066200
# 2 -0.022788 0.013373 -0.011229 0.011566 0.000510 0.008865
# 3 0.055356 -0.011229 0.048088 -0.012311 -0.007101 -0.040173
# 4 -0.008337 0.011566 -0.012311 0.056676 -0.003746 0.023669
# 5 -0.019708 0.000510 -0.007101 -0.003746 0.032224 0.013120
# 6 -0.066200 0.008865 -0.040173 0.023669 0.013120 0.087728
#
#
# Mechanical properties :
#
#
# Convention : Reuss Voigt Hill
#
# Bulk Modulus (GPa) = 3.26686 25.16467 14.21576
# Shear Modulus (GPa) = 10.01172 26.58313 18.29743
#
# Velocity S-wave (km/s) = 1.99288 3.24735 2.69415
# Velocity P-wave (km/s) = 2.56736 4.90337 3.91372
#
# Compressibility (1/GPa) = 0.30610472
#
# Stress axis : x y z
#
# Youngs Moduli (GPa) = 4.95130 74.77595 20.79524
#
# Poissons Ratio (x) = 1.70400 -1.15113
# Poissons Ratio (y) = 0.11283 0.23351
# Poissons Ratio (z) = -0.27408 0.83967
#
# Static dielectric constant tensor:
#      x y z
#    x 4.308690 -0.208390 0.293040 
#    y -0.208390 4.745420 -0.157250 
#    z 0.293040 -0.157250 4.452160 
# 
# 
# High freq. dielectric constant tensor:
#      x y z
#    x 1.979150 0.003950 0.004070 
#    y 0.003950 2.028090 -0.009760 
#    z 0.004070 -0.009760 1.993790 
# 
# From -- ./inp_files/390011.got.cif
#   From: 2010.06.25/outbox.cif.g09.slc.cpg/sg2_196_cif.got.tgz:390011.got - 2010.06.27 13:26:56.
