data_PCOD8040485
_publ_section_title
;
Structure prediction by ZEFSAII (Michael W. Deem and Ramdas Pophale) SiO2 
 PCOD8040485
Probable space group: P -1
;
_chemical_formula_sum "Si O2"
_cell_formula_units_Z 12
_cell_length_a 19.996370
_cell_length_b 7.972946
_cell_length_c 8.683217
_cell_angle_alpha 127.519313
_cell_angle_beta 130.336040
_cell_angle_gamma 32.696798
_cell_volume 563.039420
_symmetry_space_group_name_H-M "P -1"
_symmetry_group_IT_number 2
_symmetry_cell_setting 'triclinic'
loop_
_space_group_symop_operation_xyz
x,y,z
-x,-y,-z
loop_
_atom_site_type_symbol
_atom_site_label
_atom_site_fract_x
_atom_site_fract_y
_atom_site_fract_z
Si Si1 0.349819 0.821341 0.960791
Si Si2 0.062694 0.810524 0.775864
Si Si3 0.829308 0.842014 0.388908
Si Si4 0.803521 0.236361 0.786198
Si Si5 0.166291 0.802599 0.627238
Si Si6 0.350915 0.233724 0.365605
O O1 0.268114 0.761064 0.855533
O O2 0.300808 0.981610 0.805192
O O3 0.500000 0.500000 0.000000
O O4 0.321890 0.044902 0.172936
O O5 0.080216 0.524811 0.667379
O O6 0.063762 0.879599 0.636050
O O7 0.178706 0.737955 0.993100
O O8 0.927100 0.128356 0.824593
O O9 0.797077 0.996192 0.597475
O O10 0.899708 0.917601 0.442705
O O11 0.673698 0.575256 0.713928
O O12 0.253133 0.466913 0.488254
O O13 0.500000 0.000000 0.500000
#
# Coordination Sequence:
#
# PCOD8040485 Si02
#       6
#     2   2   2   2   2   2
#     4  10  18  37  59  83 116 151 195 239 287 344
#     4  11  21  39  59  89 124 151 197 241 291 350
#     4   9  20  37  57  83 119 157 189 243 289 336
#     4  10  21  37  60  86 121 159 191 243 294 343
#     4   9  22  35  61  90 113 158 197 238 289 352
#     4  11  19  38  63  84 114 160 196 239 297 343
#
# _framework density 21.312895999999999
#
# number of rings (size 3 to 8) (size 9 to 14) (size 15 to 20)
#    1.000    1.000    3.333    0.500    0.000    4.000 
#    0.000   10.833    0.000    5.000    0.000    0.000 
#    0.000    0.000    0.000    0.000    0.000    0.000 
#
# Total GULP energy -148662.741252 kJ/mol
# GULP energy per Si atom -12388.561771 kJ/mol
# Density = 2.126439 g / cm^3
# Si number density = 21.312896 Si / 1000 Ang^3
#
#
#
# Elastic Constant Matrix: (Units=GPa)
#
#
# Indices 1 2 3 4 5 6 
#
# 1 63.3941 25.8112 28.4497 3.2572 -7.6998 14.3571
# 2 25.8112 116.9944 32.9232 -2.8130 -7.5380 22.2284
# 3 28.4497 32.9232 154.9024 18.6766 5.9999 22.3366
# 4 3.2572 -2.8130 18.6766 47.0010 7.5183 -0.5240
# 5 -7.6998 -7.5380 5.9999 7.5183 29.0523 2.2785
# 6 14.3571 22.2284 22.3366 -0.5240 2.2785 16.3807
#
#
#
# Elastic Compliance Matrix: (Units=1/GPa)
#
#
# Indices 1 2 3 4 5 6 
#
# 1 0.021673 -0.000637 -0.001331 -0.002464 0.007863 -0.017490
# 2 -0.000637 0.012098 -0.000313 0.000028 0.004284 -0.016027
# 3 -0.001331 -0.000313 0.008680 -0.003404 -0.000539 -0.010279
# 4 -0.002464 0.000028 -0.003404 0.023986 -0.006815 0.008478
# 5 0.007863 0.004284 -0.000539 -0.006815 0.040893 -0.017876
# 6 -0.017490 -0.016027 -0.010279 0.008478 -0.017876 0.114899
#
#
# Mechanical properties :
#
#
# Convention : Reuss Voigt Hill
#
# Bulk Modulus (GPa) = 26.39147 56.62877 41.51012
# Shear Modulus (GPa) = 20.88380 35.02727 27.95554
#
# Velocity S-wave (km/s) = 3.13368 4.05838 3.62563
# Velocity P-wave (km/s) = 5.05005 6.97054 6.08652
#
# Compressibility (1/GPa) = 0.03789103
#
# Stress axis : x y z
#
# Youngs Moduli (GPa) = 46.13946 82.66078 115.20590
#
# Poissons Ratio (x) = 0.05263 0.15331
# Poissons Ratio (y) = 0.02938 0.03602
# Poissons Ratio (z) = 0.06140 0.02584
#
# Static dielectric constant tensor:
#      x y z
#    x 3.230280 0.159580 0.104960 
#    y 0.159580 3.798720 -0.178580 
#    z 0.104960 -0.178580 4.763570 
# 
# 
# High freq. dielectric constant tensor:
#      x y z
#    x 1.769550 0.011430 0.013850 
#    y 0.011430 1.842250 -0.017170 
#    z 0.013850 -0.017170 1.884780 
# 
# From -- ./inp_files/146690.got.cif
#   From: 2010.06.25/outbox.cif.g09.slc.cpg/sg2_74_cif.got.tgz:146690.got - 2010.06.27 13:26:56.
