data_PCOD8040201
_publ_section_title
;
Structure prediction by ZEFSAII (Michael W. Deem and Ramdas Pophale) SiO2 
 PCOD8040201
Probable space group: P -1
;
_chemical_formula_sum "Si O2"
_cell_formula_units_Z 16
_cell_length_a 16.790854
_cell_length_b 8.814316
_cell_length_c 9.419321
_cell_angle_alpha 94.230151
_cell_angle_beta 133.888190
_cell_angle_gamma 113.430918
_cell_volume 782.625450
_symmetry_space_group_name_H-M "P -1"
_symmetry_group_IT_number 2
_symmetry_cell_setting 'triclinic'
loop_
_space_group_symop_operation_xyz
x,y,z
-x,-y,-z
loop_
_atom_site_type_symbol
_atom_site_label
_atom_site_fract_x
_atom_site_fract_y
_atom_site_fract_z
Si Si1 0.670548 0.529178 0.585769
Si Si2 0.643331 0.332684 0.950231
Si Si3 0.225519 0.855176 0.994945
Si Si4 0.117513 0.317449 0.917411
Si Si5 0.973341 0.063865 0.327621
Si Si6 0.968860 0.454607 0.628035
Si Si7 0.247285 0.492693 0.616330
Si Si8 0.580716 0.784608 0.553621
O O1 0.667325 0.489510 0.413133
O O2 0.665536 0.704503 0.620388
O O3 0.533627 0.333348 0.471070
O O4 0.816172 0.588964 0.838989
O O5 0.491356 0.221295 0.681436
O O6 0.683220 0.187215 0.987146
O O7 0.758172 0.539566 0.030866
O O8 0.638192 0.393378 0.108084
O O9 0.158087 0.930648 0.817991
O O10 0.092432 0.649015 0.880750
O O11 0.312055 0.994427 0.244538
O O12 0.979117 0.292599 0.692271
O O13 0.073607 0.103211 0.855281
O O14 0.117333 0.268754 0.473001
O O15 0.000000 0.000000 0.500000
O O16 0.817451 0.393606 0.476745
O O17 0.000000 0.500000 0.500000
#
# Coordination Sequence:
#
# PCOD8040201 Si02
#       8
#     2   2   2   2   2   2   2   2
#     4  10  23  38  58  85 119 154 194 247 287 338
#     4  10  20  36  62  83 114 154 196 237 285 346
#     4  10  19  35  61  89 108 150 199 235 282 351
#     4  10  18  36  57  87 116 157 188 226 299 349
#     4  11  20  32  62  91 116 148 190 240 292 353
#     4  10  18  36  63  88 117 151 185 237 294 355
#     4  11  22  37  58  92 119 147 193 242 295 343
#     4  10  21  41  60  80 112 162 204 232 286 342
#
# _framework density 20.444008
#
# number of rings (size 3 to 8) (size 9 to 14) (size 15 to 20)
#    0.000    1.750    5.000    1.125    0.000    1.500 
#    0.000    0.625    2.750    0.000    0.000    0.000 
#    0.000    0.000    0.000    0.000    0.000    0.000 
#
# Total GULP energy -198274.942347 kJ/mol
# GULP energy per Si atom -12392.183897 kJ/mol
# Density = 2.039748 g / cm^3
# Si number density = 20.444008 Si / 1000 Ang^3
#
#
#
# Elastic Constant Matrix: (Units=GPa)
#
#
# Indices 1 2 3 4 5 6 
#
# 1 80.3029 29.5284 49.4715 -6.2722 -18.1510 1.5839
# 2 29.5284 71.5356 42.7652 -10.3337 -2.4588 -24.7443
# 3 49.4715 42.7652 154.4410 -6.6290 -19.0889 -3.0595
# 4 -6.2722 -10.3337 -6.6290 33.8224 -8.4199 -3.7073
# 5 -18.1510 -2.4588 -19.0889 -8.4199 34.0885 -5.3454
# 6 1.5839 -24.7443 -3.0595 -3.7073 -5.3454 20.5810
#
#
#
# Elastic Compliance Matrix: (Units=1/GPa)
#
#
# Indices 1 2 3 4 5 6 
#
# 1 0.019898 -0.011163 -0.002837 -0.000319 0.005945 -0.013888
# 2 -0.011163 0.047226 -0.006319 0.020151 0.008716 0.062592
# 3 -0.002837 -0.006319 0.009261 -0.000711 0.002171 -0.005566
# 4 -0.000319 0.020151 -0.000711 0.043881 0.017461 0.036585
# 5 0.005945 0.008716 0.002171 0.017461 0.042505 0.024529
# 6 -0.013888 0.062592 -0.005566 0.036585 0.024529 0.137044
#
#
# Mechanical properties :
#
#
# Convention : Reuss Voigt Hill
#
# Bulk Modulus (GPa) = 27.97445 61.08998 44.53222
# Shear Modulus (GPa) = 14.18972 29.99936 22.09454
#
# Velocity S-wave (km/s) = 2.63739 3.83481 3.29102
# Velocity P-wave (km/s) = 4.79454 7.03947 6.02253
#
# Compressibility (1/GPa) = 0.03574690
#
# Stress axis : x y z
#
# Youngs Moduli (GPa) = 50.25618 21.17496 107.98049
#
# Poissons Ratio (x) = 0.23638 0.30632
# Poissons Ratio (y) = 0.56102 0.68231
# Poissons Ratio (z) = 0.14257 0.13380
#
# Static dielectric constant tensor:
#      x y z
#    x 3.434940 -0.549910 0.004310 
#    y -0.549910 3.991670 -0.003080 
#    z 0.004310 -0.003080 4.086700 
# 
# 
# High freq. dielectric constant tensor:
#      x y z
#    x 1.758710 -0.040680 -0.002660 
#    y -0.040680 1.783280 -0.003920 
#    z -0.002660 -0.003920 1.822900 
# 
# From -- ./inp_files/261616.got.cif
#   From: 2010.06.25/outbox.cif.g09.slc.cpg/sg2_131_cif.got.tgz:261616.got - 2010.06.27 13:26:56.
