data_PCOD8040235
_publ_section_title
;
Structure prediction by ZEFSAII (Michael W. Deem and Ramdas Pophale) SiO2 
 PCOD8040235
Probable space group: P -1
;
_chemical_formula_sum "Si O2"
_cell_formula_units_Z 16
_cell_length_a 9.338567
_cell_length_b 10.573579
_cell_length_c 8.394538
_cell_angle_alpha 89.733887
_cell_angle_beta 121.439592
_cell_angle_gamma 90.020746
_cell_volume 707.194947
_symmetry_space_group_name_H-M "P -1"
_symmetry_group_IT_number 2
_symmetry_cell_setting 'triclinic'
loop_
_space_group_symop_operation_xyz
x,y,z
-x,-y,-z
loop_
_atom_site_type_symbol
_atom_site_label
_atom_site_fract_x
_atom_site_fract_y
_atom_site_fract_z
Si Si1 0.808729 0.394355 0.938755
Si Si2 0.696574 0.177034 0.332789
Si Si3 0.639602 0.772696 0.700522
Si Si4 0.743157 0.653332 0.065934
Si Si5 0.030865 0.311226 0.525804
Si Si6 0.855973 0.567466 0.702105
Si Si7 0.537905 0.219583 0.913805
Si Si8 0.270908 0.094595 0.546497
O O1 0.730209 0.516208 0.981423
O O2 0.994521 0.362536 0.111828
O O3 0.825664 0.428231 0.759499
O O4 0.684716 0.278076 0.890043
O O5 0.557421 0.224988 0.376540
O O6 0.832276 0.289234 0.399529
O O7 0.782192 0.049143 0.448699
O O8 0.619726 0.149980 0.113601
O O9 0.685453 0.649795 0.620265
O O10 0.691650 0.893101 0.622050
O O11 0.738647 0.762934 0.926862
O O12 0.917836 0.664147 0.262497
O O13 0.589217 0.671131 0.099468
O O14 0.086250 0.433673 0.449380
O O15 0.120074 0.186161 0.508270
O O16 0.439880 0.120988 0.746398
#
# Coordination Sequence:
#
# PCOD8040235 Si02
#       8
#     2   2   2   2   2   2   2   2
#     4  10  18  36  59  81 112 151 181 223 282 329
#     4  11  20  37  60  84 111 148 186 230 277 324
#     4   9  20  39  56  78 116 145 182 236 273 321
#     4   9  20  36  58  81 117 144 182 230 277 327
#     4  10  20  38  57  88 111 145 185 229 275 333
#     4   9  19  36  57  80 114 145 180 229 276 327
#     4  10  20  36  58  87 110 145 189 229 272 331
#     4  10  21  38  59  81 114 147 186 230 277 327
#
# _framework density 22.624594999999999
#
# number of rings (size 3 to 8) (size 9 to 14) (size 15 to 20)
#    0.000    2.250    1.250    1.500    0.000    0.500 
#    6.750   11.875    0.000    0.000    0.000    0.000 
#    0.000    0.000    0.000    0.000    0.000    0.000 
#
# Total GULP energy -198351.048137 kJ/mol
# GULP energy per Si atom -12396.940509 kJ/mol
# Density = 2.257310 g / cm^3
# Si number density = 22.624595 Si / 1000 Ang^3
#
#
#
# Elastic Constant Matrix: (Units=GPa)
#
#
# Indices 1 2 3 4 5 6 
#
# 1 94.4702 18.0757 17.4461 -8.9508 -14.5581 15.2155
# 2 18.0757 37.1243 12.9682 -14.1814 -13.6065 17.6354
# 3 17.4461 12.9682 96.6222 -17.8633 -15.1717 10.4084
# 4 -8.9508 -14.1814 -17.8633 28.8822 4.9423 -0.8929
# 5 -14.5581 -13.6065 -15.1717 4.9423 32.8381 -5.3893
# 6 15.2155 17.6354 10.4084 -0.8929 -5.3893 27.2109
#
#
#
# Elastic Compliance Matrix: (Units=1/GPa)
#
#
# Indices 1 2 3 4 5 6 
#
# 1 0.012525 -0.001354 -0.000581 0.002089 0.003567 -0.005129
# 2 -0.001354 0.058931 0.003526 0.026937 0.015682 -0.034795
# 3 -0.000581 0.003526 0.012948 0.008534 0.004974 -0.005648
# 4 0.002089 0.026937 0.008534 0.052325 0.005007 -0.019181
# 5 0.003567 0.015682 0.004974 0.005007 0.039066 -0.006160
# 6 -0.005129 -0.034795 -0.005648 -0.019181 -0.006160 0.062479
#
#
# Mechanical properties :
#
#
# Convention : Reuss Voigt Hill
#
# Bulk Modulus (GPa) = 11.41732 36.13297 23.77515
# Shear Modulus (GPa) = 18.91873 29.76804 24.34339
#
# Velocity S-wave (km/s) = 2.89485 3.63125 3.28376
# Velocity P-wave (km/s) = 4.02876 5.79539 4.99087
#
# Compressibility (1/GPa) = 0.08758622
#
# Stress axis : x y z
#
# Youngs Moduli (GPa) = 79.83764 16.96912 77.22924
#
# Poissons Ratio (x) = 0.02297 0.04488
# Poissons Ratio (y) = 0.10808 -0.27229
# Poissons Ratio (z) = 0.04639 -0.05983
#
# Static dielectric constant tensor:
#      x y z
#    x 4.239620 0.048500 -0.144760 
#    y 0.048500 3.573580 -0.448070 
#    z -0.144760 -0.448070 4.209890 
# 
# 
# High freq. dielectric constant tensor:
#      x y z
#    x 1.910480 -0.002430 -0.008410 
#    y -0.002430 1.848670 -0.035350 
#    z -0.008410 -0.035350 1.892520 
# 
# From -- ./inp_files/178208.got.cif
#   From: 2010.06.25/outbox.cif.g09.slc.cpg/sg2_90_cif.got.tgz:178208.got - 2010.06.27 13:26:56.
