data_PCOD8040133
_publ_section_title
;
Structure prediction by ZEFSAII (Michael W. Deem and Ramdas Pophale) SiO2 
 PCOD8040133
Probable space group: P -1
;
_chemical_formula_sum "Si O2"
_cell_formula_units_Z 14
_cell_length_a 12.114239
_cell_length_b 18.239373
_cell_length_c 9.242983
_cell_angle_alpha 141.589087
_cell_angle_beta 131.263160
_cell_angle_gamma 28.864234
_cell_volume 610.095626
_symmetry_space_group_name_H-M "P -1"
_symmetry_group_IT_number 2
_symmetry_cell_setting 'triclinic'
loop_
_space_group_symop_operation_xyz
x,y,z
-x,-y,-z
loop_
_atom_site_type_symbol
_atom_site_label
_atom_site_fract_x
_atom_site_fract_y
_atom_site_fract_z
Si Si1 0.077537 0.533285 0.833596
Si Si2 0.265541 0.189886 0.534480
Si Si3 0.562366 0.595236 0.238642
Si Si4 0.174258 0.936436 0.237365
Si Si5 0.920662 0.338057 0.675735
Si Si6 0.633075 0.650012 0.690284
Si Si7 0.217983 0.986861 0.038154
O O1 0.275320 0.310585 0.657900
O O2 0.166684 0.548095 0.791398
O O3 0.827125 0.625531 0.765187
O O4 0.122356 0.598361 0.099925
O O5 0.118722 0.299272 0.722588
O O6 0.500000 0.000000 0.500000
O O7 0.160065 0.160036 0.285794
O O8 0.382782 0.792837 0.306631
O O9 0.535261 0.638830 0.452069
O O10 0.500000 0.500000 0.000000
O O11 0.276367 0.886186 0.085539
O O12 0.004322 0.151379 0.456225
O O13 0.013093 0.921579 0.089202
O O14 0.707514 0.501415 0.638216
O O15 0.429841 0.849044 0.897195
#
# Coordination Sequence:
#
# PCOD8040133 Si02
#       7
#     2   2   2   2   2   2   2
#     4  11  23  44  69  99 134 176 224 276 332 393
#     4  10  18  35  66 100 129 163 219 279 326 380
#     4  12  29  45  65  95 141 182 219 272 339 400
#     4  10  24  44  67 100 136 177 220 273 333 396
#     4  10  21  40  72  99 128 169 226 273 325 395
#     4  11  24  43  68 104 132 174 221 280 336 390
#     4  10  22  41  73  99 132 173 229 274 328 396
#
# _framework density 22.947222
#
# number of rings (size 3 to 8) (size 9 to 14) (size 15 to 20)
#    0.000    1.429    0.000    6.429   10.000    1.143 
#    0.000    1.429    0.000    0.000    0.000    0.000 
#    0.000    0.000    0.000    0.000    0.000    0.000 
#
# Total GULP energy -173436.211969 kJ/mol
# GULP energy per Si atom -12388.300855 kJ/mol
# Density = 2.289499 g / cm^3
# Si number density = 22.947222 Si / 1000 Ang^3
#
#
#
# Elastic Constant Matrix: (Units=GPa)
#
#
# Indices 1 2 3 4 5 6 
#
# 1 76.6987 13.0365 44.6453 8.9154 -3.9854 -14.4727
# 2 13.0365 61.3532 25.8038 -8.8000 -12.8483 -5.8641
# 3 44.6453 25.8038 132.3402 -1.7045 -6.5718 -0.9167
# 4 8.9154 -8.8000 -1.7045 33.3988 -0.8681 -4.5110
# 5 -3.9854 -12.8483 -6.5718 -0.8681 39.6082 -2.2898
# 6 -14.4727 -5.8641 -0.9167 -4.5110 -2.2898 27.7936
#
#
#
# Elastic Compliance Matrix: (Units=1/GPa)
#
#
# Indices 1 2 3 4 5 6 
#
# 1 0.019044 -0.001042 -0.006169 -0.004452 0.000969 0.008851
# 2 -0.001042 0.020676 -0.003237 0.006445 0.006513 0.005296
# 3 -0.006169 -0.003237 0.010248 0.000850 -0.000150 -0.003432
# 4 -0.004452 0.006445 0.000850 0.033586 0.002794 0.004751
# 5 0.000969 0.006513 -0.000150 0.002794 0.027760 0.004614
# 6 0.008851 0.005296 -0.003432 0.004751 0.004614 0.042744
#
#
# Mechanical properties :
#
#
# Convention : Reuss Voigt Hill
#
# Bulk Modulus (GPa) = 34.39642 48.59592 41.49617
# Shear Modulus (GPa) = 27.07891 32.62055 29.84973
#
# Velocity S-wave (km/s) = 3.43891 3.77443 3.61057
# Velocity P-wave (km/s) = 5.54888 6.34179 5.95854
#
# Compressibility (1/GPa) = 0.02907279
#
# Stress axis : x y z
#
# Youngs Moduli (GPa) = 52.50943 48.36466 97.57600
#
# Poissons Ratio (x) = 0.05038 0.60199
# Poissons Ratio (y) = 0.05469 0.31585
# Poissons Ratio (z) = 0.32395 0.15656
#
# Static dielectric constant tensor:
#      x y z
#    x 4.539590 -0.191600 0.702290 
#    y -0.191600 3.952300 -0.224070 
#    z 0.702290 -0.224070 5.283310 
# 
# 
# High freq. dielectric constant tensor:
#      x y z
#    x 1.904450 -0.013510 0.002320 
#    y -0.013510 1.894660 0.004390 
#    z 0.002320 0.004390 1.918000 
# 
# From -- ./inp_files/280156.got.cif
#   From: 2010.06.25/outbox.cif.g09.slc.cpg/sg2_141_cif.got.tgz:280156.got - 2010.06.27 13:26:56.
