data_PCOD8040092
_publ_section_title
;
Structure prediction by ZEFSAII (Michael W. Deem and Ramdas Pophale) SiO2 
 PCOD8040092
Probable space group: P -1
;
_chemical_formula_sum "Si O2"
_cell_formula_units_Z 16
_cell_length_a 14.699203
_cell_length_b 8.289825
_cell_length_c 14.720728
_cell_angle_alpha 73.828995
_cell_angle_beta 130.895793
_cell_angle_gamma 141.095544
_cell_volume 743.967743
_symmetry_space_group_name_H-M "P -1"
_symmetry_group_IT_number 2
_symmetry_cell_setting 'triclinic'
loop_
_space_group_symop_operation_xyz
x,y,z
-x,-y,-z
loop_
_atom_site_type_symbol
_atom_site_label
_atom_site_fract_x
_atom_site_fract_y
_atom_site_fract_z
Si Si1 0.942461 0.103052 0.397116
Si Si2 0.336483 0.485899 0.490089
Si Si3 0.773445 0.101641 0.641226
Si Si4 0.044013 0.585584 0.876981
Si Si5 0.678390 0.915478 0.406649
Si Si6 0.727964 0.825682 0.120396
Si Si7 0.768654 0.445132 0.863666
Si Si8 0.901039 0.890587 0.779216
O O1 0.157839 0.394095 0.437908
O O2 0.858866 0.141415 0.410849
O O3 0.753892 0.857961 0.240750
O O4 0.000000 0.000000 0.500000
O O5 0.381995 0.353115 0.584311
O O6 0.279412 0.390375 0.362225
O O7 0.535146 0.838940 0.564470
O O8 0.929107 0.423307 0.730224
O O9 0.782873 0.103036 0.538198
O O10 0.859642 0.032271 0.756266
O O11 0.852533 0.413364 0.846246
O O12 0.216756 0.929402 0.924338
O O13 0.172620 0.569788 0.998764
O O14 0.481246 0.805902 0.267032
O O15 0.500000 0.500000 0.000000
O O16 0.879525 0.861512 0.169385
O O17 0.893429 0.764801 0.883579
#
# Coordination Sequence:
#
# PCOD8040092 Si02
#       8
#     2   2   2   2   2   2   2   2
#     4   9  20  38  61  95 122 150 208 257 293 368
#     4   9  16  34  62  94 126 156 200 246 306 356
#     4  11  19  36  64  97 121 159 201 254 311 353
#     4  10  25  39  59  91 127 158 205 260 303 358
#     4  10  18  35  63  92 126 162 202 246 299 366
#     4  10  22  45  64  81 120 173 205 243 316 372
#     4  10  19  41  56  88 132 155 208 254 294 358
#     4   9  17  35  65  90 120 160 204 249 292 369
#
# _framework density 21.506308000000001
#
# number of rings (size 3 to 8) (size 9 to 14) (size 15 to 20)
#    0.000    2.250    2.500    1.500    0.000    2.000 
#   13.500    3.125    0.000    0.000    0.000    0.000 
#    0.000    0.000    0.000    0.000    0.000    0.000 
#
# Total GULP energy -198282.188554 kJ/mol
# GULP energy per Si atom -12392.636785 kJ/mol
# Density = 2.145736 g / cm^3
# Si number density = 21.506308 Si / 1000 Ang^3
#
#
#
# Elastic Constant Matrix: (Units=GPa)
#
#
# Indices 1 2 3 4 5 6 
#
# 1 100.6212 32.5766 55.3221 8.9748 7.2837 18.7659
# 2 32.5766 69.8395 51.5660 7.9385 -0.8843 8.0923
# 3 55.3221 51.5660 139.4905 4.5891 5.8467 3.3563
# 4 8.9748 7.9385 4.5891 38.0622 -5.4181 -1.2561
# 5 7.2837 -0.8843 5.8467 -5.4181 32.8199 -6.9116
# 6 18.7659 8.0923 3.3563 -1.2561 -6.9116 17.7876
#
#
#
# Elastic Compliance Matrix: (Units=1/GPa)
#
#
# Indices 1 2 3 4 5 6 
#
# 1 0.018797 -0.001401 -0.005872 -0.005383 -0.008649 -0.021827
# 2 -0.001401 0.021430 -0.007081 -0.003513 0.000062 -0.007160
# 3 -0.005872 -0.007081 0.011833 0.001819 0.000920 0.007670
# 4 -0.005383 -0.003513 0.001819 0.029633 0.008244 0.012230
# 5 -0.008649 0.000062 0.000920 0.008244 0.038761 0.024565
# 6 -0.021827 -0.007160 0.007670 0.012230 0.024565 0.091465
#
#
# Mechanical properties :
#
#
# Convention : Reuss Voigt Hill
#
# Bulk Modulus (GPa) = 42.82434 65.43119 54.12776
# Shear Modulus (GPa) = 20.12794 29.09971 24.61383
#
# Velocity S-wave (km/s) = 3.06258 3.68241 3.38671
# Velocity P-wave (km/s) = 5.69750 6.96925 6.36522
#
# Compressibility (1/GPa) = 0.02335121
#
# Stress axis : x y z
#
# Youngs Moduli (GPa) = 53.19911 46.66334 84.51069
#
# Poissons Ratio (x) = 0.06536 0.49629
# Poissons Ratio (y) = 0.07451 0.59846
# Poissons Ratio (z) = 0.31241 0.33044
#
# Static dielectric constant tensor:
#      x y z
#    x 4.144950 0.271900 0.254780 
#    y 0.271900 3.778200 -0.249420 
#    z 0.254780 -0.249420 3.906900 
# 
# 
# High freq. dielectric constant tensor:
#      x y z
#    x 1.840380 0.009070 0.018290 
#    y 0.009070 1.824640 -0.019730 
#    z 0.018290 -0.019730 1.839380 
# 
# From -- ./inp_files/346171.got.cif
#   From: 2010.06.25/outbox.cif.g09.slc.cpg/sg2_174_cif.got.tgz:346171.got - 2010.06.27 13:26:56.
