data_PCOD8040421
_publ_section_title
;
Structure prediction by ZEFSAII (Michael W. Deem and Ramdas Pophale) SiO2 
 PCOD8040421
Probable space group: P -1
;
_chemical_formula_sum "Si O2"
_cell_formula_units_Z 16
_cell_length_a 19.916043
_cell_length_b 14.866068
_cell_length_c 10.778164
_cell_angle_alpha 50.776073
_cell_angle_beta 32.599932
_cell_angle_gamma 29.763035
_cell_volume 792.891932
_symmetry_space_group_name_H-M "P -1"
_symmetry_group_IT_number 2
_symmetry_cell_setting 'triclinic'
loop_
_space_group_symop_operation_xyz
x,y,z
-x,-y,-z
loop_
_atom_site_type_symbol
_atom_site_label
_atom_site_fract_x
_atom_site_fract_y
_atom_site_fract_z
Si Si1 0.109928 0.431541 0.020532
Si Si2 0.127135 0.051520 0.825030
Si Si3 0.600351 0.519768 0.914299
Si Si4 0.622939 0.298997 0.636668
Si Si5 0.731676 0.455248 0.209772
Si Si6 0.504624 0.942031 0.360708
Si Si7 0.984788 0.084577 0.757535
Si Si8 0.313149 0.293851 0.465305
O O1 0.941450 0.518838 0.310665
O O2 0.186340 0.505465 0.861745
O O3 0.318895 0.194660 0.903132
O O4 0.000000 0.500000 0.000000
O O5 0.119345 0.005594 0.739997
O O6 0.322101 0.989107 0.578772
O O7 0.915458 0.278197 0.986677
O O8 0.156064 0.925334 0.989859
O O9 0.607975 0.634511 0.728668
O O10 0.836398 0.303736 0.766709
O O11 0.500000 0.500000 0.000000
O O12 0.458813 0.646271 0.144320
O O13 0.651989 0.412330 0.459787
O O14 0.457522 0.363269 0.743762
O O15 0.845963 0.065106 0.484594
O O16 0.616952 0.819351 0.418751
O O17 0.412635 0.141293 0.333509
#
# Coordination Sequence:
#
# PCOD8040421 Si02
#       8
#     2   2   2   2   2   2   2   2
#     4  10  21  35  61  92 121 159 204 259 306 359
#     4  10  18  36  66  91 121 154 211 265 302 354
#     4  12  26  42  61  90 135 167 198 251 321 379
#     4  10  23  39  62  94 123 168 207 257 308 367
#     4  10  19  38  65  94 126 153 217 266 301 359
#     4  10  20  38  63  88 116 162 210 255 302 357
#     4  10  22  38  60  93 121 163 207 252 309 369
#     4  10  23  40  57  89 125 162 205 250 306 377
#
# _framework density 20.179296000000001
#
# number of rings (size 3 to 8) (size 9 to 14) (size 15 to 20)
#    0.000    1.750    2.500    1.500    7.000    1.500 
#    0.000    2.500    0.000    3.000    0.000    0.000 
#    0.000    0.000    0.000    0.000    0.000    0.000 
#
# Total GULP energy -198355.295346 kJ/mol
# GULP energy per Si atom -12397.205959 kJ/mol
# Density = 2.013337 g / cm^3
# Si number density = 20.179296 Si / 1000 Ang^3
#
#
#
# Elastic Constant Matrix: (Units=GPa)
#
#
# Indices 1 2 3 4 5 6 
#
# 1 75.5550 21.8901 34.0582 -3.4217 -12.0702 23.7130
# 2 21.8901 98.3969 59.1030 15.9029 5.9716 27.8772
# 3 34.0582 59.1030 118.6083 17.6247 -6.4433 17.3984
# 4 -3.4217 15.9029 17.6247 29.4276 11.6880 -2.8667
# 5 -12.0702 5.9716 -6.4433 11.6880 37.0587 -1.7378
# 6 23.7130 27.8772 17.3984 -2.8667 -1.7378 28.3487
#
#
#
# Elastic Compliance Matrix: (Units=1/GPa)
#
#
# Indices 1 2 3 4 5 6 
#
# 1 0.020468 0.002494 -0.004489 0.000276 0.004623 -0.016508
# 2 0.002494 0.020646 -0.007265 -0.007430 -0.002317 -0.018824
# 3 -0.004489 -0.007265 0.014340 -0.006775 0.004418 0.001684
# 4 0.000276 -0.007430 -0.006775 0.049445 -0.014766 0.015328
# 5 0.004623 -0.002317 0.004418 -0.014766 0.034115 -0.003702
# 6 -0.016508 -0.018824 0.001684 0.015328 -0.003702 0.067884
#
#
# Mechanical properties :
#
#
# Convention : Reuss Voigt Hill
#
# Bulk Modulus (GPa) = 27.07392 58.07364 42.57378
# Shear Modulus (GPa) = 21.03234 30.80092 25.91663
#
# Velocity S-wave (km/s) = 3.23193 3.91111 3.58763
# Velocity P-wave (km/s) = 5.23192 7.01691 6.18910
#
# Compressibility (1/GPa) = 0.03693592
#
# Stress axis : x y z
#
# Youngs Moduli (GPa) = 48.85630 48.43475 69.73532
#
# Poissons Ratio (x) = -0.12082 0.31303
# Poissons Ratio (y) = -0.12187 0.50663
# Poissons Ratio (z) = 0.21930 0.35188
#
# Static dielectric constant tensor:
#      x y z
#    x 3.580650 0.308080 -0.033610 
#    y 0.308080 3.815830 0.493240 
#    z -0.033610 0.493240 4.064160 
# 
# 
# High freq. dielectric constant tensor:
#      x y z
#    x 1.779700 0.026320 -0.010410 
#    y 0.026320 1.774970 0.028960 
#    z -0.010410 0.028960 1.797270 
# 
# From -- ./inp_files/436939.got.cif
#   From: 2010.06.25/outbox.cif.g09.slc.cpg/sg2_219_cif.got.tgz:436939.got - 2010.06.27 13:26:56.
