data_PCOD8040013
_publ_section_title
;
Structure prediction by ZEFSAII (Michael W. Deem and Ramdas Pophale) SiO2 
 PCOD8040013
Probable space group: P -1
;
_chemical_formula_sum "Si O2"
_cell_formula_units_Z 14
_cell_length_a 19.623854
_cell_length_b 9.704948
_cell_length_c 8.698651
_cell_angle_alpha 77.138252
_cell_angle_beta 78.537623
_cell_angle_gamma 26.778200
_cell_volume 727.654610
_symmetry_space_group_name_H-M "P -1"
_symmetry_group_IT_number 2
_symmetry_cell_setting 'triclinic'
loop_
_space_group_symop_operation_xyz
x,y,z
-x,-y,-z
loop_
_atom_site_type_symbol
_atom_site_label
_atom_site_fract_x
_atom_site_fract_y
_atom_site_fract_z
Si Si1 0.534077 0.737341 0.637522
Si Si2 0.808211 0.713185 0.821128
Si Si3 0.689222 0.733710 0.633473
Si Si4 0.243687 0.895732 0.403970
Si Si5 0.952175 0.243515 0.419489
Si Si6 0.901523 0.740022 0.345279
Si Si7 0.239064 0.241194 0.815150
O O1 0.663184 0.611906 0.672688
O O2 0.607605 0.456967 0.624601
O O3 0.452068 0.941861 0.471080
O O4 0.418188 0.927913 0.783252
O O5 0.705261 0.770108 0.787859
O O6 0.986365 0.369907 0.785282
O O7 0.746501 0.970706 0.715163
O O8 0.790526 0.750120 0.001307
O O9 0.848613 0.487061 0.545003
O O10 0.230296 0.932785 0.588505
O O11 0.096459 0.079352 0.365235
O O12 0.845120 0.456723 0.262423
O O13 0.000000 0.000000 0.500000
O O14 0.826837 0.755745 0.271723
O O15 0.000000 0.500000 0.500000
#
# Coordination Sequence:
#
# PCOD8040013 Si02
#       7
#     2   2   2   2   2   2   2
#     4  10  22  38  60  87 116 157 196 238 287 345
#     4  11  22  37  62  88 121 154 190 241 297 346
#     4  10  21  39  61  85 117 156 199 237 286 345
#     4  11  20  36  65  90 112 149 204 246 280 339
#     4  11  19  36  64  86 111 154 204 243 276 342
#     4  10  18  35  61  87 107 149 199 242 276 332
#     4  11  23  38  59  87 125 154 187 237 305 348
#
# _framework density 19.239899000000001
#
# number of rings (size 3 to 8) (size 9 to 14) (size 15 to 20)
#    0.000    1.429    5.714    3.000    0.000    3.429 
#    0.000    0.714    3.143    0.000    0.000    0.000 
#    0.000    0.000    0.000    0.000    0.000    0.000 
#
# Total GULP energy -173489.880947 kJ/mol
# GULP energy per Si atom -12392.134353 kJ/mol
# Density = 1.919611 g / cm^3
# Si number density = 19.239899 Si / 1000 Ang^3
#
#
#
# Elastic Constant Matrix: (Units=GPa)
#
#
# Indices 1 2 3 4 5 6 
#
# 1 91.9909 28.1384 39.2797 1.3112 9.2329 5.3433
# 2 28.1384 101.4220 41.7078 7.8139 -2.2342 13.5515
# 3 39.2797 41.7078 117.0913 23.8531 3.1554 4.6070
# 4 1.3112 7.8139 23.8531 18.2644 -2.7941 -5.0128
# 5 9.2329 -2.2342 3.1554 -2.7941 20.3155 2.8648
# 6 5.3433 13.5515 4.6070 -5.0128 2.8648 32.1505
#
#
#
# Elastic Compliance Matrix: (Units=1/GPa)
#
#
# Indices 1 2 3 4 5 6 
#
# 1 0.014163 -0.002587 -0.004936 0.005964 -0.005253 0.000842
# 2 -0.002587 0.012803 -0.003174 -0.002018 0.003524 -0.005140
# 3 -0.004936 -0.003174 0.015560 -0.019843 -0.002841 -0.002912
# 4 0.005964 -0.002018 -0.019843 0.086835 0.009927 0.015357
# 5 -0.005253 0.003524 -0.002841 0.009927 0.054298 -0.003496
# 6 0.000842 -0.005140 -0.002912 0.015357 -0.003496 0.036254
#
#
# Mechanical properties :
#
#
# Convention : Reuss Voigt Hill
#
# Bulk Modulus (GPa) = 47.32318 58.75066 53.03692
# Shear Modulus (GPa) = 20.13274 27.57130 23.85202
#
# Velocity S-wave (km/s) = 3.23833 3.78964 3.52478
# Velocity P-wave (km/s) = 6.21548 7.05341 6.64766
#
# Compressibility (1/GPa) = 0.02113129
#
# Stress axis : x y z
#
# Youngs Moduli (GPa) = 70.60627 78.10801 64.26598
#
# Poissons Ratio (x) = 0.20208 0.31723
# Poissons Ratio (y) = 0.18267 0.20399
# Poissons Ratio (z) = 0.34852 0.24792
#
# Static dielectric constant tensor:
#      x y z
#    x 3.767620 0.092920 0.068360 
#    y 0.092920 3.826470 0.255550 
#    z 0.068360 0.255550 3.422750 
# 
# 
# High freq. dielectric constant tensor:
#      x y z
#    x 1.756980 -0.007150 -0.000260 
#    y -0.007150 1.744740 0.017650 
#    z -0.000260 0.017650 1.719980 
# 
# From -- ./inp_files/153824.got.cif
#   From: 2010.06.25/outbox.cif.g09.slc.cpg/sg2_77_cif.got.tgz:153824.got - 2010.06.27 13:26:56.
