data_PCOD8040017
_publ_section_title
;
Structure prediction by ZEFSAII (Michael W. Deem and Ramdas Pophale) SiO2 
 PCOD8040017
Probable space group: P -1
;
_chemical_formula_sum "Si O2"
_cell_formula_units_Z 14
_cell_length_a 16.990277
_cell_length_b 9.739923
_cell_length_c 11.289787
_cell_angle_alpha 70.145948
_cell_angle_beta 34.168243
_cell_angle_gamma 95.217200
_cell_volume 700.802439
_symmetry_space_group_name_H-M "P -1"
_symmetry_group_IT_number 2
_symmetry_cell_setting 'triclinic'
loop_
_space_group_symop_operation_xyz
x,y,z
-x,-y,-z
loop_
_atom_site_type_symbol
_atom_site_label
_atom_site_fract_x
_atom_site_fract_y
_atom_site_fract_z
Si Si1 0.268428 0.082719 0.424409
Si Si2 0.306014 0.723747 0.798441
Si Si3 0.319582 0.677035 0.251029
Si Si4 0.935046 0.364595 0.235005
Si Si5 0.690594 0.956879 0.353633
Si Si6 0.962748 0.799593 0.321208
Si Si7 0.178167 0.738420 0.200549
O O1 0.337402 0.148404 0.456365
O O2 0.156131 0.146341 0.506852
O O3 0.118025 0.838829 0.671377
O O4 0.452628 0.204523 0.069472
O O5 0.512466 0.785215 0.532104
O O6 0.312060 0.870774 0.663225
O O7 0.299056 0.785082 0.920573
O O8 0.118882 0.489113 0.062590
O O9 0.252402 0.689352 0.458418
O O10 0.184085 0.440019 0.457895
O O11 0.306319 0.805642 0.138950
O O12 0.000000 0.500000 0.000000
O O13 0.898441 0.063203 0.004809
O O14 0.097449 0.844974 0.252036
O O15 0.000000 0.500000 0.500000
#
# Coordination Sequence:
#
# PCOD8040017 Si02
#       7
#     2   2   2   2   2   2   2
#     4  12  23  36  59  95 125 152 190 255 308 341
#     4  10  18  35  61  89 108 156 208 242 271 351
#     4  11  21  40  62  87 115 165 203 238 286 364
#     4  12  23  39  59  90 126 154 192 249 305 353
#     4  10  19  35  63  86 112 158 207 236 283 352
#     4  10  21  37  59  92 122 151 200 253 291 340
#     4   9  16  34  64  81 109 152 212 236 273 342
#
# _framework density 19.9771
#
# number of rings (size 3 to 8) (size 9 to 14) (size 15 to 20)
#    0.000    1.429    7.143    1.286    0.000    0.000 
#    0.000    1.429    0.000    1.714    0.000    0.000 
#    0.000    0.000    0.000    0.000    0.000    0.000 
#
# Total GULP energy -173492.654974 kJ/mol
# GULP energy per Si atom -12392.332498 kJ/mol
# Density = 1.993163 g / cm^3
# Si number density = 19.977100 Si / 1000 Ang^3
#
#
#
# Elastic Constant Matrix: (Units=GPa)
#
#
# Indices 1 2 3 4 5 6 
#
# 1 78.0215 43.5523 45.1462 19.5805 1.6286 -12.2422
# 2 43.5523 83.6403 31.5716 13.1780 -4.9183 -16.2879
# 3 45.1462 31.5716 110.8437 11.6085 -5.7054 -6.1647
# 4 19.5805 13.1780 11.6085 22.8846 1.6896 -5.0624
# 5 1.6286 -4.9183 -5.7054 1.6896 35.3302 -1.2118
# 6 -12.2422 -16.2879 -6.1647 -5.0624 -1.2118 23.9379
#
#
#
# Elastic Compliance Matrix: (Units=1/GPa)
#
#
# Indices 1 2 3 4 5 6 
#
# 1 0.024621 -0.008078 -0.006416 -0.012371 -0.002612 0.002694
# 2 -0.008078 0.018639 -0.001238 -0.001644 0.003122 0.008042
# 3 -0.006416 -0.001238 0.012069 -0.000286 0.002053 -0.000972
# 4 -0.012371 -0.001644 -0.000286 0.056495 -0.002259 0.004314
# 5 -0.002612 0.003122 0.002053 -0.002259 0.029379 0.002327
# 6 0.002694 0.008042 -0.000972 0.004314 0.002327 0.049404
#
#
# Mechanical properties :
#
#
# Convention : Reuss Voigt Hill
#
# Bulk Modulus (GPa) = 41.90565 57.00508 49.45537
# Shear Modulus (GPa) = 21.73661 26.57956 24.15809
#
# Velocity S-wave (km/s) = 3.30218 3.65156 3.48126
# Velocity P-wave (km/s) = 5.96335 6.80997 6.40067
#
# Compressibility (1/GPa) = 0.02386313
#
# Stress axis : x y z
#
# Youngs Moduli (GPa) = 40.61619 53.65207 82.85539
#
# Poissons Ratio (x) = 0.43341 0.53160
# Poissons Ratio (y) = 0.32811 0.10261
# Poissons Ratio (z) = 0.26059 0.06645
#
# Static dielectric constant tensor:
#      x y z
#    x 3.976980 -0.111670 -0.059950 
#    y -0.111670 3.247000 -0.030090 
#    z -0.059950 -0.030090 3.876370 
# 
# 
# High freq. dielectric constant tensor:
#      x y z
#    x 1.771310 -0.009850 0.000950 
#    y -0.009850 1.727690 -0.003400 
#    z 0.000950 -0.003400 1.805670 
# 
# From -- ./inp_files/174542.got.cif
#   From: 2010.06.25/outbox.cif.g09.slc.cpg/sg2_88_cif.got.tgz:174542.got - 2010.06.27 13:26:56.
