data_PCOD8040281
_publ_section_title
;
Structure prediction by ZEFSAII (Michael W. Deem and Ramdas Pophale) SiO2 
 PCOD8040281
Probable space group: P -1
;
_chemical_formula_sum "Si O2"
_cell_formula_units_Z 14
_cell_length_a 12.220228
_cell_length_b 13.212849
_cell_length_c 13.909158
_cell_angle_alpha 62.789493
_cell_angle_beta 89.422869
_cell_angle_gamma 33.930555
_cell_volume 744.949963
_symmetry_space_group_name_H-M "P -1"
_symmetry_group_IT_number 2
_symmetry_cell_setting 'triclinic'
loop_
_space_group_symop_operation_xyz
x,y,z
-x,-y,-z
loop_
_atom_site_type_symbol
_atom_site_label
_atom_site_fract_x
_atom_site_fract_y
_atom_site_fract_z
Si Si1 0.691328 0.817237 0.674187
Si Si2 0.771190 0.307590 0.411644
Si Si3 0.928396 0.392238 0.340738
Si Si4 0.815852 0.251212 0.819338
Si Si5 0.478090 0.260731 0.278803
Si Si6 0.763829 0.631149 0.432895
Si Si7 0.962896 0.864242 0.320817
O O1 0.004487 0.578894 0.755358
O O2 0.729553 0.648854 0.781186
O O3 0.500000 0.000000 0.500000
O O4 0.542285 0.034833 0.664609
O O5 0.450463 0.565195 0.298819
O O6 0.856816 0.247531 0.547432
O O7 0.775070 0.421384 0.298258
O O8 0.000000 0.000000 0.500000
O O9 0.722728 0.647975 0.312428
O O10 0.241127 0.053465 0.528599
O O11 0.708077 0.469130 0.777836
O O12 0.025255 0.076641 0.803163
O O13 0.000000 0.000000 0.000000
O O14 0.618026 0.180883 0.215193
O O15 0.880024 0.407586 0.583859
O O16 0.000000 0.500000 0.500000
#
# Coordination Sequence:
#
# PCOD8040281 Si02
#       7
#     2   2   2   2   2   2   2
#     4  10  15  25  47  76 109 131 168 223 274 313
#     4  10  19  39  55  79 113 141 185 228 268 319
#     4   9  18  28  50  77 107 139 167 225 272 311
#     4  12  24  37  56  80 110 152 187 218 271 326
#     4   9  18  32  49  80 109 138 179 224 271 318
#     4  10  15  25  46  83 109 128 170 223 274 316
#     4  10  20  34  57  81 112 143 179 229 274 311
#
# _framework density 18.793209999999998
#
# number of rings (size 3 to 8) (size 9 to 14) (size 15 to 20)
#    0.000    2.286    7.143    2.143    0.000    0.571 
#    0.000    0.000    0.000    0.857    0.000    5.000 
#    0.000    0.000    0.000    0.000    0.000    0.000 
#
# Total GULP energy -173469.228116 kJ/mol
# GULP energy per Si atom -12390.659151 kJ/mol
# Density = 1.875044 g / cm^3
# Si number density = 18.793210 Si / 1000 Ang^3
#
#
#
# Elastic Constant Matrix: (Units=GPa)
#
#
# Indices 1 2 3 4 5 6 
#
# 1 152.3167 72.0430 26.9344 20.0408 -17.0215 -7.7194
# 2 72.0430 132.5615 28.9520 16.4607 -10.7175 -1.5822
# 3 26.9344 28.9520 44.0166 11.0652 -13.2119 -3.6511
# 4 20.0408 16.4607 11.0652 10.3767 -4.6298 -6.8668
# 5 -17.0215 -10.7175 -13.2119 -4.6298 9.7384 8.1148
# 6 -7.7194 -1.5822 -3.6511 -6.8668 8.1148 44.5989
#
#
#
# Elastic Compliance Matrix: (Units=1/GPa)
#
#
# Indices 1 2 3 4 5 6 
#
# 1 0.011327 -0.003917 0.004062 -0.014637 0.016646 -0.003128
# 2 -0.003917 0.011334 -0.003729 -0.008392 -0.002194 -0.001474
# 3 0.004062 -0.003729 0.049551 -0.034286 0.064197 -0.012332
# 4 -0.014637 -0.008392 -0.034286 0.184818 -0.014713 0.025495
# 5 0.016646 -0.002194 0.064197 -0.014713 0.241212 -0.038095
# 6 -0.003128 -0.001474 -0.012332 0.025495 -0.038095 0.031676
#
#
# Mechanical properties :
#
#
# Convention : Reuss Voigt Hill
#
# Bulk Modulus (GPa) = 15.37427 64.97262 40.17344
# Shear Modulus (GPa) = 8.94824 26.34049 17.64437
#
# Velocity S-wave (km/s) = 2.18444 3.74785 3.06742
# Velocity P-wave (km/s) = 3.81587 7.30589 5.82824
#
# Compressibility (1/GPa) = 0.06504375
#
# Stress axis : x y z
#
# Youngs Moduli (GPa) = 88.28254 88.22971 20.18103
#
# Poissons Ratio (x) = 0.34560 -0.08197
# Poissons Ratio (y) = 0.34581 0.07526
# Poissons Ratio (z) = -0.35858 0.32903
#
# Static dielectric constant tensor:
#      x y z
#    x 4.133680 -0.102900 -0.214400 
#    y -0.102900 3.715560 0.049050 
#    z -0.214400 0.049050 2.714850 
# 
# 
# High freq. dielectric constant tensor:
#      x y z
#    x 1.762150 0.000360 -0.013700 
#    y 0.000360 1.744930 0.011550 
#    z -0.013700 0.011550 1.640620 
# 
# From -- ./inp_files/201158.got.cif
#   From: 2010.06.25/outbox.cif.g09.slc.cpg/sg2_101_cif.got.tgz:201158.got - 2010.06.27 13:26:56.
