data_PCOD8040267
_publ_section_title
;
Structure prediction by ZEFSAII (Michael W. Deem and Ramdas Pophale) SiO2 
 PCOD8040267
Probable space group: P -1
;
_chemical_formula_sum "Si O2"
_cell_formula_units_Z 16
_cell_length_a 17.672371
_cell_length_b 14.951442
_cell_length_c 6.782451
_cell_angle_alpha 54.321431
_cell_angle_beta 107.980646
_cell_angle_gamma 144.347939
_cell_volume 795.147718
_symmetry_space_group_name_H-M "P -1"
_symmetry_group_IT_number 2
_symmetry_cell_setting 'triclinic'
loop_
_space_group_symop_operation_xyz
x,y,z
-x,-y,-z
loop_
_atom_site_type_symbol
_atom_site_label
_atom_site_fract_x
_atom_site_fract_y
_atom_site_fract_z
Si Si1 0.045753 0.910757 0.298214
Si Si2 0.136090 0.334702 0.202352
Si Si3 0.630609 0.381711 0.667632
Si Si4 0.131587 0.772702 0.436214
Si Si5 0.377062 0.783149 0.466545
Si Si6 0.803475 0.707969 0.096132
Si Si7 0.552667 0.894943 0.806547
Si Si8 0.070511 0.467651 0.770998
O O1 0.081306 0.822049 0.450874
O O2 0.971990 0.863097 0.505999
O O3 0.944373 0.813871 0.155932
O O4 0.181266 0.141904 0.085568
O O5 0.246370 0.503030 0.231512
O O6 0.209289 0.352251 0.059584
O O7 0.049550 0.345253 0.062967
O O8 0.598985 0.237198 0.704248
O O9 0.671047 0.526698 0.360938
O O10 0.497755 0.247334 0.878119
O O11 0.087953 0.606553 0.716105
O O12 0.065520 0.688834 0.273543
O O13 0.296470 0.972908 0.305593
O O14 0.446496 0.777712 0.687424
O O15 0.211988 0.601744 0.594887
O O16 0.447315 0.981200 0.269679
#
# Coordination Sequence:
#
# PCOD8040267 Si02
#       8
#     2   2   2   2   2   2   2   2
#     4  10  21  36  56  84 114 152 186 238 288 330
#     4  11  19  35  62  86 109 145 194 239 282 329
#     4  11  19  34  60  86 107 152 196 231 276 332
#     4  10  21  37  55  85 125 146 179 232 290 340
#     4  10  19  37  57  83 117 147 196 231 271 338
#     4  10  20  36  59  83 112 144 201 242 269 329
#     4  10  21  35  57  83 119 154 181 233 281 336
#     4  10  18  36  60  83 117 150 177 236 282 337
#
# _framework density 20.122046999999998
#
# number of rings (size 3 to 8) (size 9 to 14) (size 15 to 20)
#    0.000    1.750    3.750    1.500    0.000    0.500 
#    2.250    0.625    0.000    3.000    0.000    0.000 
#    0.000    0.000    0.000    0.000    0.000    0.000 
#
# Total GULP energy -198226.407135 kJ/mol
# GULP energy per Si atom -12389.150446 kJ/mol
# Density = 2.007625 g / cm^3
# Si number density = 20.122047 Si / 1000 Ang^3
#
#
#
# Elastic Constant Matrix: (Units=GPa)
#
#
# Indices 1 2 3 4 5 6 
#
# 1 52.7048 18.8538 8.1707 1.5203 1.5458 -6.9184
# 2 18.8538 75.8953 28.6429 4.5532 -2.5669 -6.1515
# 3 8.1707 28.6429 97.3810 -2.1920 -11.3520 -6.3492
# 4 1.5203 4.5532 -2.1920 28.2597 -3.7429 -1.7806
# 5 1.5458 -2.5669 -11.3520 -3.7429 17.1759 -1.4420
# 6 -6.9184 -6.1515 -6.3492 -1.7806 -1.4420 28.9297
#
#
#
# Elastic Compliance Matrix: (Units=1/GPa)
#
#
# Indices 1 2 3 4 5 6 
#
# 1 0.021390 -0.004902 -0.000435 -0.000517 -0.002738 0.003809
# 2 -0.004902 0.016303 -0.004436 -0.002709 -0.000550 0.001127
# 3 -0.000435 -0.004436 0.012853 0.003043 0.008736 0.002396
# 4 -0.000517 -0.002709 0.003043 0.037597 0.010080 0.002785
# 5 -0.002738 -0.000550 0.008736 0.010080 0.066783 0.005095
# 6 0.003809 0.001127 0.002396 0.002785 0.005095 0.036668
#
#
# Mechanical properties :
#
#
# Convention : Reuss Voigt Hill
#
# Bulk Modulus (GPa) = 32.25800 37.47953 34.86877
# Shear Modulus (GPa) = 22.57600 26.22731 24.40166
#
# Velocity S-wave (km/s) = 3.35319 3.61420 3.48614
# Velocity P-wave (km/s) = 5.57296 6.00692 5.79400
#
# Compressibility (1/GPa) = 0.03100006
#
# Stress axis : x y z
#
# Youngs Moduli (GPa) = 46.75084 61.33818 77.80180
#
# Poissons Ratio (x) = 0.30069 0.03387
# Poissons Ratio (y) = 0.22918 0.34509
# Poissons Ratio (z) = 0.02035 0.27207
#
# Static dielectric constant tensor:
#      x y z
#    x 3.320940 -0.092300 0.129180 
#    y -0.092300 3.701160 -0.142620 
#    z 0.129180 -0.142620 3.900910 
# 
# 
# High freq. dielectric constant tensor:
#      x y z
#    x 1.740650 -0.011550 0.002750 
#    y -0.011550 1.792190 -0.006610 
#    z 0.002750 -0.006610 1.791270 
# 
# From -- ./inp_files/73921.got.cif
#   From: 2010.06.25/outbox.cif.g09.slc.cpg/sg2_37_cif.got.tgz:73921.got - 2010.06.27 13:26:56.
