data_PCOD8040780
_publ_section_title
;
Structure prediction by ZEFSAII (Michael W. Deem and Ramdas Pophale) SiO2 
 PCOD8040780
Probable space group: P -1
;
_chemical_formula_sum "Si O2"
_cell_formula_units_Z 14
_cell_length_a 15.014492
_cell_length_b 21.307935
_cell_length_c 12.766773
_cell_angle_alpha 27.644342
_cell_angle_beta 149.987857
_cell_angle_gamma 160.634775
_cell_volume 616.177362
_symmetry_space_group_name_H-M "P -1"
_symmetry_group_IT_number 2
_symmetry_cell_setting 'triclinic'
loop_
_space_group_symop_operation_xyz
x,y,z
-x,-y,-z
loop_
_atom_site_type_symbol
_atom_site_label
_atom_site_fract_x
_atom_site_fract_y
_atom_site_fract_z
Si Si1 0.690050 0.514878 0.104135
Si Si2 0.553178 0.833841 0.965912
Si Si3 0.981107 0.781801 0.802984
Si Si4 0.984739 0.498807 0.807772
Si Si5 0.716408 0.764376 0.051391
Si Si6 0.013874 0.698285 0.357123
Si Si7 0.382558 0.210095 0.673539
O O1 0.901669 0.573180 0.317178
O O2 0.500000 0.500000 0.000000
O O3 0.849919 0.691088 0.918033
O O4 0.484315 0.292776 0.161240
O O5 0.228290 0.680772 0.867688
O O6 0.721244 0.054756 0.758898
O O7 0.565813 0.705218 0.095918
O O8 0.680207 0.874003 0.147947
O O9 0.761419 0.728906 0.582203
O O10 0.065483 0.690333 0.970446
O O11 0.256405 0.029667 0.729413
O O12 0.083793 0.608831 0.631229
O O13 0.707818 0.410612 0.693393
O O14 0.779238 0.644550 0.263564
O O15 0.000000 0.000000 0.000000
#
# Coordination Sequence:
#
# PCOD8040780 Si02
#       7
#     2   2   2   2   2   2   2
#     4  10  18  38  66  94 128 169 215 269 325 383
#     4  11  22  43  67  97 138 174 217 276 337 385
#     4  11  24  46  70  94 131 176 226 273 326 396
#     4  12  25  43  68  99 135 172 224 274 330 396
#     4   9  19  37  63  97 131 167 218 264 326 398
#     4  10  22  41  67  98 135 170 221 276 327 391
#     4  11  25  46  69  94 133 177 222 275 326 395
#
# _framework density 22.720731000000001
#
# number of rings (size 3 to 8) (size 9 to 14) (size 15 to 20)
#    0.000    1.429    2.857    3.000    0.000    1.143 
#    2.571    0.000    0.000    0.000    0.000    0.000 
#    0.000    0.000    0.000    0.000    0.000    0.000 
#
# Total GULP energy -173483.070572 kJ/mol
# GULP energy per Si atom -12391.647898 kJ/mol
# Density = 2.266902 g / cm^3
# Si number density = 22.720731 Si / 1000 Ang^3
#
#
#
# Elastic Constant Matrix: (Units=GPa)
#
#
# Indices 1 2 3 4 5 6 
#
# 1 59.2713 28.7338 22.6020 9.1751 -2.3578 -3.9385
# 2 28.7338 125.4836 27.9940 23.8065 4.2821 -12.4409
# 3 22.6020 27.9940 115.2954 6.8472 -6.2731 -15.1133
# 4 9.1751 23.8065 6.8472 33.6119 -1.9488 -4.9342
# 5 -2.3578 4.2821 -6.2731 -1.9488 29.0422 3.9898
# 6 -3.9385 -12.4409 -15.1133 -4.9342 3.9898 39.9595
#
#
#
# Elastic Compliance Matrix: (Units=1/GPa)
#
#
# Indices 1 2 3 4 5 6 
#
# 1 0.020125 -0.003628 -0.002936 -0.002342 0.001473 -0.000693
# 2 -0.003628 0.010551 -0.001390 -0.006080 -0.002824 0.001933
# 3 -0.002936 -0.001390 0.010051 0.000271 0.001752 0.002938
# 4 -0.002342 -0.006080 0.000271 0.035104 0.002842 0.002030
# 5 0.001473 -0.002824 0.001752 0.002842 0.035993 -0.003314
# 6 -0.000693 0.001933 0.002938 0.002030 -0.003314 0.027252
#
#
# Mechanical properties :
#
#
# Convention : Reuss Voigt Hill
#
# Bulk Modulus (GPa) = 40.29058 50.96779 45.62918
# Shear Modulus (GPa) = 30.62658 35.23742 32.93200
#
# Velocity S-wave (km/s) = 3.67544 3.94241 3.81126
# Velocity P-wave (km/s) = 5.98191 6.57301 6.28441
#
# Compressibility (1/GPa) = 0.02481970
#
# Stress axis : x y z
#
# Youngs Moduli (GPa) = 49.68940 94.77367 99.49543
#
# Poissons Ratio (x) = 0.34383 0.29211
# Poissons Ratio (y) = 0.18027 0.13829
# Poissons Ratio (z) = 0.14588 0.13173
#
# Static dielectric constant tensor:
#      x y z
#    x 1.941200 -3.385180 -1.695880 
#    y -3.385180 0.180060 -1.725920 
#    z -1.695880 -1.725920 2.984420 
# 
# 
# High freq. dielectric constant tensor:
#      x y z
#    x 1.888060 -0.001280 -0.005190 
#    y -0.001280 1.919350 0.019550 
#    z -0.005190 0.019550 1.876470 
# 
# From -- ./inp_files/244288.got.cif
#   From: 2010.06.25/outbox.cif.g09.slc.cpg/sg2_123_cif.got.tgz:244288.got - 2010.06.27 13:26:56.
