data_PCOD8040103
_publ_section_title
;
Structure prediction by ZEFSAII (Michael W. Deem and Ramdas Pophale) SiO2 
 PCOD8040103
Probable space group: P -1
;
_chemical_formula_sum "Si O2"
_cell_formula_units_Z 14
_cell_length_a 22.544763
_cell_length_b 12.818778
_cell_length_c 22.422142
_cell_angle_alpha 19.583523
_cell_angle_beta 162.508980
_cell_angle_gamma 152.190160
_cell_volume 646.373061
_symmetry_space_group_name_H-M "P -1"
_symmetry_group_IT_number 2
_symmetry_cell_setting 'triclinic'
loop_
_space_group_symop_operation_xyz
x,y,z
-x,-y,-z
loop_
_atom_site_type_symbol
_atom_site_label
_atom_site_fract_x
_atom_site_fract_y
_atom_site_fract_z
Si Si1 0.217576 0.710475 0.750853
Si Si2 0.622144 0.959013 0.379158
Si Si3 0.783083 0.252175 0.893789
Si Si4 0.424914 0.211577 0.869412
Si Si5 0.081997 0.746498 0.264071
Si Si6 0.845497 0.880778 0.754916
Si Si7 0.141201 0.809998 0.867541
O O1 0.103119 0.407608 0.803801
O O2 0.316344 0.763726 0.752766
O O3 0.385723 0.659463 0.990004
O O4 0.054047 0.011344 0.448450
O O5 0.699726 0.618613 0.608413
O O6 0.384009 0.977912 0.143865
O O7 0.696513 0.013503 0.487938
O O8 0.906676 0.212342 0.095793
O O9 0.927609 0.144661 0.035832
O O10 0.254310 0.497162 0.533473
O O11 0.331962 0.991376 0.946411
O O12 0.500000 0.000000 0.000000
O O13 0.187589 0.897072 0.339341
O O14 0.000000 0.000000 0.000000
O O15 0.802161 0.535619 0.919666
#
# Coordination Sequence:
#
# PCOD8040103 Si02
#       7
#     2   2   2   2   2   2   2
#     4  11  22  44  70  96 137 172 225 277 328 395
#     4  10  19  35  67 104 137 173 218 271 327 402
#     4  10  18  35  64 107 138 168 217 268 333 398
#     4  11  27  46  71  99 125 180 234 278 329 399
#     4  11  30  49  64  96 140 179 225 277 339 398
#     4  11  22  40  67 100 138 180 212 271 342 395
#     4  10  20  39  71 101 132 174 226 272 327 403
#
# _framework density 21.659320000000001
#
# number of rings (size 3 to 8) (size 9 to 14) (size 15 to 20)
#    0.000    1.429    4.286    0.857    4.000    3.429 
#    0.000    1.429    0.000    0.000    0.000    0.000 
#    0.000    0.000    0.000    0.000    0.000    0.000 
#
# Total GULP energy -173630.904827 kJ/mol
# GULP energy per Si atom -12402.207488 kJ/mol
# Density = 2.161002 g / cm^3
# Si number density = 21.659320 Si / 1000 Ang^3
#
#
#
# Elastic Constant Matrix: (Units=GPa)
#
#
# Indices 1 2 3 4 5 6 
#
# 1 72.3953 31.9693 36.3660 -10.6453 -4.7803 -12.5586
# 2 31.9693 122.5486 46.4254 4.5144 -10.2973 -2.6353
# 3 36.3660 46.4254 100.7388 2.9330 -8.3165 -1.1851
# 4 -10.6453 4.5144 2.9330 36.5821 2.8452 -1.4611
# 5 -4.7803 -10.2973 -8.3165 2.8452 33.9984 -4.1142
# 6 -12.5586 -2.6353 -1.1851 -1.4611 -4.1142 34.5387
#
#
#
# Elastic Compliance Matrix: (Units=1/GPa)
#
#
# Indices 1 2 3 4 5 6 
#
# 1 0.020625 -0.003120 -0.006063 0.007110 0.000778 0.007447
# 2 -0.003120 0.010545 -0.003507 -0.002098 0.002037 -0.000296
# 3 -0.006063 -0.003507 0.013908 -0.002638 0.001474 -0.001931
# 4 0.007110 -0.002098 -0.002638 0.030195 -0.002406 0.003325
# 5 0.000778 0.002037 0.001474 -0.002406 0.031198 0.004103
# 6 0.007447 -0.000296 -0.001931 0.003325 0.004103 0.032201
#
#
# Mechanical properties :
#
#
# Convention : Reuss Voigt Hill
#
# Bulk Modulus (GPa) = 50.77005 58.35602 54.56303
# Shear Modulus (GPa) = 29.30523 33.08530 31.19526
#
# Velocity S-wave (km/s) = 3.68232 3.91261 3.79921
# Velocity P-wave (km/s) = 6.44751 6.88567 6.67019
#
# Compressibility (1/GPa) = 0.01969665
#
# Stress axis : x y z
#
# Youngs Moduli (GPa) = 48.48475 94.83364 71.90364
#
# Poissons Ratio (x) = 0.29589 0.43594
# Poissons Ratio (y) = 0.15128 0.25220
# Poissons Ratio (z) = 0.29395 0.33263
#
# Static dielectric constant tensor:
#      x y z
#    x 3.682410 0.272370 -0.049610 
#    y 0.272370 4.036420 0.103410 
#    z -0.049610 0.103410 3.801960 
# 
# 
# High freq. dielectric constant tensor:
#      x y z
#    x 1.831690 0.018440 -0.006720 
#    y 0.018440 1.860180 0.013570 
#    z -0.006720 0.013570 1.844500 
# 
# From -- ./inp_files/257236.got.cif
#   From: 2010.06.25/outbox.cif.g09.slc.cpg/sg2_129_cif.got.tgz:257236.got - 2010.06.27 13:26:56.
