data_PCOD8040157
_publ_section_title
;
Structure prediction by ZEFSAII (Michael W. Deem and Ramdas Pophale) SiO2 
 PCOD8040157
Probable space group: P -1
;
_chemical_formula_sum "Si O2"
_cell_formula_units_Z 14
_cell_length_a 9.128486
_cell_length_b 13.901574
_cell_length_c 11.530320
_cell_angle_alpha 146.566514
_cell_angle_beta 62.528734
_cell_angle_gamma 119.712451
_cell_volume 696.701432
_symmetry_space_group_name_H-M "P -1"
_symmetry_group_IT_number 2
_symmetry_cell_setting 'triclinic'
loop_
_space_group_symop_operation_xyz
x,y,z
-x,-y,-z
loop_
_atom_site_type_symbol
_atom_site_label
_atom_site_fract_x
_atom_site_fract_y
_atom_site_fract_z
Si Si1 0.114234 0.740955 0.562730
Si Si2 0.102824 0.125162 0.947319
Si Si3 0.414259 0.702203 0.566859
Si Si4 0.249566 0.330776 0.307921
Si Si5 0.880827 0.074270 0.475121
Si Si6 0.728529 0.041732 0.972223
Si Si7 0.251159 0.068772 0.390956
O O1 0.260755 0.665414 0.493241
O O2 0.151441 0.764743 0.433705
O O3 0.924793 0.621901 0.533457
O O4 0.110753 0.935772 0.815409
O O5 0.912697 0.154257 0.057909
O O6 0.148239 0.108583 0.777304
O O7 0.230758 0.279062 0.125482
O O8 0.396774 0.512192 0.447771
O O9 0.592279 0.756860 0.489133
O O10 0.408662 0.864579 0.822952
O O11 0.299836 0.172078 0.204609
O O12 0.075370 0.131656 0.505320
O O13 0.752364 0.039518 0.595451
O O14 0.720493 0.059792 0.853947
#
# Coordination Sequence:
#
# PCOD8040157 Si02
#       7
#     2   2   2   2   2   2   2
#     4   9  17  34  55  78 107 137 178 217 259 314
#     4   8  15  32  58  73 100 145 172 207 265 312
#     4  12  22  29  57  92 104 130 181 228 267 311
#     4  11  18  33  56  82 113 137 169 221 279 310
#     4   8  18  37  60  69 104 156 179 206 264 327
#     4  10  18  36  52  78 113 140 173 218 266 315
#     4  10  20  35  53  81 106 145 184 210 263 322
#
# _framework density 20.094692999999999
#
# number of rings (size 3 to 8) (size 9 to 14) (size 15 to 20)
#    0.857    1.429    4.286    1.714    0.000    1.143 
#    0.000    0.714    0.000    2.571    0.000    0.000 
#    0.000    0.000    0.000    0.000    0.000    0.000 
#
# Total GULP energy -173445.804248 kJ/mol
# GULP energy per Si atom -12388.986018 kJ/mol
# Density = 2.004896 g / cm^3
# Si number density = 20.094693 Si / 1000 Ang^3
#
#
#
# Elastic Constant Matrix: (Units=GPa)
#
#
# Indices 1 2 3 4 5 6 
#
# 1 40.2581 38.0071 17.3266 -13.8754 0.1389 -1.2895
# 2 38.0071 130.4840 52.7952 -16.9393 14.2783 4.7653
# 3 17.3266 52.7952 52.0756 -3.3279 3.2621 -0.6920
# 4 -13.8754 -16.9393 -3.3279 29.7058 -3.9424 8.2930
# 5 0.1389 14.2783 3.2621 -3.9424 14.7294 -4.9627
# 6 -1.2895 4.7653 -0.6920 8.2930 -4.9627 31.4028
#
#
#
# Elastic Compliance Matrix: (Units=1/GPa)
#
#
# Indices 1 2 3 4 5 6 
#
# 1 0.041057 -0.010666 -0.002853 0.014253 0.015023 0.001852
# 2 -0.010666 0.019537 -0.015022 0.004341 -0.016892 -0.007550
# 3 -0.002853 -0.015022 0.034586 -0.006706 0.007094 0.005817
# 4 0.014253 0.004341 -0.006706 0.045992 0.005583 -0.011485
# 5 0.015023 -0.016892 0.007094 0.005583 0.089438 0.015996
# 6 0.001852 -0.007550 0.005817 -0.011485 0.015996 0.038755
#
#
# Mechanical properties :
#
#
# Convention : Reuss Voigt Hill
#
# Bulk Modulus (GPa) = 26.24842 48.78616 37.51729
# Shear Modulus (GPa) = 14.74292 22.81351 18.77822
#
# Velocity S-wave (km/s) = 2.71158 3.37308 3.06025
# Velocity P-wave (km/s) = 4.78479 6.28498 5.58549
#
# Compressibility (1/GPa) = 0.03809753
#
# Stress axis : x y z
#
# Youngs Moduli (GPa) = 24.35647 51.18624 28.91318
#
# Poissons Ratio (x) = 0.54595 0.08248
# Poissons Ratio (y) = 0.25979 0.43435
# Poissons Ratio (z) = 0.06948 0.76894
#
# Static dielectric constant tensor:
#      x y z
#    x 3.612120 -0.087930 0.157930 
#    y -0.087930 3.536390 -0.188340 
#    z 0.157930 -0.188340 3.167140 
# 
# 
# High freq. dielectric constant tensor:
#      x y z
#    x 1.790330 -0.006140 0.018770 
#    y -0.006140 1.768790 -0.014170 
#    z 0.018770 -0.014170 1.736750 
# 
# From -- ./inp_files/397925.got.cif
#   From: 2010.06.25/outbox.cif.g09.slc.cpg/sg2_199_cif.got.tgz:397925.got - 2010.06.27 13:26:56.
