data_PCOD8040492
_publ_section_title
;
Structure prediction by ZEFSAII (Michael W. Deem and Ramdas Pophale) SiO2 
 PCOD8040492
Probable space group: P -1
;
_chemical_formula_sum "Si O2"
_cell_formula_units_Z 14
_cell_length_a 9.230999
_cell_length_b 11.558493
_cell_length_c 13.079416
_cell_angle_alpha 47.245290
_cell_angle_beta 90.203644
_cell_angle_gamma 54.247649
_cell_volume 616.135582
_symmetry_space_group_name_H-M "P -1"
_symmetry_group_IT_number 2
_symmetry_cell_setting 'triclinic'
loop_
_space_group_symop_operation_xyz
x,y,z
-x,-y,-z
loop_
_atom_site_type_symbol
_atom_site_label
_atom_site_fract_x
_atom_site_fract_y
_atom_site_fract_z
Si Si1 0.387337 0.712832 0.651227
Si Si2 0.000177 0.458820 0.775775
Si Si3 0.748442 0.539854 0.903486
Si Si4 0.618846 0.530756 0.550326
Si Si5 0.921087 0.298549 0.263899
Si Si6 0.108265 0.248333 0.699267
Si Si7 0.438739 0.074166 0.651157
O O1 0.519953 0.642692 0.798597
O O2 0.577570 0.522521 0.673980
O O3 0.239740 0.682815 0.684736
O O4 0.203870 0.012143 0.441880
O O5 0.950545 0.375425 0.914921
O O6 0.748653 0.726992 0.559998
O O7 0.134372 0.489802 0.806960
O O8 0.173397 0.225863 0.831765
O O9 0.678444 0.783879 0.782062
O O10 0.851079 0.359294 0.108685
O O11 0.500000 0.500000 0.500000
O O12 0.507144 0.804216 0.366480
O O13 0.906686 0.284666 0.672530
O O14 0.342273 0.022020 0.763731
O O15 0.000000 0.500000 0.500000
#
# Coordination Sequence:
#
# PCOD8040492 Si02
#       7
#     2   2   2   2   2   2   2
#     4  11  23  41  60  91 127 156 198 255 307 355
#     4  10  18  37  59  87 124 155 204 247 294 353
#     4  12  21  41  64  90 124 157 207 249 300 358
#     4  10  20  34  63  90 116 162 205 239 304 364
#     4  11  25  35  63  95 118 161 199 254 303 361
#     4   8  18  33  57  88 114 163 200 239 296 356
#     4  10  20  36  64  89 120 161 200 251 300 353
#
# _framework density 22.722270000000002
#
# number of rings (size 3 to 8) (size 9 to 14) (size 15 to 20)
#    0.000    2.000    4.286    2.143    6.000    0.000 
#    0.000    0.714    3.143    1.714    0.000    0.000 
#    0.000    0.000    0.000    0.000    0.000    0.000 
#
# Total GULP energy -173513.777666 kJ/mol
# GULP energy per Si atom -12393.841262 kJ/mol
# Density = 2.267055 g / cm^3
# Si number density = 22.722270 Si / 1000 Ang^3
#
#
#
# Elastic Constant Matrix: (Units=GPa)
#
#
# Indices 1 2 3 4 5 6 
#
# 1 121.5371 33.5349 23.5717 20.8547 7.9481 15.8310
# 2 33.5349 69.7013 19.2129 35.4149 1.0190 1.5130
# 3 23.5717 19.2129 79.9980 28.9621 11.4975 -3.5528
# 4 20.8547 35.4149 28.9621 29.3265 -0.0254 -3.1406
# 5 7.9481 1.0190 11.4975 -0.0254 25.8875 20.1336
# 6 15.8310 1.5130 -3.5528 -3.1406 20.1336 33.8176
#
#
#
# Elastic Compliance Matrix: (Units=1/GPa)
#
#
# Indices 1 2 3 4 5 6 
#
# 1 0.010721 -0.003530 -0.002663 -0.001547 0.003983 -0.007655
# 2 -0.003530 0.048532 0.016773 -0.072778 -0.007557 -0.001017
# 3 -0.002663 0.016773 0.030210 -0.046772 -0.023804 0.013498
# 4 -0.001547 -0.072778 -0.046772 0.169366 0.023785 0.000635
# 5 0.003983 -0.007557 -0.023804 0.023785 0.092580 -0.056936
# 6 -0.007655 -0.001017 0.013498 0.000635 -0.056936 0.068574
#
#
# Mechanical properties :
#
#
# Convention : Reuss Voigt Hill
#
# Bulk Modulus (GPa) = 9.03962 47.09728 28.06845
# Shear Modulus (GPa) = 11.47587 30.80079 21.13833
#
# Velocity S-wave (km/s) = 2.24977 3.68575 3.05338
# Velocity P-wave (km/s) = 3.27652 6.23581 4.98101
#
# Compressibility (1/GPa) = 0.11062412
#
# Stress axis : x y z
#
# Youngs Moduli (GPa) = 93.27831 20.60477 33.10140
#
# Poissons Ratio (x) = 0.07273 0.08816
# Poissons Ratio (y) = 0.32924 -0.55522
# Poissons Ratio (z) = 0.24843 -0.34561
#
# Static dielectric constant tensor:
#      x y z
#    x 4.431240 -0.497320 -0.094810 
#    y -0.497320 4.837120 0.438720 
#    z -0.094810 0.438720 3.742560 
# 
# 
# High freq. dielectric constant tensor:
#      x y z
#    x 1.908910 -0.012980 -0.002980 
#    y -0.012980 1.890210 0.035870 
#    z -0.002980 0.035870 1.862490 
# 
# From -- ./inp_files/271207.got.cif
#   From: 2010.06.25/outbox.cif.g09.slc.cpg/sg2_136_cif.got.tgz:271207.got - 2010.06.27 13:26:56.
