data_PCOD8040612
_publ_section_title
;
Structure prediction by ZEFSAII (Michael W. Deem and Ramdas Pophale) SiO2 
 PCOD8040612
Probable space group: P -1
;
_chemical_formula_sum "Si O2"
_cell_formula_units_Z 16
_cell_length_a 9.517731
_cell_length_b 18.765584
_cell_length_c 6.600707
_cell_angle_alpha 128.700725
_cell_angle_beta 49.371952
_cell_angle_gamma 112.457432
_cell_volume 697.652365
_symmetry_space_group_name_H-M "P -1"
_symmetry_group_IT_number 2
_symmetry_cell_setting 'triclinic'
loop_
_space_group_symop_operation_xyz
x,y,z
-x,-y,-z
loop_
_atom_site_type_symbol
_atom_site_label
_atom_site_fract_x
_atom_site_fract_y
_atom_site_fract_z
Si Si1 0.568852 0.410703 0.151886
Si Si2 0.257995 0.702103 0.854298
Si Si3 0.443000 0.177983 0.351781
Si Si4 0.041840 0.875243 0.349813
Si Si5 0.756879 0.702112 0.926286
Si Si6 0.241654 0.130941 0.070079
Si Si7 0.887724 0.418176 0.544192
Si Si8 0.738111 0.962285 0.509491
O O1 0.500000 0.500000 0.500000
O O2 0.644495 0.329116 0.084179
O O3 0.399525 0.370593 0.112719
O O4 0.738028 0.441249 0.903280
O O5 0.368824 0.770261 0.726736
O O6 0.225574 0.612017 0.598510
O O7 0.072554 0.766291 0.165629
O O8 0.403762 0.152161 0.111472
O O9 0.445002 0.080905 0.297384
O O10 0.292798 0.249233 0.726139
O O11 0.931678 0.905511 0.708711
O O12 0.919020 0.900952 0.312586
O O13 0.232738 0.931803 0.270590
O O14 0.785329 0.775349 0.857199
O O15 0.961101 0.656306 0.656444
O O16 0.288211 0.047943 0.724576
O O17 0.000000 0.500000 0.500000
#
# Coordination Sequence:
#
# PCOD8040612 Si02
#       8
#     2   2   2   2   2   2   2   2
#     4  12  28  46  70 101 136 174 226 286 348 413
#     4  12  24  43  67  98 133 178 229 278 338 411
#     4  10  21  38  66  91 131 177 221 271 335 392
#     4  10  21  37  63  97 136 173 229 276 327 404
#     4  11  23  44  69  93 134 176 224 277 339 408
#     4  10  18  37  64  91 124 181 218 268 333 391
#     4  12  28  45  70 102 132 175 230 284 348 414
#     4   9  20  38  61  97 133 179 222 275 335 387
#
# _framework density 22.934058
#
# number of rings (size 3 to 8) (size 9 to 14) (size 15 to 20)
#    0.000    1.250    2.500    4.125    1.750    4.500 
#    0.000    0.625    0.000    0.000    0.000    0.000 
#    0.000    0.000    0.000    0.000    0.000    0.000 
#
# Total GULP energy -198223.186482 kJ/mol
# GULP energy per Si atom -12388.949155 kJ/mol
# Density = 2.288186 g / cm^3
# Si number density = 22.934058 Si / 1000 Ang^3
#
#
#
# Elastic Constant Matrix: (Units=GPa)
#
#
# Indices 1 2 3 4 5 6 
#
# 1 67.7489 7.6313 27.0500 -8.6203 18.6443 12.9807
# 2 7.6313 102.0293 27.1796 -9.6381 7.7500 28.1179
# 3 27.0500 27.1796 86.0624 -6.0988 24.6213 0.4533
# 4 -8.6203 -9.6381 -6.0988 42.3989 3.3345 -3.8186
# 5 18.6443 7.7500 24.6213 3.3345 36.5655 3.3776
# 6 12.9807 28.1179 0.4533 -3.8186 3.3776 46.4261
#
#
#
# Elastic Compliance Matrix: (Units=1/GPa)
#
#
# Indices 1 2 3 4 5 6 
#
# 1 0.020058 0.002355 -0.004611 0.003982 -0.007419 -0.006122
# 2 0.002355 0.013465 -0.004718 0.002111 -0.000278 -0.008574
# 3 -0.004611 -0.004718 0.017159 0.001577 -0.008785 0.004748
# 4 0.003982 0.002111 0.001577 0.025576 -0.005883 0.000125
# 5 -0.007419 -0.000278 -0.008785 -0.005883 0.037725 -0.000900
# 6 -0.006122 -0.008574 0.004748 0.000125 -0.000900 0.028473
#
#
# Mechanical properties :
#
#
# Convention : Reuss Voigt Hill
#
# Bulk Modulus (GPa) = 27.22362 42.17359 34.69860
# Shear Modulus (GPa) = 29.64741 38.01007 33.82874
#
# Velocity S-wave (km/s) = 3.59935 4.07549 3.84480
# Velocity P-wave (km/s) = 5.40092 6.36986 5.90530
#
# Compressibility (1/GPa) = 0.03673281
#
# Stress axis : x y z
#
# Youngs Moduli (GPa) = 49.85664 74.26553 58.27881
#
# Poissons Ratio (x) = -0.17489 0.26872
# Poissons Ratio (y) = -0.11741 0.27498
# Poissons Ratio (z) = 0.22989 0.35041
#
# Static dielectric constant tensor:
#      x y z
#    x 4.228780 0.115250 0.116480 
#    y 0.115250 4.391640 -0.023160 
#    z 0.116480 -0.023160 4.200260 
# 
# 
# High freq. dielectric constant tensor:
#      x y z
#    x 1.901870 0.014200 0.007600 
#    y 0.014200 1.921900 -0.002470 
#    z 0.007600 -0.002470 1.905170 
# 
# From -- ./inp_files/48821.got.cif
#   From: 2010.06.25/outbox.cif.g09.slc.cpg/sg2_25_cif.got.tgz:48821.got - 2010.06.27 13:26:56.
