data_PCOD8040705
_publ_section_title
;
Structure prediction by ZEFSAII (Michael W. Deem and Ramdas Pophale) SiO2 
 PCOD8040705
Probable space group: P -1
;
_chemical_formula_sum "Si O2"
_cell_formula_units_Z 16
_cell_length_a 11.816398
_cell_length_b 12.138420
_cell_length_c 17.140826
_cell_angle_alpha 40.185350
_cell_angle_beta 32.118221
_cell_angle_gamma 54.487938
_cell_volume 827.608102
_symmetry_space_group_name_H-M "P -1"
_symmetry_group_IT_number 2
_symmetry_cell_setting 'triclinic'
loop_
_space_group_symop_operation_xyz
x,y,z
-x,-y,-z
loop_
_atom_site_type_symbol
_atom_site_label
_atom_site_fract_x
_atom_site_fract_y
_atom_site_fract_z
Si Si1 0.360945 0.429145 0.439496
Si Si2 0.839627 0.595509 0.090967
Si Si3 0.018425 0.156566 0.573789
Si Si4 0.932020 0.471574 0.722602
Si Si5 0.226126 0.200639 0.122281
Si Si6 0.289790 0.707678 0.204577
Si Si7 0.574224 0.827949 0.574660
Si Si8 0.178000 0.563391 0.022695
O O1 0.600665 0.481984 0.307323
O O2 0.314016 0.544632 0.331219
O O3 0.331518 0.236794 0.525078
O O4 0.177164 0.436109 0.607623
O O5 0.961687 0.632107 0.082820
O O6 0.807603 0.765509 0.969202
O O7 0.000000 0.500000 0.000000
O O8 0.055691 0.323098 0.405955
O O9 0.247449 0.126860 0.487410
O O10 0.859947 0.177064 0.727447
O O11 0.921284 0.986349 0.670908
O O12 0.812254 0.362435 0.780025
O O13 0.802146 0.409620 0.910791
O O14 0.163107 0.358742 0.123109
O O15 0.471193 0.179178 0.009809
O O16 0.500000 0.000000 0.500000
O O17 0.383970 0.675610 0.799113
#
# Coordination Sequence:
#
# PCOD8040705 Si02
#       8
#     2   2   2   2   2   2   2   2
#     4  10  18  38  62  87 110 158 202 239 283 346
#     4   9  17  34  59  80 113 152 200 237 279 341
#     4  11  21  35  61  93 114 156 201 242 284 349
#     4  11  22  38  62  85 128 154 191 240 298 360
#     4  10  20  35  61  87 118 151 201 246 283 347
#     4  10  18  38  61  86 119 158 198 235 293 352
#     4  12  22  37  64  90 109 151 210 243 285 348
#     4  11  23  39  57  91 120 161 186 242 310 340
#
# _framework density 19.332823000000001
#
# number of rings (size 3 to 8) (size 9 to 14) (size 15 to 20)
#    0.000    1.500    6.250    1.875    1.750    3.000 
#    0.000    0.625    0.000    0.000    0.000    0.000 
#    0.000    0.000    0.000    0.000    0.000    0.000 
#
# Total GULP energy -198333.564774 kJ/mol
# GULP energy per Si atom -12395.847798 kJ/mol
# Density = 1.928882 g / cm^3
# Si number density = 19.332823 Si / 1000 Ang^3
#
#
#
# Elastic Constant Matrix: (Units=GPa)
#
#
# Indices 1 2 3 4 5 6 
#
# 1 83.9289 27.8605 38.4694 11.0736 -14.6191 -3.5581
# 2 27.8605 91.2547 37.6361 -5.2685 -5.2987 -8.2846
# 3 38.4694 37.6361 70.0442 -1.4018 -16.9042 -4.3807
# 4 11.0736 -5.2685 -1.4018 28.4436 -0.1867 -7.7069
# 5 -14.6191 -5.2987 -16.9042 -0.1867 35.8217 8.9421
# 6 -3.5581 -8.2846 -4.3807 -7.7069 8.9421 25.8498
#
#
#
# Elastic Compliance Matrix: (Units=1/GPa)
#
#
# Indices 1 2 3 4 5 6 
#
# 1 0.018269 -0.002984 -0.007832 -0.009095 0.004258 -0.003953
# 2 -0.002984 0.015444 -0.007080 0.005342 -0.003807 0.006248
# 3 -0.007832 -0.007080 0.024166 0.002702 0.007428 -0.001016
# 4 -0.009095 0.005342 0.002702 0.044102 -0.005394 0.015933
# 5 0.004258 -0.003807 0.007428 -0.005394 0.035914 -0.013407
# 6 -0.003953 0.006248 -0.001016 0.015933 -0.013407 0.049359
#
#
# Mechanical properties :
#
#
# Convention : Reuss Voigt Hill
#
# Bulk Modulus (GPa) = 45.27769 50.35108 47.81438
# Shear Modulus (GPa) = 21.70039 27.44048 24.57044
#
# Velocity S-wave (km/s) = 3.35395 3.77154 3.56886
# Velocity P-wave (km/s) = 6.20239 6.71319 6.46284
#
# Compressibility (1/GPa) = 0.02208593
#
# Stress axis : x y z
#
# Youngs Moduli (GPa) = 54.73655 64.74888 41.38092
#
# Poissons Ratio (x) = 0.19323 0.32409
# Poissons Ratio (y) = 0.16335 0.29300
# Poissons Ratio (z) = 0.42869 0.45845
#
# Static dielectric constant tensor:
#      x y z
#    x 3.709750 -0.268780 -0.338160 
#    y -0.268780 3.707140 0.236540 
#    z -0.338160 0.236540 3.573740 
# 
# 
# High freq. dielectric constant tensor:
#      x y z
#    x 1.743640 -0.013130 -0.029960 
#    y -0.013130 1.747000 0.006720 
#    z -0.029960 0.006720 1.739310 
# 
# From -- ./inp_files/189284.got.cif
#   From: 2010.06.25/outbox.cif.g09.slc.cpg/sg2_95_cif.got.tgz:189284.got - 2010.06.27 13:26:56.
