data_PCOD8040484
_publ_section_title
;
Structure prediction by ZEFSAII (Michael W. Deem and Ramdas Pophale) SiO2 
 PCOD8040484
Probable space group: P -1
;
_chemical_formula_sum "Si O2"
_cell_formula_units_Z 12
_cell_length_a 11.869501
_cell_length_b 10.138216
_cell_length_c 16.360832
_cell_angle_alpha 39.293278
_cell_angle_beta 22.389645
_cell_angle_gamma 40.286121
_cell_volume 465.715263
_symmetry_space_group_name_H-M "P -1"
_symmetry_group_IT_number 2
_symmetry_cell_setting 'triclinic'
loop_
_space_group_symop_operation_xyz
x,y,z
-x,-y,-z
loop_
_atom_site_type_symbol
_atom_site_label
_atom_site_fract_x
_atom_site_fract_y
_atom_site_fract_z
Si Si1 0.293565 0.265907 0.453380
Si Si2 0.718524 0.786686 0.691035
Si Si3 0.066292 0.668871 0.182843
Si Si4 0.932556 0.313931 0.006168
Si Si5 0.443966 0.694139 0.160206
Si Si6 0.492752 0.077472 0.835341
O O1 0.183562 0.167148 0.490344
O O2 0.654377 0.188010 0.264103
O O3 0.234630 0.526332 0.355977
O O4 0.127100 0.201412 0.676469
O O5 0.928074 0.581157 0.688774
O O6 0.712451 0.997365 0.649565
O O7 0.387310 0.733526 0.934102
O O8 0.919730 0.728757 0.163164
O O9 0.793252 0.566539 0.991147
O O10 0.191561 0.238929 0.933725
O O11 0.339535 0.804175 0.265604
O O12 0.401311 0.868183 0.034886
#
# Coordination Sequence:
#
# PCOD8040484 Si02
#       6
#     2   2   2   2   2   2
#     4   9  20  37  58  82 115 151 186 227 282 334
#     4  10  19  34  59  85 109 154 185 230 281 324
#     4  10  18  37  59  82 117 147 189 228 280 336
#     4   9  20  37  60  83 111 154 179 233 284 324
#     4   9  20  38  60  83 109 157 181 228 286 327
#     4  11  19  36  63  84 113 144 195 228 278 337
#
# _framework density 25.766818000000001
#
# number of rings (size 3 to 8) (size 9 to 14) (size 15 to 20)
#    1.000    1.333    1.667    2.000    0.000    2.667 
#    0.000    6.667    3.667    0.000    0.000    0.000 
#    0.000    0.000    0.000    0.000    0.000    0.000 
#
# Total GULP energy -148725.232513 kJ/mol
# GULP energy per Si atom -12393.769376 kJ/mol
# Density = 2.570817 g / cm^3
# Si number density = 25.766818 Si / 1000 Ang^3
#
#
#
# Elastic Constant Matrix: (Units=GPa)
#
#
# Indices 1 2 3 4 5 6 
#
# 1 87.9183 74.1087 -40.5145 39.9520 10.4516 3.4199
# 2 74.1087 80.7881 51.6799 -6.7997 33.6300 15.3939
# 3 -40.5145 51.6799 17.1742 51.7491 13.4714 -11.2814
# 4 39.9520 -6.7997 51.7491 13.2862 31.9383 22.3688
# 5 10.4516 33.6300 13.4714 31.9383 30.7572 0.9237
# 6 3.4199 15.3939 -11.2814 22.3688 0.9237 42.4824
#
#
#
# Elastic Compliance Matrix: (Units=1/GPa)
#
#
# Indices 1 2 3 4 5 6 
#
# 1 0.009418 -0.001392 0.000107 0.010828 -0.012800 -0.005648
# 2 -0.001392 0.009682 0.003871 -0.011198 -0.000286 0.003534
# 3 0.000107 0.003871 0.015845 0.016464 -0.028148 -0.005261
# 4 0.010828 -0.011198 0.016464 0.018429 -0.017730 -0.001760
# 5 -0.012800 -0.000286 -0.028148 -0.017730 0.067869 0.001519
# 6 -0.005648 0.003534 -0.005261 -0.001760 0.001519 0.022210
#
#
# Mechanical properties :
#
#
# Convention : Reuss Voigt Hill
#
# Bulk Modulus (GPa) = 24.92690 39.60321 32.26505
# Shear Modulus (GPa) = 32.97040 24.01226 28.49133
#
# Velocity S-wave (km/s) = 3.58099 3.05603 3.32887
# Velocity P-wave (km/s) = 5.17619 5.27784 5.22726
#
# Compressibility (1/GPa) = 0.04011730
#
# Stress axis : x y z
#
# Youngs Moduli (GPa) = 106.18217 103.28501 63.11304
#
# Poissons Ratio (x) = 0.14377 -0.00678
# Poissons Ratio (y) = 0.14780 -0.24431
# Poissons Ratio (z) = -0.01141 -0.39981
#
# Static dielectric constant tensor:
#      x y z
#    x 4.523150 0.284240 0.459210 
#    y 0.284240 4.662810 0.412380 
#    z 0.459210 0.412380 4.458640 
# 
# 
# High freq. dielectric constant tensor:
#      x y z
#    x 2.029030 0.000910 0.023170 
#    y 0.000910 2.027750 0.025460 
#    z 0.023170 0.025460 2.011820 
# 
# From -- ./inp_files/268462.got.cif
#   From: 2010.06.25/outbox.cif.g09.slc.cpg/sg2_135_cif.got.tgz:268462.got - 2010.06.27 13:26:56.
