data_PCOD8040148
_publ_section_title
;
Structure prediction by ZEFSAII (Michael W. Deem and Ramdas Pophale) SiO2 
 PCOD8040148
Probable space group: P -1
;
_chemical_formula_sum "Si O2"
_cell_formula_units_Z 16
_cell_length_a 11.809342
_cell_length_b 7.322771
_cell_length_c 11.076858
_cell_angle_alpha 66.250370
_cell_angle_beta 113.364091
_cell_angle_gamma 69.810637
_cell_volume 643.414234
_symmetry_space_group_name_H-M "P -1"
_symmetry_group_IT_number 2
_symmetry_cell_setting 'triclinic'
loop_
_space_group_symop_operation_xyz
x,y,z
-x,-y,-z
loop_
_atom_site_type_symbol
_atom_site_label
_atom_site_fract_x
_atom_site_fract_y
_atom_site_fract_z
Si Si1 0.323066 0.196365 0.174718
Si Si2 0.037182 0.171677 0.532462
Si Si3 0.362135 0.724257 0.307932
Si Si4 0.074046 0.871060 0.832557
Si Si5 0.387252 0.875530 0.765695
Si Si6 0.588613 0.328055 0.934452
Si Si7 0.877927 0.335221 0.855950
Si Si8 0.084031 0.473622 0.807696
O O1 0.504153 0.075573 0.273419
O O2 0.229989 0.421707 0.169528
O O3 0.310675 0.982962 0.276982
O O4 0.252644 0.277120 0.987182
O O5 0.922061 0.458604 0.356658
O O6 0.018502 0.134732 0.677379
O O7 0.209836 0.081605 0.599243
O O8 0.000000 0.000000 0.500000
O O9 0.500000 0.500000 0.500000
O O10 0.407313 0.735372 0.186587
O O11 0.227231 0.692094 0.270266
O O12 0.007385 0.740169 0.771378
O O13 0.262160 0.682830 0.961995
O O14 0.025214 0.905123 0.944807
O O15 0.434448 0.605425 0.818309
O O16 0.409476 0.866932 0.923939
O O17 0.991439 0.359764 0.819647
#
# Coordination Sequence:
#
# PCOD8040148 Si02
#       8
#     2   2   2   2   2   2   2   2
#     4  11  22  39  67  88 119 169 206 247 314 374
#     4   9  19  30  55  95 122 151 202 255 302 357
#     4  11  25  40  58  91 130 156 208 265 305 361
#     4   8  14  33  55  84 117 153 198 242 301 354
#     4  10  18  35  68  89 119 165 205 247 311 370
#     4   9  18  36  60  92 121 157 206 257 299 368
#     4  10  21  40  63  88 125 166 210 251 306 376
#     4  10  19  35  59  91 124 161 208 252 307 373
#
# _framework density 24.867341
#
# number of rings (size 3 to 8) (size 9 to 14) (size 15 to 20)
#    0.000    2.250    3.750    1.500    3.500    2.500 
#    0.000    0.000    0.000    8.250    0.000    0.000 
#    0.000    0.000    0.000    0.000    0.000    0.000 
#
# Total GULP energy -198238.135517 kJ/mol
# GULP energy per Si atom -12389.883470 kJ/mol
# Density = 2.481074 g / cm^3
# Si number density = 24.867341 Si / 1000 Ang^3
#
#
#
# Elastic Constant Matrix: (Units=GPa)
#
#
# Indices 1 2 3 4 5 6 
#
# 1 107.6333 31.3507 39.6696 6.2561 -4.0522 23.9755
# 2 31.3507 34.9848 28.3057 1.3987 2.3020 6.9291
# 3 39.6696 28.3057 132.0123 -11.8549 -6.6325 23.5021
# 4 6.2561 1.3987 -11.8549 27.5183 3.7923 -6.6619
# 5 -4.0522 2.3020 -6.6325 3.7923 42.6711 -1.3614
# 6 23.9755 6.9291 23.5021 -6.6619 -1.3614 32.3675
#
#
#
# Elastic Compliance Matrix: (Units=1/GPa)
#
#
# Indices 1 2 3 4 5 6 
#
# 1 0.015405 -0.011014 -0.001013 -0.005961 0.002128 -0.009455
# 2 -0.011014 0.043793 -0.007025 -0.001329 -0.004273 0.003431
# 3 -0.001013 -0.007025 0.010624 0.003850 0.001445 -0.004607
# 4 -0.005961 -0.001329 0.003850 0.042420 -0.003331 0.010495
# 5 0.002128 -0.004273 0.001445 -0.003331 0.024344 -0.001372
# 6 -0.009455 0.003431 -0.004607 0.010495 -0.001372 0.042612
#
#
# Mechanical properties :
#
#
# Convention : Reuss Voigt Hill
#
# Bulk Modulus (GPa) = 31.52815 52.58692 42.05754
# Shear Modulus (GPa) = 21.94184 32.19835 27.07010
#
# Velocity S-wave (km/s) = 2.97367 3.60224 3.30294
# Velocity P-wave (km/s) = 4.94938 6.20439 5.61208
#
# Compressibility (1/GPa) = 0.03171768
#
# Stress axis : x y z
#
# Youngs Moduli (GPa) = 64.91422 22.83489 94.12556
#
# Poissons Ratio (x) = 0.25151 0.09531
# Poissons Ratio (y) = 0.71500 0.66122
# Poissons Ratio (z) = 0.06573 0.16041
#
# Static dielectric constant tensor:
#      x y z
#    x 4.634810 0.113640 -0.357680 
#    y 0.113640 4.170350 0.064270 
#    z -0.357680 0.064270 4.908830 
# 
# 
# High freq. dielectric constant tensor:
#      x y z
#    x 1.988280 0.013550 -0.011610 
#    y 0.013550 1.971100 0.000420 
#    z -0.011610 0.000420 1.991510 
# 
# From -- ./inp_files/416601.got.cif
#   From: 2010.06.25/outbox.cif.g09.slc.cpg/sg2_209_cif.got.tgz:416601.got - 2010.06.27 13:26:56.
