data_PCOD8040043
_publ_section_title
;
Structure prediction by ZEFSAII (Michael W. Deem and Ramdas Pophale) SiO2 
 PCOD8040043
Probable space group: P -1
;
_chemical_formula_sum "Si O2"
_cell_formula_units_Z 16
_cell_length_a 16.334012
_cell_length_b 13.246638
_cell_length_c 9.259143
_cell_angle_alpha 88.819260
_cell_angle_beta 124.044453
_cell_angle_gamma 135.976985
_cell_volume 863.329725
_symmetry_space_group_name_H-M "P -1"
_symmetry_group_IT_number 2
_symmetry_cell_setting 'triclinic'
loop_
_space_group_symop_operation_xyz
x,y,z
-x,-y,-z
loop_
_atom_site_type_symbol
_atom_site_label
_atom_site_fract_x
_atom_site_fract_y
_atom_site_fract_z
Si Si1 0.547555 0.822256 0.620496
Si Si2 0.480455 0.435032 0.827600
Si Si3 0.195644 0.631277 0.362010
Si Si4 0.773019 0.215211 0.902016
Si Si5 0.853692 0.879426 0.668155
Si Si6 0.566292 0.024796 0.221904
Si Si7 0.735755 0.783475 0.874568
Si Si8 0.372895 0.139167 0.624709
O O1 0.341008 0.665544 0.486772
O O2 0.610598 0.774160 0.759527
O O3 0.521264 0.791009 0.423526
O O4 0.708453 0.044507 0.814371
O O5 0.275022 0.292430 0.569604
O O6 0.639333 0.608947 0.868877
O O7 0.492067 0.322308 0.837476
O O8 0.500000 0.500000 0.000000
O O9 0.217127 0.721886 0.243066
O O10 0.261893 0.753107 0.563442
O O11 0.981271 0.402595 0.177244
O O12 0.616455 0.132303 0.849385
O O13 0.775287 0.781814 0.751611
O O14 0.826745 0.978201 0.611719
O O15 0.065555 0.025579 0.852427
O O16 0.650634 0.984358 0.304723
O O17 0.500000 0.000000 0.000000
#
# Coordination Sequence:
#
# PCOD8040043 Si02
#       8
#     2   2   2   2   2   2   2   2
#     4  10  18  35  62  84 118 145 194 241 287 333
#     4  10  22  37  57  80 122 153 187 235 287 346
#     4  10  20  37  60  87 114 149 192 242 283 340
#     4  10  20  37  59  90 112 148 195 237 288 336
#     4   8  20  37  57  82 113 140 201 238 273 338
#     4  11  21  38  61  82 126 153 186 233 281 353
#     4  10  19  37  60  86 107 152 191 244 280 326
#     4   9  19  39  55  84 113 156 188 228 294 338
#
# _framework density 18.532896000000001
#
# number of rings (size 3 to 8) (size 9 to 14) (size 15 to 20)
#    0.750    1.500    2.500    1.125    0.000    4.000 
#    6.750    0.000    2.750    0.000    0.000    0.000 
#    0.000    0.000    0.000    0.000    0.000    0.000 
#
# Total GULP energy -198260.781257 kJ/mol
# GULP energy per Si atom -12391.298829 kJ/mol
# Density = 1.849071 g / cm^3
# Si number density = 18.532896 Si / 1000 Ang^3
#
#
#
# Elastic Constant Matrix: (Units=GPa)
#
#
# Indices 1 2 3 4 5 6 
#
# 1 75.3943 19.8366 46.2645 3.8718 -5.0100 -18.6163
# 2 19.8366 38.2929 31.4523 -2.7147 -1.5569 -11.0717
# 3 46.2645 31.4523 138.0861 9.6034 -11.7223 5.2053
# 4 3.8718 -2.7147 9.6034 33.6700 0.3009 2.6005
# 5 -5.0100 -1.5569 -11.7223 0.3009 35.6366 4.7360
# 6 -18.6163 -11.0717 5.2053 2.6005 4.7360 6.8374
#
#
#
# Elastic Compliance Matrix: (Units=1/GPa)
#
#
# Indices 1 2 3 4 5 6 
#
# 1 -0.004103 -0.028602 0.011692 0.000506 0.011965 -0.074867
# 2 -0.028602 0.009939 0.010729 0.007110 0.010505 -0.079930
# 3 0.011692 0.010729 -0.001413 -0.004344 -0.005747 0.055916
# 4 0.000506 0.007110 -0.004344 0.031021 -0.002086 0.005844
# 5 0.011965 0.010505 -0.005747 -0.002086 0.023187 0.038695
# 6 -0.074867 -0.079930 0.055916 0.005844 0.038695 -0.258611
#
#
# Mechanical properties :
#
#
# Convention : Reuss Voigt Hill
#
# Bulk Modulus (GPa) = -125.97789 49.65332 -38.16228
# Shear Modulus (GPa) = -26.27932 25.51014 -0.38459
#
# Velocity S-wave (km/s) = -3.76970 3.71412 -0.45604
# Velocity P-wave (km/s) = 9.33115 6.72630 4.57314
#
# Compressibility (1/GPa) = -0.00793790
#
# Stress axis : x y z
#
# Youngs Moduli (GPa) = -243.74339 100.61227 -707.75675
#
# Poissons Ratio (x) = 2.87773 8.27515
# Poissons Ratio (y) = -6.97160 7.59382
# Poissons Ratio (z) = 2.84987 -1.07951
#
# Static dielectric constant tensor:
#      x y z
#    x 3.349510 -0.117300 0.092550 
#    y -0.117300 3.201880 0.053200 
#    z 0.092550 0.053200 3.650890 
# 
# 
# High freq. dielectric constant tensor:
#      x y z
#    x 1.709790 -0.010120 0.001420 
#    y -0.010120 1.698230 0.000430 
#    z 0.001420 0.000430 1.723010 
# 
# From -- ./inp_files/335386.got.cif
#   From: 2010.06.25/outbox.cif.g09.slc.cpg/sg2_168_cif.got.tgz:335386.got - 2010.06.27 13:26:56.
