data_PCOD8040012
_publ_section_title
;
Structure prediction by ZEFSAII (Michael W. Deem and Ramdas Pophale) SiO2 
 PCOD8040012
Probable space group: P -1
;
_chemical_formula_sum "Si O2"
_cell_formula_units_Z 16
_cell_length_a 9.067945
_cell_length_b 15.080587
_cell_length_c 10.917782
_cell_angle_alpha 151.006273
_cell_angle_beta 69.488459
_cell_angle_gamma 112.142302
_cell_volume 669.595136
_symmetry_space_group_name_H-M "P -1"
_symmetry_group_IT_number 2
_symmetry_cell_setting 'triclinic'
loop_
_space_group_symop_operation_xyz
x,y,z
-x,-y,-z
loop_
_atom_site_type_symbol
_atom_site_label
_atom_site_fract_x
_atom_site_fract_y
_atom_site_fract_z
Si Si1 0.569347 0.192916 0.436472
Si Si2 0.283957 0.905285 0.966227
Si Si3 0.170272 0.281323 0.459917
Si Si4 0.636512 0.916893 0.427449
Si Si5 0.642806 0.606913 0.873514
Si Si6 0.411744 0.624321 0.764315
Si Si7 0.927033 0.776747 0.861530
Si Si8 0.847449 0.130037 0.446321
O O1 0.601417 0.078476 0.167476
O O2 0.402771 0.096904 0.432753
O O3 0.551773 0.399456 0.652369
O O4 0.708950 0.221892 0.533176
O O5 0.355291 0.797785 0.924622
O O6 0.114293 0.782314 0.835145
O O7 0.272004 0.116422 0.265375
O O8 0.265412 0.485751 0.699934
O O9 0.111163 0.251311 0.302544
O O10 0.013688 0.269047 0.577413
O O11 0.500000 0.000000 0.500000
O O12 0.799057 0.052293 0.503893
O O13 0.647421 0.709322 0.125814
O O14 0.536385 0.712395 0.938566
O O15 0.821680 0.612997 0.773028
O O16 0.500000 0.500000 0.500000
O O17 0.873752 0.966505 0.149035
#
# Coordination Sequence:
#
# PCOD8040012 Si02
#       8
#     2   2   2   2   2   2   2   2
#     4  11  18  33  62  88 115 152 196 255 297 332
#     4  11  22  37  61  97 119 162 195 238 311 349
#     4  11  20  37  60  86 128 159 195 242 298 364
#     4   9  21  38  61  86 110 153 206 261 285 335
#     4  11  23  39  56  91 124 152 198 246 298 361
#     4  12  25  38  53  93 136 159 184 239 306 378
#     4  10  18  35  61  86 121 150 203 253 281 354
#     4   9  18  34  57  90 110 150 203 251 289 334
#
# _framework density 23.895036999999999
#
# number of rings (size 3 to 8) (size 9 to 14) (size 15 to 20)
#    0.000    1.500    5.000    1.125    1.750    1.500 
#    6.750    0.000    0.000    3.750    0.000    0.000 
#    0.000    0.000    0.000    0.000    0.000    0.000 
#
# Total GULP energy -198357.504362 kJ/mol
# GULP energy per Si atom -12397.344023 kJ/mol
# Density = 2.384065 g / cm^3
# Si number density = 23.895037 Si / 1000 Ang^3
#
#
#
# Elastic Constant Matrix: (Units=GPa)
#
#
# Indices 1 2 3 4 5 6 
#
# 1 39.6919 21.5537 15.5413 -10.6356 -2.0159 3.5288
# 2 21.5537 138.6358 39.5873 -12.4213 2.0120 29.0707
# 3 15.5413 39.5873 47.3053 4.7751 -7.2149 2.0570
# 4 -10.6356 -12.4213 4.7751 25.3455 3.4101 -9.1266
# 5 -2.0159 2.0120 -7.2149 3.4101 26.2842 9.8352
# 6 3.5288 29.0707 2.0570 -9.1266 9.8352 48.0389
#
#
#
# Elastic Compliance Matrix: (Units=1/GPa)
#
#
# Indices 1 2 3 4 5 6 
#
# 1 0.035528 -0.000266 -0.014202 0.019063 -0.004649 0.002733
# 2 -0.000266 0.012006 -0.010830 0.006410 -0.002883 -0.004974
# 3 -0.014202 -0.010830 0.039038 -0.020700 0.013424 -0.000755
# 4 0.019063 0.006410 -0.020700 0.060482 -0.016476 0.010471
# 5 -0.004649 -0.002883 0.013424 -0.016476 0.048016 -0.011450
# 6 0.002733 -0.004974 -0.000755 0.010471 -0.011450 0.027992
#
#
# Mechanical properties :
#
#
# Convention : Reuss Voigt Hill
#
# Bulk Modulus (GPa) = 27.79590 42.11083 34.95336
# Shear Modulus (GPa) = 17.50383 29.86379 23.68381
#
# Velocity S-wave (km/s) = 2.70947 3.53907 3.15169
# Velocity P-wave (km/s) = 4.63098 5.86187 5.28240
#
# Compressibility (1/GPa) = 0.03597653
#
# Stress axis : x y z
#
# Youngs Moduli (GPa) = 28.14668 83.28968 25.61589
#
# Poissons Ratio (x) = 0.02213 0.36379
# Poissons Ratio (y) = 0.00748 0.27743
# Poissons Ratio (z) = 0.39974 0.90207
#
# Static dielectric constant tensor:
#      x y z
#    x 4.602840 0.621330 -0.049820 
#    y 0.621330 5.185800 0.057250 
#    z -0.049820 0.057250 3.999700 
# 
# 
# High freq. dielectric constant tensor:
#      x y z
#    x 1.940380 0.020240 -0.008390 
#    y 0.020240 1.960090 0.016690 
#    z -0.008390 0.016690 1.920900 
# 
# From -- ./inp_files/258512.got.cif
#   From: 2010.06.25/outbox.cif.g09.slc.cpg/sg2_130_cif.got.tgz:258512.got - 2010.06.27 13:26:56.
