data_PCOD8040687
_publ_section_title
;
Structure prediction by ZEFSAII (Michael W. Deem and Ramdas Pophale) SiO2 
 PCOD8040687
Probable space group: P -1
;
_chemical_formula_sum "Si O2"
_cell_formula_units_Z 14
_cell_length_a 12.901422
_cell_length_b 18.611241
_cell_length_c 8.445975
_cell_angle_alpha 143.284680
_cell_angle_beta 47.756131
_cell_angle_gamma 149.256776
_cell_volume 618.847281
_symmetry_space_group_name_H-M "P -1"
_symmetry_group_IT_number 2
_symmetry_cell_setting 'triclinic'
loop_
_space_group_symop_operation_xyz
x,y,z
-x,-y,-z
loop_
_atom_site_type_symbol
_atom_site_label
_atom_site_fract_x
_atom_site_fract_y
_atom_site_fract_z
Si Si1 0.480259 0.570646 0.989032
Si Si2 0.332600 0.904469 0.370250
Si Si3 0.903980 0.869013 0.146484
Si Si4 0.641092 0.246562 0.492490
Si Si5 0.266963 0.225815 0.493462
Si Si6 0.344016 0.690182 0.760194
Si Si7 0.030965 0.708861 0.589824
O O1 0.368218 0.420575 0.703681
O O2 0.500000 0.500000 0.000000
O O3 0.708581 0.754389 0.026066
O O4 0.344752 0.602802 0.218551
O O5 0.123011 0.811234 0.507426
O O6 0.500000 0.000000 0.500000
O O7 0.415723 0.055029 0.426542
O O8 0.299920 0.754771 0.060022
O O9 0.816717 0.830631 0.343024
O O10 0.076753 0.079194 0.311959
O O11 0.009902 0.805688 0.903937
O O12 0.675617 0.248656 0.275046
O O13 0.820734 0.296106 0.491856
O O14 0.431633 0.223745 0.297915
O O15 0.186378 0.483091 0.562592
#
# Coordination Sequence:
#
# PCOD8040687 Si02
#       7
#     2   2   2   2   2   2   2
#     4  10  18  38  58  91 129 157 202 269 313 363
#     4  10  24  41  59  89 133 169 207 260 324 380
#     4  10  19  36  61  87 125 163 209 252 317 375
#     4  11  22  40  64  97 126 162 217 269 306 376
#     4  10  19  33  62  92 120 166 207 259 318 364
#     4  12  20  39  68  94 124 165 220 262 313 374
#     4  11  23  41  64  95 131 169 203 265 326 378
#
# _framework density 22.622705
#
# number of rings (size 3 to 8) (size 9 to 14) (size 15 to 20)
#    0.000    1.429    4.286    3.857    0.000    0.000 
#    2.571    0.714    0.000    4.286    0.000    0.000 
#    0.000    0.000    0.000    0.000    0.000    0.000 
#
# Total GULP energy -173506.654245 kJ/mol
# GULP energy per Si atom -12393.332446 kJ/mol
# Density = 2.257121 g / cm^3
# Si number density = 22.622705 Si / 1000 Ang^3
#
#
#
# Elastic Constant Matrix: (Units=GPa)
#
#
# Indices 1 2 3 4 5 6 
#
# 1 25.6160 -18.2999 -155.6635 20.1396 -1.5536 20.9324
# 2 -18.2999 -24.9747 -754.6201 89.5717 29.5185 40.8093
# 3 -155.6635 -754.6201-3733.7689 373.5707 43.3039 100.2831
# 4 20.1396 89.5717 373.5707 21.4614 10.0007 3.8517
# 5 -1.5536 29.5185 43.3039 10.0007 31.2340 -1.1074
# 6 20.9324 40.8093 100.2831 3.8517 -1.1074 32.4194
#
#
#
# Elastic Compliance Matrix: (Units=1/GPa)
#
#
# Indices 1 2 3 4 5 6 
#
# 1 0.042652 -0.002320 -0.001723 0.000316 0.005923 -0.019125
# 2 -0.002320 0.009956 -0.002062 0.000696 -0.007066 -0.004982
# 3 -0.001723 -0.002062 0.000450 0.001627 0.000794 0.002148
# 4 0.000316 0.000696 0.001627 0.021379 -0.010062 -0.008996
# 5 0.005923 -0.007066 0.000794 -0.010062 0.041296 0.005221
# 6 -0.019125 -0.004982 0.002148 -0.008996 0.005221 0.044067
#
#
# Mechanical properties :
#
#
# Convention : Reuss Voigt Hill
#
# Bulk Modulus (GPa) = 24.48013 -621.14385 -298.33186
# Shear Modulus (GPa) = 26.93591 -169.94667 -71.50538
#
# Velocity S-wave (km/s) = 3.45434 -8.67671 -5.62818
# Velocity P-wave (km/s) = 5.17247 19.37893 13.20584
#
# Compressibility (1/GPa) = 0.04084946
#
# Stress axis : x y z
#
# Youngs Moduli (GPa) = 23.44563 100.43966 2220.61996
#
# Poissons Ratio (x) = 0.23305 3.82526
# Poissons Ratio (y) = 0.05440 4.57802
# Poissons Ratio (z) = 0.04039 0.20707
#
# Static dielectric constant tensor:
#      x y z
#    x 3.843560 0.429360 0.445530 
#    y 0.429360 5.545040 0.598410 
#    z 0.445530 0.598410 4.832710 
# 
# 
# High freq. dielectric constant tensor:
#      x y z
#    x 1.841890 0.024340 -0.004960 
#    y 0.024340 1.909730 0.010560 
#    z -0.004960 0.010560 1.908630 
# 
# From -- ./inp_files/270533.got.cif
#   From: 2010.06.25/outbox.cif.g09.slc.cpg/sg2_136_cif.got.tgz:270533.got - 2010.06.27 13:26:56.
