data_PCOD8040036
_publ_section_title
;
Structure prediction by ZEFSAII (Michael W. Deem and Ramdas Pophale) SiO2 
 PCOD8040036
Probable space group: P -1
;
_chemical_formula_sum "Si O2"
_cell_formula_units_Z 14
_cell_length_a 13.654646
_cell_length_b 16.082858
_cell_length_c 10.081991
_cell_angle_alpha 31.820639
_cell_angle_beta 145.376340
_cell_angle_gamma 131.294843
_cell_volume 657.563956
_symmetry_space_group_name_H-M "P -1"
_symmetry_group_IT_number 2
_symmetry_cell_setting 'triclinic'
loop_
_space_group_symop_operation_xyz
x,y,z
-x,-y,-z
loop_
_atom_site_type_symbol
_atom_site_label
_atom_site_fract_x
_atom_site_fract_y
_atom_site_fract_z
Si Si1 0.635182 0.323646 0.107278
Si Si2 0.779790 0.993659 0.042961
Si Si3 0.862822 0.929947 0.653204
Si Si4 0.680026 0.657766 0.750426
Si Si5 0.763540 0.969842 0.764252
Si Si6 0.500604 0.753623 0.681686
Si Si7 0.488997 0.824573 0.078612
O O1 0.501396 0.353171 0.043129
O O2 0.758330 0.160612 0.494786
O O3 0.740016 0.477373 0.011426
O O4 0.535765 0.308376 0.878862
O O5 0.691174 0.176511 0.678408
O O6 0.810282 0.906650 0.050180
O O7 0.969157 0.999734 0.313626
O O8 0.663165 0.902180 0.133916
O O9 0.841294 0.761172 0.788797
O O10 0.899468 0.902636 0.891048
O O11 0.682732 0.047081 0.272422
O O12 0.611369 0.651241 0.833443
O O13 0.522355 0.737870 0.373865
O O14 0.578858 0.917307 0.585062
#
# Coordination Sequence:
#
# PCOD8040036 Si02
#       7
#     2   2   2   2   2   2   2
#     4  10  18  35  62  80 108 151 182 223 280 327
#     4  11  18  35  63  83 107 144 192 227 270 318
#     4  10  22  34  58  86 110 145 187 229 272 321
#     4  11  22  35  54  85 118 144 178 228 285 322
#     4   9  17  36  59  84 109 138 194 231 259 328
#     4  10  18  36  60  83 108 143 190 228 265 328
#     4  11  21  39  58  81 111 148 189 225 264 336
#
# _framework density 21.290704000000002
#
# number of rings (size 3 to 8) (size 9 to 14) (size 15 to 20)
#    0.000    1.714    5.714    2.571    0.000    0.571 
#    0.000    2.857    6.286    4.286    0.000    0.000 
#    0.000    0.000    0.000    0.000    0.000    0.000 
#
# Total GULP energy -173440.876624 kJ/mol
# GULP energy per Si atom -12388.634045 kJ/mol
# Density = 2.124225 g / cm^3
# Si number density = 21.290704 Si / 1000 Ang^3
#
#
#
# Elastic Constant Matrix: (Units=GPa)
#
#
# Indices 1 2 3 4 5 6 
#
# 1 39.7152 42.5303 14.1791 11.2238 -1.4627 -4.3716
# 2 42.5303 162.3009 50.2543 -12.3248 17.0021 2.6382
# 3 14.1791 50.2543 42.1278 -0.4894 3.9164 7.6972
# 4 11.2238 -12.3248 -0.4894 29.6008 3.4569 6.9765
# 5 -1.4627 17.0021 3.9164 3.4569 19.5365 10.7915
# 6 -4.3716 2.6382 7.6972 6.9765 10.7915 28.8918
#
#
#
# Elastic Compliance Matrix: (Units=1/GPa)
#
#
# Indices 1 2 3 4 5 6 
#
# 1 0.060841 -0.021670 0.000687 -0.037489 0.023728 0.011191
# 2 -0.021670 0.019844 -0.014649 0.018132 -0.020271 0.002005
# 3 0.000687 -0.014649 0.042246 -0.003932 0.012503 -0.013534
# 4 -0.037489 0.018132 -0.003932 0.061052 -0.021404 -0.013028
# 5 0.023728 -0.020271 0.012503 -0.021404 0.085506 -0.024659
# 6 0.011191 0.002005 -0.013534 -0.013028 -0.024659 0.052084
#
#
# Mechanical properties :
#
#
# Convention : Reuss Voigt Hill
#
# Bulk Modulus (GPa) = 19.35526 50.89679 35.12602
# Shear Modulus (GPa) = 12.19332 24.75115 18.47223
#
# Velocity S-wave (km/s) = 2.39572 3.41329 2.94873
# Velocity P-wave (km/s) = 4.09431 6.28424 5.30354
#
# Compressibility (1/GPa) = 0.05166553
#
# Stress axis : x y z
#
# Youngs Moduli (GPa) = 16.43634 50.39360 23.67084
#
# Poissons Ratio (x) = 1.09204 -0.01626
# Poissons Ratio (y) = 0.35618 0.34676
# Poissons Ratio (z) = -0.01129 0.73823
#
# Static dielectric constant tensor:
#      x y z
#    x 4.118600 -0.153140 -0.231810 
#    y -0.153140 4.011290 0.091080 
#    z -0.231810 0.091080 3.268040 
# 
# 
# High freq. dielectric constant tensor:
#      x y z
#    x 1.840200 -0.014210 -0.018650 
#    y -0.014210 1.838340 0.008780 
#    z -0.018650 0.008780 1.781010 
# 
# From -- ./inp_files/169644.got.cif
#   From: 2010.06.25/outbox.cif.g09.slc.cpg/sg2_85_cif.got.tgz:169644.got - 2010.06.27 13:26:56.
