data_PCOD8040219
_publ_section_title
;
Structure prediction by ZEFSAII (Michael W. Deem and Ramdas Pophale) SiO2 
 PCOD8040219
Probable space group: P -1
;
_chemical_formula_sum "Si O2"
_cell_formula_units_Z 16
_cell_length_a 13.699299
_cell_length_b 11.351861
_cell_length_c 13.642970
_cell_angle_alpha 51.926914
_cell_angle_beta 37.392371
_cell_angle_gamma 41.090124
_cell_volume 845.956088
_symmetry_space_group_name_H-M "P -1"
_symmetry_group_IT_number 2
_symmetry_cell_setting 'triclinic'
loop_
_space_group_symop_operation_xyz
x,y,z
-x,-y,-z
loop_
_atom_site_type_symbol
_atom_site_label
_atom_site_fract_x
_atom_site_fract_y
_atom_site_fract_z
Si Si1 0.186128 0.805306 0.436512
Si Si2 0.814348 0.215183 0.777821
Si Si3 0.535942 0.127810 0.140197
Si Si4 0.280702 0.565394 0.655376
Si Si5 0.494473 0.816881 0.299670
Si Si6 0.217193 0.437198 0.342991
Si Si7 0.458576 0.863049 0.652066
Si Si8 0.774753 0.134129 0.335165
O O1 0.196902 0.743603 0.349314
O O2 0.168337 0.669230 0.592261
O O3 0.373363 0.809043 0.310797
O O4 0.000000 0.000000 0.500000
O O5 0.771921 0.392113 0.775777
O O6 0.652862 0.178964 0.952226
O O7 0.022313 0.051860 0.727988
O O8 0.315559 0.301383 0.241177
O O9 0.634353 0.065137 0.202143
O O10 0.538254 0.967110 0.166313
O O11 0.500000 0.500000 0.500000
O O12 0.297214 0.378095 0.757372
O O13 0.196392 0.704810 0.742706
O O14 0.370402 0.870895 0.470640
O O15 0.339698 0.330730 0.397490
O O16 0.000000 0.500000 0.500000
O O17 0.312381 0.837945 0.717981
O O18 0.500000 0.000000 0.500000
#
# Coordination Sequence:
#
# PCOD8040219 Si02
#       8
#     2   2   2   2   2   2   2   2
#     4  10  19  33  61  87 110 152 199 238 286 342
#     4  12  22  37  59  85 127 150 185 246 298 339
#     4  10  24  37  56  88 120 152 190 246 295 340
#     4   8  18  31  56  85 103 141 202 239 265 333
#     4  10  19  37  58  81 114 149 204 240 278 344
#     4  10  23  39  61  85 113 153 199 236 283 354
#     4  10  20  35  63  81 110 151 198 234 287 341
#     4  10  18  36  58  85 111 148 199 237 284 345
#
# _framework density 18.913509999999999
#
# number of rings (size 3 to 8) (size 9 to 14) (size 15 to 20)
#    0.750    1.500    3.750    1.875    5.250    1.000 
#    0.000    0.625    0.000    0.000    0.000    0.000 
#    0.000    0.000    0.000    0.000    0.000    0.000 
#
# Total GULP energy -198266.011853 kJ/mol
# GULP energy per Si atom -12391.625741 kJ/mol
# Density = 1.887046 g / cm^3
# Si number density = 18.913510 Si / 1000 Ang^3
#
#
#
# Elastic Constant Matrix: (Units=GPa)
#
#
# Indices 1 2 3 4 5 6 
#
# 1 87.8867 39.2068 13.3438 2.6026 -1.6415 -9.9034
# 2 39.2068 170.5224 37.9610 -18.2018 -14.1779 -4.2313
# 3 13.3438 37.9610 50.7340 -11.3349 -12.1470 1.0251
# 4 2.6026 -18.2018 -11.3349 19.2164 9.1289 -7.7696
# 5 -1.6415 -14.1779 -12.1470 9.1289 20.3588 -2.1657
# 6 -9.9034 -4.2313 1.0251 -7.7696 -2.1657 35.7753
#
#
#
# Elastic Compliance Matrix: (Units=1/GPa)
#
#
# Indices 1 2 3 4 5 6 
#
# 1 0.013540 -0.003063 -0.002478 -0.005314 0.000109 0.002309
# 2 -0.003063 0.008175 -0.003808 0.006331 0.000509 0.001634
# 3 -0.002478 -0.003808 0.027434 0.008475 0.009771 0.000510
# 4 -0.005314 0.006331 0.008475 0.082456 -0.026304 0.015350
# 5 0.000109 0.000509 0.009771 -0.026304 0.066910 -0.001852
# 6 0.002309 0.001634 0.000510 0.015350 -0.001852 0.031992
#
#
# Mechanical properties :
#
#
# Convention : Reuss Voigt Hill
#
# Bulk Modulus (GPa) = 32.83729 54.46290 43.65009
# Shear Modulus (GPa) = 19.27866 29.64555 24.46210
#
# Velocity S-wave (km/s) = 3.19612 3.96337 3.60024
# Velocity P-wave (km/s) = 5.56954 7.05710 6.35698
#
# Compressibility (1/GPa) = 0.03045319
#
# Stress axis : x y z
#
# Youngs Moduli (GPa) = 73.85344 122.32749 36.45089
#
# Poissons Ratio (x) = 0.37463 0.09031
# Poissons Ratio (y) = 0.22618 0.13880
# Poissons Ratio (z) = 0.18298 0.46581
#
# Static dielectric constant tensor:
#      x y z
#    x 4.594160 -0.362040 0.697660 
#    y -0.362040 4.376680 -0.429050 
#    z 0.697660 -0.429050 3.391450 
# 
# 
# High freq. dielectric constant tensor:
#      x y z
#    x 1.725210 0.001140 0.005290 
#    y 0.001140 1.757970 -0.007140 
#    z 0.005290 -0.007140 1.688320 
# 
# From -- ./inp_files/531031.got.cif
#   From: 2010.06.25/outbox.cif.g09.slc.cpg/sg2_266_cif.got.tgz:531031.got - 2010.06.27 13:26:56.
