data_PCOD8040202
_publ_section_title
;
Structure prediction by ZEFSAII (Michael W. Deem and Ramdas Pophale) SiO2 
 PCOD8040202
Probable space group: P -1
;
_chemical_formula_sum "Si O2"
_cell_formula_units_Z 16
_cell_length_a 8.703960
_cell_length_b 8.569119
_cell_length_c 15.040109
_cell_angle_alpha 87.274392
_cell_angle_beta 132.618842
_cell_angle_gamma 77.979701
_cell_volume 779.180152
_symmetry_space_group_name_H-M "P -1"
_symmetry_group_IT_number 2
_symmetry_cell_setting 'triclinic'
loop_
_space_group_symop_operation_xyz
x,y,z
-x,-y,-z
loop_
_atom_site_type_symbol
_atom_site_label
_atom_site_fract_x
_atom_site_fract_y
_atom_site_fract_z
Si Si1 0.872651 0.183008 0.715438
Si Si2 0.760532 0.012093 0.831134
Si Si3 0.398872 0.512009 0.292873
Si Si4 0.192922 0.785882 0.511878
Si Si5 0.665488 0.291094 0.915351
Si Si6 0.350082 0.128661 0.870670
Si Si7 0.931119 0.640646 0.895658
Si Si8 0.710202 0.944790 0.342043
O O1 0.889666 0.027915 0.791053
O O2 0.679288 0.341358 0.671277
O O3 0.818807 0.143101 0.594998
O O4 0.106011 0.217777 0.811798
O O5 0.812504 0.113414 0.933009
O O6 0.497380 0.104892 0.702729
O O7 0.795076 0.822560 0.876244
O O8 0.645981 0.401715 0.419144
O O9 0.413788 0.573876 0.197129
O O10 0.224413 0.409175 0.234807
O O11 0.946771 0.798397 0.449524
O O12 0.289843 0.890243 0.613224
O O13 0.456995 0.272269 0.886937
O O14 0.833957 0.342275 0.046639
O O15 0.332142 0.021127 0.780656
O O16 0.500000 0.000000 0.000000
O O17 0.000000 0.500000 0.000000
#
# Coordination Sequence:
#
# PCOD8040202 Si02
#       8
#     2   2   2   2   2   2   2   2
#     4  10  22  36  60  86 118 154 192 234 290 334
#     4  10  18  36  57  88 111 149 199 232 282 344
#     4  10  20  37  57  86 119 150 188 239 286 340
#     4  10  19  39  59  84 118 150 195 235 286 337
#     4   9  20  35  58  84 112 155 192 228 286 347
#     4  10  20  38  60  84 117 147 194 238 285 339
#     4  10  19  32  55  84 116 148 188 236 283 337
#     4   9  20  35  61  87 107 153 195 232 283 338
#
# _framework density 20.534403999999999
#
# number of rings (size 3 to 8) (size 9 to 14) (size 15 to 20)
#    0.000    2.250    1.250    1.500    0.000    5.500 
#    0.000   11.875    5.500    0.000    0.000    0.000 
#    0.000    0.000    0.000    0.000    0.000    0.000 
#
# Total GULP energy -198239.759747 kJ/mol
# GULP energy per Si atom -12389.984984 kJ/mol
# Density = 2.048767 g / cm^3
# Si number density = 20.534404 Si / 1000 Ang^3
#
#
#
# Elastic Constant Matrix: (Units=GPa)
#
#
# Indices 1 2 3 4 5 6 
#
# 1 118.7281 30.1531 34.1297 -6.6924 12.7821 12.5726
# 2 30.1531 84.3075 32.7638 -7.7644 4.6889 7.9839
# 3 34.1297 32.7638 79.3202 -2.6227 5.7338 4.1804
# 4 -6.6924 -7.7644 -2.6227 33.6731 -0.3929 6.6887
# 5 12.7821 4.6889 5.7338 -0.3929 24.2188 -1.4759
# 6 12.5726 7.9839 4.1804 6.6887 -1.4759 28.1240
#
#
#
# Elastic Compliance Matrix: (Units=1/GPa)
#
#
# Indices 1 2 3 4 5 6 
#
# 1 0.010983 -0.001679 -0.003344 0.002426 -0.004931 -0.004772
# 2 -0.001679 0.015197 -0.005174 0.003486 -0.000999 -0.003676
# 3 -0.003344 -0.005174 0.016198 -0.000743 -0.001039 0.000678
# 4 0.002426 0.003486 -0.000743 0.032866 -0.001848 -0.009877
# 5 -0.004931 -0.000999 -0.001039 -0.001848 0.044633 0.005424
# 6 -0.004772 -0.003676 0.000678 -0.009877 0.005424 0.041267
#
#
# Mechanical properties :
#
#
# Convention : Reuss Voigt Hill
#
# Bulk Modulus (GPa) = 45.48637 52.93879 49.21258
# Shear Modulus (GPa) = 26.47387 29.55711 28.01549
#
# Velocity S-wave (km/s) = 3.59450 3.79805 3.69768
# Velocity P-wave (km/s) = 6.27906 6.71343 6.49987
#
# Compressibility (1/GPa) = 0.02198461
#
# Stress axis : x y z
#
# Youngs Moduli (GPa) = 91.04736 65.80158 61.73651
#
# Poissons Ratio (x) = 0.11049 0.20646
# Poissons Ratio (y) = 0.15288 0.31940
# Poissons Ratio (z) = 0.30447 0.34044
#
# Static dielectric constant tensor:
#      x y z
#    x 3.939740 0.158860 0.376230 
#    y 0.158860 3.718210 0.144530 
#    z 0.376230 0.144530 3.840700 
# 
# 
# High freq. dielectric constant tensor:
#      x y z
#    x 1.795910 0.004630 0.029600 
#    y 0.004630 1.784650 0.004350 
#    z 0.029600 0.004350 1.807490 
# 
# From -- ./inp_files/203693.got.cif
#   From: 2010.06.25/outbox.cif.g09.slc.cpg/sg2_102_cif.got.tgz:203693.got - 2010.06.27 13:26:56.
