data_PCOD8040008
_publ_section_title
;
Structure prediction by ZEFSAII (Michael W. Deem and Ramdas Pophale) SiO2 
 PCOD8040008
Probable space group: P -1
;
_chemical_formula_sum "Si O2"
_cell_formula_units_Z 16
_cell_length_a 17.326054
_cell_length_b 12.168409
_cell_length_c 11.254777
_cell_angle_alpha 51.604245
_cell_angle_beta 35.788479
_cell_angle_gamma 35.592523
_cell_volume 802.428693
_symmetry_space_group_name_H-M "P -1"
_symmetry_group_IT_number 2
_symmetry_cell_setting 'triclinic'
loop_
_space_group_symop_operation_xyz
x,y,z
-x,-y,-z
loop_
_atom_site_type_symbol
_atom_site_label
_atom_site_fract_x
_atom_site_fract_y
_atom_site_fract_z
Si Si1 0.180404 0.349485 0.531659
Si Si2 0.799120 0.008620 0.502566
Si Si3 0.159705 0.447728 0.758046
Si Si4 0.106634 0.627770 0.254899
Si Si5 0.377773 0.485367 0.829604
Si Si6 0.718353 0.381877 0.392568
Si Si7 0.579049 0.067991 0.928762
Si Si8 0.486274 0.950662 0.326529
O O1 0.126001 0.444670 0.664392
O O2 0.218027 0.453422 0.326549
O O3 0.007240 0.391873 0.673607
O O4 0.352117 0.122738 0.471888
O O5 0.805103 0.172271 0.387040
O O6 0.772093 0.972126 0.696536
O O7 0.630933 0.071646 0.593324
O O8 0.986952 0.822598 0.345633
O O9 0.159608 0.614902 0.673011
O O10 0.357927 0.247475 0.672619
O O11 0.000000 0.500000 0.000000
O O12 0.229226 0.637287 0.009792
O O13 0.529817 0.494498 0.620340
O O14 0.300834 0.513531 0.774669
O O15 0.447445 0.292467 0.928742
O O16 0.500000 0.000000 0.000000
O O17 0.586850 0.005992 0.094673
#
# Coordination Sequence:
#
# PCOD8040008 Si02
#       8
#     2   2   2   2   2   2   2   2
#     4  10  22  37  58  89 123 150 192 243 284 345
#     4   9  20  34  61  89 119 150 190 246 281 339
#     4  12  25  39  60  84 119 157 192 239 294 353
#     4  10  20  37  62  91 115 148 200 242 285 332
#     4  10  18  35  61  85 116 151 196 241 281 340
#     4  10  21  38  56  87 119 153 194 235 293 349
#     4   9  16  28  54  86 112 147 185 233 287 328
#     4  10  19  37  59  88 116 153 193 237 295 337
#
# _framework density 19.939465999999999
#
# number of rings (size 3 to 8) (size 9 to 14) (size 15 to 20)
#    0.000    2.000    1.250    4.125    3.500    0.500 
#    0.000    3.750    0.000    0.000    0.000    0.000 
#    0.000    0.000    0.000    0.000    0.000    0.000 
#
# Total GULP energy -198277.521010 kJ/mol
# GULP energy per Si atom -12392.345063 kJ/mol
# Density = 1.989408 g / cm^3
# Si number density = 19.939466 Si / 1000 Ang^3
#
#
#
# Elastic Constant Matrix: (Units=GPa)
#
#
# Indices 1 2 3 4 5 6 
#
# 1 76.0984 38.5578 33.8720 -2.1800 6.4297 22.7921
# 2 38.5578 100.7709 48.0197 7.3849 -1.8650 13.5255
# 3 33.8720 48.0197 122.1578 9.0957 17.6281 16.8901
# 4 -2.1800 7.3849 9.0957 33.2042 1.3593 2.5987
# 5 6.4297 -1.8650 17.6281 1.3593 24.7474 0.1499
# 6 22.7921 13.5255 16.8901 2.5987 0.1499 28.5145
#
#
#
# Elastic Compliance Matrix: (Units=1/GPa)
#
#
# Indices 1 2 3 4 5 6 
#
# 1 0.021603 -0.006272 -0.001136 0.004442 -0.005436 -0.013996
# 2 -0.006272 0.014867 -0.004990 -0.002704 0.006446 0.001130
# 3 -0.001136 -0.004990 0.012392 -0.001697 -0.008791 -0.003865
# 4 0.004442 -0.002704 -0.001697 0.031877 -0.001875 -0.004158
# 5 -0.005436 0.006446 -0.008791 -0.001875 0.048633 0.006410
# 6 -0.013996 0.001130 -0.003865 -0.004158 0.006410 0.048355
#
#
# Mechanical properties :
#
#
# Convention : Reuss Voigt Hill
#
# Bulk Modulus (GPa) = 41.55288 59.99178 50.77233
# Shear Modulus (GPa) = 23.74785 29.19839 26.47312
#
# Velocity S-wave (km/s) = 3.45483 3.83084 3.64768
# Velocity P-wave (km/s) = 6.06623 7.05119 6.57718
#
# Compressibility (1/GPa) = 0.02406572
#
# Stress axis : x y z
#
# Youngs Moduli (GPa) = 46.29020 67.26218 80.69732
#
# Poissons Ratio (x) = 0.42189 0.09165
# Poissons Ratio (y) = 0.29035 0.40269
# Poissons Ratio (z) = 0.05257 0.33565
#
# Static dielectric constant tensor:
#      x y z
#    x 3.394120 0.025670 0.295000 
#    y 0.025670 3.695140 -0.078040 
#    z 0.295000 -0.078040 4.009780 
# 
# 
# High freq. dielectric constant tensor:
#      x y z
#    x 1.741320 0.009030 0.019040 
#    y 0.009030 1.782580 0.003580 
#    z 0.019040 0.003580 1.786160 
# 
# From -- ./inp_files/464353.got.cif
#   From: 2010.06.25/outbox.cif.g09.slc.cpg/sg2_233_cif.got.tgz:464353.got - 2010.06.27 13:26:56.
