data_PCOD8040674
_publ_section_title
;
Structure prediction by ZEFSAII (Michael W. Deem and Ramdas Pophale) SiO2 
 PCOD8040674
Probable space group: P -1
;
_chemical_formula_sum "Si O2"
_cell_formula_units_Z 14
_cell_length_a 24.178089
_cell_length_b 9.319054
_cell_length_c 20.166810
_cell_angle_alpha 32.549932
_cell_angle_beta 15.951568
_cell_angle_gamma 32.239579
_cell_volume 652.394479
_symmetry_space_group_name_H-M "P -1"
_symmetry_group_IT_number 2
_symmetry_cell_setting 'triclinic'
loop_
_space_group_symop_operation_xyz
x,y,z
-x,-y,-z
loop_
_atom_site_type_symbol
_atom_site_label
_atom_site_fract_x
_atom_site_fract_y
_atom_site_fract_z
Si Si1 0.527811 0.231629 0.204187
Si Si2 0.246051 0.384384 0.266197
Si Si3 0.681272 0.184739 0.800199
Si Si4 0.160294 0.105006 0.938546
Si Si5 0.239933 0.038025 0.524840
Si Si6 0.109633 0.659782 0.728156
Si Si7 0.967053 0.936736 0.455301
O O1 0.340140 0.503030 0.324275
O O2 0.432218 0.000450 0.368449
O O3 0.624068 0.118373 0.208715
O O4 0.711954 0.313711 0.915092
O O5 0.221573 0.328128 0.394462
O O6 0.051159 0.318363 0.473944
O O7 0.449493 0.153851 0.095464
O O8 0.809793 0.133387 0.740506
O O9 0.790501 0.968710 0.702885
O O10 0.188985 0.327118 0.763562
O O11 0.104513 0.263392 0.012255
O O12 0.975629 0.957440 0.188938
O O13 0.277234 0.794109 0.521570
O O14 0.067593 0.780118 0.656066
#
# Coordination Sequence:
#
# PCOD8040674 Si02
#       7
#     2   2   2   2   2   2   2
#     4  10  21  29  51  78 109 124 165 204 253 304
#     4   9  20  30  51  79 101 131 165 204 255 297
#     4   9  22  32  51  80  98 133 168 203 253 297
#     4   9  19  36  48  78 101 134 165 207 247 293
#     4   9  18  32  50  76 104 133 161 204 258 290
#     4   8  19  35  55  71  97 140 169 200 249 289
#     4  10  18  38  54  69 105 132 169 209 243 294
#
# _framework density 21.459408
#
# number of rings (size 3 to 8) (size 9 to 14) (size 15 to 20)
#    1.714    1.143    0.000    0.857    4.000    1.143 
#    0.000    0.714    0.000    0.857    0.000    0.000 
#    0.000    0.000    0.000    0.000    0.000    0.000 
#
# Total GULP energy -173434.974746 kJ/mol
# GULP energy per Si atom -12388.212482 kJ/mol
# Density = 2.141057 g / cm^3
# Si number density = 21.459408 Si / 1000 Ang^3
#
#
#
# Elastic Constant Matrix: (Units=GPa)
#
#
# Indices 1 2 3 4 5 6 
#
# 1 73.9787 32.6694 35.1291 -5.1328 -17.9569 -13.8259
# 2 32.6694 98.9912 39.9369 -20.4225 -8.9369 -28.8984
# 3 35.1291 39.9369 79.6581 -6.1110 -24.5868 -18.4313
# 4 -5.1328 -20.4225 -6.1110 30.5325 -4.7459 2.6463
# 5 -17.9569 -8.9369 -24.5868 -4.7459 31.1794 7.0959
# 6 -13.8259 -28.8984 -18.4313 2.6463 7.0959 29.0552
#
#
#
# Elastic Compliance Matrix: (Units=1/GPa)
#
#
# Indices 1 2 3 4 5 6 
#
# 1 0.018900 -0.003350 -0.004320 0.000952 0.006372 0.001279
# 2 -0.003350 0.018975 -0.004642 0.009710 -0.001836 0.013898
# 3 -0.004320 -0.004642 0.021801 0.002197 0.012838 0.003822
# 4 0.000952 0.009710 0.002197 0.040954 0.010089 0.005310
# 5 0.006372 -0.001836 0.012838 0.010089 0.047602 -0.003194
# 6 0.001279 0.013898 0.003822 0.005310 -0.003194 0.051570
#
#
# Mechanical properties :
#
#
# Convention : Reuss Voigt Hill
#
# Bulk Modulus (GPa) = 28.52833 52.01097 40.26965
# Shear Modulus (GPa) = 21.17678 27.81292 24.49485
#
# Velocity S-wave (km/s) = 3.14479 3.60400 3.38220
# Velocity P-wave (km/s) = 5.14871 6.45043 5.83598
#
# Compressibility (1/GPa) = 0.03505288
#
# Stress axis : x y z
#
# Youngs Moduli (GPa) = 52.91131 52.70176 45.86924
#
# Poissons Ratio (x) = 0.17653 0.19814
# Poissons Ratio (y) = 0.17723 0.21292
# Poissons Ratio (z) = 0.22856 0.24464
#
# Static dielectric constant tensor:
#      x y z
#    x 3.450710 -0.180080 -0.130050 
#    y -0.180080 3.767600 0.017960 
#    z -0.130050 0.017960 3.708290 
# 
# 
# High freq. dielectric constant tensor:
#      x y z
#    x 1.806740 -0.020950 -0.017460 
#    y -0.020950 1.833640 0.003420 
#    z -0.017460 0.003420 1.829320 
# 
# From -- ./inp_files/509743.got.cif
#   From: 2010.06.25/outbox.cif.g09.slc.cpg/sg2_255_cif.got.tgz:509743.got - 2010.06.27 13:26:56.
