data_PCOD8040437
_publ_section_title
;
Structure prediction by ZEFSAII (Michael W. Deem and Ramdas Pophale) SiO2 
 PCOD8040437
Probable space group: P -1
;
_chemical_formula_sum "Si O2"
_cell_formula_units_Z 16
_cell_length_a 11.631484
_cell_length_b 9.402645
_cell_length_c 9.253946
_cell_angle_alpha 102.315374
_cell_angle_beta 47.816309
_cell_angle_gamma 102.842153
_cell_volume 728.305192
_symmetry_space_group_name_H-M "P -1"
_symmetry_group_IT_number 2
_symmetry_cell_setting 'triclinic'
loop_
_space_group_symop_operation_xyz
x,y,z
-x,-y,-z
loop_
_atom_site_type_symbol
_atom_site_label
_atom_site_fract_x
_atom_site_fract_y
_atom_site_fract_z
Si Si1 0.600379 0.347044 0.281710
Si Si2 0.363757 0.888510 0.217445
Si Si3 0.905096 0.288150 0.441619
Si Si4 0.891097 0.867789 0.990873
Si Si5 0.270305 0.345513 0.678561
Si Si6 0.859916 0.612483 0.501842
Si Si7 0.544054 0.637854 0.897564
Si Si8 0.333050 0.944520 0.940537
O O1 0.450234 0.310096 0.505157
O O2 0.723040 0.480415 0.260514
O O3 0.536862 0.396467 0.194013
O O4 0.699797 0.208512 0.151915
O O5 0.243763 0.829740 0.429828
O O6 0.476193 0.025582 0.215934
O O7 0.488294 0.776766 0.051871
O O8 0.276164 0.929598 0.152993
O O9 0.850967 0.436667 0.454254
O O10 0.013999 0.219284 0.221003
O O11 0.978815 0.322539 0.546057
O O12 0.815714 0.752947 0.146420
O O13 0.751214 0.931952 0.039325
O O14 0.000000 0.000000 0.000000
O O15 0.165383 0.314118 0.616094
O O16 0.729844 0.659735 0.731018
O O17 0.500000 0.500000 0.000000
#
# Coordination Sequence:
#
# PCOD8040437 Si02
#       8
#     2   2   2   2   2   2   2   2
#     4   9  22  41  72  99 125 178 233 283 340 392
#     4  10  22  41  71 100 132 178 230 293 333 400
#     4  11  25  42  68 103 134 183 231 273 347 403
#     4  12  30  46  63 102 148 192 219 272 348 416
#     4  10  24  45  68 100 137 177 228 285 342 401
#     4  10  23  42  70 103 134 174 227 289 337 405
#     4  10  18  36  68 101 134 166 226 282 342 394
#     4  10  24  44  68  99 135 180 232 280 341 401
#
# _framework density 21.968812
#
# number of rings (size 3 to 8) (size 9 to 14) (size 15 to 20)
#    0.000    1.750    1.250    0.750    8.750    4.500 
#    0.000    0.000    0.000    0.000    0.000    0.000 
#    0.000    0.000    0.000    0.000    0.000    0.000 
#
# Total GULP energy -198397.861946 kJ/mol
# GULP energy per Si atom -12399.866372 kJ/mol
# Density = 2.191881 g / cm^3
# Si number density = 21.968812 Si / 1000 Ang^3
#
#
#
# Elastic Constant Matrix: (Units=GPa)
#
#
# Indices 1 2 3 4 5 6 
#
# 1 70.4167 33.3078 34.6019 -5.8505 1.3905 -11.1888
# 2 33.3078 101.2279 68.4128 -15.1933 5.8025 -8.2801
# 3 34.6019 68.4128 137.4015 -17.3950 1.1948 -10.2172
# 4 -5.8505 -15.1933 -17.3950 32.3164 3.7569 -2.1034
# 5 1.3905 5.8025 1.1948 3.7569 19.1401 3.2347
# 6 -11.1888 -8.2801 -10.2172 -2.1034 3.2347 37.2316
#
#
#
# Elastic Compliance Matrix: (Units=1/GPa)
#
#
# Indices 1 2 3 4 5 6 
#
# 1 0.017823 -0.003966 -0.002141 0.000555 -0.000741 0.003982
# 2 -0.003966 0.016749 -0.006641 0.004310 -0.005462 0.001428
# 3 -0.002141 -0.006641 0.011543 0.002693 0.000728 0.001136
# 4 0.000555 0.004310 0.002693 0.035914 -0.009360 0.004706
# 5 -0.000741 -0.005462 0.000728 -0.009360 0.056882 -0.006708
# 6 0.003982 0.001428 0.001136 0.004706 -0.006708 0.029534
#
#
# Mechanical properties :
#
#
# Convention : Reuss Voigt Hill
#
# Bulk Modulus (GPa) = 48.50097 64.63234 56.56666
# Shear Modulus (GPa) = 24.89883 29.25250 27.07567
#
# Velocity S-wave (km/s) = 3.37021 3.65300 3.51445
# Velocity P-wave (km/s) = 6.10488 6.87578 6.50177
#
# Compressibility (1/GPa) = 0.02061814
#
# Stress axis : x y z
#
# Youngs Moduli (GPa) = 56.10855 59.70592 86.63424
#
# Poissons Ratio (x) = 0.23680 0.18546
# Poissons Ratio (y) = 0.22253 0.57536
# Poissons Ratio (z) = 0.12011 0.39652
#
# Static dielectric constant tensor:
#      x y z
#    x 3.934180 -0.032160 0.073030 
#    y -0.032160 3.824620 0.079940 
#    z 0.073030 0.079940 3.971990 
# 
# 
# High freq. dielectric constant tensor:
#      x y z
#    x 1.862260 -0.001050 0.005720 
#    y -0.001050 1.873460 0.003020 
#    z 0.005720 0.003020 1.859850 
# 
# From -- ./inp_files/244399.got.cif
#   From: 2010.06.25/outbox.cif.g09.slc.cpg/sg2_123_cif.got.tgz:244399.got - 2010.06.27 13:26:56.
