data_PCOD8040652
_publ_section_title
;
Structure prediction by ZEFSAII (Michael W. Deem and Ramdas Pophale) SiO2 
 PCOD8040652
Probable space group: P -1
;
_chemical_formula_sum "Si O2"
_cell_formula_units_Z 16
_cell_length_a 23.106997
_cell_length_b 23.579160
_cell_length_c 8.934436
_cell_angle_alpha 27.697202
_cell_angle_beta 28.989819
_cell_angle_gamma 19.333238
_cell_volume 724.316330
_symmetry_space_group_name_H-M "P -1"
_symmetry_group_IT_number 2
_symmetry_cell_setting 'triclinic'
loop_
_space_group_symop_operation_xyz
x,y,z
-x,-y,-z
loop_
_atom_site_type_symbol
_atom_site_label
_atom_site_fract_x
_atom_site_fract_y
_atom_site_fract_z
Si Si1 0.748450 0.044767 0.230521
Si Si2 0.363794 0.509587 0.717966
Si Si3 0.415195 0.214839 0.443576
Si Si4 0.872602 0.498965 0.360564
Si Si5 0.971378 0.255446 0.467898
Si Si6 0.878245 0.706006 0.232250
Si Si7 0.645897 0.371491 0.838124
Si Si8 0.982843 0.786491 0.058990
O O1 0.619047 0.041903 0.449326
O O2 0.842837 0.920312 0.456688
O O3 0.893905 0.957180 0.971302
O O4 0.634392 0.251366 0.055541
O O5 0.500000 0.500000 0.500000
O O6 0.387357 0.495493 0.517827
O O7 0.410195 0.339710 0.063494
O O8 0.161779 0.704651 0.768642
O O9 0.311644 0.301240 0.633926
O O10 0.323096 0.179739 0.633085
O O11 0.832718 0.427931 0.492249
O O12 0.969464 0.368838 0.589684
O O13 0.000000 0.500000 0.000000
O O14 0.855684 0.223894 0.760492
O O15 0.013654 0.314509 0.099853
O O16 0.849675 0.834251 0.120599
O O17 0.000000 0.500000 0.500000
O O18 0.500000 0.500000 0.000000
#
# Coordination Sequence:
#
# PCOD8040652 Si02
#       8
#     2   2   2   2   2   2   2   2
#     4  11  26  44  61  98 141 178 210 273 348 391
#     4  11  22  43  70  98 123 176 230 272 323 393
#     4  11  22  40  68  97 132 168 233 265 325 404
#     4  10  18  37  67  94 125 178 215 264 320 392
#     4  11  23  41  64 100 135 170 219 271 340 380
#     4  12  20  41  71  96 127 173 227 275 315 395
#     4  12  25  45  71  96 131 173 234 277 318 400
#     4  10  23  41  66  96 136 168 220 272 333 393
#
# _framework density 22.089796
#
# number of rings (size 3 to 8) (size 9 to 14) (size 15 to 20)
#    0.000    1.000    6.250    1.125    3.500    1.500 
#    2.250    0.000    0.000    0.000    0.000    0.000 
#    0.000    0.000    0.000    0.000    0.000    0.000 
#
# Total GULP energy -198230.393951 kJ/mol
# GULP energy per Si atom -12389.399622 kJ/mol
# Density = 2.203952 g / cm^3
# Si number density = 22.089796 Si / 1000 Ang^3
#
#
#
# Elastic Constant Matrix: (Units=GPa)
#
#
# Indices 1 2 3 4 5 6 
#
# 1 145.6243 42.1807 46.9132 17.2703 -4.3361 -8.9035
# 2 42.1807 80.4582 34.8459 17.0259 7.7709 1.5591
# 3 46.9132 34.8459 108.0075 27.0610 11.6789 -1.3484
# 4 17.2703 17.0259 27.0610 27.9425 0.8671 -3.7779
# 5 -4.3361 7.7709 11.6789 0.8671 48.3813 11.7576
# 6 -8.9035 1.5591 -1.3484 -3.7779 11.7576 46.7571
#
#
#
# Elastic Compliance Matrix: (Units=1/GPa)
#
#
# Indices 1 2 3 4 5 6 
#
# 1 0.009000 -0.003587 -0.002785 -0.000563 0.001758 0.001266
# 2 -0.003587 0.016729 -0.002119 -0.006031 -0.002081 -0.001266
# 3 -0.002785 -0.002119 0.014143 -0.010605 -0.003102 -0.000129
# 4 -0.000563 -0.006031 -0.010605 0.050491 0.001740 0.003430
# 5 0.001758 -0.002081 -0.003102 0.001740 0.023185 -0.005375
# 6 0.001266 -0.001266 -0.000129 0.003430 -0.005375 0.023295
#
#
# Mechanical properties :
#
#
# Convention : Reuss Voigt Hill
#
# Bulk Modulus (GPa) = 43.68813 64.66327 54.17570
# Shear Modulus (GPa) = 30.96860 38.62618 34.79739
#
# Velocity S-wave (km/s) = 3.74831 4.18616 3.97327
# Velocity P-wave (km/s) = 6.20915 7.25960 6.75482
#
# Compressibility (1/GPa) = 0.02288951
#
# Stress axis : x y z
#
# Youngs Moduli (GPa) = 111.11535 59.77738 70.70739
#
# Poissons Ratio (x) = 0.21443 0.19691
# Poissons Ratio (y) = 0.39858 0.14982
# Poissons Ratio (z) = 0.30944 0.12666
#
# Static dielectric constant tensor:
#      x y z
#    x 4.727130 -0.039460 0.045080 
#    y -0.039460 3.565870 0.436750 
#    z 0.045080 0.436750 4.156550 
# 
# 
# High freq. dielectric constant tensor:
#      x y z
#    x 1.895700 -0.002580 0.005910 
#    y -0.002580 1.840710 0.022630 
#    z 0.005910 0.022630 1.865700 
# 
# From -- ./inp_files/175196.got.cif
#   From: 2010.06.25/outbox.cif.g09.slc.cpg/sg2_88_cif.got.tgz:175196.got - 2010.06.27 13:26:56.
