data_PCOD8040636
_publ_section_title
;
Structure prediction by ZEFSAII (Michael W. Deem and Ramdas Pophale) SiO2 
 PCOD8040636
Probable space group: P -1
;
_chemical_formula_sum "Si O2"
_cell_formula_units_Z 16
_cell_length_a 14.297706
_cell_length_b 8.774591
_cell_length_c 8.968747
_cell_angle_alpha 103.247312
_cell_angle_beta 82.721026
_cell_angle_gamma 137.027716
_cell_volume 745.144318
_symmetry_space_group_name_H-M "P -1"
_symmetry_group_IT_number 2
_symmetry_cell_setting 'triclinic'
loop_
_space_group_symop_operation_xyz
x,y,z
-x,-y,-z
loop_
_atom_site_type_symbol
_atom_site_label
_atom_site_fract_x
_atom_site_fract_y
_atom_site_fract_z
Si Si1 0.426852 0.569735 0.484329
Si Si2 0.288882 0.554334 0.050304
Si Si3 0.013803 0.204208 0.549888
Si Si4 0.187904 0.115642 0.264884
Si Si5 0.032840 0.216540 0.218376
Si Si6 0.557440 0.871520 0.250028
Si Si7 0.292717 0.640393 0.736853
Si Si8 0.259314 0.154035 0.949098
O O1 0.500000 0.500000 0.500000
O O2 0.286648 0.362187 0.378099
O O3 0.525058 0.791085 0.409488
O O4 0.394729 0.629348 0.652615
O O5 0.296757 0.658723 0.918366
O O6 0.289355 0.372336 0.968402
O O7 0.153135 0.440850 0.145486
O O8 0.420584 0.759578 0.167104
O O9 0.019238 0.281325 0.399589
O O10 0.140115 0.417603 0.666765
O O11 0.000000 0.000000 0.500000
O O12 0.876340 0.084006 0.646504
O O13 0.067462 0.073366 0.199001
O O14 0.264696 0.116550 0.116660
O O15 0.888545 0.069439 0.135694
O O16 0.620449 0.794440 0.143335
O O17 0.666137 0.142863 0.290083
#
# Coordination Sequence:
#
# PCOD8040636 Si02
#       8
#     2   2   2   2   2   2   2   2
#     4  12  25  41  68  97 126 172 223 265 319 389
#     4  11  21  41  66  93 127 180 224 253 321 394
#     4  10  18  37  66  92 122 164 220 262 315 384
#     4  10  20  38  64  96 123 164 222 274 308 374
#     4  10  19  37  66  95 123 164 218 275 311 369
#     4  12  26  43  62  99 139 170 209 273 333 381
#     4  12  24  42  67  95 135 171 208 272 336 385
#     4  11  22  38  67  96 128 166 227 270 309 379
#
# _framework density 21.472351
#
# number of rings (size 3 to 8) (size 9 to 14) (size 15 to 20)
#    0.000    1.000    5.000    5.625    3.500    0.000 
#    0.000    3.125    0.000    0.000    0.000    0.000 
#    0.000    0.000    0.000    0.000    0.000    0.000 
#
# Total GULP energy -198394.181638 kJ/mol
# GULP energy per Si atom -12399.636352 kJ/mol
# Density = 2.142348 g / cm^3
# Si number density = 21.472351 Si / 1000 Ang^3
#
#
#
# Elastic Constant Matrix: (Units=GPa)
#
#
# Indices 1 2 3 4 5 6 
#
# 1 22.1183 18.7594 8.2301 -7.5875 2.1676 1.1281
# 2 18.7594 132.3187 37.2475 -21.5230 6.9499 4.1359
# 3 8.2301 37.2475 103.3081 -35.8136 6.9121 3.3869
# 4 -7.5875 -21.5230 -35.8136 47.6984 10.6120 -2.4746
# 5 2.1676 6.9499 6.9121 10.6120 25.1384 -2.9979
# 6 1.1281 4.1359 3.3869 -2.4746 -2.9979 25.9303
#
#
#
# Elastic Compliance Matrix: (Units=1/GPa)
#
#
# Indices 1 2 3 4 5 6 
#
# 1 0.053551 -0.006228 0.001313 0.008145 -0.006877 -0.001526
# 2 -0.006228 0.009548 -0.001868 0.002473 -0.002763 -0.001091
# 3 0.001313 -0.001868 0.015446 0.012997 -0.009525 -0.001637
# 4 0.008145 0.002473 0.012997 0.037752 -0.021049 -0.001277
# 5 -0.006877 -0.002763 -0.009525 -0.021049 0.053374 0.006146
# 6 -0.001526 -0.001091 -0.001637 -0.001277 0.006146 0.039608
#
#
# Mechanical properties :
#
#
# Convention : Reuss Voigt Hill
#
# Bulk Modulus (GPa) = 15.38992 42.91322 29.15157
# Shear Modulus (GPa) = 20.44952 32.65396 26.55174
#
# Velocity S-wave (km/s) = 3.08939 3.90390 3.52028
# Velocity P-wave (km/s) = 4.46191 6.35211 5.48899
#
# Compressibility (1/GPa) = 0.06497758
#
# Stress axis : x y z
#
# Youngs Moduli (GPa) = 18.67379 104.73493 64.74370
#
# Poissons Ratio (x) = 0.65229 -0.08501
# Poissons Ratio (y) = 0.11630 0.12097
# Poissons Ratio (z) = -0.02452 0.19569
#
# Static dielectric constant tensor:
#      x y z
#    x 3.511880 0.398390 -0.147400 
#    y 0.398390 4.127650 -0.417870 
#    z -0.147400 -0.417870 4.394500 
# 
# 
# High freq. dielectric constant tensor:
#      x y z
#    x 1.800130 0.032430 -0.001650 
#    y 0.032430 1.846750 -0.017120 
#    z -0.001650 -0.017120 1.862720 
# 
# From -- ./inp_files/209396.got.cif
#   From: 2010.06.25/outbox.cif.g09.slc.cpg/sg2_105_cif.got.tgz:209396.got - 2010.06.27 13:26:56.
