data_PCOD8040159
_publ_section_title
;
Structure prediction by ZEFSAII (Michael W. Deem and Ramdas Pophale) SiO2 
 PCOD8040159
Probable space group: P -1
;
_chemical_formula_sum "Si O2"
_cell_formula_units_Z 16
_cell_length_a 11.058348
_cell_length_b 11.856939
_cell_length_c 11.069368
_cell_angle_alpha 95.200430
_cell_angle_beta 41.059562
_cell_angle_gamma 77.221784
_cell_volume 851.358026
_symmetry_space_group_name_H-M "P -1"
_symmetry_group_IT_number 2
_symmetry_cell_setting 'triclinic'
loop_
_space_group_symop_operation_xyz
x,y,z
-x,-y,-z
loop_
_atom_site_type_symbol
_atom_site_label
_atom_site_fract_x
_atom_site_fract_y
_atom_site_fract_z
Si Si1 0.504551 0.265165 0.620677
Si Si2 0.395901 0.588832 0.247564
Si Si3 0.275567 0.513915 0.705421
Si Si4 0.173979 0.600459 0.188174
Si Si5 0.645646 0.929383 0.276414
Si Si6 0.788284 0.570281 0.494099
Si Si7 0.586551 0.184163 0.280931
Si Si8 0.074364 0.751541 0.044825
O O1 0.644275 0.302024 0.611295
O O2 0.302887 0.393728 0.753664
O O3 0.428486 0.170316 0.734304
O O4 0.620081 0.205724 0.400769
O O5 0.268159 0.653189 0.229092
O O6 0.320107 0.484529 0.335104
O O7 0.639151 0.517459 0.028842
O O8 0.500000 0.500000 0.500000
O O9 0.154223 0.517874 0.676136
O O10 0.142526 0.636562 0.891094
O O11 0.052185 0.709715 0.193074
O O12 0.006250 0.561899 0.372397
O O13 0.868142 0.860973 0.160954
O O14 0.500000 0.000000 0.500000
O O15 0.622709 0.040506 0.211942
O O16 0.635043 0.714671 0.588590
O O17 0.756149 0.197658 0.073290
#
# Coordination Sequence:
#
# PCOD8040159 Si02
#       8
#     2   2   2   2   2   2   2   2
#     4  10  18  36  53  77 119 140 178 233 275 332
#     4  11  21  38  51  84 116 145 188 225 275 332
#     4  11  17  31  56  86 112 139 173 229 302 331
#     4  11  23  32  56  83 112 154 181 220 280 339
#     4  10  23  34  53  83 110 149 190 226 276 333
#     4  11  20  37  58  81 118 140 184 230 281 336
#     4  10  19  37  57  82 111 147 179 236 279 324
#     4  12  19  35  57  83 115 144 182 231 282 338
#
# _framework density 18.793503000000001
#
# number of rings (size 3 to 8) (size 9 to 14) (size 15 to 20)
#    0.000    1.250    6.250    3.000    1.750    1.000 
#    0.000    0.000    0.000    7.500    0.000    0.000 
#    0.000    0.000    0.000    0.000    0.000    0.000 
#
# Total GULP energy -198282.523566 kJ/mol
# GULP energy per Si atom -12392.657723 kJ/mol
# Density = 1.875073 g / cm^3
# Si number density = 18.793503 Si / 1000 Ang^3
#
#
#
# Elastic Constant Matrix: (Units=GPa)
#
#
# Indices 1 2 3 4 5 6 
#
# 1 75.5740 19.0465 23.7670 0.7740 -6.2093 4.3131
# 2 19.0465 115.3503 31.0103 3.7072 -9.4963 6.9799
# 3 23.7670 31.0103 74.9304 -2.1356 -18.3690 1.9638
# 4 0.7740 3.7072 -2.1356 23.1968 3.8246 -5.6688
# 5 -6.2093 -9.4963 -18.3690 3.8246 27.5087 -5.0582
# 6 4.3131 6.9799 1.9638 -5.6688 -5.0582 24.2289
#
#
#
# Elastic Compliance Matrix: (Units=1/GPa)
#
#
# Indices 1 2 3 4 5 6 
#
# 1 0.015006 -0.001155 -0.004287 -0.001255 -0.000125 -0.002311
# 2 -0.001155 0.010170 -0.003690 -0.002748 0.000628 -0.002937
# 3 -0.004287 -0.003690 0.018808 0.001406 0.010647 0.002853
# 4 -0.001255 -0.002748 0.001406 0.047190 -0.004844 0.010931
# 5 -0.000125 0.000628 0.010647 -0.004844 0.045681 0.007382
# 6 -0.002311 -0.002937 0.002853 0.010931 0.007382 0.046398
#
#
# Mechanical properties :
#
#
# Convention : Reuss Voigt Hill
#
# Bulk Modulus (GPa) = 38.88211 45.94470 42.41340
# Shear Modulus (GPa) = 23.79936 27.78893 25.79415
#
# Velocity S-wave (km/s) = 3.56246 3.84949 3.70875
# Velocity P-wave (km/s) = 6.13641 6.65269 6.39976
#
# Compressibility (1/GPa) = 0.02571877
#
# Stress axis : x y z
#
# Youngs Moduli (GPa) = 66.63991 98.33199 53.16906
#
# Poissons Ratio (x) = 0.11360 0.22796
# Poissons Ratio (y) = 0.07699 0.19618
# Poissons Ratio (z) = 0.28572 0.36281
#
# Static dielectric constant tensor:
#      x y z
#    x 3.347510 -0.025520 0.162370 
#    y -0.025520 3.121510 0.305500 
#    z 0.162370 0.305500 2.678800 
# 
# 
# High freq. dielectric constant tensor:
#      x y z
#    x 1.709970 0.006120 -0.012560 
#    y 0.006120 1.729470 -0.016360 
#    z -0.012560 -0.016360 1.718950 
# 
# From -- ./inp_files/426152.got.cif
#   From: 2010.06.25/outbox.cif.g09.slc.cpg/sg2_214_cif.got.tgz:426152.got - 2010.06.27 13:26:56.
