data_PCOD8040172
_publ_section_title
;
Structure prediction by ZEFSAII (Michael W. Deem and Ramdas Pophale) SiO2 
 PCOD8040172
Probable space group: P -1
;
_chemical_formula_sum "Si O2"
_cell_formula_units_Z 14
_cell_length_a 10.366437
_cell_length_b 10.366463
_cell_length_c 11.899430
_cell_angle_alpha 131.928526
_cell_angle_beta 76.054734
_cell_angle_gamma 120.638114
_cell_volume 808.601695
_symmetry_space_group_name_H-M "P -1"
_symmetry_group_IT_number 2
_symmetry_cell_setting 'triclinic'
loop_
_space_group_symop_operation_xyz
x,y,z
-x,-y,-z
loop_
_atom_site_type_symbol
_atom_site_label
_atom_site_fract_x
_atom_site_fract_y
_atom_site_fract_z
Si Si1 0.814535 0.373479 0.188013
Si Si2 0.652558 0.551580 0.204136
Si Si3 0.418029 0.664842 0.372758
Si Si4 0.161333 0.669148 0.298064
Si Si5 0.318983 0.777976 0.096960
Si Si6 0.292082 0.045270 0.627242
Si Si7 0.628915 0.136731 0.298064
O O1 0.746810 0.525514 0.272322
O O2 0.744439 0.241272 0.234540
O O3 0.993269 0.490098 0.234538
O O4 0.772165 0.232052 0.004216
O O5 0.487858 0.514061 0.262989
O O6 0.748929 0.775132 0.262988
O O7 0.627614 0.391355 0.018969
O O8 0.268840 0.589391 0.283302
O O9 0.544199 0.878350 0.422547
O O10 0.379863 0.695795 0.526100
O O11 0.206658 0.736167 0.199687
O O12 0.169694 0.853762 0.473900
O O13 0.463519 0.993029 0.199688
O O14 0.306087 0.985536 0.716698
#
# Coordination Sequence:
#
# PCOD8040172 Si02
#       7
#     2   2   2   2   2   2   2
#     4  10  24  31  51  90 106 135 164 231 266 303
#     4   8  20  34  50  88 102 128 189 203 273 295
#     4   9  18  35  56  81  92 144 180 215 242 318
#     4  11  18  35  59  75 108 135 186 208 258 310
#     4  10  18  36  56  75 105 147 172 211 250 334
#     4   9  18  35  56  81  92 144 180 215 242 318
#     4  11  18  35  59  75 108 135 186 208 258 310
#
# _framework density 17.313839000000002
#
# number of rings (size 3 to 8) (size 9 to 14) (size 15 to 20)
#    1.714    0.571    2.857    1.714    0.000    5.714 
#    0.000    0.000    0.000    5.143    0.000    0.000 
#    0.000    0.000    0.000    0.000    0.000    0.000 
#
# Total GULP energy -173452.417154 kJ/mol
# GULP energy per Si atom -12389.458368 kJ/mol
# Density = 1.727443 g / cm^3
# Si number density = 17.313839 Si / 1000 Ang^3
#
#
#
# Elastic Constant Matrix: (Units=GPa)
#
#
# Indices 1 2 3 4 5 6 
#
# 1 64.9252 28.0272 25.7078 0.5322 16.2882 8.2290
# 2 28.0272 118.6343 43.4432 -12.9980 22.2110 15.0559
# 3 25.7078 43.4432 75.7905 -10.7447 24.6582 8.9178
# 4 0.5322 -12.9980 -10.7447 19.1477 -4.0978 3.6877
# 5 16.2882 22.2110 24.6582 -4.0978 28.5818 8.4269
# 6 8.2290 15.0559 8.9178 3.6877 8.4269 29.8346
#
#
#
# Elastic Compliance Matrix: (Units=1/GPa)
#
#
# Indices 1 2 3 4 5 6 
#
# 1 0.019822 -0.002619 -0.003831 -0.005831 -0.006676 -0.000394
# 2 -0.002619 0.012188 -0.003876 0.006502 -0.002407 -0.004393
# 3 -0.003831 -0.003876 0.021880 0.007289 -0.012360 -0.000937
# 4 -0.005831 0.006502 0.007289 0.064554 0.005154 -0.013287
# 5 -0.006676 -0.002407 -0.012360 0.005154 0.054829 -0.009373
# 6 -0.000394 -0.004393 -0.000937 -0.013287 -0.009373 0.040414
#
#
# Mechanical properties :
#
#
# Convention : Reuss Voigt Hill
#
# Bulk Modulus (GPa) = 30.08465 50.41184 40.24825
# Shear Modulus (GPa) = 20.37340 26.32427 23.34884
#
# Velocity S-wave (km/s) = 3.43405 3.90348 3.67627
# Velocity P-wave (km/s) = 5.75651 7.03534 6.42780
#
# Compressibility (1/GPa) = 0.03323954
#
# Stress axis : x y z
#
# Youngs Moduli (GPa) = 50.44788 82.04747 45.70341
#
# Poissons Ratio (x) = 0.21490 0.17507
# Poissons Ratio (y) = 0.13214 0.17713
# Poissons Ratio (z) = 0.19325 0.31799
#
# Static dielectric constant tensor:
#      x y z
#    x 2.973760 -0.008480 0.068010 
#    y -0.008480 2.979580 -0.051300 
#    z 0.068010 -0.051300 3.166160 
# 
# 
# High freq. dielectric constant tensor:
#      x y z
#    x 1.649030 -0.001990 0.009180 
#    y -0.001990 1.648350 -0.006690 
#    z 0.009180 -0.006690 1.670910 
# 
# From -- ./inp_files/275909.got.cif
#   From: 2010.06.25/outbox.cif.g09.slc.cpg/sg2_138_cif.got.tgz:275909.got - 2010.06.27 13:26:56.
