data_PCOD8040218
_publ_section_title
;
Structure prediction by ZEFSAII (Michael W. Deem and Ramdas Pophale) SiO2 
 PCOD8040218
Probable space group: P -1
;
_chemical_formula_sum "Si O2"
_cell_formula_units_Z 16
_cell_length_a 15.239800
_cell_length_b 11.576302
_cell_length_c 7.590625
_cell_angle_alpha 129.884014
_cell_angle_beta 118.558271
_cell_angle_gamma 73.693972
_cell_volume 901.897856
_symmetry_space_group_name_H-M "P -1"
_symmetry_group_IT_number 2
_symmetry_cell_setting 'triclinic'
loop_
_space_group_symop_operation_xyz
x,y,z
-x,-y,-z
loop_
_atom_site_type_symbol
_atom_site_label
_atom_site_fract_x
_atom_site_fract_y
_atom_site_fract_z
Si Si1 0.829545 0.374732 0.954091
Si Si2 0.726974 0.686204 0.657704
Si Si3 0.820942 0.380478 0.561423
Si Si4 0.329480 0.802022 0.557144
Si Si5 0.291294 0.149861 0.867643
Si Si6 0.035108 0.669289 0.659960
Si Si7 0.179180 0.290025 0.588773
Si Si8 0.462673 0.334559 0.352194
O O1 0.875013 0.400626 0.825398
O O2 0.725395 0.276679 0.741868
O O3 0.903315 0.279299 0.055300
O O4 0.807999 0.534553 0.176789
O O5 0.788407 0.538878 0.611367
O O6 0.760307 0.815005 0.958698
O O7 0.750581 0.744395 0.542697
O O8 0.606929 0.653473 0.528209
O O9 0.722788 0.268535 0.384480
O O10 0.897071 0.310614 0.429094
O O11 0.445824 0.770868 0.627656
O O12 0.319554 0.978853 0.716136
O O13 0.392372 0.258649 0.055998
O O14 0.213262 0.184653 0.675019
O O15 0.000000 0.500000 0.500000
O O16 0.935159 0.760731 0.620632
O O17 0.500000 0.500000 0.500000
#
# Coordination Sequence:
#
# PCOD8040218 Si02
#       8
#     2   2   2   2   2   2   2   2
#     4   9  19  34  57  82 112 141 192 232 277 317
#     4  10  20  34  60  85 113 143 196 224 284 324
#     4  10  18  36  58  85 111 145 194 231 284 320
#     4  10  20  39  58  81 118 152 181 226 285 342
#     4  10  22  38  57  80 122 150 181 225 283 343
#     4  10  20  32  60  87 110 142 195 242 277 316
#     4  11  20  38  56  87 113 144 191 241 274 324
#     4  10  18  37  64  86 106 146 189 236 277 323
#
# _framework density 17.740369000000001
#
# number of rings (size 3 to 8) (size 9 to 14) (size 15 to 20)
#    1.500    0.500    5.000    1.125    0.000    3.000 
#    2.250    5.625    0.000    0.000    0.000    0.000 
#    0.000    0.000    0.000    0.000    0.000    0.000 
#
# Total GULP energy -198216.286217 kJ/mol
# GULP energy per Si atom -12388.517889 kJ/mol
# Density = 1.769999 g / cm^3
# Si number density = 17.740369 Si / 1000 Ang^3
#
#
#
# Elastic Constant Matrix: (Units=GPa)
#
#
# Indices 1 2 3 4 5 6 
#
# 1 107.0621 16.0584 18.7836 -10.0134 -4.7329 -0.0362
# 2 16.0584 67.3265 33.7281 0.8348 -1.8353 -14.3594
# 3 18.7836 33.7281 50.7166 -10.0674 -1.6397 1.8834
# 4 -10.0134 0.8348 -10.0674 31.5410 -3.2390 -5.0607
# 5 -4.7329 -1.8353 -1.6397 -3.2390 23.0197 -13.2555
# 6 -0.0362 -14.3594 1.8834 -5.0607 -13.2555 22.2020
#
#
#
# Elastic Compliance Matrix: (Units=1/GPa)
#
#
# Indices 1 2 3 4 5 6 
#
# 1 0.010417 -0.000003 -0.003180 0.003367 0.004563 0.003776
# 2 -0.000003 0.036776 -0.025167 0.000012 0.024486 0.040542
# 3 -0.003180 -0.025167 0.039451 0.006498 -0.014304 -0.026688
# 4 0.003367 0.000012 0.006498 0.039739 0.017759 0.019123
# 5 0.004563 0.024486 -0.014304 0.017759 0.091382 0.075664
# 6 0.003776 0.040542 -0.026688 0.019123 0.075664 0.123066
#
#
# Mechanical properties :
#
#
# Convention : Reuss Voigt Hill
#
# Bulk Modulus (GPa) = 33.39847 40.24949 36.82398
# Shear Modulus (GPa) = 12.26959 25.78821 19.02890
#
# Velocity S-wave (km/s) = 2.63272 3.81681 3.27866
# Velocity P-wave (km/s) = 5.30177 6.49318 5.92748
#
# Compressibility (1/GPa) = 0.02994149
#
# Stress axis : x y z
#
# Youngs Moduli (GPa) = 95.99980 27.19185 25.34815
#
# Poissons Ratio (x) = 0.00009 0.08061
# Poissons Ratio (y) = 0.00032 0.63794
# Poissons Ratio (z) = 0.30530 0.68434
#
# Static dielectric constant tensor:
#      x y z
#    x 3.378780 -0.202920 0.118540 
#    y -0.202920 3.296120 -0.351490 
#    z 0.118540 -0.351490 3.349210 
# 
# 
# High freq. dielectric constant tensor:
#      x y z
#    x 1.680510 -0.008770 0.001860 
#    y -0.008770 1.673450 -0.011890 
#    z 0.001860 -0.011890 1.672930 
# 
# From -- ./inp_files/304202.got.cif
#   From: 2010.06.25/outbox.cif.g09.slc.cpg/sg2_153_cif.got.tgz:304202.got - 2010.06.27 13:26:56.
