data_PCOD8040793
_publ_section_title
;
Structure prediction by ZEFSAII (Michael W. Deem and Ramdas Pophale) SiO2 
 PCOD8040793
Probable space group: P -1
;
_chemical_formula_sum "Si O2"
_cell_formula_units_Z 16
_cell_length_a 17.465716
_cell_length_b 20.609783
_cell_length_c 11.872909
_cell_angle_alpha 30.183372
_cell_angle_beta 40.286433
_cell_angle_gamma 20.447460
_cell_volume 723.126900
_symmetry_space_group_name_H-M "P -1"
_symmetry_group_IT_number 2
_symmetry_cell_setting 'triclinic'
loop_
_space_group_symop_operation_xyz
x,y,z
-x,-y,-z
loop_
_atom_site_type_symbol
_atom_site_label
_atom_site_fract_x
_atom_site_fract_y
_atom_site_fract_z
Si Si1 0.657501 0.165705 0.391743
Si Si2 0.204964 0.315063 0.281741
Si Si3 0.021565 0.112498 0.868815
Si Si4 0.356794 0.969256 0.801938
Si Si5 0.716064 0.400278 0.992011
Si Si6 0.917444 0.763782 0.069033
Si Si7 0.964573 0.343479 0.381867
Si Si8 0.513013 0.140680 0.798302
O O1 0.684670 0.281492 0.245709
O O2 0.518207 0.205587 0.573827
O O3 0.524788 0.303421 0.212269
O O4 0.906396 0.869096 0.533418
O O5 0.373725 0.272599 0.111554
O O6 0.091263 0.364226 0.221293
O O7 0.335265 0.080603 0.550971
O O8 0.016587 0.541203 0.240115
O O9 0.969616 0.278807 0.597268
O O10 0.270387 0.905658 0.959012
O O11 0.828596 0.290311 0.909964
O O12 0.000000 0.000000 0.000000
O O13 0.205646 0.157612 0.794149
O O14 0.873583 0.329473 0.010578
O O15 0.733372 0.984912 0.853601
O O16 0.697489 0.617267 0.249012
O O17 0.500000 0.000000 0.000000
#
# Coordination Sequence:
#
# PCOD8040793 Si02
#       8
#     2   2   2   2   2   2   2   2
#     4  11  25  43  70  99 126 168 226 266 326 386
#     4  10  21  37  61  95 122 168 216 267 321 375
#     4  10  18  38  67  99 128 158 214 275 328 379
#     4   9  22  35  60  96 128 161 213 272 330 367
#     4  10  23  43  71 101 126 167 217 280 325 376
#     4  11  24  41  62  90 137 168 210 267 323 387
#     4  11  23  40  67  92 127 170 216 270 317 385
#     4  12  27  45  62  94 137 182 213 261 326 392
#
# _framework density 22.12613
#
# number of rings (size 3 to 8) (size 9 to 14) (size 15 to 20)
#    0.000    1.500    3.750    0.375    7.000    2.000 
#    0.000    0.625    0.000    0.000    0.000    0.000 
#    0.000    0.000    0.000    0.000    0.000    0.000 
#
# Total GULP energy -198245.156802 kJ/mol
# GULP energy per Si atom -12390.322300 kJ/mol
# Density = 2.207577 g / cm^3
# Si number density = 22.126130 Si / 1000 Ang^3
#
#
#
# Elastic Constant Matrix: (Units=GPa)
#
#
# Indices 1 2 3 4 5 6 
#
# 1 103.9254 26.5542 33.5188 -13.8760 -12.8093 -23.2487
# 2 26.5542 101.4419 32.0015 -12.3404 -13.1328 -12.6182
# 3 33.5188 32.0015 56.3025 -2.3803 -13.5674 -12.0548
# 4 -13.8760 -12.3404 -2.3803 36.5196 -0.1514 -0.1946
# 5 -12.8093 -13.1328 -13.5674 -0.1514 24.2320 -3.8115
# 6 -23.2487 -12.6182 -12.0548 -0.1946 -3.8115 39.8927
#
#
#
# Elastic Compliance Matrix: (Units=1/GPa)
#
#
# Indices 1 2 3 4 5 6 
#
# 1 0.014418 0.000295 -0.005521 0.005282 0.005890 0.007416
# 2 0.000295 0.013045 -0.005663 0.004186 0.004560 0.003043
# 3 -0.005521 -0.005663 0.027515 -0.002153 0.010074 0.004258
# 4 0.005282 0.004186 -0.002153 0.030707 0.004732 0.004353
# 5 0.005890 0.004560 0.010074 0.004732 0.054592 0.013158
# 6 0.007416 0.003043 0.004258 0.004353 0.013158 0.032917
#
#
# Mechanical properties :
#
#
# Convention : Reuss Voigt Hill
#
# Bulk Modulus (GPa) = 30.12007 49.53542 39.82775
# Shear Modulus (GPa) = 24.26747 31.43519 27.85133
#
# Velocity S-wave (km/s) = 3.31536 3.77334 3.55174
# Velocity P-wave (km/s) = 5.31958 6.43588 5.90417
#
# Compressibility (1/GPa) = 0.03320045
#
# Stress axis : x y z
#
# Youngs Moduli (GPa) = 69.35976 76.65627 36.34402
#
# Poissons Ratio (x) = -0.02261 0.20064
# Poissons Ratio (y) = -0.02046 0.20582
# Poissons Ratio (z) = 0.38291 0.43410
#
# Static dielectric constant tensor:
#      x y z
#    x 4.240730 -0.472600 -0.225590 
#    y -0.472600 4.224010 0.079850 
#    z -0.225590 0.079850 3.795290 
# 
# 
# High freq. dielectric constant tensor:
#      x y z
#    x 1.866260 -0.012760 -0.011740 
#    y -0.012760 1.891160 0.003770 
#    z -0.011740 0.003770 1.836370 
# 
# From -- ./inp_files/428801.got.cif
#   From: 2010.06.25/outbox.cif.g09.slc.cpg/sg2_215_cif.got.tgz:428801.got - 2010.06.27 13:26:56.
