data_PCOD8040844
_publ_section_title
;
Structure prediction by ZEFSAII (Michael W. Deem and Ramdas Pophale) SiO2 
 PCOD8040844
Probable space group: P -1
;
_chemical_formula_sum "Si O2"
_cell_formula_units_Z 14
_cell_length_a 8.872258
_cell_length_b 14.384914
_cell_length_c 6.168993
_cell_angle_alpha 79.829276
_cell_angle_beta 59.092431
_cell_angle_gamma 83.833461
_cell_volume 664.779626
_symmetry_space_group_name_H-M "P -1"
_symmetry_group_IT_number 2
_symmetry_cell_setting 'triclinic'
loop_
_space_group_symop_operation_xyz
x,y,z
-x,-y,-z
loop_
_atom_site_type_symbol
_atom_site_label
_atom_site_fract_x
_atom_site_fract_y
_atom_site_fract_z
Si Si1 0.112632 0.043252 0.710745
Si Si2 0.807047 0.506645 0.234491
Si Si3 0.907765 0.134118 0.443143
Si Si4 0.120594 0.350290 0.532797
Si Si5 0.801472 0.803475 0.131189
Si Si6 0.758306 0.329590 0.577828
Si Si7 0.380121 0.335456 0.961637
O O1 0.255637 0.110352 0.697323
O O2 0.194816 0.957126 0.541129
O O3 0.069792 0.158773 0.161708
O O4 0.000000 0.000000 0.000000
O O5 0.816066 0.552840 0.447947
O O6 0.730124 0.401577 0.365813
O O7 0.682692 0.565700 0.139356
O O8 0.000000 0.500000 0.000000
O O9 0.774620 0.222606 0.522847
O O10 0.984351 0.109187 0.632570
O O11 0.094241 0.274593 0.772823
O O12 0.269320 0.315648 0.267066
O O13 0.932642 0.363552 0.554228
O O14 0.640065 0.752668 0.154535
O O15 0.588007 0.338552 0.856544
#
# Coordination Sequence:
#
# PCOD8040844 Si02
#       7
#     2   2   2   2   2   2   2
#     4   9  18  33  64  95 117 159 206 246 305 365
#     4  11  23  43  64  86 124 164 204 252 304 354
#     4  10  19  37  63  90 122 160 204 252 302 361
#     4  11  22  42  60  88 121 166 200 249 305 356
#     4  10  18  39  62  87 125 161 202 249 304 357
#     4  12  22  40  62  90 123 161 207 249 304 362
#     4  11  24  39  60  91 126 161 202 254 299 361
#
# _framework density 21.059609999999999
#
# number of rings (size 3 to 8) (size 9 to 14) (size 15 to 20)
#    0.000    1.429    4.286    1.714    0.000    0.571 
#   10.286    0.714    0.000   12.000    0.000    0.000 
#    0.000    0.000    0.000    0.000    0.000    0.000 
#
# Total GULP energy -173498.511765 kJ/mol
# GULP energy per Si atom -12392.750840 kJ/mol
# Density = 2.101168 g / cm^3
# Si number density = 21.059610 Si / 1000 Ang^3
#
#
#
# Elastic Constant Matrix: (Units=GPa)
#
#
# Indices 1 2 3 4 5 6 
#
# 1 49.4854 27.4230 46.2155 10.5394 -15.2536 -6.0726
# 2 27.4230 136.6500 34.4412 0.1341 7.1879 5.3370
# 3 46.2155 34.4412 100.4170 -5.2124 5.4791 -3.2258
# 4 10.5394 0.1341 -5.2124 34.2529 -2.6447 3.3171
# 5 -15.2536 7.1879 5.4791 -2.6447 31.8874 7.2317
# 6 -6.0726 5.3370 -3.2258 3.3171 7.2317 16.4568
#
#
#
# Elastic Compliance Matrix: (Units=1/GPa)
#
#
# Indices 1 2 3 4 5 6 
#
# 1 0.081057 -0.009530 -0.037399 -0.028604 0.042036 0.012963
# 2 -0.009530 0.009313 0.001522 0.003113 -0.005669 -0.004375
# 3 -0.037399 0.001522 0.028495 0.014394 -0.021439 -0.002189
# 4 -0.028604 0.003113 0.014394 0.040527 -0.010731 -0.012196
# 5 0.042036 -0.005669 -0.021439 -0.010731 0.057831 -0.010103
# 6 0.012963 -0.004375 -0.002189 -0.012196 -0.010103 0.073436
#
#
# Mechanical properties :
#
#
# Convention : Reuss Voigt Hill
#
# Bulk Modulus (GPa) = 35.64775 55.85687 45.75231
# Shear Modulus (GPa) = 12.79351 28.41759 20.60555
#
# Velocity S-wave (km/s) = 2.46741 3.67739 3.13140
# Velocity P-wave (km/s) = 5.00812 6.67920 5.90309
#
# Compressibility (1/GPa) = 0.02805226
#
# Stress axis : x y z
#
# Youngs Moduli (GPa) = 12.33700 107.37953 35.09358
#
# Poissons Ratio (x) = 1.02332 1.31245
# Poissons Ratio (y) = 0.11757 -0.05342
# Poissons Ratio (z) = 0.46139 -0.16347
#
# Static dielectric constant tensor:
#      x y z
#    x 3.580840 0.389470 0.278530 
#    y 0.389470 4.631070 -0.022910 
#    z 0.278530 -0.022910 3.803410 
# 
# 
# High freq. dielectric constant tensor:
#      x y z
#    x 1.787050 0.017080 0.022440 
#    y 0.017080 1.846560 -0.012810 
#    z 0.022440 -0.012810 1.824710 
# 
# From -- ./inp_files/31553.got.cif
#   From: 2010.06.25/outbox.cif.g09.slc.cpg/sg2_16_cif.got.tgz:31553.got - 2010.06.27 13:26:56.
