data_PCOD8040233
_publ_section_title
;
Structure prediction by ZEFSAII (Michael W. Deem and Ramdas Pophale) SiO2 
 PCOD8040233
Probable space group: P -1
;
_chemical_formula_sum "Si O2"
_cell_formula_units_Z 16
_cell_length_a 11.009063
_cell_length_b 29.303991
_cell_length_c 13.756058
_cell_angle_alpha 21.824805
_cell_angle_beta 149.880266
_cell_angle_gamma 146.813689
_cell_volume 814.115636
_symmetry_space_group_name_H-M "P -1"
_symmetry_group_IT_number 2
_symmetry_cell_setting 'triclinic'
loop_
_space_group_symop_operation_xyz
x,y,z
-x,-y,-z
loop_
_atom_site_type_symbol
_atom_site_label
_atom_site_fract_x
_atom_site_fract_y
_atom_site_fract_z
Si Si1 0.166338 0.366411 0.172492
Si Si2 0.017351 0.544379 0.583392
Si Si3 0.118497 0.987880 0.431945
Si Si4 0.819668 0.184583 0.767657
Si Si5 0.691959 0.789886 0.587734
Si Si6 0.678212 0.046289 0.751249
Si Si7 0.353523 0.452604 0.844631
Si Si8 0.970497 0.131694 0.599661
O O1 0.299831 0.274141 0.384211
O O2 0.365833 0.486555 0.104146
O O3 0.041356 0.283153 0.340493
O O4 0.964578 0.423326 0.857128
O O5 0.080303 0.668564 0.444941
O O6 0.249793 0.532751 0.698367
O O7 0.777963 0.542500 0.358174
O O8 0.936290 0.895395 0.560013
O O9 0.141022 0.924391 0.468613
O O10 0.382575 0.016811 0.610015
O O11 0.010321 0.113924 0.094334
O O12 0.550384 0.147238 0.704170
O O13 0.793912 0.149502 0.705725
O O14 0.675174 0.691281 0.859262
O O15 0.756467 0.100299 0.592620
O O16 0.786226 0.920797 0.095587
#
# Coordination Sequence:
#
# PCOD8040233 Si02
#       8
#     2   2   2   2   2   2   2   2
#     4  10  18  36  59  81 107 145 183 232 268 315
#     4  10  20  33  54  82 115 145 183 220 269 331
#     4  10  22  36  58  84 112 147 183 224 276 327
#     4  11  21  36  53  83 123 147 174 224 277 334
#     4  10  19  36  54  84 118 146 181 223 269 332
#     4  10  22  40  58  82 108 147 183 231 282 318
#     4  10  19  34  56  79 110 152 182 221 269 320
#     4   9  21  40  63  80 104 140 195 235 267 325
#
# _framework density 19.653227999999999
#
# number of rings (size 3 to 8) (size 9 to 14) (size 15 to 20)
#    0.000    2.000    2.500    1.500    1.750    4.500 
#    2.250    0.625    0.000    1.500    0.000    0.000 
#    0.000    0.000    0.000    0.000    0.000    0.000 
#
# Total GULP energy -198389.294757 kJ/mol
# GULP energy per Si atom -12399.330922 kJ/mol
# Density = 1.960850 g / cm^3
# Si number density = 19.653228 Si / 1000 Ang^3
#
#
#
# Elastic Constant Matrix: (Units=GPa)
#
#
# Indices 1 2 3 4 5 6 
#
# 1 45.7512 24.9056 40.8817 -12.1101 -12.1563 6.8636
# 2 24.9056 78.3988 55.9651 0.6599 -10.0538 4.1861
# 3 40.8817 55.9651 101.0318 -1.7048 -15.9285 5.6413
# 4 -12.1101 0.6599 -1.7048 31.7062 4.3384 2.3271
# 5 -12.1563 -10.0538 -15.9285 4.3384 34.4100 -2.1689
# 6 6.8636 4.1861 5.6413 2.3271 -2.1689 22.8820
#
#
#
# Elastic Compliance Matrix: (Units=1/GPa)
#
#
# Indices 1 2 3 4 5 6 
#
# 1 0.043177 -0.002232 -0.014583 0.015776 0.005228 -0.010056
# 2 -0.002232 0.021294 -0.010805 -0.001944 0.000658 -0.000302
# 3 -0.014583 -0.010805 0.022020 -0.004633 0.002572 0.001637
# 4 0.015776 -0.001944 -0.004633 0.038228 -0.002422 -0.007352
# 5 0.005228 0.000658 0.002572 -0.002422 0.032661 0.001020
# 6 -0.010056 -0.000302 0.001637 -0.007352 0.001020 0.047215
#
#
# Mechanical properties :
#
#
# Convention : Reuss Voigt Hill
#
# Bulk Modulus (GPa) = 31.99820 52.07627 42.03724
# Shear Modulus (GPa) = 18.50143 24.69493 21.59818
#
# Velocity S-wave (km/s) = 3.07154 3.54861 3.31866
# Velocity P-wave (km/s) = 5.37549 6.58371 6.01004
#
# Compressibility (1/GPa) = 0.03125176
#
# Stress axis : x y z
#
# Youngs Moduli (GPa) = 23.16071 46.96133 45.41386
#
# Poissons Ratio (x) = 0.10480 0.66227
# Poissons Ratio (y) = 0.05169 0.49069
# Poissons Ratio (z) = 0.33775 0.50741
#
# Static dielectric constant tensor:
#      x y z
#    x 3.376870 0.028090 -0.094880 
#    y 0.028090 3.479870 0.008920 
#    z -0.094880 0.008920 3.746380 
# 
# 
# High freq. dielectric constant tensor:
#      x y z
#    x 1.733670 -0.002640 -0.008350 
#    y -0.002640 1.761500 0.000950 
#    z -0.008350 0.000950 1.776390 
# 
# From -- ./inp_files/435604.got.cif
#   From: 2010.06.25/outbox.cif.g09.slc.cpg/sg2_218_cif.got.tgz:435604.got - 2010.06.27 13:26:56.
