data_PCOD8040434
_publ_section_title
;
Structure prediction by ZEFSAII (Michael W. Deem and Ramdas Pophale) SiO2 
 PCOD8040434
Probable space group: P -1
;
_chemical_formula_sum "Si O2"
_cell_formula_units_Z 16
_cell_length_a 9.246662
_cell_length_b 15.930915
_cell_length_c 18.388549
_cell_angle_alpha 150.159905
_cell_angle_beta 33.576450
_cell_angle_gamma 139.099384
_cell_volume 739.988308
_symmetry_space_group_name_H-M "P -1"
_symmetry_group_IT_number 2
_symmetry_cell_setting 'triclinic'
loop_
_space_group_symop_operation_xyz
x,y,z
-x,-y,-z
loop_
_atom_site_type_symbol
_atom_site_label
_atom_site_fract_x
_atom_site_fract_y
_atom_site_fract_z
Si Si1 0.343255 0.233590 0.802240
Si Si2 0.995902 0.199284 0.654338
Si Si3 0.341943 0.019849 0.006542
Si Si4 0.980199 0.704505 0.879872
Si Si5 0.867976 0.142141 0.372437
Si Si6 0.493711 0.262820 0.999735
Si Si7 0.593194 0.646914 0.287739
Si Si8 0.949728 0.328023 0.617120
O O1 0.254070 0.278379 0.792270
O O2 0.637565 0.322301 0.755073
O O3 0.327286 0.030957 0.665196
O O4 0.158478 0.312229 0.995922
O O5 0.710896 0.239800 0.830516
O O6 0.074141 0.272554 0.597357
O O7 0.222346 0.294786 0.679623
O O8 0.000000 0.000000 0.500000
O O9 0.087652 0.117345 0.202160
O O10 0.513133 0.126598 0.953792
O O11 0.500000 0.000000 0.000000
O O12 0.243654 0.836701 0.874912
O O13 0.063904 0.518926 0.688596
O O14 0.788223 0.763669 0.942539
O O15 0.689196 0.285420 0.530731
O O16 0.013796 0.198556 0.429538
O O17 0.544691 0.444820 0.152921
#
# Coordination Sequence:
#
# PCOD8040434 Si02
#       8
#     2   2   2   2   2   2   2   2
#     4  10  18  36  67  95 133 163 209 253 332 390
#     4  12  26  38  67 106 140 161 209 278 329 382
#     4  11  29  46  68  89 130 180 222 264 320 386
#     4  11  22  43  68  93 125 175 220 266 319 391
#     4  10  22  43  68  93 131 178 214 254 322 397
#     4  12  25  46  65  96 134 174 219 263 325 390
#     4  11  23  40  68 102 131 171 211 271 327 384
#     4  11  20  39  67 100 128 162 213 271 330 374
#
# _framework density 21.621963999999998
#
# number of rings (size 3 to 8) (size 9 to 14) (size 15 to 20)
#    0.000    1.000    3.750    4.875    8.750    0.500 
#    0.000    0.625    0.000    0.000    0.000    0.000 
#    0.000    0.000    0.000    0.000    0.000    0.000 
#
# Total GULP energy -198451.652158 kJ/mol
# GULP energy per Si atom -12403.228260 kJ/mol
# Density = 2.157275 g / cm^3
# Si number density = 21.621964 Si / 1000 Ang^3
#
#
#
# Elastic Constant Matrix: (Units=GPa)
#
#
# Indices 1 2 3 4 5 6 
#
# 1 136.4702 25.8805 6.9595 22.6408 10.6638 2.2885
# 2 25.8805 79.4686 33.4954 25.2522 4.3762 3.7209
# 3 6.9595 33.4954 68.6986 31.4901 4.7391 8.0934
# 4 22.6408 25.2522 31.4901 38.4494 2.7861 9.3046
# 5 10.6638 4.3762 4.7391 2.7861 27.7364 7.3816
# 6 2.2885 3.7209 8.0934 9.3046 7.3816 34.8727
#
#
#
# Elastic Compliance Matrix: (Units=1/GPa)
#
#
# Indices 1 2 3 4 5 6 
#
# 1 0.008880 -0.002015 0.003175 -0.006593 -0.003339 0.001361
# 2 -0.002015 0.017507 -0.005743 -0.005874 -0.000770 0.001327
# 3 0.003175 -0.005743 0.026040 -0.019242 -0.002858 0.000100
# 4 -0.006593 -0.005874 -0.019242 0.051405 0.003991 -0.009035
# 5 -0.003339 -0.000770 -0.002858 0.003991 0.039816 -0.008528
# 6 0.001361 0.001327 0.000100 -0.009035 -0.008528 0.032638
#
#
# Mechanical properties :
#
#
# Convention : Reuss Voigt Hill
#
# Bulk Modulus (GPa) = 23.11499 46.36760 34.74129
# Shear Modulus (GPa) = 25.01616 34.76516 29.89066
#
# Velocity S-wave (km/s) = 3.40513 4.01417 3.72213
# Velocity P-wave (km/s) = 5.11601 6.55560 5.88003
#
# Compressibility (1/GPa) = 0.04326197
#
# Stress axis : x y z
#
# Youngs Moduli (GPa) = 112.61630 57.12030 38.40214
#
# Poissons Ratio (x) = 0.11509 -0.12193
# Poissons Ratio (y) = 0.22691 0.22053
# Poissons Ratio (z) = -0.35756 0.32802
#
# Static dielectric constant tensor:
#      x y z
#    x 4.015460 -0.045430 0.225050 
#    y -0.045430 3.826220 0.181760 
#    z 0.225050 0.181760 3.968060 
# 
# 
# High freq. dielectric constant tensor:
#      x y z
#    x 1.856190 -0.001110 0.016200 
#    y -0.001110 1.835800 0.019520 
#    z 0.016200 0.019520 1.853320 
# 
# From -- ./inp_files/271815.got.cif
#   From: 2010.06.25/outbox.cif.g09.slc.cpg/sg2_136_cif.got.tgz:271815.got - 2010.06.27 13:26:56.
