data_PCOD8040950
_publ_section_title
;
Structure prediction by ZEFSAII (Michael W. Deem and Ramdas Pophale) SiO2 
 PCOD8040950
Probable space group: P -1
;
_chemical_formula_sum "Si O2"
_cell_formula_units_Z 14
_cell_length_a 15.497548
_cell_length_b 15.025151
_cell_length_c 11.882934
_cell_angle_alpha 57.780484
_cell_angle_beta 153.692232
_cell_angle_gamma 139.800323
_cell_volume 671.357956
_symmetry_space_group_name_H-M "P -1"
_symmetry_group_IT_number 2
_symmetry_cell_setting 'triclinic'
loop_
_space_group_symop_operation_xyz
x,y,z
-x,-y,-z
loop_
_atom_site_type_symbol
_atom_site_label
_atom_site_fract_x
_atom_site_fract_y
_atom_site_fract_z
Si Si1 0.223542 0.326486 0.240916
Si Si2 0.190940 0.318806 0.797283
Si Si3 0.625171 0.179390 0.621099
Si Si4 0.019390 0.932542 0.709860
Si Si5 0.170800 0.916731 0.670705
Si Si6 0.764401 0.805985 0.863708
Si Si7 0.631409 0.140317 0.394664
O O1 0.500000 0.500000 0.500000
O O2 0.200882 0.285411 0.109928
O O3 0.179645 0.197754 0.336746
O O4 0.956055 0.296563 0.974507
O O5 0.035517 0.228970 0.558842
O O6 0.953836 0.294259 0.607210
O O7 0.500000 0.500000 0.000000
O O8 0.261706 0.243962 0.004275
O O9 0.538341 0.263651 0.490994
O O10 0.606472 0.171163 0.470044
O O11 0.404408 0.002366 0.541646
O O12 0.023563 0.850686 0.666836
O O13 0.835138 0.961722 0.446626
O O14 0.367833 0.089877 0.049820
O O15 0.500000 0.000000 0.000000
O O16 0.000000 0.000000 0.000000
#
# Coordination Sequence:
#
# PCOD8040950 Si02
#       7
#     2   2   2   2   2   2   2
#     4  11  25  41  63 100 139 162 214 291 336 380
#     4  12  25  40  65  99 138 169 214 284 340 385
#     4  10  20  38  69  95 123 171 225 271 321 400
#     4  10  23  40  68  93 124 179 228 264 323 404
#     4  11  23  43  65  92 130 179 224 261 325 415
#     4  12  22  43  73  95 124 177 233 265 326 406
#     4  10  18  40  65  97 129 167 226 278 324 393
#
# _framework density 20.853256999999999
#
# number of rings (size 3 to 8) (size 9 to 14) (size 15 to 20)
#    0.000    1.143    4.286    3.429    2.000    0.571 
#    2.571    2.857    0.000    0.000    0.000    0.000 
#    0.000    0.000    0.000    0.000    0.000    0.000 
#
# Total GULP energy -173433.510658 kJ/mol
# GULP energy per Si atom -12388.107904 kJ/mol
# Density = 2.080579 g / cm^3
# Si number density = 20.853257 Si / 1000 Ang^3
#
#
#
# Elastic Constant Matrix: (Units=GPa)
#
#
# Indices 1 2 3 4 5 6 
#
# 1 76.7153 28.0786 47.9001 7.0108 -1.6875 8.0933
# 2 28.0786 75.2899 70.8793 2.6560 9.7853 7.9055
# 3 47.9001 70.8793 123.5608 6.3563 4.9133 5.9484
# 4 7.0108 2.6560 6.3563 42.7079 -4.3659 1.1222
# 5 -1.6875 9.7853 4.9133 -4.3659 40.5549 -1.2934
# 6 8.0933 7.9055 5.9484 1.1222 -1.2934 30.5569
#
#
#
# Elastic Compliance Matrix: (Units=1/GPa)
#
#
# Indices 1 2 3 4 5 6 
#
# 1 0.017737 -0.000195 -0.006571 -0.001704 0.001294 -0.003251
# 2 -0.000195 0.030605 -0.017045 0.000234 -0.005455 -0.004788
# 3 -0.006571 -0.017045 0.020295 -0.000802 0.001367 0.002287
# 4 -0.001704 0.000234 -0.000802 0.024066 0.002553 -0.000229
# 5 0.001294 -0.005455 0.001367 0.002553 0.026195 0.001817
# 6 -0.003251 -0.004788 0.002287 -0.000229 0.001817 0.034466
#
#
# Mechanical properties :
#
#
# Convention : Reuss Voigt Hill
#
# Bulk Modulus (GPa) = 47.58810 63.25356 55.42083
# Shear Modulus (GPa) = 24.03942 31.34447 27.69194
#
# Velocity S-wave (km/s) = 3.39896 3.88119 3.64805
# Velocity P-wave (km/s) = 6.18659 7.10516 6.66173
#
# Compressibility (1/GPa) = 0.02101366
#
# Stress axis : x y z
#
# Youngs Moduli (GPa) = 56.38001 32.67463 49.27285
#
# Poissons Ratio (x) = 0.00638 0.32378
# Poissons Ratio (y) = 0.01101 0.83986
# Poissons Ratio (z) = 0.37049 0.55694
#
# Static dielectric constant tensor:
#      x y z
#    x 3.983420 0.175630 0.042810 
#    y 0.175630 3.463230 -0.303290 
#    z 0.042810 -0.303290 4.132710 
# 
# 
# High freq. dielectric constant tensor:
#      x y z
#    x 1.828990 0.009580 0.000520 
#    y 0.009580 1.776420 -0.030220 
#    z 0.000520 -0.030220 1.834900 
# 
# From -- ./inp_files/455657.got.cif
#   From: 2010.06.25/outbox.cif.g09.slc.cpg/sg2_228_cif.got.tgz:455657.got - 2010.06.27 13:26:56.
