data_PCOD8040226
_publ_section_title
;
Structure prediction by ZEFSAII (Michael W. Deem and Ramdas Pophale) SiO2 
 PCOD8040226
Probable space group: P -1
;
_chemical_formula_sum "Si O2"
_cell_formula_units_Z 16
_cell_length_a 8.819723
_cell_length_b 11.467578
_cell_length_c 17.339304
_cell_angle_alpha 34.099593
_cell_angle_beta 119.776027
_cell_angle_gamma 131.007367
_cell_volume 737.399724
_symmetry_space_group_name_H-M "P -1"
_symmetry_group_IT_number 2
_symmetry_cell_setting 'triclinic'
loop_
_space_group_symop_operation_xyz
x,y,z
-x,-y,-z
loop_
_atom_site_type_symbol
_atom_site_label
_atom_site_fract_x
_atom_site_fract_y
_atom_site_fract_z
Si Si1 0.923176 0.223564 0.644703
Si Si2 0.773387 0.797198 0.535214
Si Si3 0.832716 0.960191 0.918264
Si Si4 0.593100 0.174974 0.081856
Si Si5 0.146885 0.457206 0.182406
Si Si6 0.762034 0.467340 0.118675
Si Si7 0.483349 0.973978 0.601124
Si Si8 0.151658 0.049109 0.692311
O O1 0.924940 0.176385 0.761767
O O2 0.000000 0.500000 0.500000
O O3 0.075431 0.154380 0.681454
O O4 0.701715 0.062780 0.642457
O O5 0.730112 0.565376 0.701466
O O6 0.762480 0.757382 0.462127
O O7 0.608573 0.869986 0.474759
O O8 0.000000 0.000000 0.500000
O O9 0.648079 0.962837 0.914067
O O10 0.751644 0.708133 0.991390
O O11 0.000000 0.000000 0.000000
O O12 0.645380 0.329495 0.088280
O O13 0.666467 0.980974 0.211663
O O14 0.691242 0.341919 0.941789
O O15 0.994951 0.538145 0.132794
O O16 0.027333 0.209425 0.240129
O O17 0.661573 0.302809 0.259034
O O18 0.500000 0.000000 0.500000
#
# Coordination Sequence:
#
# PCOD8040226 Si02
#       8
#     2   2   2   2   2   2   2   2
#     4  12  28  47  66  99 141 182 225 279 348 411
#     4  10  18  36  59 100 135 163 219 281 323 396
#     4  12  28  45  65 100 143 179 224 279 349 407
#     4  11  21  43  71  97 128 177 228 280 333 402
#     4  10  20  34  69 103 129 168 228 281 332 387
#     4  11  22  42  70 101 135 173 229 284 333 399
#     4  12  24  39  72 106 136 175 232 282 343 394
#     4  10  20  41  67  91 132 172 226 278 331 401
#
# _framework density 21.697866000000001
#
# number of rings (size 3 to 8) (size 9 to 14) (size 15 to 20)
#    0.000    1.000    5.000    4.875    5.250    0.000 
#    0.000    6.250    0.000    0.000    0.000    0.000 
#    0.000    0.000    0.000    0.000    0.000    0.000 
#
# Total GULP energy -198444.516743 kJ/mol
# GULP energy per Si atom -12402.782296 kJ/mol
# Density = 2.164848 g / cm^3
# Si number density = 21.697866 Si / 1000 Ang^3
#
#
#
# Elastic Constant Matrix: (Units=GPa)
#
#
# Indices 1 2 3 4 5 6 
#
# 1 165.2847 49.7611 78.0707 8.5601 -3.6894 11.9271
# 2 49.7611 53.9869 38.4036 22.1539 -2.5975 13.1365
# 3 78.0707 38.4036 177.3804 30.9737 -23.8264 5.1948
# 4 8.5601 22.1539 30.9737 34.3140 -7.5440 6.9560
# 5 -3.6894 -2.5975 -23.8264 -7.5440 52.9935 11.0083
# 6 11.9271 13.1365 5.1948 6.9560 11.0083 20.3640
#
#
#
# Elastic Compliance Matrix: (Units=1/GPa)
#
#
# Indices 1 2 3 4 5 6 
#
# 1 0.010429 -0.009578 -0.003753 0.007223 -0.000117 -0.001377
# 2 -0.009578 0.038824 -0.000243 -0.019514 0.001114 -0.013309
# 3 -0.003753 -0.000243 0.008788 -0.006466 0.002563 0.000936
# 4 0.007223 -0.019514 -0.006466 0.049000 0.005647 -0.009784
# 5 -0.000117 0.001114 0.002563 0.005647 0.024270 -0.016353
# 6 -0.001377 -0.013309 0.000936 -0.009784 -0.016353 0.070441
#
#
# Mechanical properties :
#
#
# Convention : Reuss Voigt Hill
#
# Bulk Modulus (GPa) = 32.37026 81.01366 56.69196
# Shear Modulus (GPa) = 20.90320 36.89539 28.89930
#
# Velocity S-wave (km/s) = 3.10720 4.12808 3.65347
# Velocity P-wave (km/s) = 5.27484 7.75498 6.63188
#
# Compressibility (1/GPa) = 0.03089256
#
# Stress axis : x y z
#
# Youngs Moduli (GPa) = 95.88577 25.75753 113.79117
#
# Poissons Ratio (x) = 0.24669 0.42708
# Poissons Ratio (y) = 0.91835 0.02769
# Poissons Ratio (z) = 0.35988 0.00627
#
# Static dielectric constant tensor:
#      x y z
#    x 4.340560 0.134560 0.202810 
#    y 0.134560 3.539570 0.361640 
#    z 0.202810 0.361640 4.805320 
# 
# 
# High freq. dielectric constant tensor:
#      x y z
#    x 1.874650 0.006040 -0.001410 
#    y 0.006040 1.812450 0.024800 
#    z -0.001410 0.024800 1.870590 
# 
# From -- ./inp_files/559565.got.cif
#   From: 2010.06.25/outbox.cif.g09.slc.cpg/sg2_280_cif.got.tgz:559565.got - 2010.06.27 13:26:56.
