data_PCOD8040307
_publ_section_title
;
Structure prediction by ZEFSAII (Michael W. Deem and Ramdas Pophale) SiO2 
 PCOD8040307
Probable space group: P -1
;
_chemical_formula_sum "Si O2"
_cell_formula_units_Z 16
_cell_length_a 12.041430
_cell_length_b 14.087006
_cell_length_c 15.899174
_cell_angle_alpha 147.688702
_cell_angle_beta 37.127505
_cell_angle_gamma 119.209740
_cell_volume 711.285411
_symmetry_space_group_name_H-M "P -1"
_symmetry_group_IT_number 2
_symmetry_cell_setting 'triclinic'
loop_
_space_group_symop_operation_xyz
x,y,z
-x,-y,-z
loop_
_atom_site_type_symbol
_atom_site_label
_atom_site_fract_x
_atom_site_fract_y
_atom_site_fract_z
Si Si1 0.052952 0.618642 0.367955
Si Si2 0.733881 0.915683 0.403475
Si Si3 0.405338 0.333645 0.807099
Si Si4 0.522358 0.013008 0.779819
Si Si5 0.321280 0.484184 0.272342
Si Si6 0.058213 0.103229 0.114170
Si Si7 0.592020 0.784448 0.732600
Si Si8 0.127147 0.917714 0.117134
O O1 0.212644 0.489989 0.253202
O O2 0.840549 0.597216 0.477399
O O3 0.189199 0.522237 0.128054
O O4 0.953521 0.872808 0.619944
O O5 0.672008 0.758670 0.287189
O O6 0.996320 0.814577 0.149828
O O7 0.582399 0.150985 0.628167
O O8 0.698839 0.938478 0.541863
O O9 0.517011 0.437146 0.771409
O O10 0.622357 0.822784 0.645289
O O11 0.466425 0.232341 0.024174
O O12 0.292480 0.062256 0.917404
O O13 0.127104 0.636540 0.571290
O O14 0.062843 0.994927 0.117802
O O15 0.000000 0.000000 0.000000
O O16 0.400053 0.737131 0.822879
O O17 0.500000 0.000000 0.000000
#
# Coordination Sequence:
#
# PCOD8040307 Si02
#       8
#     2   2   2   2   2   2   2   2
#     4  10  18  36  61  84 116 156 195 237 295 350
#     4  11  21  36  60  92 119 154 199 245 307 349
#     4  11  21  34  60  92 122 155 190 251 306 350
#     4  11  22  36  61  92 115 154 205 245 291 350
#     4  11  20  36  60  91 119 149 201 252 290 347
#     4  10  20  33  53  86 123 153 189 247 301 343
#     4   9  21  41  61  83 121 161 193 241 300 352
#     4   9  19  37  59  81 119 158 193 237 296 354
#
# _framework density 22.494484
#
# number of rings (size 3 to 8) (size 9 to 14) (size 15 to 20)
#    0.000    1.750    3.750    3.000    1.750    0.000 
#    0.000    6.875    0.000    4.500    0.000    0.875 
#    0.000    0.000    0.000    0.000    0.000    0.000 
#
# Total GULP energy -198373.720320 kJ/mol
# GULP energy per Si atom -12398.357520 kJ/mol
# Density = 2.244329 g / cm^3
# Si number density = 22.494484 Si / 1000 Ang^3
#
#
#
# Elastic Constant Matrix: (Units=GPa)
#
#
# Indices 1 2 3 4 5 6 
#
# 1 73.2794 35.8476 31.4290 -11.1958 -1.6213 32.5718
# 2 35.8476 97.1054 19.8676 -23.5824 -8.9073 27.7190
# 3 31.4290 19.8676 54.3177 -13.7784 6.1034 9.2093
# 4 -11.1958 -23.5824 -13.7784 33.1506 9.2246 -3.1286
# 5 -1.6213 -8.9073 6.1034 9.2246 34.8357 -12.1362
# 6 32.5718 27.7190 9.2093 -3.1286 -12.1362 27.3033
#
#
#
# Elastic Compliance Matrix: (Units=1/GPa)
#
#
# Indices 1 2 3 4 5 6 
#
# 1 0.046447 0.005103 -0.012061 0.013942 -0.020407 -0.063995
# 2 0.005103 0.019174 -0.000682 0.014774 -0.008147 -0.027251
# 3 -0.012061 -0.000682 0.028205 0.009429 -0.006931 0.003568
# 4 0.013942 0.014774 0.009429 0.052502 -0.025038 -0.039926
# 5 -0.020407 -0.008147 -0.006931 -0.025038 0.052885 0.055592
# 6 -0.063995 -0.027251 0.003568 -0.039926 0.055592 0.159567
#
#
# Mechanical properties :
#
#
# Convention : Reuss Voigt Hill
#
# Bulk Modulus (GPa) = 12.73186 44.33232 28.53209
# Shear Modulus (GPa) = 12.49244 28.22845 20.36044
#
# Velocity S-wave (km/s) = 2.35915 3.54631 3.01180
# Velocity P-wave (km/s) = 3.61844 6.04312 4.98058
#
# Compressibility (1/GPa) = 0.07854311
#
# Stress axis : x y z
#
# Youngs Moduli (GPa) = 21.53010 52.15522 35.45526
#
# Poissons Ratio (x) = -0.26614 0.42764
# Poissons Ratio (y) = -0.10987 0.02419
# Poissons Ratio (z) = 0.25968 0.03558
#
# Static dielectric constant tensor:
#      x y z
#    x 4.413700 0.297470 -0.294720 
#    y 0.297470 3.908410 -0.315470 
#    z -0.294720 -0.315470 4.132070 
# 
# 
# High freq. dielectric constant tensor:
#      x y z
#    x 1.881990 0.018770 0.004460 
#    y 0.018770 1.871800 -0.027150 
#    z 0.004460 -0.027150 1.879600 
# 
# From -- ./inp_files/244252.got.cif
#   From: 2010.06.25/outbox.cif.g09.slc.cpg/sg2_123_cif.got.tgz:244252.got - 2010.06.27 13:26:56.
