data_PCOD8040427
_publ_section_title
;
Structure prediction by ZEFSAII (Michael W. Deem and Ramdas Pophale) SiO2 
 PCOD8040427
Probable space group: P -1
;
_chemical_formula_sum "Si O2"
_cell_formula_units_Z 16
_cell_length_a 18.294094
_cell_length_b 11.782002
_cell_length_c 10.114467
_cell_angle_alpha 81.675158
_cell_angle_beta 37.417917
_cell_angle_gamma 52.731952
_cell_volume 757.796452
_symmetry_space_group_name_H-M "P -1"
_symmetry_group_IT_number 2
_symmetry_cell_setting 'triclinic'
loop_
_space_group_symop_operation_xyz
x,y,z
-x,-y,-z
loop_
_atom_site_type_symbol
_atom_site_label
_atom_site_fract_x
_atom_site_fract_y
_atom_site_fract_z
Si Si1 0.574107 0.681183 0.811135
Si Si2 0.027342 0.733839 0.590570
Si Si3 0.791431 0.690910 0.914378
Si Si4 0.699357 0.164377 0.062509
Si Si5 0.514839 0.247044 0.590452
Si Si6 0.176080 0.681114 0.107534
Si Si7 0.228882 0.256416 0.365742
Si Si8 0.263265 0.970850 0.425663
O O1 0.763064 0.443923 0.595726
O O2 0.482566 0.739855 0.786871
O O3 0.663792 0.739353 0.687710
O O4 0.394099 0.796700 0.158618
O O5 0.087589 0.677522 0.359179
O O6 0.858820 0.764180 0.855144
O O7 0.921558 0.936156 0.743898
O O8 0.714057 0.750689 0.863957
O O9 0.980075 0.454423 0.704003
O O10 0.600352 0.786563 0.256096
O O11 0.647342 0.171015 0.284781
O O12 0.717061 0.286406 0.998747
O O13 0.675212 0.117508 0.502745
O O14 0.345719 0.477779 0.817919
O O15 0.981916 0.864048 0.262000
O O16 0.313885 0.065315 0.310727
#
# Coordination Sequence:
#
# PCOD8040427 Si02
#       8
#     2   2   2   2   2   2   2   2
#     4  11  23  40  67 100 132 172 217 273 328 392
#     4  11  23  43  68 104 129 168 224 278 324 382
#     4  10  18  39  69  97 136 161 215 285 320 385
#     4  12  29  44  64  97 142 180 210 268 340 392
#     4  12  26  44  66 102 132 176 219 272 333 389
#     4  12  24  47  70  94 133 174 233 271 310 395
#     4  10  18  36  67 104 127 163 227 271 319 384
#     4  12  22  38  74  99 124 177 227 268 324 388
#
# _framework density 21.113849999999999
#
# number of rings (size 3 to 8) (size 9 to 14) (size 15 to 20)
#    0.000    0.750    6.250    1.875    1.750    3.500 
#    0.000    1.250    0.000    0.000    0.000    0.000 
#    0.000    0.000    0.000    0.000    0.000    0.000 
#
# Total GULP energy -198471.763143 kJ/mol
# GULP energy per Si atom -12404.485196 kJ/mol
# Density = 2.106579 g / cm^3
# Si number density = 21.113850 Si / 1000 Ang^3
#
#
#
# Elastic Constant Matrix: (Units=GPa)
#
#
# Indices 1 2 3 4 5 6 
#
# 1 105.6246 50.2141 33.7222 7.9826 -7.1373 -18.4448
# 2 50.2141 77.3204 22.3216 5.9409 -9.7623 -12.0006
# 3 33.7222 22.3216 57.7608 1.8729 -2.5615 -17.1977
# 4 7.9826 5.9409 1.8729 26.5905 -7.8896 -8.4149
# 5 -7.1373 -9.7623 -2.5615 -7.8896 27.7154 -1.7040
# 6 -18.4448 -12.0006 -17.1977 -8.4149 -1.7040 34.6918
#
#
#
# Elastic Compliance Matrix: (Units=1/GPa)
#
#
# Indices 1 2 3 4 5 6 
#
# 1 0.015513 -0.008025 -0.005121 -0.001569 0.000407 0.002573
# 2 -0.008025 0.019636 -0.002185 0.000140 0.004793 0.001712
# 3 -0.005121 -0.002185 0.023897 0.003845 0.001792 0.009389
# 4 -0.001569 0.000140 0.003845 0.046000 0.013892 0.012961
# 5 0.000407 0.004793 0.001792 0.013892 0.042499 0.008220
# 6 0.002573 0.001712 0.009389 0.012961 0.008220 0.038987
#
#
# Mechanical properties :
#
#
# Convention : Reuss Voigt Hill
#
# Bulk Modulus (GPa) = 35.23149 50.35796 42.79473
# Shear Modulus (GPa) = 22.06000 26.76274 24.41137
#
# Velocity S-wave (km/s) = 3.23586 3.56412 3.40395
# Velocity P-wave (km/s) = 5.53929 6.39060 5.98011
#
# Compressibility (1/GPa) = 0.02838370
#
# Stress axis : x y z
#
# Youngs Moduli (GPa) = 64.46343 50.92737 41.84626
#
# Poissons Ratio (x) = 0.40869 0.21427
# Poissons Ratio (y) = 0.51732 0.09145
# Poissons Ratio (z) = 0.33009 0.11130
#
# Static dielectric constant tensor:
#      x y z
#    x 3.690040 -0.025210 -0.216720 
#    y -0.025210 3.851190 0.234210 
#    z -0.216720 0.234210 3.654330 
# 
# 
# High freq. dielectric constant tensor:
#      x y z
#    x 1.822560 -0.000290 -0.023840 
#    y -0.000290 1.833220 0.019300 
#    z -0.023840 0.019300 1.813660 
# 
# From -- ./inp_files/333206.got.cif
#   From: 2010.06.25/outbox.cif.g09.slc.cpg/sg2_167_cif.got.tgz:333206.got - 2010.06.27 13:26:56.
