data_PCOD8040758
_publ_section_title
;
Structure prediction by ZEFSAII (Michael W. Deem and Ramdas Pophale) SiO2 
 PCOD8040758
Probable space group: P -1
;
_chemical_formula_sum "Si O2"
_cell_formula_units_Z 16
_cell_length_a 12.172355
_cell_length_b 19.284688
_cell_length_c 11.462054
_cell_angle_alpha 47.021731
_cell_angle_beta 63.388264
_cell_angle_gamma 26.604656
_cell_volume 766.864402
_symmetry_space_group_name_H-M "P -1"
_symmetry_group_IT_number 2
_symmetry_cell_setting 'triclinic'
loop_
_space_group_symop_operation_xyz
x,y,z
-x,-y,-z
loop_
_atom_site_type_symbol
_atom_site_label
_atom_site_fract_x
_atom_site_fract_y
_atom_site_fract_z
Si Si1 0.915625 0.477578 0.350426
Si Si2 0.817996 0.179624 0.658291
Si Si3 0.719704 0.722013 0.951888
Si Si4 0.570575 0.226483 0.093534
Si Si5 0.297856 0.380675 0.291139
Si Si6 0.439731 0.801732 0.384619
Si Si7 0.701310 0.465856 0.328442
Si Si8 0.729468 0.870938 0.945393
O O1 0.750997 0.582257 0.430365
O O2 0.943891 0.356988 0.407953
O O3 0.211295 0.328197 0.397210
O O4 0.717951 0.677389 0.132035
O O5 0.771400 0.130211 0.642952
O O6 0.819023 0.278157 0.473859
O O7 0.581299 0.338961 0.685768
O O8 0.108190 0.962674 0.839225
O O9 0.452148 0.863695 0.849142
O O10 0.689954 0.852996 0.852541
O O11 0.000000 0.500000 0.000000
O O12 0.461522 0.295222 0.196451
O O13 0.373220 0.436485 0.873532
O O14 0.508172 0.257162 0.437635
O O15 0.023700 0.637214 0.132305
O O16 0.279215 0.011477 0.204206
O O17 0.500000 0.000000 0.000000
#
# Coordination Sequence:
#
# PCOD8040758 Si02
#       8
#     2   2   2   2   2   2   2   2
#     4   9  18  37  64  89 124 158 206 265 315 360
#     4  10  23  43  61  93 123 170 223 249 308 377
#     4  10  18  38  64  95 128 152 203 265 316 372
#     4  11  22  40  67  92 127 165 206 269 317 371
#     4  11  23  39  63  95 129 162 207 262 329 371
#     4  11  23  41  62  89 130 168 211 262 298 386
#     4   9  21  41  66  88 126 165 210 270 306 369
#     4  11  22  40  65  96 125 167 209 252 325 378
#
# _framework density 20.864184000000002
#
# number of rings (size 3 to 8) (size 9 to 14) (size 15 to 20)
#    0.000    1.750    5.000    0.750    0.000    3.500 
#    4.500    2.500    0.000    0.000    0.000    0.000 
#    0.000    0.000    0.000    0.000    0.000    0.000 
#
# Total GULP energy -198301.309674 kJ/mol
# GULP energy per Si atom -12393.831855 kJ/mol
# Density = 2.081670 g / cm^3
# Si number density = 20.864184 Si / 1000 Ang^3
#
#
#
# Elastic Constant Matrix: (Units=GPa)
#
#
# Indices 1 2 3 4 5 6 
#
# 1 154.2301 35.1727 59.1275 1.1400 -3.9691 20.0589
# 2 35.1727 61.1435 17.9708 8.4245 2.2625 14.8567
# 3 59.1275 17.9708 86.6582 6.9873 -3.3660 15.1311
# 4 1.1400 8.4245 6.9873 28.6165 2.6674 2.3829
# 5 -3.9691 2.2625 -3.3660 2.6674 42.0105 -2.8965
# 6 20.0589 14.8567 15.1311 2.3829 -2.8965 28.5742
#
#
#
# Elastic Compliance Matrix: (Units=1/GPa)
#
#
# Indices 1 2 3 4 5 6 
#
# 1 0.009794 -0.003787 -0.005709 0.002251 0.000389 -0.002031
# 2 -0.003787 0.021317 -0.000060 -0.005271 -0.001736 -0.008130
# 3 -0.005709 -0.000060 0.016514 -0.003492 0.000709 -0.004344
# 4 0.002251 -0.005271 -0.003492 0.037492 -0.002187 -0.000339
# 5 0.000389 -0.001736 0.000709 -0.002187 0.024330 0.002903
# 6 -0.002031 -0.008130 -0.004344 -0.000339 0.002903 0.043272
#
#
# Mechanical properties :
#
#
# Convention : Reuss Voigt Hill
#
# Bulk Modulus (GPa) = 35.06987 58.50820 46.78904
# Shear Modulus (GPa) = 27.57349 32.49095 30.03222
#
# Velocity S-wave (km/s) = 3.63928 3.95049 3.79808
# Velocity P-wave (km/s) = 5.87404 6.99370 6.45818
#
# Compressibility (1/GPa) = 0.02851451
#
# Stress axis : x y z
#
# Youngs Moduli (GPa) = 102.10837 46.91132 60.55288
#
# Poissons Ratio (x) = 0.17765 0.34567
# Poissons Ratio (y) = 0.38667 0.00361
# Poissons Ratio (z) = 0.58290 0.00280
#
# Static dielectric constant tensor:
#      x y z
#    x 4.845790 -0.551900 0.623260 
#    y -0.551900 4.457040 -0.885090 
#    z 0.623260 -0.885090 4.880780 
# 
# 
# High freq. dielectric constant tensor:
#      x y z
#    x 1.826880 0.003350 -0.000490 
#    y 0.003350 1.807230 0.017020 
#    z -0.000490 0.017020 1.800070 
# 
# From -- ./inp_files/436620.got.cif
#   From: 2010.06.25/outbox.cif.g09.slc.cpg/sg2_219_cif.got.tgz:436620.got - 2010.06.27 13:26:56.
