data_PCOD8040372
_publ_section_title
;
Structure prediction by ZEFSAII (Michael W. Deem and Ramdas Pophale) SiO2 
 PCOD8040372
Probable space group: P -1
;
_chemical_formula_sum "Si O2"
_cell_formula_units_Z 16
_cell_length_a 8.548822
_cell_length_b 17.589771
_cell_length_c 9.376924
_cell_angle_alpha 84.709090
_cell_angle_beta 115.772053
_cell_angle_gamma 139.899837
_cell_volume 744.363992
_symmetry_space_group_name_H-M "P -1"
_symmetry_group_IT_number 2
_symmetry_cell_setting 'triclinic'
loop_
_space_group_symop_operation_xyz
x,y,z
-x,-y,-z
loop_
_atom_site_type_symbol
_atom_site_label
_atom_site_fract_x
_atom_site_fract_y
_atom_site_fract_z
Si Si1 0.163725 0.513011 0.940359
Si Si2 0.371433 0.473290 0.604883
Si Si3 0.808997 0.732903 0.260844
Si Si4 0.867342 0.363059 0.277862
Si Si5 0.868066 0.017616 0.542480
Si Si6 0.678349 0.089468 0.791576
Si Si7 0.971977 0.678536 0.930427
Si Si8 0.287665 0.073687 0.185509
O O1 0.110254 0.538664 0.767063
O O2 0.513157 0.637732 0.072623
O O3 0.043749 0.383421 0.925504
O O4 0.000000 0.500000 0.000000
O O5 0.500000 0.500000 0.500000
O O6 0.211192 0.341715 0.622214
O O7 0.641374 0.596532 0.791883
O O8 0.111514 0.442361 0.485778
O O9 0.861013 0.829293 0.350104
O O10 0.078957 0.813167 0.249835
O O11 0.546782 0.225415 0.229887
O O12 0.935293 0.334946 0.170941
O O13 0.616105 0.974877 0.368005
O O14 0.758934 0.942330 0.660339
O O15 0.000000 0.000000 0.500000
O O16 0.624616 0.980859 0.821151
O O17 0.795633 0.172055 0.968561
O O18 0.000000 0.000000 0.000000
#
# Coordination Sequence:
#
# PCOD8040372 Si02
#       8
#     2   2   2   2   2   2   2   2
#     4   9  19  34  62  89 121 166 207 251 308 372
#     4   9  18  35  57  89 116 158 201 251 313 365
#     4  10  20  40  63  82 122 169 204 255 311 377
#     4  10  18  36  63  86 127 162 203 260 318 363
#     4  11  25  42  66  94 123 169 218 258 314 392
#     4  11  23  41  65  91 128 166 216 260 317 383
#     4   9  21  36  60  94 118 165 213 248 308 385
#     4  11  24  43  65  94 129 168 209 263 331 367
#
# _framework density 21.494859999999999
#
# number of rings (size 3 to 8) (size 9 to 14) (size 15 to 20)
#    0.000    2.000    0.000    5.250    5.250    2.500 
#    4.500    0.000    0.000    3.000    0.000    0.000 
#    0.000    0.000    0.000    0.000    0.000    0.000 
#
# Total GULP energy -198308.468131 kJ/mol
# GULP energy per Si atom -12394.279258 kJ/mol
# Density = 2.144594 g / cm^3
# Si number density = 21.494860 Si / 1000 Ang^3
#
#
#
# Elastic Constant Matrix: (Units=GPa)
#
#
# Indices 1 2 3 4 5 6 
#
# 1 76.5863 2.1917 33.8394 -1.6763 19.3224 -6.2248
# 2 2.1917 67.7806 24.9795 -18.1894 13.6309 4.6869
# 3 33.8394 24.9795 86.9265 -23.9966 22.8723 -12.8399
# 4 -1.6763 -18.1894 -23.9966 30.3030 -10.4768 4.7860
# 5 19.3224 13.6309 22.8723 -10.4768 42.0191 4.2169
# 6 -6.2248 4.6869 -12.8399 4.7860 4.2169 25.6560
#
#
#
# Elastic Compliance Matrix: (Units=1/GPa)
#
#
# Indices 1 2 3 4 5 6 
#
# 1 0.017898 0.001405 -0.006928 -0.006479 -0.006826 0.002949
# 2 0.001405 0.019459 -0.004208 0.008862 -0.001788 -0.006679
# 3 -0.006928 -0.004208 0.020892 0.010570 -0.005028 0.008398
# 4 -0.006479 0.008862 0.010570 0.050372 0.007771 -0.008575
# 5 -0.006826 -0.001788 -0.005028 0.007771 0.033273 -0.010765
# 6 0.002949 -0.006679 0.008398 -0.008575 -0.010765 0.048485
#
#
# Mechanical properties :
#
#
# Convention : Reuss Voigt Hill
#
# Bulk Modulus (GPa) = 25.78291 39.25718 32.52004
# Shear Modulus (GPa) = 22.44467 30.94780 26.69623
#
# Velocity S-wave (km/s) = 3.23490 3.79856 3.52800
# Velocity P-wave (km/s) = 5.09644 6.12714 5.63540
#
# Compressibility (1/GPa) = 0.03878538
#
# Stress axis : x y z
#
# Youngs Moduli (GPa) = 55.87138 51.39125 47.86609
#
# Poissons Ratio (x) = -0.07219 0.33161
# Poissons Ratio (y) = -0.07848 0.20144
# Poissons Ratio (z) = 0.38707 0.21627
#
# Static dielectric constant tensor:
#      x y z
#    x 3.827320 -0.076100 0.327950 
#    y -0.076100 4.208140 -0.011700 
#    z 0.327950 -0.011700 4.258200 
# 
# 
# High freq. dielectric constant tensor:
#      x y z
#    x 1.833800 0.006680 0.021610 
#    y 0.006680 1.852540 -0.005910 
#    z 0.021610 -0.005910 1.849080 
# 
# From -- ./inp_files/217538.got.cif
#   From: 2010.06.25/outbox.cif.g09.slc.cpg/sg2_109_cif.got.tgz:217538.got - 2010.06.27 13:26:56.
