data_PCOD8040567
_publ_section_title
;
Structure prediction by ZEFSAII (Michael W. Deem and Ramdas Pophale) SiO2 
 PCOD8040567
Probable space group: P -1
;
_chemical_formula_sum "Si O2"
_cell_formula_units_Z 14
_cell_length_a 11.236614
_cell_length_b 11.655121
_cell_length_c 13.323910
_cell_angle_alpha 43.330088
_cell_angle_beta 131.273327
_cell_angle_gamma 99.004964
_cell_volume 701.117111
_symmetry_space_group_name_H-M "P -1"
_symmetry_group_IT_number 2
_symmetry_cell_setting 'triclinic'
loop_
_space_group_symop_operation_xyz
x,y,z
-x,-y,-z
loop_
_atom_site_type_symbol
_atom_site_label
_atom_site_fract_x
_atom_site_fract_y
_atom_site_fract_z
Si Si1 0.507917 0.508359 0.759134
Si Si2 0.654768 0.873476 0.295889
Si Si3 0.943188 0.569698 0.206155
Si Si4 0.394482 0.233947 0.252332
Si Si5 0.947688 0.171914 0.780155
Si Si6 0.685266 0.102419 0.987882
Si Si7 0.545089 0.709507 0.959732
O O1 0.616944 0.617148 0.761698
O O2 0.642386 0.309553 0.883901
O O3 0.281288 0.686317 0.478431
O O4 0.513659 0.414880 0.931095
O O5 0.501603 0.816211 0.242229
O O6 0.874035 0.663446 0.583539
O O7 0.572849 0.050863 0.220552
O O8 0.685896 0.946566 0.162215
O O9 0.024795 0.670405 0.250523
O O10 0.821197 0.691118 0.957893
O O11 0.789735 0.572260 0.194211
O O12 0.514402 0.251433 0.216670
O O13 0.500000 0.000000 0.500000
O O14 0.099220 0.038904 0.856989
O O15 0.000000 0.000000 0.000000
#
# Coordination Sequence:
#
# PCOD8040567 Si02
#       7
#     2   2   2   2   2   2   2
#     4  11  22  40  63  91 121 160 204 256 302 352
#     4  10  18  37  62  93 118 152 204 255 299 354
#     4  10  21  38  62  87 119 164 200 245 306 354
#     4  10  22  43  61  84 127 165 201 246 307 367
#     4  12  24  39  60  91 125 162 203 248 305 367
#     4  10  21  36  61  93 122 154 199 253 304 356
#     4   9  21  38  65  85 123 157 207 248 299 359
#
# _framework density 19.968133000000002
#
# number of rings (size 3 to 8) (size 9 to 14) (size 15 to 20)
#    0.857    0.857    2.857    2.143    0.000    1.714 
#    5.143    2.143    0.000    0.000    0.000    0.000 
#    0.000    0.000    0.000    0.000    0.000    0.000 
#
# Total GULP energy -173455.725000 kJ/mol
# GULP energy per Si atom -12389.694643 kJ/mol
# Density = 1.992268 g / cm^3
# Si number density = 19.968133 Si / 1000 Ang^3
#
#
#
# Elastic Constant Matrix: (Units=GPa)
#
#
# Indices 1 2 3 4 5 6 
#
# 1 22.6847 18.5035 12.3354 6.8903 4.5404 -8.2656
# 2 18.5035 125.1074 40.6477 -7.7755 -1.9984 -1.4635
# 3 12.3354 40.6477 121.1489 -1.4546 5.3075 -13.4059
# 4 6.8903 -7.7755 -1.4546 10.8759 2.4724 -6.7639
# 5 4.5404 -1.9984 5.3075 2.4724 31.0177 -5.5417
# 6 -8.2656 -1.4635 -13.4059 -6.7639 -5.5417 16.3862
#
#
#
# Elastic Compliance Matrix: (Units=1/GPa)
#
#
# Indices 1 2 3 4 5 6 
#
# 1 0.077681 -0.013807 -0.002081 -0.049411 -0.005464 0.014005
# 2 -0.013807 0.011879 -0.002552 0.016007 0.001809 -0.000773
# 3 -0.002081 -0.002552 0.010567 0.007394 -0.000421 0.010277
# 4 -0.049411 0.016007 0.007394 0.167878 0.003067 0.052888
# 5 -0.005464 0.001809 -0.000421 0.003067 0.034787 0.010091
# 6 0.014005 -0.000773 0.010277 0.052888 0.010091 0.101674
#
#
# Mechanical properties :
#
#
# Convention : Reuss Voigt Hill
#
# Bulk Modulus (GPa) = 15.81129 45.76826 30.78978
# Shear Modulus (GPa) = 10.81245 24.81959 17.81602
#
# Velocity S-wave (km/s) = 2.32951 3.52939 2.99025
# Velocity P-wave (km/s) = 3.89499 6.29120 5.23212
#
# Compressibility (1/GPa) = 0.06324593
#
# Stress axis : x y z
#
# Youngs Moduli (GPa) = 12.87310 84.18018 94.63382
#
# Poissons Ratio (x) = 1.16232 0.19693
# Poissons Ratio (y) = 0.17774 0.24155
# Poissons Ratio (z) = 0.02679 0.21487
#
# Static dielectric constant tensor:
#      x y z
#    x 3.499980 -0.031070 0.035520 
#    y -0.031070 3.649510 -0.036190 
#    z 0.035520 -0.036190 3.599250 
# 
# 
# High freq. dielectric constant tensor:
#      x y z
#    x 1.758090 -0.006910 0.000630 
#    y -0.006910 1.788960 -0.008800 
#    z 0.000630 -0.008800 1.780360 
# 
# From -- ./inp_files/499201.got.cif
#   From: 2010.06.25/outbox.cif.g09.slc.cpg/sg2_250_cif.got.tgz:499201.got - 2010.06.27 13:26:56.
