data_PCOD8040239
_publ_section_title
;
Structure prediction by ZEFSAII (Michael W. Deem and Ramdas Pophale) SiO2 
 PCOD8040239
Probable space group: P -1
;
_chemical_formula_sum "Si O2"
_cell_formula_units_Z 16
_cell_length_a 17.023048
_cell_length_b 8.948503
_cell_length_c 11.274291
_cell_angle_alpha 73.113395
_cell_angle_beta 151.186234
_cell_angle_gamma 111.168692
_cell_volume 770.595799
_symmetry_space_group_name_H-M "P -1"
_symmetry_group_IT_number 2
_symmetry_cell_setting 'triclinic'
loop_
_space_group_symop_operation_xyz
x,y,z
-x,-y,-z
loop_
_atom_site_type_symbol
_atom_site_label
_atom_site_fract_x
_atom_site_fract_y
_atom_site_fract_z
Si Si1 0.919754 0.488671 0.031900
Si Si2 0.153040 0.045973 0.099357
Si Si3 0.212914 0.792473 0.386207
Si Si4 0.099144 0.943918 0.423666
Si Si5 0.090781 0.355479 0.642735
Si Si6 0.312661 0.385740 0.156807
Si Si7 0.338295 0.540301 0.504900
Si Si8 0.834574 0.704702 0.504662
O O1 0.753815 0.475263 0.896291
O O2 0.846413 0.472802 0.802307
O O3 0.030911 0.666952 0.171632
O O4 0.000293 0.340134 0.208814
O O5 0.271702 0.224858 0.221683
O O6 0.255157 0.913803 0.300768
O O7 0.071705 0.026163 0.866616
O O8 0.000000 0.000000 0.000000
O O9 0.220710 0.890112 0.498010
O O10 0.356549 0.692126 0.584151
O O11 0.053548 0.807692 0.495149
O O12 0.179800 0.111486 0.554391
O O13 0.181033 0.358305 0.635466
O O14 0.000000 0.500000 0.500000
O O15 0.233729 0.361851 0.927523
O O16 0.513124 0.443905 0.395266
O O17 0.324224 0.385690 0.605415
#
# Coordination Sequence:
#
# PCOD8040239 Si02
#       8
#     2   2   2   2   2   2   2   2
#     4  11  19  39  58  87 116 154 195 234 281 350
#     4   9  16  31  59  80 110 151 192 231 281 338
#     4  10  18  36  59  83 117 158 189 231 284 350
#     4  10  19  34  60  88 109 145 202 242 274 328
#     4  11  20  40  64  84 112 149 203 239 278 342
#     4  11  22  37  59  87 118 154 187 243 293 339
#     4  11  24  35  56  91 123 148 190 236 299 343
#     4  11  22  36  63  88 112 156 196 238 278 342
#
# _framework density 20.763155000000001
#
# number of rings (size 3 to 8) (size 9 to 14) (size 15 to 20)
#    0.000    1.500    5.000    4.500    1.750    1.000 
#    0.000    0.000    0.000    1.500    0.000    0.000 
#    0.000    0.000    0.000    0.000    0.000    0.000 
#
# Total GULP energy -198243.080081 kJ/mol
# GULP energy per Si atom -12390.192505 kJ/mol
# Density = 2.071590 g / cm^3
# Si number density = 20.763155 Si / 1000 Ang^3
#
#
#
# Elastic Constant Matrix: (Units=GPa)
#
#
# Indices 1 2 3 4 5 6 
#
# 1 100.1091 39.9894 9.0130 2.8517 0.7125 0.9128
# 2 39.9894 132.9468 17.3961 -1.9367 9.0718 8.2770
# 3 9.0130 17.3961 29.7271 -2.6422 0.4972 5.4341
# 4 2.8517 -1.9367 -2.6422 16.3953 2.1069 -4.6018
# 5 0.7125 9.0718 0.4972 2.1069 35.3331 0.9365
# 6 0.9128 8.2770 5.4341 -4.6018 0.9365 43.0046
#
#
#
# Elastic Compliance Matrix: (Units=1/GPa)
#
#
# Indices 1 2 3 4 5 6 
#
# 1 0.011563 -0.003350 -0.001860 -0.002719 0.000807 0.000326
# 2 -0.003350 0.009303 -0.004109 0.001022 -0.002297 -0.001041
# 3 -0.001860 -0.004109 0.037661 0.004904 0.000361 -0.003412
# 4 -0.002719 0.001022 0.004904 0.064686 -0.004300 0.006257
# 5 0.000807 -0.002297 0.000361 -0.004300 0.029146 -0.000715
# 6 0.000326 -0.001041 -0.003412 0.006257 -0.000715 0.024563
#
#
# Mechanical properties :
#
#
# Convention : Reuss Voigt Hill
#
# Bulk Modulus (GPa) = 25.06907 43.95333 34.51120
# Shear Modulus (GPa) = 23.93974 32.03891 27.98932
#
# Velocity S-wave (km/s) = 3.39926 3.93245 3.67553
# Velocity P-wave (km/s) = 5.24468 6.46790 5.88814
#
# Compressibility (1/GPa) = 0.03988979
#
# Stress axis : x y z
#
# Youngs Moduli (GPa) = 86.47982 107.48688 26.55233
#
# Poissons Ratio (x) = 0.36005 0.04940
# Poissons Ratio (y) = 0.28968 0.10911
# Poissons Ratio (z) = 0.16089 0.44168
#
# Static dielectric constant tensor:
#      x y z
#    x 3.857500 0.094450 -0.071810 
#    y 0.094450 4.307650 -0.281600 
#    z -0.071810 -0.281600 3.339330 
# 
# 
# High freq. dielectric constant tensor:
#      x y z
#    x 1.826030 0.000670 -0.007390 
#    y 0.000670 1.822190 -0.010940 
#    z -0.007390 -0.010940 1.754140 
# 
# From -- ./inp_files/461187.got.cif
#   From: 2010.06.25/outbox.cif.g09.slc.cpg/sg2_231_cif.got.tgz:461187.got - 2010.06.27 13:26:56.
