data_PCOD8040231
_publ_section_title
;
Structure prediction by ZEFSAII (Michael W. Deem and Ramdas Pophale) SiO2 
 PCOD8040231
Probable space group: P -1
;
_chemical_formula_sum "Si O2"
_cell_formula_units_Z 16
_cell_length_a 8.402841
_cell_length_b 11.656848
_cell_length_c 14.828814
_cell_angle_alpha 114.338852
_cell_angle_beta 83.669449
_cell_angle_gamma 51.211693
_cell_volume 881.867218
_symmetry_space_group_name_H-M "P -1"
_symmetry_group_IT_number 2
_symmetry_cell_setting 'triclinic'
loop_
_space_group_symop_operation_xyz
x,y,z
-x,-y,-z
loop_
_atom_site_type_symbol
_atom_site_label
_atom_site_fract_x
_atom_site_fract_y
_atom_site_fract_z
Si Si1 0.711074 0.637512 0.408626
Si Si2 0.413325 0.915246 0.005832
Si Si3 0.009730 0.662539 0.307841
Si Si4 0.814942 0.047676 0.458763
Si Si5 0.559472 0.322540 0.417575
Si Si6 0.902697 0.578790 0.932603
Si Si7 0.072635 0.695459 0.835011
Si Si8 0.453993 0.672894 0.788422
O O1 0.449729 0.803609 0.430350
O O2 0.660659 0.636231 0.517377
O O3 0.855911 0.436149 0.293653
O O4 0.862211 0.676295 0.399684
O O5 0.611302 0.744756 0.007833
O O6 0.403933 0.833208 0.891950
O O7 0.145994 0.088353 0.117292
O O8 0.500000 0.000000 0.000000
O O9 0.001367 0.587863 0.191953
O O10 0.275036 0.529634 0.284332
O O11 0.891945 0.864890 0.362645
O O12 0.798168 0.144131 0.400901
O O13 0.000000 0.000000 0.500000
O O14 0.500000 0.500000 0.500000
O O15 0.607408 0.270149 0.293564
O O16 0.996737 0.658208 0.915151
O O17 0.000000 0.500000 0.000000
O O18 0.289963 0.659494 0.837271
#
# Coordination Sequence:
#
# PCOD8040231 Si02
#       8
#     2   2   2   2   2   2   2   2
#     4   9  20  35  59  80 115 151 185 229 282 324
#     4   9  20  36  57  81 110 149 183 230 281 329
#     4  10  20  37  57  81 114 152 185 229 285 334
#     4  10  20  35  56  79 114 152 185 227 276 331
#     4  10  20  35  57  85 117 141 192 231 274 333
#     4   9  20  38  60  82 110 143 187 234 279 336
#     4  10  18  36  59  79 115 146 182 232 286 329
#     4  11  20  36  58  84 113 149 186 233 284 325
#
# _framework density 18.143321
#
# number of rings (size 3 to 8) (size 9 to 14) (size 15 to 20)
#    0.750    1.500    1.250    3.000    0.000    2.500 
#    0.000    6.250    0.000    0.000    0.000    0.000 
#    0.000    0.000    0.000    0.000    0.000    0.000 
#
# Total GULP energy -198277.649971 kJ/mol
# GULP energy per Si atom -12392.353123 kJ/mol
# Density = 1.810203 g / cm^3
# Si number density = 18.143321 Si / 1000 Ang^3
#
#
#
# Elastic Constant Matrix: (Units=GPa)
#
#
# Indices 1 2 3 4 5 6 
#
# 1 122.0607 56.0766 42.6047 4.1606 -4.0881 -3.0742
# 2 56.0766 127.4534 67.1976 5.6057 4.9269 -5.7665
# 3 42.6047 67.1976 87.4425 11.8788 3.4289 -6.5838
# 4 4.1606 5.6057 11.8788 39.2274 -0.8096 2.1722
# 5 -4.0881 4.9269 3.4289 -0.8096 34.4850 7.7306
# 6 -3.0742 -5.7665 -6.5838 2.1722 7.7306 30.3665
#
#
#
# Elastic Compliance Matrix: (Units=1/GPa)
#
#
# Indices 1 2 3 4 5 6 
#
# 1 0.010782 -0.003379 -0.002839 0.000286 0.002218 -0.000751
# 2 -0.003379 0.014337 -0.009403 0.001085 -0.001641 0.000682
# 3 -0.002839 -0.009403 0.021046 -0.004954 -0.001951 0.003341
# 4 0.000286 0.001085 -0.004954 0.027020 0.001726 -0.003211
# 5 0.002218 -0.001641 -0.001951 0.001726 0.031680 -0.008699
# 6 -0.000751 0.000682 0.003341 -0.003211 -0.008699 0.036153
#
#
# Mechanical properties :
#
#
# Convention : Reuss Voigt Hill
#
# Bulk Modulus (GPa) = 67.01065 74.30161 70.65613
# Shear Modulus (GPa) = 28.21135 32.22097 30.21616
#
# Velocity S-wave (km/s) = 3.94752 4.21873 4.08538
# Velocity P-wave (km/s) = 7.60207 8.04809 7.82826
#
# Compressibility (1/GPa) = 0.01492300
#
# Stress axis : x y z
#
# Youngs Moduli (GPa) = 92.75061 69.75022 47.51517
#
# Poissons Ratio (x) = 0.23571 0.13487
# Poissons Ratio (y) = 0.31344 0.44677
# Poissons Ratio (z) = 0.26328 0.65584
#
# Static dielectric constant tensor:
#      x y z
#    x 3.698880 0.256910 0.076060 
#    y 0.256910 4.079380 0.852420 
#    z 0.076060 0.852420 3.798930 
# 
# 
# High freq. dielectric constant tensor:
#      x y z
#    x 1.708040 0.000770 -0.000420 
#    y 0.000770 1.693390 0.026540 
#    z -0.000420 0.026540 1.696700 
# 
# From -- ./inp_files/387582.got.cif
#   From: 2010.06.25/outbox.cif.g09.slc.cpg/sg2_194_cif.got.tgz:387582.got - 2010.06.27 13:26:56.
