data_PCOD8040905
_publ_section_title
;
Structure prediction by ZEFSAII (Michael W. Deem and Ramdas Pophale) SiO2 
 PCOD8040905
Probable space group: P -1
;
_chemical_formula_sum "Si O2"
_cell_formula_units_Z 16
_cell_length_a 7.547049
_cell_length_b 9.796345
_cell_length_c 13.631966
_cell_angle_alpha 134.561813
_cell_angle_beta 90.657776
_cell_angle_gamma 92.838017
_cell_volume 715.698019
_symmetry_space_group_name_H-M "P -1"
_symmetry_group_IT_number 2
_symmetry_cell_setting 'triclinic'
loop_
_space_group_symop_operation_xyz
x,y,z
-x,-y,-z
loop_
_atom_site_type_symbol
_atom_site_label
_atom_site_fract_x
_atom_site_fract_y
_atom_site_fract_z
Si Si1 0.771815 0.706088 0.021933
Si Si2 0.808441 0.263489 0.810841
Si Si3 0.629766 0.842936 0.899521
Si Si4 0.527037 0.503301 0.388209
Si Si5 0.856152 0.542011 0.286975
Si Si6 0.751860 0.250614 0.590719
Si Si7 0.804172 0.846367 0.290954
Si Si8 0.146144 0.837990 0.032271
O O1 0.831194 0.494103 0.934234
O O2 0.642703 0.713432 0.932050
O O3 0.943203 0.845200 0.064945
O O4 0.686767 0.789951 0.163564
O O5 0.694694 0.204579 0.681660
O O6 0.994556 0.176535 0.750326
O O7 0.736798 0.184881 0.877131
O O8 0.546181 0.708180 0.747983
O O9 0.500000 0.000000 0.000000
O O10 0.808036 0.956795 0.916103
O O11 0.500000 0.500000 0.500000
O O12 0.738468 0.534905 0.381827
O O13 0.411175 0.658597 0.415212
O O14 0.756256 0.694935 0.299723
O O15 0.830993 0.336583 0.130262
O O16 0.065250 0.606539 0.339492
O O17 0.783040 0.059128 0.435352
#
# Coordination Sequence:
#
# PCOD8040905 Si02
#       8
#     2   2   2   2   2   2   2   2
#     4  11  20  40  71  99 129 172 229 277 331 396
#     4  10  18  39  69 101 129 165 225 284 325 395
#     4  12  26  43  61  94 135 177 225 274 326 398
#     4  12  29  47  64  95 142 178 227 277 328 409
#     4  11  21  44  70  97 132 178 220 280 342 385
#     4  11  24  43  69 101 137 175 222 279 336 403
#     4  10  21  38  71 104 132 167 223 281 336 402
#     4  11  20  39  72  98 129 173 225 279 335 389
#
# _framework density 22.355796000000002
#
# number of rings (size 3 to 8) (size 9 to 14) (size 15 to 20)
#    0.000    1.000    6.250    2.625    1.750    4.000 
#    2.250    1.875    0.000    0.000    0.000    0.000 
#    0.000    0.000    0.000    0.000    0.000    0.000 
#
# Total GULP energy -198263.295690 kJ/mol
# GULP energy per Si atom -12391.455981 kJ/mol
# Density = 2.230491 g / cm^3
# Si number density = 22.355796 Si / 1000 Ang^3
#
#
#
# Elastic Constant Matrix: (Units=GPa)
#
#
# Indices 1 2 3 4 5 6 
#
# 1 30.8615 -4.5599 5.7734 -6.1353 -3.6585 -6.5641
# 2 -4.5599 62.1173 21.7470 -11.7213 -3.3239 -7.9814
# 3 5.7734 21.7470 146.5693 -9.9111 -7.1056 -8.1000
# 4 -6.1353 -11.7213 -9.9111 53.8415 -1.4624 1.9215
# 5 -3.6585 -3.3239 -7.1056 -1.4624 26.8812 -3.9868
# 6 -6.5641 -7.9814 -8.1000 1.9215 -3.9868 33.3239
#
#
#
# Elastic Compliance Matrix: (Units=1/GPa)
#
#
# Indices 1 2 3 4 5 6 
#
# 1 0.037204 0.005618 -0.001115 0.005130 0.007070 0.008953
# 2 0.005618 0.018981 -0.002288 0.004259 0.003521 0.005272
# 3 -0.001115 -0.002288 0.007407 0.000743 0.001742 0.001198
# 4 0.005130 0.004259 0.000743 0.020247 0.002726 0.001370
# 5 0.007070 0.003521 0.001742 0.002726 0.040293 0.007323
# 6 0.008953 0.005272 0.001198 0.001370 0.007323 0.034123
#
#
# Mechanical properties :
#
#
# Convention : Reuss Voigt Hill
#
# Bulk Modulus (GPa) = 14.70084 31.71879 23.20982
# Shear Modulus (GPa) = 28.32901 37.24850 32.78875
#
# Velocity S-wave (km/s) = 3.56362 4.08630 3.83388
# Velocity P-wave (km/s) = 4.85002 6.04010 5.47747
#
# Compressibility (1/GPa) = 0.06802332
#
# Stress axis : x y z
#
# Youngs Moduli (GPa) = 26.87914 52.68338 135.00858
#
# Poissons Ratio (x) = -0.29597 0.15048
# Poissons Ratio (y) = -0.15101 0.30884
# Poissons Ratio (z) = 0.02996 0.12052
#
# Static dielectric constant tensor:
#      x y z
#    x 3.771580 -0.359660 0.045960 
#    y -0.359660 3.020780 -0.374280 
#    z 0.045960 -0.374280 4.450320 
# 
# 
# High freq. dielectric constant tensor:
#      x y z
#    x 1.859420 -0.004120 -0.008720 
#    y -0.004120 1.882750 -0.009180 
#    z -0.008720 -0.009180 1.895730 
# 
# From -- ./inp_files/383545.got.cif
#   From: 2010.06.25/outbox.cif.g09.slc.cpg/sg2_192_cif.got.tgz:383545.got - 2010.06.27 13:26:56.
