data_PCOD8040240
_publ_section_title
;
Structure prediction by ZEFSAII (Michael W. Deem and Ramdas Pophale) SiO2 
 PCOD8040240
Probable space group: P -1
;
_chemical_formula_sum "Si O2"
_cell_formula_units_Z 14
_cell_length_a 8.620053
_cell_length_b 11.644522
_cell_length_c 12.407676
_cell_angle_alpha 140.880091
_cell_angle_beta 115.951051
_cell_angle_gamma 82.455210
_cell_volume 657.268289
_symmetry_space_group_name_H-M "P -1"
_symmetry_group_IT_number 2
_symmetry_cell_setting 'triclinic'
loop_
_space_group_symop_operation_xyz
x,y,z
-x,-y,-z
loop_
_atom_site_type_symbol
_atom_site_label
_atom_site_fract_x
_atom_site_fract_y
_atom_site_fract_z
Si Si1 0.663377 0.708225 0.708180
Si Si2 0.505890 0.978991 0.176935
Si Si3 0.310283 0.552198 0.861627
Si Si4 0.816086 0.766594 0.574629
Si Si5 0.550638 0.155613 0.535427
Si Si6 0.284287 0.463021 0.025474
Si Si7 0.818240 0.867810 0.090429
O O1 0.500000 0.500000 0.500000
O O2 0.810808 0.720037 0.666687
O O3 0.582196 0.880116 0.803328
O O4 0.769884 0.730396 0.869835
O O5 0.651356 0.944154 0.115118
O O6 0.616603 0.073027 0.389060
O O7 0.337359 0.776036 0.007678
O O8 0.182604 0.416087 0.629978
O O9 0.508656 0.533346 0.911265
O O10 0.212753 0.481756 0.896975
O O11 0.633289 0.808570 0.525537
O O12 0.993975 0.951790 0.735116
O O13 0.714244 0.352344 0.768261
O O14 0.500000 0.000000 0.500000
O O15 0.154232 0.262055 0.896230
#
# Coordination Sequence:
#
# PCOD8040240 Si02
#       7
#     2   2   2   2   2   2   2
#     4  11  22  42  64  82 111 157 200 234 285 359
#     4  10  20  36  62  86 111 150 201 239 278 351
#     4   9  17  35  56  85 112 152 195 228 282 344
#     4  10  23  37  58  86 119 153 187 248 296 329
#     4  10  18  36  59  84 113 158 199 225 277 350
#     4   9  18  33  59  82 116 154 190 233 279 350
#     4  11  22  38  57  90 119 149 192 245 296 330
#
# _framework density 21.300284000000001
#
# number of rings (size 3 to 8) (size 9 to 14) (size 15 to 20)
#    0.000    2.000    1.429    4.286    2.000    0.571 
#    0.000    9.286    0.000    0.000    0.000    0.000 
#    0.000    0.000    0.000    0.000    0.000    0.000 
#
# Total GULP energy -173593.237850 kJ/mol
# GULP energy per Si atom -12399.516989 kJ/mol
# Density = 2.125180 g / cm^3
# Si number density = 21.300284 Si / 1000 Ang^3
#
#
#
# Elastic Constant Matrix: (Units=GPa)
#
#
# Indices 1 2 3 4 5 6 
#
# 1 43.4045 35.7828 45.5365 1.6735 -1.6015 30.7044
# 2 35.7828 99.6803 48.8389 14.8429 -12.9628 35.3937
# 3 45.5365 48.8389 153.8845 12.9339 -20.9667 29.4076
# 4 1.6735 14.8429 12.9339 44.3371 11.3730 -1.6591
# 5 -1.6015 -12.9628 -20.9667 11.3730 25.5447 4.3136
# 6 30.7044 35.3937 29.4076 -1.6591 4.3136 35.9145
#
#
#
# Elastic Compliance Matrix: (Units=1/GPa)
#
#
# Indices 1 2 3 4 5 6 
#
# 1 0.072765 -0.000223 -0.009498 -0.003962 0.007759 -0.055327
# 2 -0.000223 0.028022 0.004151 -0.020302 0.032678 -0.035687
# 3 -0.009498 0.004151 0.013088 -0.009873 0.018225 -0.009333
# 4 -0.003962 -0.020302 -0.009873 0.045517 -0.045513 0.039048
# 5 0.007759 0.032678 0.018225 -0.045513 0.102961 -0.068230
# 6 -0.055327 -0.035687 -0.009333 0.039048 -0.068230 0.127954
#
#
# Mechanical properties :
#
#
# Convention : Reuss Voigt Hill
#
# Bulk Modulus (GPa) = 9.73381 61.92063 35.82722
# Shear Modulus (GPa) = 11.47598 32.27999 21.87798
#
# Velocity S-wave (km/s) = 2.32366 3.89713 3.20835
# Velocity P-wave (km/s) = 3.43204 7.02735 5.53003
#
# Compressibility (1/GPa) = 0.10273473
#
# Stress axis : x y z
#
# Youngs Moduli (GPa) = 13.74288 35.68567 76.40536
#
# Poissons Ratio (x) = 0.00797 0.72570
# Poissons Ratio (y) = 0.00307 -0.31716
# Poissons Ratio (z) = 0.13053 -0.14813
#
# Static dielectric constant tensor:
#      x y z
#    x 3.458180 0.244860 -0.441710 
#    y 0.244860 4.047030 -0.004620 
#    z -0.441710 -0.004620 4.273890 
# 
# 
# High freq. dielectric constant tensor:
#      x y z
#    x 1.795420 0.024330 -0.026180 
#    y 0.024330 1.844870 0.005060 
#    z -0.026180 0.005060 1.849260 
# 
# From -- ./inp_files/198055.got.cif
#   From: 2010.06.25/outbox.cif.g09.slc.cpg/sg2_100_cif.got.tgz:198055.got - 2010.06.27 13:26:56.
