data_PCOD8040643
_publ_section_title
;
Structure prediction by ZEFSAII (Michael W. Deem and Ramdas Pophale) SiO2 
 PCOD8040643
Probable space group: P -1
;
_chemical_formula_sum "Si O2"
_cell_formula_units_Z 16
_cell_length_a 14.555608
_cell_length_b 8.628613
_cell_length_c 10.451945
_cell_angle_alpha 71.025469
_cell_angle_beta 78.535432
_cell_angle_gamma 132.563049
_cell_volume 730.680978
_symmetry_space_group_name_H-M "P -1"
_symmetry_group_IT_number 2
_symmetry_cell_setting 'triclinic'
loop_
_space_group_symop_operation_xyz
x,y,z
-x,-y,-z
loop_
_atom_site_type_symbol
_atom_site_label
_atom_site_fract_x
_atom_site_fract_y
_atom_site_fract_z
Si Si1 0.296099 0.583056 0.094154
Si Si2 0.681462 0.744303 0.900770
Si Si3 0.969098 0.070086 0.368103
Si Si4 0.874994 0.811612 0.198310
Si Si5 0.705829 0.920498 0.585896
Si Si6 0.626444 0.701951 0.201920
Si Si7 0.491581 0.851419 0.223030
Si Si8 0.339139 0.771769 0.529801
O O1 0.267555 0.373267 0.085019
O O2 0.400838 0.692111 0.159660
O O3 0.121950 0.401951 0.225189
O O4 0.379497 0.827015 0.912377
O O5 0.758251 0.959142 0.708419
O O6 0.500000 0.500000 0.000000
O O7 0.718607 0.867349 0.998222
O O8 0.954389 0.936218 0.281799
O O9 0.816063 0.967073 0.451950
O O10 0.000000 0.000000 0.500000
O O11 0.745544 0.774248 0.240535
O O12 0.790202 0.517332 0.284294
O O13 0.000000 0.000000 0.000000
O O14 0.526284 0.622594 0.691362
O O15 0.731119 0.145863 0.488616
O O16 0.578727 0.806632 0.252746
O O17 0.366744 0.728653 0.395618
O O18 0.500000 0.000000 0.500000
#
# Coordination Sequence:
#
# PCOD8040643 Si02
#       8
#     2   2   2   2   2   2   2   2
#     4  11  22  41  69 104 140 176 232 296 347 415
#     4  10  18  37  67 101 135 176 229 282 355 403
#     4  12  25  47  70 100 145 189 234 290 361 420
#     4  12  29  47  73 103 146 186 234 293 366 422
#     4  11  23  42  73 100 138 187 237 286 351 418
#     4  11  22  43  69 104 136 188 234 290 347 433
#     4  11  24  41  72 104 135 180 245 289 345 418
#     4  12  27  45  70 103 141 182 241 295 346 417
#
# _framework density 21.897379999999998
#
# number of rings (size 3 to 8) (size 9 to 14) (size 15 to 20)
#    0.000    0.750    5.000    3.750    5.250    2.000 
#    0.000    3.750    0.000    0.000    0.000    0.000 
#    0.000    0.000    0.000    0.000    0.000    0.000 
#
# Total GULP energy -198418.498804 kJ/mol
# GULP energy per Si atom -12401.156175 kJ/mol
# Density = 2.184754 g / cm^3
# Si number density = 21.897380 Si / 1000 Ang^3
#
#
#
# Elastic Constant Matrix: (Units=GPa)
#
#
# Indices 1 2 3 4 5 6 
#
# 1 125.3280 44.5986 37.4288 -9.5487 5.1561 -16.8272
# 2 44.5986 75.4123 49.0216 -8.3848 6.0564 -3.4646
# 3 37.4288 49.0216 124.9353 -13.3193 -4.6806 -6.5530
# 4 -9.5487 -8.3848 -13.3193 41.7835 -3.3007 -1.8848
# 5 5.1561 6.0564 -4.6806 -3.3007 34.6107 -3.6730
# 6 -16.8272 -3.4646 -6.5530 -1.8848 -3.6730 36.1964
#
#
#
# Elastic Compliance Matrix: (Units=1/GPa)
#
#
# Indices 1 2 3 4 5 6 
#
# 1 0.010894 -0.005637 -0.000681 0.001332 -0.000128 0.004458
# 2 -0.005637 0.021354 -0.006918 0.000373 -0.004032 -0.002219
# 3 -0.000681 -0.006918 0.011382 0.002410 0.003244 0.001537
# 4 0.001332 0.000373 0.002410 0.025421 0.002773 0.002696
# 5 -0.000128 -0.004032 0.003244 0.002773 0.030681 0.003399
# 6 0.004458 -0.002219 0.001537 0.002696 0.003399 0.030251
#
#
# Mechanical properties :
#
#
# Convention : Reuss Voigt Hill
#
# Bulk Modulus (GPa) = 58.27942 65.30818 61.79380
# Shear Modulus (GPa) = 30.83130 35.49321 33.16226
#
# Velocity S-wave (km/s) = 3.75639 4.03039 3.89580
# Velocity P-wave (km/s) = 6.74437 7.17971 6.96544
#
# Compressibility (1/GPa) = 0.01715871
#
# Stress axis : x y z
#
# Youngs Moduli (GPa) = 91.79770 46.82898 87.86119
#
# Poissons Ratio (x) = 0.26395 0.05982
# Poissons Ratio (y) = 0.51742 0.60782
# Poissons Ratio (z) = 0.06250 0.32396
#
# Static dielectric constant tensor:
#      x y z
#    x 4.007690 0.149930 0.165490 
#    y 0.149930 3.908250 0.109150 
#    z 0.165490 0.109150 4.333910 
# 
# 
# High freq. dielectric constant tensor:
#      x y z
#    x 1.865050 0.003550 -0.003630 
#    y 0.003550 1.842230 0.004950 
#    z -0.003630 0.004950 1.872700 
# 
# From -- ./inp_files/297881.got.cif
#   From: 2010.06.25/outbox.cif.g09.slc.cpg/sg2_149_cif.got.tgz:297881.got - 2010.06.27 13:26:56.
