data_PCOD8040544
_publ_section_title
;
Structure prediction by ZEFSAII (Michael W. Deem and Ramdas Pophale) SiO2 
 PCOD8040544
Probable space group: P -1
;
_chemical_formula_sum "Si O2"
_cell_formula_units_Z 16
_cell_length_a 12.330248
_cell_length_b 12.067424
_cell_length_c 9.103780
_cell_angle_alpha 49.319277
_cell_angle_beta 60.975968
_cell_angle_gamma 90.390536
_cell_volume 784.431385
_symmetry_space_group_name_H-M "P -1"
_symmetry_group_IT_number 2
_symmetry_cell_setting 'triclinic'
loop_
_space_group_symop_operation_xyz
x,y,z
-x,-y,-z
loop_
_atom_site_type_symbol
_atom_site_label
_atom_site_fract_x
_atom_site_fract_y
_atom_site_fract_z
Si Si1 0.764481 0.363793 0.321109
Si Si2 0.080258 0.138364 0.615246
Si Si3 0.608301 0.624789 0.703695
Si Si4 0.969399 0.180200 0.950018
Si Si5 0.255557 0.495371 0.498690
Si Si6 0.444272 0.814309 0.635210
Si Si7 0.968552 0.651278 0.737726
Si Si8 0.815216 0.383034 0.840893
O O1 0.689676 0.388826 0.492853
O O2 0.642425 0.214947 0.434611
O O3 0.879685 0.306004 0.333648
O O4 0.842385 0.540309 0.029922
O O5 0.235094 0.296858 0.399869
O O6 0.026489 0.174116 0.463527
O O7 0.975387 0.118884 0.834979
O O8 0.084724 0.965110 0.764150
O O9 0.615797 0.527211 0.636006
O O10 0.571213 0.771225 0.560503
O O11 0.500000 0.500000 0.000000
O O12 0.850418 0.235488 0.975746
O O13 0.123322 0.318860 0.785507
O O14 0.190617 0.578634 0.358426
O O15 0.500000 0.000000 0.500000
O O16 0.341181 0.678719 0.938181
O O17 0.938244 0.548864 0.693553
#
# Coordination Sequence:
#
# PCOD8040544 Si02
#       8
#     2   2   2   2   2   2   2   2
#     4  10  22  36  63  94 124 162 210 263 304 368
#     4  10  20  34  57  93 125 157 194 265 311 367
#     4  11  20  39  63  88 120 170 221 241 291 383
#     4  10  19  31  58  95 123 146 203 258 321 356
#     4  11  20  36  65  96 121 159 211 264 306 368
#     4  11  24  41  61  85 123 171 211 248 307 373
#     4  10  18  37  61  91 127 157 206 249 319 375
#     4  11  18  36  65  89 116 163 203 254 299 386
#
# _framework density 20.396940000000001
#
# number of rings (size 3 to 8) (size 9 to 14) (size 15 to 20)
#    0.000    1.500    5.000    2.625    0.000    0.500 
#    0.000    1.250    2.750    0.000    0.000    0.000 
#    0.000    0.000    0.000    0.000    0.000    0.000 
#
# Total GULP energy -198354.683075 kJ/mol
# GULP energy per Si atom -12397.167692 kJ/mol
# Density = 2.035052 g / cm^3
# Si number density = 20.396940 Si / 1000 Ang^3
#
#
#
# Elastic Constant Matrix: (Units=GPa)
#
#
# Indices 1 2 3 4 5 6 
#
# 1 114.8643 53.8046 35.9485 0.7654 23.5072 -7.7923
# 2 53.8046 112.8606 33.4590 7.5680 8.9499 1.1921
# 3 35.9485 33.4590 85.7335 0.6818 20.4057 -1.2013
# 4 0.7654 7.5680 0.6818 29.1238 -7.8295 2.5524
# 5 23.5072 8.9499 20.4057 -7.8295 36.3504 -2.7200
# 6 -7.7923 1.1921 -1.2013 2.5524 -2.7200 42.0570
#
#
#
# Elastic Compliance Matrix: (Units=1/GPa)
#
#
# Indices 1 2 3 4 5 6 
#
# 1 0.013158 -0.005162 -0.002010 -0.000793 -0.006118 0.002179
# 2 -0.005162 0.012267 -0.002938 -0.002523 0.001337 -0.001148
# 3 -0.002010 -0.002938 0.015298 -0.001372 -0.006876 -0.000214
# 4 -0.000793 -0.002523 -0.001372 0.037869 0.009928 -0.001771
# 5 -0.006118 0.001337 -0.006876 0.009928 0.037168 0.000433
# 6 0.002179 -0.001148 -0.000214 -0.001771 0.000433 0.024343
#
#
# Mechanical properties :
#
#
# Convention : Reuss Voigt Hill
#
# Bulk Modulus (GPa) = 48.76886 62.20918 55.48902
# Shear Modulus (GPa) = 29.91223 34.18934 32.05078
#
# Velocity S-wave (km/s) = 3.83365 4.09858 3.96833
# Velocity P-wave (km/s) = 6.59982 7.27759 6.94698
#
# Compressibility (1/GPa) = 0.02050489
#
# Stress axis : x y z
#
# Youngs Moduli (GPa) = 76.00018 81.51685 65.36934
#
# Poissons Ratio (x) = 0.42076 0.13138
# Poissons Ratio (y) = 0.39229 0.19203
# Poissons Ratio (z) = 0.15275 0.23946
#
# Static dielectric constant tensor:
#      x y z
#    x 3.861480 -0.329480 0.162680 
#    y -0.329480 3.830990 0.045400 
#    z 0.162680 0.045400 3.642760 
# 
# 
# High freq. dielectric constant tensor:
#      x y z
#    x 1.792090 -0.020310 0.011560 
#    y -0.020310 1.782740 0.007870 
#    z 0.011560 0.007870 1.788890 
# 
# From -- ./inp_files/258280.got.cif
#   From: 2010.06.25/outbox.cif.g09.slc.cpg/sg2_130_cif.got.tgz:258280.got - 2010.06.27 13:26:56.
