data_PCOD8040628
_publ_section_title
;
Structure prediction by ZEFSAII (Michael W. Deem and Ramdas Pophale) SiO2 
 PCOD8040628
Probable space group: P -1
;
_chemical_formula_sum "Si O2"
_cell_formula_units_Z 14
_cell_length_a 8.952695
_cell_length_b 7.839274
_cell_length_c 16.912231
_cell_angle_alpha 133.486599
_cell_angle_beta 128.314039
_cell_angle_gamma 77.699865
_cell_volume 626.316811
_symmetry_space_group_name_H-M "P -1"
_symmetry_group_IT_number 2
_symmetry_cell_setting 'triclinic'
loop_
_space_group_symop_operation_xyz
x,y,z
-x,-y,-z
loop_
_atom_site_type_symbol
_atom_site_label
_atom_site_fract_x
_atom_site_fract_y
_atom_site_fract_z
Si Si1 0.261765 0.404900 0.288620
Si Si2 0.493615 0.124628 0.371532
Si Si3 0.400367 0.606282 0.228631
Si Si4 0.390706 0.240027 0.980294
Si Si5 0.819898 0.271991 0.159673
Si Si6 0.764382 0.100200 0.317947
Si Si7 0.191325 0.427292 0.607729
O O1 0.342452 0.199996 0.288485
O O2 0.384810 0.666124 0.457703
O O3 0.291333 0.438515 0.214965
O O4 0.014687 0.298909 0.179013
O O5 0.654180 0.041491 0.347384
O O6 0.357827 0.866674 0.291789
O O7 0.643226 0.682238 0.344778
O O8 0.335153 0.458266 0.075852
O O9 0.293285 0.007451 0.933355
O O10 0.296292 0.156912 0.835728
O O11 0.636511 0.329562 0.074977
O O12 0.913362 0.478281 0.325048
O O13 0.699176 0.325160 0.332623
O O14 0.011345 0.201066 0.433667
#
# Coordination Sequence:
#
# PCOD8040628 Si02
#       7
#     2   2   2   2   2   2   2
#     4  11  23  42  65  92 126 170 208 257 309 375
#     4  11  24  39  66  96 126 165 211 259 311 369
#     4  11  23  42  64  95 130 162 208 260 312 374
#     4   9  21  38  66  96 124 162 210 260 313 374
#     4   9  18  38  66  90 121 170 211 248 316 370
#     4  10  18  37  65  96 122 163 209 259 315 362
#     4   9  18  36  67  93 120 160 214 265 301 360
#
# _framework density 22.352903999999999
#
# number of rings (size 3 to 8) (size 9 to 14) (size 15 to 20)
#    0.000    2.000    2.857    1.286    0.000    1.714 
#    0.000    0.714    0.000    0.000    0.000    0.000 
#    0.000    0.000    0.000    0.000    0.000    0.000 
#
# Total GULP energy -173475.038177 kJ/mol
# GULP energy per Si atom -12391.074156 kJ/mol
# Density = 2.230203 g / cm^3
# Si number density = 22.352904 Si / 1000 Ang^3
#
#
#
# Elastic Constant Matrix: (Units=GPa)
#
#
# Indices 1 2 3 4 5 6 
#
# 1 105.7567 29.7190 31.8892 -1.0214 2.3703 -4.1713
# 2 29.7190 89.5230 25.4782 12.9473 1.4797 3.3859
# 3 31.8892 25.4782 120.1414 -2.4508 -5.3257 -8.3449
# 4 -1.0214 12.9473 -2.4508 14.5429 2.9233 -7.3248
# 5 2.3703 1.4797 -5.3257 2.9233 31.6648 -2.1353
# 6 -4.1713 3.3859 -8.3449 -7.3248 -2.1353 14.2130
#
#
#
# Elastic Compliance Matrix: (Units=1/GPa)
#
#
# Indices 1 2 3 4 5 6 
#
# 1 0.011822 -0.005402 -0.001196 0.010300 -0.001165 0.009188
# 2 -0.005402 0.020169 -0.005339 -0.032422 -0.000214 -0.026266
# 3 -0.001196 -0.005339 0.011164 0.013600 0.001958 0.014779
# 4 0.010300 -0.032422 0.013600 0.149403 -0.004350 0.095075
# 5 -0.001165 -0.000214 0.001958 -0.004350 0.032646 0.003521
# 6 0.009188 -0.026266 0.014779 0.095075 0.003521 0.137516
#
#
# Mechanical properties :
#
#
# Convention : Reuss Voigt Hill
#
# Bulk Modulus (GPa) = 51.86175 54.39932 53.13053
# Shear Modulus (GPa) = 12.72198 27.30644 20.01421
#
# Velocity S-wave (km/s) = 2.38826 3.49894 2.99553
# Velocity P-wave (km/s) = 5.55489 6.38066 5.98204
#
# Compressibility (1/GPa) = 0.01928203
#
# Stress axis : x y z
#
# Youngs Moduli (GPa) = 84.58575 49.58100 89.57564
#
# Poissons Ratio (x) = 0.26785 0.10710
# Poissons Ratio (y) = 0.45696 0.47820
# Poissons Ratio (z) = 0.10114 0.26469
#
# Static dielectric constant tensor:
#      x y z
#    x 3.886680 0.045600 -0.118710 
#    y 0.045600 3.783570 0.025440 
#    z -0.118710 0.025440 4.046340 
# 
# 
# High freq. dielectric constant tensor:
#      x y z
#    x 1.870950 0.008290 -0.005070 
#    y 0.008290 1.858750 0.004330 
#    z -0.005070 0.004330 1.884250 
# 
# From -- ./inp_files/555764.got.cif
#   From: 2010.06.25/outbox.cif.g09.slc.cpg/sg2_278_cif.got.tgz:555764.got - 2010.06.27 13:26:56.
