data_PCOD8040049
_publ_section_title
;
Structure prediction by ZEFSAII (Michael W. Deem and Ramdas Pophale) SiO2 
 PCOD8040049
Probable space group: P -1
;
_chemical_formula_sum "Si O2"
_cell_formula_units_Z 16
_cell_length_a 11.196358
_cell_length_b 15.040364
_cell_length_c 11.549102
_cell_angle_alpha 37.601536
_cell_angle_beta 136.179572
_cell_angle_gamma 115.021604
_cell_volume 769.095179
_symmetry_space_group_name_H-M "P -1"
_symmetry_group_IT_number 2
_symmetry_cell_setting 'triclinic'
loop_
_space_group_symop_operation_xyz
x,y,z
-x,-y,-z
loop_
_atom_site_type_symbol
_atom_site_label
_atom_site_fract_x
_atom_site_fract_y
_atom_site_fract_z
Si Si1 0.308720 0.136146 0.726401
Si Si2 0.782583 0.151161 0.794741
Si Si3 0.394248 0.609795 0.206509
Si Si4 0.170158 0.131753 0.047941
Si Si5 0.118546 0.919213 0.805261
Si Si6 0.605606 0.796455 0.044531
Si Si7 0.266773 0.089371 0.421677
Si Si8 0.627029 0.669527 0.627437
O O1 0.340706 0.271714 0.536681
O O2 0.159114 0.071231 0.629165
O O3 0.265372 0.189772 0.773364
O O4 0.500000 0.000000 0.000000
O O5 0.584788 0.286485 0.524749
O O6 0.773763 0.026744 0.822715
O O7 0.830907 0.073714 0.033189
O O8 0.947857 0.215488 0.812290
O O9 0.500000 0.500000 0.500000
O O10 0.301954 0.516898 0.151193
O O11 0.238535 0.759403 0.994153
O O12 0.527805 0.661746 0.161587
O O13 0.259295 0.246929 0.928337
O O14 0.264582 0.082419 0.289224
O O15 0.906379 0.945576 0.610465
O O16 0.445041 0.962446 0.734056
O O17 0.261653 0.263585 0.272214
#
# Coordination Sequence:
#
# PCOD8040049 Si02
#       8
#     2   2   2   2   2   2   2   2
#     4  12  17  35  62  87 114 146 204 245 291 342
#     4  10  18  35  62  88 114 148 207 243 287 342
#     4  12  23  38  63  86 120 160 200 239 293 358
#     4  10  21  36  62  91 116 154 199 253 288 340
#     4  11  21  37  61  94 117 152 196 249 299 349
#     4  12  21  38  61  93 118 154 198 246 298 348
#     4  11  24  38  62  88 128 152 195 247 299 348
#     4  12  22  38  60  86 119 164 191 245 297 349
#
# _framework density 20.803666
#
# number of rings (size 3 to 8) (size 9 to 14) (size 15 to 20)
#    0.000    0.750    8.750    0.375    0.000    2.500 
#    0.000    1.250    0.000    0.000    0.000    0.000 
#    0.000    0.000    0.000    0.000    0.000    0.000 
#
# Total GULP energy -198237.327843 kJ/mol
# GULP energy per Si atom -12389.832990 kJ/mol
# Density = 2.075632 g / cm^3
# Si number density = 20.803666 Si / 1000 Ang^3
#
#
#
# Elastic Constant Matrix: (Units=GPa)
#
#
# Indices 1 2 3 4 5 6 
#
# 1 140.0471 54.4325 36.8270 0.6978 -0.1946 26.1149
# 2 54.4325 159.4449 35.1852 -1.8240 -5.3985 5.8535
# 3 36.8270 35.1852 39.8182 5.7264 -6.2839 -2.8006
# 4 0.6978 -1.8240 5.7264 29.9854 1.6645 -8.8595
# 5 -0.1946 -5.3985 -6.2839 1.6645 25.2424 4.9507
# 6 26.1149 5.8535 -2.8006 -8.8595 4.9507 36.2086
#
#
#
# Elastic Compliance Matrix: (Units=1/GPa)
#
#
# Indices 1 2 3 4 5 6 
#
# 1 0.012368 -0.001543 -0.010741 -0.001129 -0.000941 -0.009649
# 2 -0.001543 0.008159 -0.006000 0.001575 0.000197 -0.000312
# 3 -0.010741 -0.006000 0.043125 -0.005980 0.007899 0.009509
# 4 -0.001129 0.001575 -0.005980 0.037926 -0.005652 0.010150
# 5 -0.000941 0.000197 0.007899 -0.005652 0.043172 -0.006027
# 6 -0.009649 -0.000312 0.009509 0.010150 -0.006027 0.038670
#
#
# Mechanical properties :
#
#
# Convention : Reuss Voigt Hill
#
# Bulk Modulus (GPa) = 36.92043 65.79995 51.36019
# Shear Modulus (GPa) = 21.83266 32.47833 27.15550
#
# Velocity S-wave (km/s) = 3.24306 3.95547 3.61684
# Velocity P-wave (km/s) = 5.63993 7.24973 6.49490
#
# Compressibility (1/GPa) = 0.02708528
#
# Stress axis : x y z
#
# Youngs Moduli (GPa) = 80.85365 122.57086 23.18843
#
# Poissons Ratio (x) = 0.18909 0.24906
# Poissons Ratio (y) = 0.12473 0.13913
# Poissons Ratio (z) = 0.86841 0.73541
#
# Static dielectric constant tensor:
#      x y z
#    x 4.358200 -0.048460 -0.125320 
#    y -0.048460 4.583010 0.516200 
#    z -0.125320 0.516200 3.486110 
# 
# 
# High freq. dielectric constant tensor:
#      x y z
#    x 1.837040 0.006480 -0.006910 
#    y 0.006480 1.827070 0.022530 
#    z -0.006910 0.022530 1.762720 
# 
# From -- ./inp_files/378346.got.cif
#   From: 2010.06.25/outbox.cif.g09.slc.cpg/sg2_190_cif.got.tgz:378346.got - 2010.06.27 13:26:56.
