data_PCOD8040518
_publ_section_title
;
Structure prediction by ZEFSAII (Michael W. Deem and Ramdas Pophale) SiO2 
 PCOD8040518
Probable space group: P -1
;
_chemical_formula_sum "Si O2"
_cell_formula_units_Z 16
_cell_length_a 14.704248
_cell_length_b 8.133711
_cell_length_c 8.978237
_cell_angle_alpha 108.983511
_cell_angle_beta 48.040355
_cell_angle_gamma 108.837782
_cell_volume 746.535495
_symmetry_space_group_name_H-M "P -1"
_symmetry_group_IT_number 2
_symmetry_cell_setting 'triclinic'
loop_
_space_group_symop_operation_xyz
x,y,z
-x,-y,-z
loop_
_atom_site_type_symbol
_atom_site_label
_atom_site_fract_x
_atom_site_fract_y
_atom_site_fract_z
Si Si1 0.890400 0.595848 0.204032
Si Si2 0.000180 0.699975 0.607337
Si Si3 0.365704 0.893599 0.644734
Si Si4 0.722735 0.400451 0.108148
Si Si5 0.627949 0.526497 0.953066
Si Si6 0.771826 0.345224 0.507629
Si Si7 0.930129 0.180417 0.742626
Si Si8 0.220081 0.137018 0.041894
O O1 0.780065 0.575212 0.194862
O O2 0.827678 0.507509 0.393859
O O3 0.960960 0.786953 0.238280
O O4 0.000000 0.500000 0.000000
O O5 0.118753 0.762741 0.598312
O O6 0.007299 0.821274 0.488067
O O7 0.000000 0.500000 0.500000
O O8 0.880901 0.732476 0.847618
O O9 0.356777 0.752101 0.748165
O O10 0.332157 0.789956 0.498772
O O11 0.500000 0.000000 0.500000
O O12 0.268547 0.030582 0.819994
O O13 0.628666 0.457240 0.103539
O O14 0.841430 0.331054 0.886625
O O15 0.721568 0.423680 0.733664
O O16 0.665352 0.737414 0.972612
O O17 0.500000 0.500000 0.000000
O O18 0.843629 0.997357 0.806203
#
# Coordination Sequence:
#
# PCOD8040518 Si02
#       8
#     2   2   2   2   2   2   2   2
#     4   9  18  34  63  91 126 168 207 246 324 403
#     4  12  20  37  67  96 133 165 207 261 335 391
#     4  10  23  47  65  90 133 172 216 273 315 372
#     4   9  20  40  67  89 123 177 216 255 327 386
#     4  12  24  44  67  93 125 172 229 266 310 389
#     4  11  22  40  67  92 125 177 210 260 328 384
#     4  10  18  37  60  98 132 161 200 272 327 384
#     4  11  24  39  63  97 130 162 216 267 319 382
#
# _framework density 21.432335999999999
#
# number of rings (size 3 to 8) (size 9 to 14) (size 15 to 20)
#    0.000    1.500    3.750    1.875    1.750    0.500 
#    4.500    7.500    0.000    0.000    0.000    0.000 
#    0.000    0.000    0.000    0.000    0.000    0.000 
#
# Total GULP energy -198220.724310 kJ/mol
# GULP energy per Si atom -12388.795269 kJ/mol
# Density = 2.138356 g / cm^3
# Si number density = 21.432336 Si / 1000 Ang^3
#
#
#
# Elastic Constant Matrix: (Units=GPa)
#
#
# Indices 1 2 3 4 5 6 
#
# 1 135.0135 44.1720 20.5730 -14.5768 14.2027 8.5592
# 2 44.1720 111.4876 23.4691 -7.7679 5.9792 18.6313
# 3 20.5730 23.4691 77.7247 -9.3456 6.3621 -3.9815
# 4 -14.5768 -7.7679 -9.3456 27.0344 3.1902 -9.9290
# 5 14.2027 5.9792 6.3621 3.1902 32.6672 2.8206
# 6 8.5592 18.6313 -3.9815 -9.9290 2.8206 28.7065
#
#
#
# Elastic Compliance Matrix: (Units=1/GPa)
#
#
# Indices 1 2 3 4 5 6 
#
# 1 0.009430 -0.003297 -0.000511 0.004930 -0.003995 0.001355
# 2 -0.003297 0.012227 -0.003662 -0.002762 0.000913 -0.008505
# 3 -0.000511 -0.003662 0.015658 0.007279 -0.003521 0.007564
# 4 0.004930 -0.002762 0.007279 0.049642 -0.009582 0.019444
# 5 -0.003995 0.000913 -0.003521 -0.009582 0.034371 -0.006581
# 6 0.001355 -0.008505 0.007564 0.019444 -0.006581 0.048373
#
#
# Mechanical properties :
#
#
# Convention : Reuss Voigt Hill
#
# Bulk Modulus (GPa) = 44.69454 55.62823 50.16138
# Shear Modulus (GPa) = 26.02823 33.41572 29.72197
#
# Velocity S-wave (km/s) = 3.48866 3.95286 3.72799
# Velocity P-wave (km/s) = 6.09317 6.84435 6.47965
#
# Compressibility (1/GPa) = 0.02237410
#
# Stress axis : x y z
#
# Youngs Moduli (GPa) = 106.04553 81.78777 63.86618
#
# Poissons Ratio (x) = 0.26968 0.03265
# Poissons Ratio (y) = 0.34966 0.23385
# Poissons Ratio (z) = 0.05421 0.29948
#
# Static dielectric constant tensor:
#      x y z
#    x 4.109370 0.213670 -0.131110 
#    y 0.213670 3.923020 0.085770 
#    z -0.131110 0.085770 4.346960 
# 
# 
# High freq. dielectric constant tensor:
#      x y z
#    x 1.824700 0.021110 0.006630 
#    y 0.021110 1.837800 -0.002600 
#    z 0.006630 -0.002600 1.847350 
# 
# From -- ./inp_files/295996.got.cif
#   From: 2010.06.25/outbox.cif.g09.slc.cpg/sg2_148_cif.got.tgz:295996.got - 2010.06.27 13:26:56.
