data_PCOD8040634
_publ_section_title
;
Structure prediction by ZEFSAII (Michael W. Deem and Ramdas Pophale) SiO2 
 PCOD8040634
Probable space group: P -1
;
_chemical_formula_sum "Si O2"
_cell_formula_units_Z 12
_cell_length_a 7.668421
_cell_length_b 9.731631
_cell_length_c 14.792396
_cell_angle_alpha 68.849593
_cell_angle_beta 27.588871
_cell_angle_gamma 64.198461
_cell_volume 459.451048
_symmetry_space_group_name_H-M "P -1"
_symmetry_group_IT_number 2
_symmetry_cell_setting 'triclinic'
loop_
_space_group_symop_operation_xyz
x,y,z
-x,-y,-z
loop_
_atom_site_type_symbol
_atom_site_label
_atom_site_fract_x
_atom_site_fract_y
_atom_site_fract_z
Si Si1 0.590615 0.414015 0.730221
Si Si2 0.913114 0.732376 0.251882
Si Si3 0.788859 0.983694 0.954174
Si Si4 0.676676 0.139325 0.653921
Si Si5 0.432708 0.719672 0.643315
Si Si6 0.897944 0.527318 0.898594
O O1 0.866928 0.254799 0.599425
O O2 0.679521 0.576952 0.626723
O O3 0.173309 0.412722 0.872844
O O4 0.521517 0.400901 0.874104
O O5 0.517422 0.773085 0.366610
O O6 0.783143 0.740671 0.414431
O O7 0.157087 0.563066 0.145652
O O8 0.167378 0.848773 0.085049
O O9 0.218789 0.871924 0.759708
O O10 0.625395 0.922184 0.132265
O O11 0.500000 0.000000 0.000000
O O12 0.000000 0.000000 0.500000
O O13 0.102686 0.663718 0.750949
#
# Coordination Sequence:
#
# PCOD8040634 Si02
#       6
#     2   2   2   2   2   2
#     4   8  16  34  63  88 123 163 195 243 320 359
#     4  11  22  37  66  98 118 163 211 247 305 375
#     4  12  25  42  60  88 132 167 203 258 306 356
#     4  11  22  40  65  92 125 161 205 254 311 368
#     4  10  18  37  66  90 122 160 199 254 312 366
#     4   8  15  33  60  89 117 159 197 244 301 365
#
# _framework density 26.118126
#
# number of rings (size 3 to 8) (size 9 to 14) (size 15 to 20)
#    1.000    1.000    1.667    3.500    0.000    0.000 
#    0.000    0.833    0.000    3.000    0.000    0.000 
#    0.000    0.000    0.000    0.000    0.000    0.000 
#
# Total GULP energy -148753.174377 kJ/mol
# GULP energy per Si atom -12396.097865 kJ/mol
# Density = 2.605868 g / cm^3
# Si number density = 26.118126 Si / 1000 Ang^3
#
#
#
# Elastic Constant Matrix: (Units=GPa)
#
#
# Indices 1 2 3 4 5 6 
#
# 1 34.4766 -1.5037 18.8384 16.2419 -3.1513 14.6680
# 2 -1.5037 96.7323 36.7068 7.6456 -11.4667 21.7562
# 3 18.8384 36.7068 131.5433 24.4309 20.9903 -13.3185
# 4 16.2419 7.6456 24.4309 65.8577 -9.6754 -0.1193
# 5 -3.1513 -11.4667 20.9903 -9.6754 22.7170 13.2566
# 6 14.6680 21.7562 -13.3185 -0.1193 13.2566 32.8615
#
#
#
# Elastic Compliance Matrix: (Units=1/GPa)
#
#
# Indices 1 2 3 4 5 6 
#
# 1 0.010664 -0.015411 0.014362 -0.012129 -0.040915 0.027725
# 2 -0.015411 -0.001268 0.009535 -0.003347 -0.025852 0.022000
# 3 0.014362 0.009535 -0.003243 -0.000033 0.023516 -0.023524
# 4 -0.012129 -0.003347 -0.000033 0.018610 0.000132 0.007631
# 5 -0.040915 -0.025852 0.023516 0.000132 -0.029538 0.056825
# 6 0.027725 0.022000 -0.023524 0.007631 0.056825 -0.028940
#
#
# Mechanical properties :
#
#
# Convention : Reuss Voigt Hill
#
# Bulk Modulus (GPa) = 43.24383 41.20391 42.22387
# Shear Modulus (GPa) = -116.33748 38.20128 -39.06810
#
# Velocity S-wave (km/s) = -6.68128 3.82859 -3.87178
# Velocity P-wave (km/s) = 6.55182 5.94595 1.94577
#
# Compressibility (1/GPa) = 0.02312469
#
# Stress axis : x y z
#
# Youngs Moduli (GPa) = 93.77027 -788.70180 -308.31399
#
# Poissons Ratio (x) = -12.15477 4.42794
# Poissons Ratio (y) = 1.44510 2.93982
# Poissons Ratio (z) = -1.34671 7.52040
#
# Static dielectric constant tensor:
#      x y z
#    x 4.730020 0.100720 0.005130 
#    y 0.100720 5.072030 0.292470 
#    z 0.005130 0.292470 4.527570 
# 
# 
# High freq. dielectric constant tensor:
#      x y z
#    x 2.057810 0.001850 -0.010320 
#    y 0.001850 2.058530 0.014860 
#    z -0.010320 0.014860 2.042980 
# 
# From -- ./inp_files/489345.got.cif
#   From: 2010.06.25/outbox.cif.g09.slc.cpg/sg2_245_cif.got.tgz:489345.got - 2010.06.27 13:26:56.
