data_PCOD8040662
_publ_section_title
;
Structure prediction by ZEFSAII (Michael W. Deem and Ramdas Pophale) SiO2 
 PCOD8040662
Probable space group: P -1
;
_chemical_formula_sum "Si O2"
_cell_formula_units_Z 16
_cell_length_a 8.468368
_cell_length_b 11.771929
_cell_length_c 15.028948
_cell_angle_alpha 148.397323
_cell_angle_beta 93.875383
_cell_angle_gamma 96.832262
_cell_volume 737.311874
_symmetry_space_group_name_H-M "P -1"
_symmetry_group_IT_number 2
_symmetry_cell_setting 'triclinic'
loop_
_space_group_symop_operation_xyz
x,y,z
-x,-y,-z
loop_
_atom_site_type_symbol
_atom_site_label
_atom_site_fract_x
_atom_site_fract_y
_atom_site_fract_z
Si Si1 0.341841 0.566138 0.060983
Si Si2 0.065589 0.010510 0.245253
Si Si3 0.054140 0.864296 0.489060
Si Si4 0.716130 0.808126 0.057899
Si Si5 0.442474 0.760119 0.887723
Si Si6 0.842395 0.401967 0.091231
Si Si7 0.588084 0.627327 0.501306
Si Si8 0.420718 0.966756 0.645073
O O1 0.412067 0.843686 0.267023
O O2 0.500000 0.500000 0.000000
O O3 0.255609 0.414572 0.042271
O O4 0.223237 0.478830 0.912402
O O5 0.235649 0.194932 0.339226
O O6 0.028883 0.067059 0.381914
O O7 0.900411 0.997541 0.171819
O O8 0.078891 0.759709 0.067518
O O9 0.255384 0.917820 0.543809
O O10 0.976893 0.592857 0.283363
O O11 0.000000 0.000000 0.500000
O O12 0.610307 0.928018 0.192850
O O13 0.612296 0.728554 0.911234
O O14 0.307742 0.750645 0.952716
O O15 0.363871 0.551063 0.678247
O O16 0.500000 0.000000 0.000000
O O17 0.500000 0.500000 0.500000
O O18 0.471404 0.743104 0.519730
#
# Coordination Sequence:
#
# PCOD8040662 Si02
#       8
#     2   2   2   2   2   2   2   2
#     4  10  18  37  69  91 133 181 214 269 331 402
#     4  11  24  44  66 103 133 176 223 282 331 397
#     4  11  25  42  65 103 143 177 223 278 338 406
#     4  10  22  41  68  98 134 174 225 271 339 400
#     4  12  25  45  70  97 129 180 230 281 341 410
#     4  12  22  43  66  96 141 175 226 271 338 401
#     4  12  25  47  69  96 134 179 232 286 340 401
#     4  10  21  42  65  95 134 177 223 275 337 397
#
# _framework density 21.700451999999999
#
# number of rings (size 3 to 8) (size 9 to 14) (size 15 to 20)
#    0.000    1.000    5.000    3.750    1.750    2.000 
#    2.250    4.375    0.000    0.000    0.000    0.000 
#    0.000    0.000    0.000    0.000    0.000    0.000 
#
# Total GULP energy -198285.549109 kJ/mol
# GULP energy per Si atom -12392.846819 kJ/mol
# Density = 2.165106 g / cm^3
# Si number density = 21.700452 Si / 1000 Ang^3
#
#
#
# Elastic Constant Matrix: (Units=GPa)
#
#
# Indices 1 2 3 4 5 6 
#
# 1 92.6947 30.8887 44.6819 2.6174 22.7617 7.6005
# 2 30.8887 97.1995 28.4199 11.8181 7.3633 -1.5570
# 3 44.6819 28.4199 134.3510 3.4004 6.4987 -0.8318
# 4 2.6174 11.8181 3.4004 30.5132 -4.3570 1.1617
# 5 22.7617 7.3633 6.4987 -4.3570 43.0076 2.1496
# 6 7.6005 -1.5570 -0.8318 1.1617 2.1496 22.6113
#
#
#
# Elastic Compliance Matrix: (Units=1/GPa)
#
#
# Indices 1 2 3 4 5 6 
#
# 1 0.016186 -0.003364 -0.004348 -0.000422 -0.007120 -0.005134
# 2 -0.003364 0.012391 -0.001339 -0.004548 -0.000711 0.002236
# 3 -0.004348 -0.001339 0.009132 -0.000035 0.001067 0.001606
# 4 -0.000422 -0.004548 -0.000035 0.035340 0.004709 -0.002436
# 5 -0.007120 -0.000711 0.001067 0.004709 0.027481 -0.000471
# 6 -0.005134 0.002236 0.001606 -0.002436 -0.000471 0.046334
#
#
# Mechanical properties :
#
#
# Convention : Reuss Voigt Hill
#
# Bulk Modulus (GPa) = 51.00263 59.13622 55.06943
# Shear Modulus (GPa) = 29.15408 33.91007 31.53208
#
# Velocity S-wave (km/s) = 3.66933 3.95732 3.81604
# Velocity P-wave (km/s) = 6.44251 6.94196 6.69689
#
# Compressibility (1/GPa) = 0.01960683
#
# Stress axis : x y z
#
# Youngs Moduli (GPa) = 61.78085 80.70125 109.50758
#
# Poissons Ratio (x) = 0.27148 0.47617
# Poissons Ratio (y) = 0.20783 0.14664
# Poissons Ratio (z) = 0.26864 0.10806
#
# Static dielectric constant tensor:
#      x y z
#    x 4.275560 0.269650 0.527430 
#    y 0.269650 4.353660 0.675790 
#    z 0.527430 0.675790 4.727430 
# 
# 
# High freq. dielectric constant tensor:
#      x y z
#    x 1.862320 0.000030 0.015370 
#    y 0.000030 1.828500 0.004980 
#    z 0.015370 0.004980 1.864180 
# 
# From -- ./inp_files/403151.got.cif
#   From: 2010.06.25/outbox.cif.g09.slc.cpg/sg2_202_cif.got.tgz:403151.got - 2010.06.27 13:26:56.
