data_PCOD8040490
_publ_section_title
;
Structure prediction by ZEFSAII (Michael W. Deem and Ramdas Pophale) SiO2 
 PCOD8040490
Probable space group: P -1
;
_chemical_formula_sum "Si O2"
_cell_formula_units_Z 16
_cell_length_a 9.661126
_cell_length_b 9.552068
_cell_length_c 24.594590
_cell_angle_alpha 27.801801
_cell_angle_beta 50.704262
_cell_angle_gamma 48.405765
_cell_volume 784.753008
_symmetry_space_group_name_H-M "P -1"
_symmetry_group_IT_number 2
_symmetry_cell_setting 'triclinic'
loop_
_space_group_symop_operation_xyz
x,y,z
-x,-y,-z
loop_
_atom_site_type_symbol
_atom_site_label
_atom_site_fract_x
_atom_site_fract_y
_atom_site_fract_z
Si Si1 0.004508 0.160391 0.835651
Si Si2 0.679441 0.832975 0.047542
Si Si3 0.957382 0.710925 0.581937
Si Si4 0.402405 0.863294 0.524316
Si Si5 0.091068 0.735903 0.868300
Si Si6 0.214520 0.414038 0.783239
Si Si7 0.773016 0.555679 0.491526
Si Si8 0.015281 0.983847 0.308939
O O1 0.921061 0.496353 0.713204
O O2 0.121223 0.185725 0.851424
O O3 0.145399 0.944242 0.830378
O O4 0.838012 0.008716 0.940904
O O5 0.731515 0.473635 0.136519
O O6 0.650557 0.801583 0.130366
O O7 0.500000 0.000000 0.000000
O O8 0.129505 0.533361 0.560809
O O9 0.765377 0.839030 0.553453
O O10 0.000000 0.000000 0.500000
O O11 0.332293 0.570527 0.661082
O O12 0.549691 0.722188 0.487025
O O13 0.500000 0.000000 0.500000
O O14 0.948788 0.961601 0.782700
O O15 0.000000 0.500000 0.000000
O O16 0.045903 0.682256 0.760391
O O17 0.854036 0.810462 0.414153
O O18 0.803268 0.243979 0.628677
#
# Coordination Sequence:
#
# PCOD8040490 Si02
#       8
#     2   2   2   2   2   2   2   2
#     4  11  22  42  65  89 130 171 207 270 330 382
#     4  10  24  42  67  95 120 165 221 268 320 388
#     4  12  24  43  62  97 139 171 215 265 339 386
#     4  12  24  37  64  97 129 174 220 269 313 388
#     4   9  20  36  62  88 118 168 214 254 322 387
#     4  11  22  42  62  93 129 168 217 264 332 386
#     4  11  21  36  62  91 129 175 218 261 319 382
#     4  10  18  37  59  86 129 168 214 260 319 388
#
# _framework density 20.388580000000001
#
# number of rings (size 3 to 8) (size 9 to 14) (size 15 to 20)
#    0.000    1.250    5.000    1.125    1.750    1.500 
#    0.000    1.875    0.000    0.000    0.000    0.000 
#    0.000    0.000    0.000    0.000    0.000    0.000 
#
# Total GULP energy -198276.984602 kJ/mol
# GULP energy per Si atom -12392.311538 kJ/mol
# Density = 2.034218 g / cm^3
# Si number density = 20.388580 Si / 1000 Ang^3
#
#
#
# Elastic Constant Matrix: (Units=GPa)
#
#
# Indices 1 2 3 4 5 6 
#
# 1 112.9376 40.5366 28.7586 -5.9477 5.6614 12.4294
# 2 40.5366 98.9781 12.2425 0.4292 -4.0889 8.4387
# 3 28.7586 12.2425 93.0328 -4.0877 17.6334 0.6074
# 4 -5.9477 0.4292 -4.0877 28.3990 7.4950 -7.5928
# 5 5.6614 -4.0889 17.6334 7.4950 41.6548 -3.6520
# 6 12.4294 8.4387 0.6074 -7.5928 -3.6520 34.7870
#
#
#
# Elastic Compliance Matrix: (Units=1/GPa)
#
#
# Indices 1 2 3 4 5 6 
#
# 1 0.011511 -0.004213 -0.002642 0.001714 -0.001415 -0.002819
# 2 -0.004213 0.012184 -0.000842 -0.002266 0.002385 -0.001680
# 3 -0.002642 -0.000842 0.012873 0.003068 -0.005637 0.001001
# 4 0.001714 -0.002266 0.003068 0.040334 -0.008326 0.007813
# 5 -0.001415 0.002385 -0.005637 -0.008326 0.028422 0.001192
# 6 -0.002819 -0.001680 0.001001 0.007813 0.001192 0.031974
#
#
# Mechanical properties :
#
#
# Convention : Reuss Voigt Hill
#
# Bulk Modulus (GPa) = 47.22585 52.00265 49.61425
# Shear Modulus (GPa) = 31.29884 35.86222 33.58053
#
# Velocity S-wave (km/s) = 3.92231 4.19852 4.06276
# Velocity P-wave (km/s) = 6.61255 7.00461 6.81140
#
# Compressibility (1/GPa) = 0.02117485
#
# Stress axis : x y z
#
# Youngs Moduli (GPa) = 86.87471 82.07199 77.68146
#
# Poissons Ratio (x) = 0.34577 0.20523
# Poissons Ratio (y) = 0.36601 0.06539
# Poissons Ratio (z) = 0.22952 0.06909
#
# Static dielectric constant tensor:
#      x y z
#    x 3.551540 0.466900 -0.107790 
#    y 0.466900 0.440330 1.141910 
#    z -0.107790 1.141910 3.317100 
# 
# 
# High freq. dielectric constant tensor:
#      x y z
#    x 1.774920 0.022910 0.014790 
#    y 0.022910 1.791900 -0.009020 
#    z 0.014790 -0.009020 1.812460 
# 
# From -- ./inp_files/218549.got.cif
#   From: 2010.06.25/outbox.cif.g09.slc.cpg/sg2_110_cif.got.tgz:218549.got - 2010.06.27 13:26:56.
