data_PCOD8040987
_publ_section_title
;
Structure prediction by ZEFSAII (Michael W. Deem and Ramdas Pophale) SiO2 
 PCOD8040987
Probable space group: P -1
;
_chemical_formula_sum "Si O2"
_cell_formula_units_Z 16
_cell_length_a 8.129818
_cell_length_b 17.020439
_cell_length_c 17.672432
_cell_angle_alpha 156.430167
_cell_angle_beta 46.308733
_cell_angle_gamma 134.483948
_cell_volume 687.464869
_symmetry_space_group_name_H-M "P -1"
_symmetry_group_IT_number 2
_symmetry_cell_setting 'triclinic'
loop_
_space_group_symop_operation_xyz
x,y,z
-x,-y,-z
loop_
_atom_site_type_symbol
_atom_site_label
_atom_site_fract_x
_atom_site_fract_y
_atom_site_fract_z
Si Si1 0.484236 0.021625 0.691190
Si Si2 0.057384 0.592720 0.296147
Si Si3 0.663481 0.541771 0.655489
Si Si4 0.284462 0.171462 0.425312
Si Si5 0.642175 0.403472 0.066160
Si Si6 0.421143 0.236334 0.691031
Si Si7 0.041792 0.769830 0.091420
Si Si8 0.965508 0.301428 0.434924
O O1 0.660638 0.929772 0.604512
O O2 0.542948 0.973834 0.543203
O O3 0.212347 0.918119 0.703972
O O4 0.526884 0.258302 0.905054
O O5 0.336138 0.649323 0.247075
O O6 0.964835 0.627809 0.439681
O O7 0.938213 0.731581 0.401959
O O8 0.964157 0.356550 0.095265
O O9 0.505543 0.351587 0.491115
O O10 0.508469 0.647752 0.853222
O O11 0.846286 0.470800 0.588875
O O12 0.802515 0.701347 0.690331
O O13 0.219795 0.991281 0.223835
O O14 0.646891 0.629069 0.237290
O O15 0.892650 0.361409 0.974162
O O16 0.217068 0.192499 0.778931
#
# Coordination Sequence:
#
# PCOD8040987 Si02
#       8
#     2   2   2   2   2   2   2   2
#     4   9  20  38  59  88 114 150 196 239 281 336
#     4  11  21  39  57  84 119 152 190 237 286 348
#     4  10  18  41  63  85 113 151 190 242 289 332
#     4  10  21  38  57  81 124 149 190 236 280 344
#     4  11  20  38  64  84 118 147 198 243 277 344
#     4  11  22  39  58  87 117 152 197 240 284 332
#     4  11  24  37  60  84 118 159 192 233 288 341
#     4   9  20  37  65  85 115 149 187 242 293 332
#
# _framework density 23.273916
#
# number of rings (size 3 to 8) (size 9 to 14) (size 15 to 20)
#    0.000    1.750    5.000    0.750    0.000    6.500 
#    0.000    0.625    0.000    0.000    0.000    0.000 
#    0.000    0.000    0.000    0.000    0.000    0.000 
#
# Total GULP energy -198323.692898 kJ/mol
# GULP energy per Si atom -12395.230806 kJ/mol
# Density = 2.322094 g / cm^3
# Si number density = 23.273916 Si / 1000 Ang^3
#
#
#
# Elastic Constant Matrix: (Units=GPa)
#
#
# Indices 1 2 3 4 5 6 
#
# 1 53.7993 8.0611 15.4007 1.8455 12.5330 24.7581
# 2 8.0611 34.3606 6.4028 -6.2968 6.0809 4.8475
# 3 15.4007 6.4028 118.6663 11.4740 33.2262 11.0984
# 4 1.8455 -6.2968 11.4740 27.4451 7.7555 3.9256
# 5 12.5330 6.0809 33.2262 7.7555 44.6804 -1.4816
# 6 24.7581 4.8475 11.0984 3.9256 -1.4816 21.9615
#
#
#
# Elastic Compliance Matrix: (Units=1/GPa)
#
#
# Indices 1 2 3 4 5 6 
#
# 1 0.050832 0.001918 0.004246 0.010381 -0.021574 -0.063185
# 2 0.001918 0.033815 0.000090 0.011492 -0.007608 -0.012239
# 3 0.004246 0.000090 0.011887 -0.000696 -0.010300 -0.011384
# 4 0.010381 0.011492 -0.000696 0.045502 -0.012615 -0.022873
# 5 -0.021574 -0.007608 -0.010300 -0.012615 0.040517 0.036194
# 6 -0.063185 -0.012239 -0.011384 -0.022873 0.036194 0.131750
#
#
# Mechanical properties :
#
#
# Convention : Reuss Voigt Hill
#
# Bulk Modulus (GPa) = 9.17078 29.61726 19.39402
# Shear Modulus (GPa) = 14.78667 30.61485 22.70076
#
# Velocity S-wave (km/s) = 2.52331 3.63080 3.12649
# Velocity P-wave (km/s) = 3.52681 5.50728 4.62431
#
# Compressibility (1/GPa) = 0.10904194
#
# Stress axis : x y z
#
# Youngs Moduli (GPa) = 19.67276 29.57230 84.12604
#
# Poissons Ratio (x) = -0.05672 -0.35718
# Poissons Ratio (y) = -0.03773 -0.00759
# Poissons Ratio (z) = -0.08353 -0.00267
#
# Static dielectric constant tensor:
#      x y z
#    x 4.339380 0.312910 0.043300 
#    y 0.312910 4.042710 0.041130 
#    z 0.043300 0.041130 4.307230 
# 
# 
# High freq. dielectric constant tensor:
#      x y z
#    x 1.934620 0.022010 0.000460 
#    y 0.022010 1.881090 0.006070 
#    z 0.000460 0.006070 1.919880 
# 
# From -- ./inp_files/337689.got.cif
#   From: 2010.06.25/outbox.cif.g09.slc.cpg/sg2_169_cif.got.tgz:337689.got - 2010.06.27 13:26:56.
