data_PCOD8040866
_publ_section_title
;
Structure prediction by ZEFSAII (Michael W. Deem and Ramdas Pophale) SiO2 
 PCOD8040866
Probable space group: P -1
;
_chemical_formula_sum "Si O2"
_cell_formula_units_Z 16
_cell_length_a 10.013329
_cell_length_b 10.184690
_cell_length_c 16.267959
_cell_angle_alpha 34.798364
_cell_angle_beta 62.899646
_cell_angle_gamma 58.259155
_cell_volume 804.247082
_symmetry_space_group_name_H-M "P -1"
_symmetry_group_IT_number 2
_symmetry_cell_setting 'triclinic'
loop_
_space_group_symop_operation_xyz
x,y,z
-x,-y,-z
loop_
_atom_site_type_symbol
_atom_site_label
_atom_site_fract_x
_atom_site_fract_y
_atom_site_fract_z
Si Si1 0.450645 0.351322 0.868703
Si Si2 0.769420 0.339915 0.537240
Si Si3 0.657697 0.820507 0.416893
Si Si4 0.119523 0.061635 0.580113
Si Si5 0.381845 0.653935 0.888292
Si Si6 0.279009 0.966749 0.139782
Si Si7 0.950125 0.279792 0.092461
Si Si8 0.658302 0.278494 0.422987
O O1 0.447715 0.554679 0.831450
O O2 0.631880 0.214352 0.863767
O O3 0.353845 0.478534 0.750131
O O4 0.368626 0.165836 0.026631
O O5 0.735784 0.610578 0.438654
O O6 0.717511 0.174860 0.703398
O O7 0.670642 0.334162 0.486305
O O8 0.952884 0.250066 0.509478
O O9 0.775085 0.803729 0.469080
O O10 0.499704 0.790484 0.514325
O O11 0.622335 0.068832 0.248545
O O12 0.101446 0.843100 0.751694
O O13 0.198457 0.947939 0.530771
O O14 0.205306 0.634305 0.965457
O O15 0.500000 0.500000 0.000000
O O16 0.097252 0.094746 0.098816
O O17 0.000000 0.500000 0.000000
#
# Coordination Sequence:
#
# PCOD8040866 Si02
#       8
#     2   2   2   2   2   2   2   2
#     4  11  22  40  62  94 126 163 212 261 318 362
#     4  11  24  39  65  97 125 166 216 258 308 374
#     4  11  23  40  62  89 131 166 206 255 321 373
#     4  10  22  39  61  91 129 167 205 258 321 370
#     4  11  25  41  64  93 126 168 210 259 319 379
#     4  10  22  38  67  91 124 162 210 260 312 367
#     4  10  18  39  64  89 121 164 212 254 311 374
#     4  12  22  39  64  96 127 166 214 262 306 369
#
# _framework density 19.894383999999999
#
# number of rings (size 3 to 8) (size 9 to 14) (size 15 to 20)
#    0.000    1.250    5.000    1.500    1.750    1.000 
#    0.000    1.875    0.000    0.000    0.000    0.000 
#    0.000    0.000    0.000    0.000    0.000    0.000 
#
# Total GULP energy -198418.864797 kJ/mol
# GULP energy per Si atom -12401.179050 kJ/mol
# Density = 1.984910 g / cm^3
# Si number density = 19.894384 Si / 1000 Ang^3
#
#
#
# Elastic Constant Matrix: (Units=GPa)
#
#
# Indices 1 2 3 4 5 6 
#
# 1 109.2202 58.7532 49.2213 -3.6432 4.2078 -10.0554
# 2 58.7532 148.5367 50.7232 -8.2413 -5.8872 -18.4977
# 3 49.2213 50.7232 93.6167 -16.4857 1.8900 2.7797
# 4 -3.6432 -8.2413 -16.4857 28.4051 0.9554 -0.8458
# 5 4.2078 -5.8872 1.8900 0.9554 30.8371 -0.8655
# 6 -10.0554 -18.4977 2.7797 -0.8458 -0.8655 38.7148
#
#
#
# Elastic Compliance Matrix: (Units=1/GPa)
#
#
# Indices 1 2 3 4 5 6 
#
# 1 0.013852 -0.003393 -0.005913 -0.002502 -0.002033 0.002301
# 2 -0.003393 0.010014 -0.003766 0.000319 0.002715 0.004242
# 3 -0.005913 -0.003766 0.017431 0.008179 -0.001359 -0.004439
# 4 -0.002502 0.000319 0.008179 0.039761 -0.001338 -0.000246
# 5 -0.002033 0.002715 -0.001359 -0.001338 0.033393 0.001584
# 6 0.002301 0.004242 -0.004439 -0.000246 0.001584 0.028803
#
#
# Mechanical properties :
#
#
# Convention : Reuss Voigt Hill
#
# Bulk Modulus (GPa) = 65.99363 74.30765 70.15064
# Shear Modulus (GPa) = 28.66147 32.43646 30.54897
#
# Velocity S-wave (km/s) = 3.79975 4.04224 3.92287
# Velocity P-wave (km/s) = 7.24533 7.69535 7.47373
#
# Compressibility (1/GPa) = 0.01515298
#
# Stress axis : x y z
#
# Youngs Moduli (GPa) = 72.18944 99.85886 57.36949
#
# Poissons Ratio (x) = 0.33882 0.33922
# Poissons Ratio (y) = 0.24494 0.21608
# Poissons Ratio (z) = 0.42684 0.37611
#
# Static dielectric constant tensor:
#      x y z
#    x 4.357770 -0.561170 -0.124920 
#    y -0.561170 3.841380 -0.121900 
#    z -0.124920 -0.121900 3.589650 
# 
# 
# High freq. dielectric constant tensor:
#      x y z
#    x 1.773210 -0.025770 -0.009080 
#    y -0.025770 1.785970 -0.014110 
#    z -0.009080 -0.014110 1.770700 
# 
# From -- ./inp_files/279192.got.cif
#   From: 2010.06.25/outbox.cif.g09.slc.cpg/sg2_140_cif.got.tgz:279192.got - 2010.06.27 13:26:56.
