data_PCOD8040104
_publ_section_title
;
Structure prediction by ZEFSAII (Michael W. Deem and Ramdas Pophale) SiO2 
 PCOD8040104
Probable space group: P -1
;
_chemical_formula_sum "Si O2"
_cell_formula_units_Z 16
_cell_length_a 11.885849
_cell_length_b 10.066770
_cell_length_c 11.461329
_cell_angle_alpha 111.803250
_cell_angle_beta 131.207648
_cell_angle_gamma 52.250595
_cell_volume 814.603456
_symmetry_space_group_name_H-M "P -1"
_symmetry_group_IT_number 2
_symmetry_cell_setting 'triclinic'
loop_
_space_group_symop_operation_xyz
x,y,z
-x,-y,-z
loop_
_atom_site_type_symbol
_atom_site_label
_atom_site_fract_x
_atom_site_fract_y
_atom_site_fract_z
Si Si1 0.321087 0.146060 0.578224
Si Si2 0.652217 0.839660 0.787987
Si Si3 0.921468 0.976509 0.600555
Si Si4 0.497256 0.768228 0.880544
Si Si5 0.817203 0.682075 0.212953
Si Si6 0.801579 0.582154 0.607066
Si Si7 0.773664 0.276422 0.430391
Si Si8 0.819813 0.925510 0.116201
O O1 0.197747 0.076204 0.427154
O O2 0.268762 0.218579 0.695734
O O3 0.302611 0.286513 0.523853
O O4 0.524626 0.995379 0.667502
O O5 0.536978 0.828336 0.807206
O O6 0.750420 0.668490 0.726179
O O7 0.801900 0.865547 0.956270
O O8 0.045659 0.818659 0.550281
O O9 0.786819 0.144438 0.492091
O O10 0.041538 0.014417 0.778835
O O11 0.396162 0.671429 0.750341
O O12 0.372781 0.929205 0.927170
O O13 0.676906 0.653424 0.038207
O O14 0.885470 0.778944 0.210125
O O15 0.989776 0.501089 0.298656
O O16 0.744907 0.445148 0.521814
#
# Coordination Sequence:
#
# PCOD8040104 Si02
#       8
#     2   2   2   2   2   2   2   2
#     4  12  21  41  60  84 117 163 193 226 286 361
#     4  11  22  39  59  86 120 157 187 236 296 346
#     4  10  18  35  64  85 110 148 205 238 274 335
#     4  10  19  36  65  84 113 148 202 241 279 338
#     4  11  19  37  60  87 112 150 197 241 280 333
#     4  12  26  36  56  91 127 148 188 238 297 344
#     4  10  19  37  57  93 113 145 194 248 282 331
#     4  10  18  36  65  89 108 148 204 243 276 336
#
# _framework density 19.641458
#
# number of rings (size 3 to 8) (size 9 to 14) (size 15 to 20)
#    0.000    1.250    6.250    2.250    0.000    2.500 
#    0.000    2.500    0.000    0.000    0.000    0.000 
#    0.000    0.000    0.000    0.000    0.000    0.000 
#
# Total GULP energy -198405.885508 kJ/mol
# GULP energy per Si atom -12400.367844 kJ/mol
# Density = 1.959675 g / cm^3
# Si number density = 19.641458 Si / 1000 Ang^3
#
#
#
# Elastic Constant Matrix: (Units=GPa)
#
#
# Indices 1 2 3 4 5 6 
#
# 1 26.0258 19.1354 25.8160 11.2218 5.2177 1.4543
# 2 19.1354 91.8698 48.0450 23.2494 -3.7289 -11.3457
# 3 25.8160 48.0450 112.5689 22.9139 7.2739 -1.2848
# 4 11.2218 23.2494 22.9139 33.0511 0.7683 -3.0378
# 5 5.2177 -3.7289 7.2739 0.7683 18.9071 -1.4565
# 6 1.4543 -11.3457 -1.2848 -3.0378 -1.4565 18.2416
#
#
#
# Elastic Compliance Matrix: (Units=1/GPa)
#
#
# Indices 1 2 3 4 5 6 
#
# 1 0.060294 -0.008511 -0.007194 -0.010374 -0.016178 -0.013626
# 2 -0.008511 0.018718 -0.005336 -0.005714 0.009229 0.011730
# 3 -0.007194 -0.005336 0.013779 -0.003503 -0.004435 -0.002713
# 4 -0.010374 -0.005714 -0.003503 0.040546 0.001738 0.003917
# 5 -0.016178 0.009229 -0.004435 0.001738 0.061730 0.011936
# 6 -0.013626 0.011730 -0.002713 0.003917 0.011936 0.064616
#
#
# Mechanical properties :
#
#
# Convention : Reuss Voigt Hill
#
# Bulk Modulus (GPa) = 19.71999 46.27302 32.99651
# Shear Modulus (GPa) = 15.69034 23.20452 19.44743
#
# Velocity S-wave (km/s) = 2.82944 3.44089 3.15003
# Velocity P-wave (km/s) = 4.55369 6.27664 5.48326
#
# Compressibility (1/GPa) = 0.05070996
#
# Stress axis : x y z
#
# Youngs Moduli (GPa) = 16.58534 53.42588 72.57159
#
# Poissons Ratio (x) = 0.45469 0.52206
# Poissons Ratio (y) = 0.14115 0.38727
# Poissons Ratio (z) = 0.11931 0.28510
#
# Static dielectric constant tensor:
#      x y z
#    x 3.193560 -0.084220 0.201130 
#    y -0.084220 3.429290 0.052840 
#    z 0.201130 0.052840 3.810240 
# 
# 
# High freq. dielectric constant tensor:
#      x y z
#    x 1.730150 -0.008330 0.018210 
#    y -0.008330 1.749840 0.004410 
#    z 0.018210 0.004410 1.782850 
# 
# From -- ./inp_files/205069.got.cif
#   From: 2010.06.25/outbox.cif.g09.slc.cpg/sg2_103_cif.got.tgz:205069.got - 2010.06.27 13:26:56.
