data_PCOD8040116
_publ_section_title
;
Structure prediction by ZEFSAII (Michael W. Deem and Ramdas Pophale) SiO2 
 PCOD8040116
Probable space group: P -1
;
_chemical_formula_sum "Si O2"
_cell_formula_units_Z 16
_cell_length_a 11.867710
_cell_length_b 12.140809
_cell_length_c 14.339390
_cell_angle_alpha 99.101420
_cell_angle_beta 20.167505
_cell_angle_gamma 99.671339
_cell_volume 702.186426
_symmetry_space_group_name_H-M "P -1"
_symmetry_group_IT_number 2
_symmetry_cell_setting 'triclinic'
loop_
_space_group_symop_operation_xyz
x,y,z
-x,-y,-z
loop_
_atom_site_type_symbol
_atom_site_label
_atom_site_fract_x
_atom_site_fract_y
_atom_site_fract_z
Si Si1 0.805855 0.751661 0.796288
Si Si2 0.472293 0.183744 0.725329
Si Si3 0.463709 0.943356 0.166812
Si Si4 0.512747 0.282321 0.328710
Si Si5 0.587611 0.467046 0.586548
Si Si6 0.749409 0.747034 0.273006
Si Si7 0.772818 0.826666 0.638500
Si Si8 0.275304 0.386436 0.995801
O O1 0.704655 0.739267 0.764867
O O2 0.189999 0.737517 0.516577
O O3 0.750785 0.880876 0.884636
O O4 0.599656 0.655597 0.004063
O O5 0.497637 0.072683 0.752885
O O6 0.383476 0.159254 0.682993
O O7 0.195336 0.265640 0.990481
O O8 0.133382 0.882504 0.376292
O O9 0.484289 0.074663 0.146358
O O10 0.522733 0.415197 0.348284
O O11 0.400818 0.228495 0.506637
O O12 0.251641 0.241391 0.447383
O O13 0.860379 0.240320 0.022077
O O14 0.356189 0.374961 0.701446
O O15 0.533553 0.459566 0.740802
O O16 0.960418 0.457162 0.264247
#
# Coordination Sequence:
#
# PCOD8040116 Si02
#       8
#     2   2   2   2   2   2   2   2
#     4  10  18  37  69  91 118 160 208 261 302 370
#     4   9  19  36  66  97 114 160 213 254 299 369
#     4   9  20  40  71  88 120 162 207 262 308 374
#     4  12  26  40  61  93 132 166 201 259 303 366
#     4  11  21  39  63  92 125 166 213 243 304 367
#     4  11  22  40  63  89 128 169 205 247 305 367
#     4  10  23  41  60  97 124 160 208 254 318 365
#     4  10  18  35  64  94 120 153 210 257 294 361
#
# _framework density 22.785972000000001
#
# number of rings (size 3 to 8) (size 9 to 14) (size 15 to 20)
#    0.000    1.750    2.500    3.375    3.500    0.000 
#    0.000    2.500    0.000    0.000    0.000    0.000 
#    0.000    0.000    0.000    0.000    0.000    0.000 
#
# Total GULP energy -198270.269317 kJ/mol
# GULP energy per Si atom -12391.891832 kJ/mol
# Density = 2.273411 g / cm^3
# Si number density = 22.785972 Si / 1000 Ang^3
#
#
#
# Elastic Constant Matrix: (Units=GPa)
#
#
# Indices 1 2 3 4 5 6 
#
# 1 177.2740 28.8315 36.9383 -7.3363 21.5319 -18.1872
# 2 28.8315 16.5416 16.7503 1.3386 -3.2843 -4.7305
# 3 36.9383 16.7503 99.0439 10.3166 16.1065 -8.3322
# 4 -7.3363 1.3386 10.3166 16.4797 -8.3140 0.5897
# 5 21.5319 -3.2843 16.1065 -8.3140 27.9191 -0.3761
# 6 -18.1872 -4.7305 -8.3322 0.5897 -0.3761 30.6654
#
#
#
# Elastic Compliance Matrix: (Units=1/GPa)
#
#
# Indices 1 2 3 4 5 6 
#
# 1 0.010548 -0.022000 0.002196 -0.001221 -0.012308 0.003331
# 2 -0.022000 0.133820 -0.025517 0.022609 0.054175 0.000892
# 3 0.002196 -0.025517 0.019524 -0.020364 -0.021985 0.002793
# 4 -0.001221 0.022609 -0.020364 0.092861 0.042948 -0.004028
# 5 -0.012308 0.054175 -0.021985 0.042948 0.077092 -0.004797
# 6 0.003331 0.000892 0.002793 -0.004028 -0.004797 0.035501
#
#
# Mechanical properties :
#
#
# Convention : Reuss Voigt Hill
#
# Bulk Modulus (GPa) = 13.65194 50.87775 32.26484
# Shear Modulus (GPa) = 10.32198 29.03544 19.67871
#
# Velocity S-wave (km/s) = 2.13068 3.57356 2.94195
# Velocity P-wave (km/s) = 3.47239 6.27727 5.07255
#
# Compressibility (1/GPa) = 0.07324967
#
# Stress axis : x y z
#
# Youngs Moduli (GPa) = 94.80717 7.47275 51.21806
#
# Poissons Ratio (x) = 0.16440 -0.11247
# Poissons Ratio (y) = 2.08579 1.30691
# Poissons Ratio (z) = -0.20819 0.19068
#
# Static dielectric constant tensor:
#      x y z
#    x 4.448780 -0.498130 0.265670 
#    y -0.498130 3.755010 0.218280 
#    z 0.265670 0.218280 4.069670 
# 
# 
# High freq. dielectric constant tensor:
#      x y z
#    x 1.907360 -0.042370 0.019060 
#    y -0.042370 1.856790 0.023780 
#    z 0.019060 0.023780 1.896600 
# 
# From -- ./inp_files/66211.got.cif
#   From: 2010.06.25/outbox.cif.g09.slc.cpg/sg2_34_cif.got.tgz:66211.got - 2010.06.27 13:26:56.
