data_PCOD8040983
_publ_section_title
;
Structure prediction by ZEFSAII (Michael W. Deem and Ramdas Pophale) SiO2 
 PCOD8040983
Probable space group: P -1
;
_chemical_formula_sum "Si O2"
_cell_formula_units_Z 16
_cell_length_a 11.344574
_cell_length_b 14.844050
_cell_length_c 13.277881
_cell_angle_alpha 137.078389
_cell_angle_beta 27.849686
_cell_angle_gamma 119.882205
_cell_volume 628.192505
_symmetry_space_group_name_H-M "P -1"
_symmetry_group_IT_number 2
_symmetry_cell_setting 'triclinic'
loop_
_space_group_symop_operation_xyz
x,y,z
-x,-y,-z
loop_
_atom_site_type_symbol
_atom_site_label
_atom_site_fract_x
_atom_site_fract_y
_atom_site_fract_z
Si Si1 0.632141 0.353946 0.382415
Si Si2 0.800321 0.008976 0.753727
Si Si3 0.237422 0.866913 0.484860
Si Si4 0.659859 0.586418 0.816939
Si Si5 0.257044 0.209755 0.506470
Si Si6 0.373434 0.699283 0.427049
Si Si7 0.755718 0.840777 0.303117
Si Si8 0.387375 0.677798 0.893557
O O1 0.377985 0.327190 0.508538
O O2 0.727106 0.290980 0.373575
O O3 0.528557 0.530420 0.596997
O O4 0.904608 0.265523 0.034264
O O5 0.616108 0.924869 0.784888
O O6 0.982934 0.924469 0.644114
O O7 0.000000 0.000000 0.500000
O O8 0.620430 0.186626 0.056614
O O9 0.136780 0.820276 0.627877
O O10 0.321773 0.998062 0.554861
O O11 0.516033 0.715911 0.114756
O O12 0.532754 0.467793 0.822118
O O13 0.585608 0.662940 0.826558
O O14 0.000000 0.500000 0.500000
O O15 0.344036 0.124890 0.478028
O O16 0.917947 0.300250 0.817491
O O17 0.627186 0.745776 0.264916
#
# Coordination Sequence:
#
# PCOD8040983 Si02
#       8
#     2   2   2   2   2   2   2   2
#     4  10  24  41  66 105 136 179 235 274 332 415
#     4  10  18  40  72  95 130 183 218 276 358 387
#     4  12  22  45  72  98 140 183 224 284 345 402
#     4  11  24  45  73 103 134 180 230 283 343 408
#     4  10  19  42  68  98 134 177 226 281 347 393
#     4  10  26  45  67 100 138 182 226 281 345 394
#     4  11  23  45  71  99 139 186 225 279 344 404
#     4  10  19  41  69  96 138 178 217 287 344 393
#
# _framework density 25.469899000000002
#
# number of rings (size 3 to 8) (size 9 to 14) (size 15 to 20)
#    0.000    1.500    5.000    1.125    3.500    1.000 
#    6.750    1.875    0.000    0.000    0.000    0.000 
#    0.000    0.000    0.000    0.000    0.000    0.000 
#
# Total GULP energy -198367.913236 kJ/mol
# GULP energy per Si atom -12397.994577 kJ/mol
# Density = 2.541193 g / cm^3
# Si number density = 25.469899 Si / 1000 Ang^3
#
#
#
# Elastic Constant Matrix: (Units=GPa)
#
#
# Indices 1 2 3 4 5 6 
#
# 1 140.2640 57.9983 55.8596 18.3550 -6.4518 17.7714
# 2 57.9983 152.8479 60.2082 36.1670 1.3841 23.5844
# 3 55.8596 60.2082 123.9866 32.2630 6.6099 11.7566
# 4 18.3550 36.1670 32.2630 37.0175 5.8860 -1.7195
# 5 -6.4518 1.3841 6.6099 5.8860 47.9026 11.0291
# 6 17.7714 23.5844 11.7566 -1.7195 11.0291 42.0033
#
#
#
# Elastic Compliance Matrix: (Units=1/GPa)
#
#
# Indices 1 2 3 4 5 6 
#
# 1 0.009735 -0.001829 -0.003136 -0.000852 0.002575 -0.002925
# 2 -0.001829 0.010870 -0.001729 -0.008805 0.002085 -0.005753
# 3 -0.003136 -0.001729 0.012440 -0.007518 -0.000874 -0.001263
# 4 -0.000852 -0.008805 -0.007518 0.044182 -0.006784 0.010999
# 5 0.002575 0.002085 -0.000874 -0.006784 0.024102 -0.008621
# 6 -0.002925 -0.005753 -0.001263 0.010999 -0.008621 0.031343
#
#
# Mechanical properties :
#
#
# Convention : Reuss Voigt Hill
#
# Bulk Modulus (GPa) = 50.86999 85.02565 67.94782
# Shear Modulus (GPa) = 32.76279 41.58683 37.17481
#
# Velocity S-wave (km/s) = 3.59044 4.04516 3.82456
# Velocity P-wave (km/s) = 6.09953 7.43458 6.79990
#
# Compressibility (1/GPa) = 0.01965796
#
# Stress axis : x y z
#
# Youngs Moduli (GPa) = 102.72024 91.99792 80.38336
#
# Poissons Ratio (x) = 0.16827 0.25208
# Poissons Ratio (y) = 0.18788 0.13896
# Poissons Ratio (z) = 0.32212 0.15904
#
# Static dielectric constant tensor:
#      x y z
#    x 4.962730 0.131930 0.242540 
#    y 0.131930 4.997180 0.332950 
#    z 0.242540 0.332950 4.497750 
# 
# 
# High freq. dielectric constant tensor:
#      x y z
#    x 2.049200 0.000260 0.016480 
#    y 0.000260 2.034260 0.019040 
#    z 0.016480 0.019040 1.997860 
# 
# From -- ./inp_files/522472.got.cif
#   From: 2010.06.25/outbox.cif.g09.slc.cpg/sg2_262_cif.got.tgz:522472.got - 2010.06.27 13:26:56.
