data_PCOD8040622
_publ_section_title
;
Structure prediction by ZEFSAII (Michael W. Deem and Ramdas Pophale) SiO2 
 PCOD8040622
Probable space group: P -1
;
_chemical_formula_sum "Si O2"
_cell_formula_units_Z 14
_cell_length_a 9.668731
_cell_length_b 14.843894
_cell_length_c 7.483137
_cell_angle_alpha 92.477577
_cell_angle_beta 71.788841
_cell_angle_gamma 46.018685
_cell_volume 678.806483
_symmetry_space_group_name_H-M "P -1"
_symmetry_group_IT_number 2
_symmetry_cell_setting 'triclinic'
loop_
_space_group_symop_operation_xyz
x,y,z
-x,-y,-z
loop_
_atom_site_type_symbol
_atom_site_label
_atom_site_fract_x
_atom_site_fract_y
_atom_site_fract_z
Si Si1 0.789150 0.152715 0.539908
Si Si2 0.230054 0.851768 0.848921
Si Si3 0.730221 0.370312 0.669676
Si Si4 0.066061 0.550940 0.350976
Si Si5 0.909906 0.642723 0.063903
Si Si6 0.249439 0.636728 0.915733
Si Si7 0.555021 0.725565 0.008377
O O1 0.706964 0.154373 0.381850
O O2 0.845267 0.233164 0.512240
O O3 0.597799 0.239167 0.769636
O O4 0.000000 0.000000 0.500000
O O5 0.206524 0.755671 0.868072
O O6 0.410502 0.816144 0.900410
O O7 0.000000 0.000000 0.000000
O O8 0.866102 0.395460 0.550061
O O9 0.476526 0.496110 0.729649
O O10 0.751390 0.352650 0.871551
O O11 0.000000 0.500000 0.500000
O O12 0.875002 0.668012 0.296677
O O13 0.280209 0.429778 0.132450
O O14 0.065312 0.650307 0.928187
O O15 0.000000 0.500000 0.000000
O O16 0.689708 0.748344 0.039418
#
# Coordination Sequence:
#
# PCOD8040622 Si02
#       7
#     2   2   2   2   2   2   2
#     4  12  24  40  68  93 126 171 215 266 322 374
#     4  12  24  42  69  93 125 171 222 264 314 390
#     4  10  18  37  65  93 129 161 212 272 314 372
#     4  10  21  37  65  99 131 167 210 263 326 383
#     4   9  20  35  61  90 133 165 198 266 321 368
#     4  10  19  39  66  96 123 168 214 264 319 379
#     4  11  22  43  61  93 133 166 212 262 321 373
#
# _framework density 20.624434999999998
#
# number of rings (size 3 to 8) (size 9 to 14) (size 15 to 20)
#    0.000    1.429    4.286    2.571    2.000    2.857 
#    0.000    0.714    3.143    2.571    0.000    0.000 
#    0.000    0.000    0.000    0.000    0.000    0.000 
#
# Total GULP energy -173470.370188 kJ/mol
# GULP energy per Si atom -12390.740728 kJ/mol
# Density = 2.057749 g / cm^3
# Si number density = 20.624435 Si / 1000 Ang^3
#
#
#
# Elastic Constant Matrix: (Units=GPa)
#
#
# Indices 1 2 3 4 5 6 
#
# 1 176.5251 67.6915 43.9519 -8.7081 -1.5703 -19.4503
# 2 67.6915 114.3770 36.1084 3.6762 1.9656 -3.6098
# 3 43.9519 36.1084 100.4529 -8.6459 8.4259 -4.6668
# 4 -8.7081 3.6762 -8.6459 32.6673 0.7756 9.6335
# 5 -1.5703 1.9656 8.4259 0.7756 26.3004 -10.2602
# 6 -19.4503 -3.6098 -4.6668 9.6335 -10.2602 34.9038
#
#
#
# Elastic Compliance Matrix: (Units=1/GPa)
#
#
# Indices 1 2 3 4 5 6 
#
# 1 0.008410 -0.004222 -0.002165 0.000660 0.003350 0.004763
# 2 -0.004222 0.012204 -0.002793 -0.002997 -0.000485 -0.000780
# 3 -0.002165 -0.002793 0.012547 0.003868 -0.004969 -0.002346
# 4 0.000660 -0.002997 0.003868 0.035577 -0.006361 -0.011114
# 5 0.003350 -0.000485 -0.004969 -0.006361 0.046506 0.016578
# 6 0.004763 -0.000780 -0.002346 -0.011114 0.016578 0.038851
#
#
# Mechanical properties :
#
#
# Convention : Reuss Voigt Hill
#
# Bulk Modulus (GPa) = 67.56472 76.31763 71.94117
# Shear Modulus (GPa) = 28.18682 35.01452 31.60067
#
# Velocity S-wave (km/s) = 3.70086 4.12481 3.91857
# Velocity P-wave (km/s) = 7.14790 7.73106 7.44519
#
# Compressibility (1/GPa) = 0.01480062
#
# Stress axis : x y z
#
# Youngs Moduli (GPa) = 118.90190 81.94277 79.70209
#
# Poissons Ratio (x) = 0.34600 0.17255
# Poissons Ratio (y) = 0.50206 0.22258
# Poissons Ratio (z) = 0.25742 0.22884
#
# Static dielectric constant tensor:
#      x y z
#    x 4.768200 -0.372200 0.330680 
#    y -0.372200 3.766380 -0.191460 
#    z 0.330680 -0.191460 3.749450 
# 
# 
# High freq. dielectric constant tensor:
#      x y z
#    x 1.819980 -0.007260 0.014570 
#    y -0.007260 1.783160 -0.015990 
#    z 0.014570 -0.015990 1.795570 
# 
# From -- ./inp_files/196811.got.cif
#   From: 2010.06.25/outbox.cif.g09.slc.cpg/sg2_99_cif.got.tgz:196811.got - 2010.06.27 13:26:56.
