data_PCOD8040193
_publ_section_title
;
Structure prediction by ZEFSAII (Michael W. Deem and Ramdas Pophale) SiO2 
 PCOD8040193
Probable space group: P -1
;
_chemical_formula_sum "Si O2"
_cell_formula_units_Z 14
_cell_length_a 11.333705
_cell_length_b 10.563922
_cell_length_c 12.487632
_cell_angle_alpha 82.659775
_cell_angle_beta 118.060523
_cell_angle_gamma 45.077690
_cell_volume 632.342532
_symmetry_space_group_name_H-M "P -1"
_symmetry_group_IT_number 2
_symmetry_cell_setting 'triclinic'
loop_
_space_group_symop_operation_xyz
x,y,z
-x,-y,-z
loop_
_atom_site_type_symbol
_atom_site_label
_atom_site_fract_x
_atom_site_fract_y
_atom_site_fract_z
Si Si1 0.254976 0.867803 0.996417
Si Si2 0.995585 0.822005 0.942776
Si Si3 0.321324 0.289260 0.097308
Si Si4 0.837619 0.006770 0.294909
Si Si5 0.176372 0.707948 0.669057
Si Si6 0.196176 0.336467 0.265453
Si Si7 0.702890 0.022643 0.587878
O O1 0.592061 0.587116 0.160666
O O2 0.154507 0.056169 0.019076
O O3 0.103010 0.024156 0.802404
O O4 0.193163 0.778947 0.024542
O O5 0.764924 0.030116 0.728959
O O6 0.166111 0.551717 0.028055
O O7 0.624019 0.067149 0.206547
O O8 0.331293 0.198066 0.219813
O O9 0.135727 0.364559 0.923290
O O10 0.711938 0.242781 0.264150
O O11 0.112227 0.743942 0.510447
O O12 0.887431 0.935195 0.585194
O O13 0.369463 0.312242 0.391058
O O14 0.232685 0.181826 0.370985
#
# Coordination Sequence:
#
# PCOD8040193 Si02
#       7
#     2   2   2   2   2   2   2
#     4  11  21  37  53  84 122 152 173 220 291 348
#     4  10  21  35  55  79 119 151 177 222 286 340
#     4  10  18  36  57  84 109 141 191 237 266 326
#     4  11  21  35  59  87 112 145 185 235 282 327
#     4  11  21  35  59  87 112 145 185 235 282 327
#     4   9  19  31  59  84 102 144 192 238 269 303
#     4  10  18  36  57  84 109 141 191 237 266 326
#
# _framework density 22.139899
#
# number of rings (size 3 to 8) (size 9 to 14) (size 15 to 20)
#    0.000    1.714    4.286    2.143    0.000    0.000 
#    2.571    1.429    0.000   27.429    0.000    0.000 
#    0.000    0.000    0.000    0.000    0.000    0.000 
#
# Total GULP energy -173468.246850 kJ/mol
# GULP energy per Si atom -12390.589061 kJ/mol
# Density = 2.208951 g / cm^3
# Si number density = 22.139899 Si / 1000 Ang^3
#
#
#
# Elastic Constant Matrix: (Units=GPa)
#
#
# Indices 1 2 3 4 5 6 
#
# 1 70.5106 -1.2047 10.5696 0.8121 6.2077 -15.2735
# 2 -1.2047 54.2909 33.6867 21.6012 0.2267 -10.7636
# 3 10.5696 33.6867 123.5489 32.8476 3.4310 -9.1181
# 4 0.8121 21.6012 32.8476 24.1745 -6.4151 -8.3860
# 5 6.2077 0.2267 3.4310 -6.4151 42.3122 4.8747
# 6 -15.2735 -10.7636 -9.1181 -8.3860 4.8747 18.6141
#
#
#
# Elastic Compliance Matrix: (Units=1/GPa)
#
#
# Indices 1 2 3 4 5 6 
#
# 1 0.019350 0.004001 -0.002477 0.005085 -0.004236 0.020378
# 2 0.004001 0.031002 -0.001678 -0.023030 -0.005426 0.011433
# 3 -0.002477 -0.001678 0.013670 -0.019279 -0.003180 -0.004159
# 4 0.005085 -0.023030 -0.019279 0.099393 0.013397 0.022681
# 5 -0.004236 -0.005426 -0.003180 0.013397 0.027654 -0.009378
# 6 0.020378 0.011433 -0.004159 0.022681 -0.009378 0.087692
#
#
# Mechanical properties :
#
#
# Convention : Reuss Voigt Hill
#
# Bulk Modulus (GPa) = 15.69490 37.16151 26.42821
# Shear Modulus (GPa) = 16.64962 30.70675 23.67819
#
# Velocity S-wave (km/s) = 2.74527 3.72821 3.27384
# Velocity P-wave (km/s) = 4.14162 5.94592 5.12382
#
# Compressibility (1/GPa) = 0.06371497
#
# Stress axis : x y z
#
# Youngs Moduli (GPa) = 51.67832 32.25637 73.15106
#
# Poissons Ratio (x) = -0.12905 0.18117
# Poissons Ratio (y) = -0.20675 0.12272
# Poissons Ratio (z) = 0.12799 0.05412
#
# Static dielectric constant tensor:
#      x y z
#    x 4.126810 -0.052260 0.264890 
#    y -0.052260 3.298750 0.336850 
#    z 0.264890 0.336850 4.433410 
# 
# 
# High freq. dielectric constant tensor:
#      x y z
#    x 1.884180 -0.011820 0.008660 
#    y -0.011820 1.792860 0.026780 
#    z 0.008660 0.026780 1.891450 
# 
# From -- ./inp_files/172185.got.cif
#   From: 2010.06.25/outbox.cif.g09.slc.cpg/sg2_87_cif.got.tgz:172185.got - 2010.06.27 13:26:56.
