data_PCOD8040291
_publ_section_title
;
Structure prediction by ZEFSAII (Michael W. Deem and Ramdas Pophale) SiO2 
 PCOD8040291
Probable space group: P -1
;
_chemical_formula_sum "Si O2"
_cell_formula_units_Z 16
_cell_length_a 12.502635
_cell_length_b 13.518076
_cell_length_c 11.103527
_cell_angle_alpha 148.199006
_cell_angle_beta 116.786132
_cell_angle_gamma 81.998912
_cell_volume 754.980563
_symmetry_space_group_name_H-M "P -1"
_symmetry_group_IT_number 2
_symmetry_cell_setting 'triclinic'
loop_
_space_group_symop_operation_xyz
x,y,z
-x,-y,-z
loop_
_atom_site_type_symbol
_atom_site_label
_atom_site_fract_x
_atom_site_fract_y
_atom_site_fract_z
Si Si1 0.782806 0.894501 0.252288
Si Si2 0.582377 0.946090 0.587483
Si Si3 0.351514 0.537156 0.164147
Si Si4 0.792762 0.427442 0.273669
Si Si5 0.990364 0.053186 0.738281
Si Si6 0.749040 0.708906 0.381348
Si Si7 0.948130 0.503358 0.669548
Si Si8 0.149009 0.652387 0.294501
O O1 0.854261 0.895149 0.161261
O O2 0.887823 0.921309 0.439554
O O3 0.761370 0.100392 0.457473
O O4 0.638724 0.660946 0.968556
O O5 0.488628 0.778375 0.473656
O O6 0.664171 0.835359 0.456938
O O7 0.500000 0.000000 0.500000
O O8 0.688665 0.169019 0.939775
O O9 0.237122 0.540235 0.194957
O O10 0.304167 0.477354 0.940326
O O11 0.724030 0.572487 0.351442
O O12 0.836570 0.477528 0.486389
O O13 0.926847 0.510746 0.341379
O O14 0.916407 0.886035 0.639653
O O15 0.990465 0.271502 0.993593
O O16 0.869882 0.321087 0.545029
O O17 0.000000 0.500000 0.000000
#
# Coordination Sequence:
#
# PCOD8040291 Si02
#       8
#     2   2   2   2   2   2   2   2
#     4  10  20  34  59  95 128 157 200 262 324 376
#     4  12  26  43  65  93 128 169 223 267 307 380
#     4  11  24  36  63  97 122 161 211 264 322 372
#     4  11  25  43  64  93 133 176 210 260 319 390
#     4  10  18  36  60  93 128 155 202 260 320 377
#     4  11  23  40  64  95 128 167 209 265 326 376
#     4  11  22  42  65  98 134 166 212 262 327 381
#     4  12  21  37  67  96 129 164 205 272 323 373
#
# _framework density 21.192599000000001
#
# number of rings (size 3 to 8) (size 9 to 14) (size 15 to 20)
#    0.000    1.000    5.000    3.375    3.500    0.500 
#    2.250    0.625    0.000    1.500    0.000    0.000 
#    0.000    0.000    0.000    0.000    0.000    0.000 
#
# Total GULP energy -198253.361433 kJ/mol
# GULP energy per Si atom -12390.835090 kJ/mol
# Density = 2.114436 g / cm^3
# Si number density = 21.192599 Si / 1000 Ang^3
#
#
#
# Elastic Constant Matrix: (Units=GPa)
#
#
# Indices 1 2 3 4 5 6 
#
# 1 66.8424 35.9221 32.9788 1.1714 -2.7630 11.2918
# 2 35.9221 128.3659 57.5876 24.9154 3.2001 6.9806
# 3 32.9788 57.5876 69.8887 27.5751 8.6571 4.4285
# 4 1.1714 24.9154 27.5751 41.5756 3.8318 -0.9043
# 5 -2.7630 3.2001 8.6571 3.8318 24.6653 9.5838
# 6 11.2918 6.9806 4.4285 -0.9043 9.5838 30.4639
#
#
#
# Elastic Compliance Matrix: (Units=1/GPa)
#
#
# Indices 1 2 3 4 5 6 
#
# 1 0.025045 -0.002032 -0.014306 0.008818 0.010523 -0.009787
# 2 -0.002032 0.012802 -0.009023 -0.001868 0.002196 -0.001615
# 3 -0.014306 -0.009023 0.036455 -0.017074 -0.012740 0.005572
# 4 0.008818 -0.001868 -0.017074 0.036113 0.001521 0.000235
# 5 0.010523 0.002196 -0.012740 0.001521 0.053142 -0.019225
# 6 -0.009787 -0.001615 0.005572 0.000235 -0.019225 0.042068
#
#
# Mechanical properties :
#
#
# Convention : Reuss Voigt Hill
#
# Bulk Modulus (GPa) = 42.40802 57.56378 49.98590
# Shear Modulus (GPa) = 18.92454 28.58152 23.75303
#
# Velocity S-wave (km/s) = 2.99152 3.67639 3.35149
# Velocity P-wave (km/s) = 5.65566 6.72624 6.21405
#
# Compressibility (1/GPa) = 0.02358045
#
# Stress axis : x y z
#
# Youngs Moduli (GPa) = 39.92846 78.11059 27.43093
#
# Poissons Ratio (x) = 0.15874 0.39243
# Poissons Ratio (y) = 0.08115 0.24750
# Poissons Ratio (z) = 0.57122 0.70476
#
# Static dielectric constant tensor:
#      x y z
#    x 3.904830 0.277030 0.044610 
#    y 0.277030 3.989930 0.440720 
#    z 0.044610 0.440720 3.735220 
# 
# 
# High freq. dielectric constant tensor:
#      x y z
#    x 1.823240 0.012650 -0.012430 
#    y 0.012650 1.825170 0.047550 
#    z -0.012430 0.047550 1.811220 
# 
# From -- ./inp_files/434385.got.cif
#   From: 2010.06.25/outbox.cif.g09.slc.cpg/sg2_218_cif.got.tgz:434385.got - 2010.06.27 13:26:56.
