data_PCOD8040066
_publ_section_title
;
Structure prediction by ZEFSAII (Michael W. Deem and Ramdas Pophale) SiO2 
 PCOD8040066
Probable space group: P -1
;
_chemical_formula_sum "Si O2"
_cell_formula_units_Z 16
_cell_length_a 12.063882
_cell_length_b 15.658571
_cell_length_c 8.699235
_cell_angle_alpha 94.051012
_cell_angle_beta 81.883707
_cell_angle_gamma 29.639583
_cell_volume 739.146497
_symmetry_space_group_name_H-M "P -1"
_symmetry_group_IT_number 2
_symmetry_cell_setting 'triclinic'
loop_
_space_group_symop_operation_xyz
x,y,z
-x,-y,-z
loop_
_atom_site_type_symbol
_atom_site_label
_atom_site_fract_x
_atom_site_fract_y
_atom_site_fract_z
Si Si1 0.000040 0.540852 0.172560
Si Si2 0.129207 0.279251 0.208050
Si Si3 0.374428 0.083680 0.812914
Si Si4 0.642887 0.551194 0.933811
Si Si5 0.931733 0.868999 0.178428
Si Si6 0.180550 0.893833 0.589438
Si Si7 0.774307 0.246184 0.151108
Si Si8 0.361575 0.478135 0.721641
O O1 0.016186 0.451798 0.280658
O O2 0.233905 0.443653 0.140604
O O3 0.748452 0.768591 0.270639
O O4 0.000000 0.500000 0.000000
O O5 0.915163 0.355207 0.255593
O O6 0.327771 0.117375 0.279705
O O7 0.276040 0.183248 0.008042
O O8 0.291073 0.042835 0.801651
O O9 0.399748 0.700515 0.901846
O O10 0.826485 0.346951 0.843934
O O11 0.577191 0.602988 0.133875
O O12 0.844033 0.990242 0.347091
O O13 0.998884 0.877498 0.014003
O O14 0.107072 0.884225 0.745913
O O15 0.458452 0.684157 0.459794
O O16 0.000000 0.000000 0.500000
O O17 0.614443 0.435613 0.266024
#
# Coordination Sequence:
#
# PCOD8040066 Si02
#       8
#     2   2   2   2   2   2   2   2
#     4   9  16  33  57  94 120 156 200 258 302 352
#     4  10  18  35  62  94 124 159 207 257 305 367
#     4   9  18  34  60  93 125 156 207 260 301 358
#     4  10  19  37  67  88 118 155 210 258 298 365
#     4  10  20  40  61  91 124 154 208 258 304 364
#     4  12  26  41  56  89 129 162 201 256 317 372
#     4  11  22  40  64  87 115 165 210 248 307 373
#     4  11  21  41  61  92 124 161 199 255 319 366
#
# _framework density 21.646588999999999
#
# number of rings (size 3 to 8) (size 9 to 14) (size 15 to 20)
#    0.000    1.750    5.000    3.750    1.750    0.000 
#    2.250    0.625    0.000    1.500    0.000    0.000 
#    0.000    0.000    0.000    0.000    0.000    0.000 
#
# Total GULP energy -198374.504294 kJ/mol
# GULP energy per Si atom -12398.406518 kJ/mol
# Density = 2.159732 g / cm^3
# Si number density = 21.646589 Si / 1000 Ang^3
#
#
#
# Elastic Constant Matrix: (Units=GPa)
#
#
# Indices 1 2 3 4 5 6 
#
# 1 129.7735 58.3876 29.2789 -6.2530 12.5134 -8.2620
# 2 58.3876 107.7086 30.8988 -3.2458 5.0729 -11.6035
# 3 29.2789 30.8988 51.8851 10.5835 17.4889 -0.7374
# 4 -6.2530 -3.2458 10.5835 29.7893 3.5240 6.4420
# 5 12.5134 5.0729 17.4889 3.5240 20.1010 5.9798
# 6 -8.2620 -11.6035 -0.7374 6.4420 5.9798 36.0584
#
#
#
# Elastic Compliance Matrix: (Units=1/GPa)
#
#
# Indices 1 2 3 4 5 6 
#
# 1 0.011098 -0.004897 -0.002452 0.002944 -0.004389 0.001119
# 2 -0.004897 0.014261 -0.007991 0.002293 0.005406 0.001998
# 3 -0.002452 -0.007991 0.037540 -0.012355 -0.028302 0.004535
# 4 0.002944 0.002293 -0.012355 0.039844 0.003287 -0.006503
# 5 -0.004389 0.005406 -0.028302 0.003287 0.079201 -0.013566
# 6 0.001119 0.001998 0.004535 -0.006503 -0.013566 0.032136
#
#
# Mechanical properties :
#
#
# Convention : Reuss Voigt Hill
#
# Bulk Modulus (GPa) = 31.03669 58.49975 44.76822
# Shear Modulus (GPa) = 19.56946 28.57652 24.07299
#
# Velocity S-wave (km/s) = 3.00999 3.63731 3.33842
# Velocity P-wave (km/s) = 5.14287 6.68758 5.96543
#
# Compressibility (1/GPa) = 0.03221993
#
# Stress axis : x y z
#
# Youngs Moduli (GPa) = 90.10229 70.12126 26.63820
#
# Poissons Ratio (x) = 0.34338 0.06532
# Poissons Ratio (y) = 0.44123 0.21286
# Poissons Ratio (z) = 0.22093 0.56033
#
# Static dielectric constant tensor:
#      x y z
#    x 4.097870 0.384970 0.140150 
#    y 0.384970 5.195800 -0.026730 
#    z 0.140150 -0.026730 3.620000 
# 
# 
# High freq. dielectric constant tensor:
#      x y z
#    x 1.860680 0.006250 0.013270 
#    y 0.006250 1.856890 0.007210 
#    z 0.013270 0.007210 1.803530 
# 
# From -- ./inp_files/273105.got.cif
#   From: 2010.06.25/outbox.cif.g09.slc.cpg/sg2_137_cif.got.tgz:273105.got - 2010.06.27 13:26:56.
