data_PCOD8040164
_publ_section_title
;
Structure prediction by ZEFSAII (Michael W. Deem and Ramdas Pophale) SiO2 
 PCOD8040164
Probable space group: P -1
;
_chemical_formula_sum "Si O2"
_cell_formula_units_Z 16
_cell_length_a 11.778065
_cell_length_b 11.276132
_cell_length_c 17.451599
_cell_angle_alpha 42.193771
_cell_angle_beta 148.236683
_cell_angle_gamma 126.742421
_cell_volume 816.166762
_symmetry_space_group_name_H-M "P -1"
_symmetry_group_IT_number 2
_symmetry_cell_setting 'triclinic'
loop_
_space_group_symop_operation_xyz
x,y,z
-x,-y,-z
loop_
_atom_site_type_symbol
_atom_site_label
_atom_site_fract_x
_atom_site_fract_y
_atom_site_fract_z
Si Si1 0.147490 0.847145 0.721371
Si Si2 0.011051 0.711265 0.168045
Si Si3 0.754667 0.319409 0.401671
Si Si4 0.171598 0.482169 0.505095
Si Si5 0.708604 0.042381 0.877397
Si Si6 0.271652 0.983934 0.572253
Si Si7 0.628370 0.509811 0.989788
Si Si8 0.427619 0.108094 0.830440
O O1 0.176064 0.853608 0.642782
O O2 0.220739 0.024197 0.717481
O O3 0.300903 0.679661 0.917122
O O4 0.893828 0.836447 0.604441
O O5 0.161065 0.573315 0.372231
O O6 0.168504 0.793395 0.158904
O O7 0.843916 0.607022 0.074927
O O8 0.873355 0.865641 0.063273
O O9 0.777454 0.356038 0.487144
O O10 0.756612 0.110419 0.481318
O O11 0.519257 0.396106 0.203944
O O12 0.936252 0.419008 0.415006
O O13 0.355388 0.317494 0.700196
O O14 0.622737 0.085734 0.892330
O O15 0.517210 0.016102 0.718594
O O16 0.500000 0.500000 0.000000
O O17 0.500000 0.000000 0.000000
#
# Coordination Sequence:
#
# PCOD8040164 Si02
#       8
#     2   2   2   2   2   2   2   2
#     4  10  20  31  57  87 114 150 200 254 295 352
#     4  11  23  41  61  93 123 163 208 247 301 375
#     4  11  21  36  59  91 121 154 200 263 301 353
#     4  11  24  36  61  95 124 156 204 253 309 357
#     4  10  24  40  63  87 125 165 203 249 309 362
#     4  10  18  36  54  84 117 154 201 246 301 352
#     4  12  19  34  61  88 117 158 203 252 299 354
#     4  11  23  40  61  91 126 159 199 256 312 357
#
# _framework density 19.603836000000001
#
# number of rings (size 3 to 8) (size 9 to 14) (size 15 to 20)
#    0.000    1.250    5.000    1.500    7.000    0.500 
#    0.000    0.625    2.750    1.500    0.000    0.000 
#    0.000    0.000    0.000    0.000    0.000    0.000 
#
# Total GULP energy -198298.235873 kJ/mol
# GULP energy per Si atom -12393.639742 kJ/mol
# Density = 1.955922 g / cm^3
# Si number density = 19.603836 Si / 1000 Ang^3
#
#
#
# Elastic Constant Matrix: (Units=GPa)
#
#
# Indices 1 2 3 4 5 6 
#
# 1 84.8118 41.6146 40.3129 4.3998 7.2620 0.2400
# 2 41.6146 86.5715 24.7161 11.2822 4.1939 -3.8820
# 3 40.3129 24.7161 110.4771 -4.5225 9.2267 1.7427
# 4 4.3998 11.2822 -4.5225 34.3605 -6.7283 2.1296
# 5 7.2620 4.1939 9.2267 -6.7283 27.7314 -0.2618
# 6 0.2400 -3.8820 1.7427 2.1296 -0.2618 26.3861
#
#
#
# Elastic Compliance Matrix: (Units=1/GPa)
#
#
# Indices 1 2 3 4 5 6 
#
# 1 0.017705 -0.006953 -0.004745 -0.001000 -0.002257 -0.000812
# 2 -0.006953 0.016084 -0.001195 -0.005002 -0.001400 0.002898
# 3 -0.004745 -0.001195 0.011309 0.002199 -0.001816 -0.001075
# 4 -0.001000 -0.005002 0.002199 0.032994 0.008259 -0.003453
# 5 -0.002257 -0.001400 -0.001816 0.008259 0.039468 -0.000341
# 6 -0.000812 0.002898 -0.001075 -0.003453 -0.000341 0.038679
#
#
# Mechanical properties :
#
#
# Convention : Reuss Voigt Hill
#
# Bulk Modulus (GPa) = 51.77760 55.01643 53.39701
# Shear Modulus (GPa) = 26.53056 29.37672 27.95364
#
# Velocity S-wave (km/s) = 3.68276 3.87527 3.78024
# Velocity P-wave (km/s) = 6.67480 6.93892 6.80814
#
# Compressibility (1/GPa) = 0.01931337
#
# Stress axis : x y z
#
# Youngs Moduli (GPa) = 56.48100 62.17291 88.42558
#
# Poissons Ratio (x) = 0.43228 0.41955
# Poissons Ratio (y) = 0.39271 0.10565
# Poissons Ratio (z) = 0.26799 0.07428
#
# Static dielectric constant tensor:
#      x y z
#    x 3.405070 -0.248240 0.192610 
#    y -0.248240 3.642190 0.062800 
#    z 0.192610 0.062800 3.825180 
# 
# 
# High freq. dielectric constant tensor:
#      x y z
#    x 1.731520 -0.022110 0.022850 
#    y -0.022110 1.758340 0.005860 
#    z 0.022850 0.005860 1.776940 
# 
# From -- ./inp_files/262318.got.cif
#   From: 2010.06.25/outbox.cif.g09.slc.cpg/sg2_132_cif.got.tgz:262318.got - 2010.06.27 13:26:56.
