data_PCOD8040759
_publ_section_title
;
Structure prediction by ZEFSAII (Michael W. Deem and Ramdas Pophale) SiO2 
 PCOD8040759
Probable space group: P -1
;
_chemical_formula_sum "Si O2"
_cell_formula_units_Z 16
_cell_length_a 11.966024
_cell_length_b 15.663518
_cell_length_c 9.264347
_cell_angle_alpha 123.522774
_cell_angle_beta 72.419671
_cell_angle_gamma 59.192855
_cell_volume 717.226857
_symmetry_space_group_name_H-M "P -1"
_symmetry_group_IT_number 2
_symmetry_cell_setting 'triclinic'
loop_
_space_group_symop_operation_xyz
x,y,z
-x,-y,-z
loop_
_atom_site_type_symbol
_atom_site_label
_atom_site_fract_x
_atom_site_fract_y
_atom_site_fract_z
Si Si1 0.860451 0.373573 0.244726
Si Si2 0.908654 0.320811 0.635532
Si Si3 0.879833 0.185944 0.290961
Si Si4 0.595643 0.972108 0.788325
Si Si5 0.742210 0.607776 0.755589
Si Si6 0.642852 0.750486 0.394317
Si Si7 0.414819 0.433103 0.742842
Si Si8 0.067174 0.399279 0.104937
O O1 0.910725 0.242828 0.204235
O O2 0.776347 0.537811 0.516975
O O3 0.684120 0.468108 0.283290
O O4 0.081818 0.262455 0.981633
O O5 0.984295 0.159735 0.370679
O O6 0.741032 0.510982 0.774639
O O7 0.132672 0.218078 0.490093
O O8 0.770862 0.398635 0.907373
O O9 0.628273 0.347378 0.590561
O O10 0.000000 0.000000 0.000000
O O11 0.511126 0.949751 0.684458
O O12 0.500000 0.000000 0.000000
O O13 0.494598 0.155270 0.944986
O O14 0.930925 0.546751 0.687350
O O15 0.506446 0.744947 0.443222
O O16 0.845740 0.589344 0.277729
O O17 0.719145 0.712982 0.165797
#
# Coordination Sequence:
#
# PCOD8040759 Si02
#       8
#     2   2   2   2   2   2   2   2
#     4  10  23  39  70  95 136 176 229 281 352 398
#     4  11  25  49  68  99 142 181 227 285 347 409
#     4  11  27  45  71  98 131 183 242 286 334 400
#     4  12  25  37  67 106 143 177 227 282 342 411
#     4  11  23  38  66 100 137 178 224 269 349 413
#     4  10  20  37  66 100 140 171 220 276 345 403
#     4  11  22  47  72  93 143 185 224 280 349 402
#     4  10  18  38  64  97 135 177 213 276 348 410
#
# _framework density 22.308145
#
# number of rings (size 3 to 8) (size 9 to 14) (size 15 to 20)
#    0.000    1.250    2.500    4.125    7.000    0.500 
#    4.500    0.625    0.000    0.000    0.000    0.000 
#    0.000    0.000    0.000    0.000    0.000    0.000 
#
# Total GULP energy -198218.722363 kJ/mol
# GULP energy per Si atom -12388.670148 kJ/mol
# Density = 2.225737 g / cm^3
# Si number density = 22.308145 Si / 1000 Ang^3
#
#
#
# Elastic Constant Matrix: (Units=GPa)
#
#
# Indices 1 2 3 4 5 6 
#
# 1 107.0220 30.0128 19.5684 -7.7124 15.7976 6.2144
# 2 30.0128 93.0907 33.6535 -8.1882 3.6442 5.4146
# 3 19.5684 33.6535 66.9847 -5.6351 18.9143 -2.0813
# 4 -7.7124 -8.1882 -5.6351 23.4239 6.7020 3.1497
# 5 15.7976 3.6442 18.9143 6.7020 47.1491 0.2149
# 6 6.2144 5.4146 -2.0813 3.1497 0.2149 29.0760
#
#
#
# Elastic Compliance Matrix: (Units=1/GPa)
#
#
# Indices 1 2 3 4 5 6 
#
# 1 0.011220 -0.002793 -0.000507 0.004025 -0.003902 -0.002322
# 2 -0.002793 0.014439 -0.007005 0.002157 0.002336 -0.002844
# 3 -0.000507 -0.007005 0.021492 0.004674 -0.008586 0.002508
# 4 0.004025 0.002157 0.004674 0.049717 -0.010429 -0.006236
# 5 -0.003902 0.002336 -0.008586 -0.010429 0.027260 0.000713
# 6 -0.002322 -0.002844 0.002508 -0.006236 0.000713 0.036268
#
#
# Mechanical properties :
#
#
# Convention : Reuss Voigt Hill
#
# Bulk Modulus (GPa) = 37.67508 48.17409 42.92458
# Shear Modulus (GPa) = 26.33633 32.18732 29.26183
#
# Velocity S-wave (km/s) = 3.43967 3.80261 3.62568
# Velocity P-wave (km/s) = 5.71841 6.39699 6.06720
#
# Compressibility (1/GPa) = 0.02654274
#
# Stress axis : x y z
#
# Youngs Moduli (GPa) = 89.12291 69.25894 46.52959
#
# Poissons Ratio (x) = 0.19341 0.02357
# Poissons Ratio (y) = 0.24888 0.32593
# Poissons Ratio (z) = 0.04515 0.48515
#
# Static dielectric constant tensor:
#      x y z
#    x 4.443970 0.133500 0.296220 
#    y 0.133500 4.075830 -0.261500 
#    z 0.296220 -0.261500 3.919980 
# 
# 
# High freq. dielectric constant tensor:
#      x y z
#    x 1.889910 0.004200 0.018840 
#    y 0.004200 1.882140 -0.027300 
#    z 0.018840 -0.027300 1.858110 
# 
# From -- ./inp_files/274072.got.cif
#   From: 2010.06.25/outbox.cif.g09.slc.cpg/sg2_138_cif.got.tgz:274072.got - 2010.06.27 13:26:56.
