data_PCOD8040161
_publ_section_title
;
Structure prediction by ZEFSAII (Michael W. Deem and Ramdas Pophale) SiO2 
 PCOD8040161
Probable space group: P -1
;
_chemical_formula_sum "Si O2"
_cell_formula_units_Z 16
_cell_length_a 9.040764
_cell_length_b 25.813142
_cell_length_c 5.287356
_cell_angle_alpha 65.269267
_cell_angle_beta 97.153833
_cell_angle_gamma 135.371669
_cell_volume 757.767471
_symmetry_space_group_name_H-M "P -1"
_symmetry_group_IT_number 2
_symmetry_cell_setting 'triclinic'
loop_
_space_group_symop_operation_xyz
x,y,z
-x,-y,-z
loop_
_atom_site_type_symbol
_atom_site_label
_atom_site_fract_x
_atom_site_fract_y
_atom_site_fract_z
Si Si1 0.981424 0.045631 0.096794
Si Si2 0.659571 0.279377 0.364221
Si Si3 0.747037 0.090617 0.862814
Si Si4 0.356596 0.117790 0.352735
Si Si5 0.220428 0.828130 0.799536
Si Si6 0.802580 0.490676 0.489204
Si Si7 0.735508 0.427464 0.103985
Si Si8 0.084104 0.675058 0.175723
O O1 0.213466 0.118304 0.138431
O O2 0.789923 0.976158 0.394902
O O3 0.914474 0.085478 0.865139
O O4 0.000000 0.000000 0.000000
O O5 0.438761 0.180501 0.475696
O O6 0.787583 0.287507 0.607372
O O7 0.618606 0.333885 0.308933
O O8 0.784494 0.315061 0.050493
O O9 0.790019 0.146100 0.530294
O O10 0.798917 0.132344 0.060706
O O11 0.500000 0.000000 0.000000
O O12 0.555350 0.145488 0.182557
O O13 0.029786 0.726384 0.993710
O O14 0.650948 0.433066 0.816168
O O15 0.000000 0.500000 0.500000
O O16 0.873504 0.576242 0.365232
O O17 0.664380 0.445683 0.293124
O O18 0.000000 0.500000 0.000000
#
# Coordination Sequence:
#
# PCOD8040161 Si02
#       8
#     2   2   2   2   2   2   2   2
#     4  11  25  42  62  82 113 153 195 244 291 344
#     4  11  19  30  49  75 112 152 180 227 276 346
#     4  12  24  41  62  83 113 147 196 239 291 348
#     4  10  24  38  58  86 114 152 194 235 297 338
#     4  11  24  39  58  88 113 153 188 237 288 341
#     4  10  15  26  41  71 105 154 173 214 275 338
#     4  10  15  25  41  70 107 149 176 211 277 335
#     4  11  19  30  50  74 116 149 183 224 279 343
#
# _framework density 21.114657000000001
#
# number of rings (size 3 to 8) (size 9 to 14) (size 15 to 20)
#    0.000    1.250    6.250    2.625    7.000    0.000 
#    0.000    0.000    0.000    0.000    0.000    0.000 
#    0.000    6.000    0.000    0.000    0.000    0.000 
#
# Total GULP energy -198295.321200 kJ/mol
# GULP energy per Si atom -12393.457575 kJ/mol
# Density = 2.106660 g / cm^3
# Si number density = 21.114657 Si / 1000 Ang^3
#
#
#
# Elastic Constant Matrix: (Units=GPa)
#
#
# Indices 1 2 3 4 5 6 
#
# 1 69.1252 32.0266 23.5160 0.2272 17.1798 -12.8350
# 2 32.0266 121.9108 39.7540 14.7215 11.9074 -27.7094
# 3 23.5160 39.7540 132.9600 16.1396 18.5499 -12.3686
# 4 0.2272 14.7215 16.1396 46.3866 -14.4225 3.0015
# 5 17.1798 11.9074 18.5499 -14.4225 24.7556 0.9213
# 6 -12.8350 -27.7094 -12.3686 3.0015 0.9213 24.4828
#
#
#
# Elastic Compliance Matrix: (Units=1/GPa)
#
#
# Indices 1 2 3 4 5 6 
#
# 1 0.022017 0.000129 0.001459 -0.008371 -0.021842 0.014273
# 2 0.000129 0.015172 0.000685 -0.010988 -0.015028 0.019498
# 3 0.001459 0.000685 0.011251 -0.009603 -0.015702 0.008992
# 4 -0.008371 -0.010988 -0.009603 0.044345 0.045198 -0.028814
# 5 -0.021842 -0.015028 -0.015702 0.045198 0.102583 -0.045793
# 6 0.014273 0.019498 0.008992 -0.028814 -0.045793 0.080194
#
#
# Mechanical properties :
#
#
# Convention : Reuss Voigt Hill
#
# Bulk Modulus (GPa) = 18.87326 57.17660 38.02493
# Shear Modulus (GPa) = 17.32035 34.37162 25.84599
#
# Velocity S-wave (km/s) = 2.86720 4.03905 3.50248
# Velocity P-wave (km/s) = 4.46306 6.99212 5.86552
#
# Compressibility (1/GPa) = 0.05298500
#
# Stress axis : x y z
#
# Youngs Moduli (GPa) = 45.41987 65.91191 88.88021
#
# Poissons Ratio (x) = -0.00849 -0.12965
# Poissons Ratio (y) = -0.00585 -0.06089
# Poissons Ratio (z) = -0.06625 -0.04516
#
# Static dielectric constant tensor:
#      x y z
#    x 3.345640 -0.368040 0.014520 
#    y -0.368040 4.403000 0.279720 
#    z 0.014520 0.279720 4.805380 
# 
# 
# High freq. dielectric constant tensor:
#      x y z
#    x 1.754880 -0.033710 0.008320 
#    y -0.033710 1.837890 0.008250 
#    z 0.008320 0.008250 1.854120 
# 
# From -- ./inp_files/55385.got.cif
#   From: 2010.06.25/outbox.cif.g09.slc.cpg/sg2_28_cif.got.tgz:55385.got - 2010.06.27 13:26:56.
