data_PCOD8040270
_publ_section_title
;
Structure prediction by ZEFSAII (Michael W. Deem and Ramdas Pophale) SiO2 
 PCOD8040270
Probable space group: P -1
;
_chemical_formula_sum "Si O2"
_cell_formula_units_Z 14
_cell_length_a 14.291804
_cell_length_b 5.563999
_cell_length_c 19.614220
_cell_angle_alpha 56.027339
_cell_angle_beta 148.889550
_cell_angle_gamma 116.114011
_cell_volume 665.655845
_symmetry_space_group_name_H-M "P -1"
_symmetry_group_IT_number 2
_symmetry_cell_setting 'triclinic'
loop_
_space_group_symop_operation_xyz
x,y,z
-x,-y,-z
loop_
_atom_site_type_symbol
_atom_site_label
_atom_site_fract_x
_atom_site_fract_y
_atom_site_fract_z
Si Si1 0.713674 0.963460 0.835824
Si Si2 0.618608 0.792304 0.334722
Si Si3 0.404748 0.626225 0.103538
Si Si4 0.976250 0.192046 0.201911
Si Si5 0.911834 0.351896 0.564684
Si Si6 0.767056 0.364239 0.323562
Si Si7 0.962211 0.131203 0.850891
O O1 0.688660 0.623235 0.873885
O O2 0.515363 0.131810 0.697646
O O3 0.781616 0.058949 0.789590
O O4 0.860463 0.025561 0.975957
O O5 0.493576 0.811337 0.186727
O O6 0.741512 0.498067 0.479618
O O7 0.766182 0.018871 0.372696
O O8 0.557940 0.505143 0.163781
O O9 0.243002 0.809259 0.933157
O O10 0.035341 0.515885 0.201718
O O11 0.056934 0.990782 0.346273
O O12 0.048629 0.021947 0.205242
O O13 0.841027 0.433811 0.432709
O O14 0.101522 0.501829 0.671356
#
# Coordination Sequence:
#
# PCOD8040270 Si02
#       7
#     2   2   2   2   2   2   2
#     4   9  19  35  62  84 115 154 198 236 282 352
#     4  10  18  36  60  84 110 153 200 239 280 357
#     4   9  19  35  60  86 116 145 199 242 287 341
#     4  11  23  39  58  92 123 151 188 251 297 335
#     4  10  22  37  59  81 120 152 196 241 296 348
#     4   9  20  39  59  84 107 160 202 233 286 358
#     4  10  22  37  61  89 120 153 197 238 294 343
#
# _framework density 21.031889
#
# number of rings (size 3 to 8) (size 9 to 14) (size 15 to 20)
#    0.000    2.286    1.429    0.429    4.000    2.286 
#    0.000    2.143    0.000    0.000    0.000    0.000 
#    0.000    0.000    0.000    0.000    0.000    0.000 
#
# Total GULP energy -173459.812397 kJ/mol
# GULP energy per Si atom -12389.986600 kJ/mol
# Density = 2.098402 g / cm^3
# Si number density = 21.031889 Si / 1000 Ang^3
#
#
#
# Elastic Constant Matrix: (Units=GPa)
#
#
# Indices 1 2 3 4 5 6 
#
# 1 58.7598 17.5341 29.7273 -7.6281 17.1809 3.8212
# 2 17.5341 77.1871 17.5359 -5.1951 18.4150 -2.4147
# 3 29.7273 17.5359 81.6770 -27.5787 24.4249 6.9440
# 4 -7.6281 -5.1951 -27.5787 31.4492 -2.9063 3.8811
# 5 17.1809 18.4150 24.4249 -2.9063 19.0300 3.9365
# 6 3.8212 -2.4147 6.9440 3.8811 3.9365 30.5778
#
#
#
# Elastic Compliance Matrix: (Units=1/GPa)
#
#
# Indices 1 2 3 4 5 6 
#
# 1 0.023845 -0.000646 -0.002946 0.001591 -0.016796 -0.000402
# 2 -0.000646 0.017722 0.003994 0.003915 -0.021688 0.002868
# 3 -0.002946 0.003994 0.033482 0.026342 -0.039074 -0.005233
# 4 0.001591 0.003915 0.026342 0.054381 -0.028855 -0.009059
# 5 -0.016796 -0.021688 -0.039074 -0.028855 0.135376 -0.004506
# 6 -0.000402 0.002868 -0.005233 -0.009059 -0.004506 0.035899
#
#
# Mechanical properties :
#
#
# Convention : Reuss Voigt Hill
#
# Bulk Modulus (GPa) = 13.18324 38.57983 25.88153
# Shear Modulus (GPa) = 15.37580 26.39984 20.88782
#
# Velocity S-wave (km/s) = 2.70677 3.54676 3.15485
# Velocity P-wave (km/s) = 4.00632 5.92925 5.05997
#
# Compressibility (1/GPa) = 0.07585387
#
# Stress axis : x y z
#
# Youngs Moduli (GPa) = 41.93706 56.42574 29.86661
#
# Poissons Ratio (x) = 0.03644 0.08799
# Poissons Ratio (y) = 0.02708 -0.11928
# Poissons Ratio (z) = 0.12355 -0.22536
#
# Static dielectric constant tensor:
#      x y z
#    x 3.762010 0.039640 0.515910 
#    y 0.039640 3.800610 0.090900 
#    z 0.515910 0.090900 3.928900 
# 
# 
# High freq. dielectric constant tensor:
#      x y z
#    x 1.802800 -0.002850 0.034180 
#    y -0.002850 1.827240 0.002740 
#    z 0.034180 0.002740 1.814070 
# 
# From -- ./inp_files/26830.got.cif
#   From: 2010.06.25/outbox.cif.g09.slc.cpg/sg2_14_cif.got.tgz:26830.got - 2010.06.27 13:26:56.
