data_PCOD8040955
_publ_section_title
;
Structure prediction by ZEFSAII (Michael W. Deem and Ramdas Pophale) SiO2 
 PCOD8040955
Probable space group: P -1
;
_chemical_formula_sum "Si O2"
_cell_formula_units_Z 12
_cell_length_a 6.530882
_cell_length_b 10.203233
_cell_length_c 11.270766
_cell_angle_alpha 138.474039
_cell_angle_beta 73.329473
_cell_angle_gamma 118.890788
_cell_volume 432.301699
_symmetry_space_group_name_H-M "P -1"
_symmetry_group_IT_number 2
_symmetry_cell_setting 'triclinic'
loop_
_space_group_symop_operation_xyz
x,y,z
-x,-y,-z
loop_
_atom_site_type_symbol
_atom_site_label
_atom_site_fract_x
_atom_site_fract_y
_atom_site_fract_z
Si Si1 0.690078 0.834093 0.916936
Si Si2 0.176589 0.699749 0.804481
Si Si3 0.654042 0.441007 0.529443
Si Si4 0.464356 0.706862 0.111066
Si Si5 0.340765 0.150519 0.585301
Si Si6 0.980856 0.322516 0.756634
O O1 0.447375 0.772744 0.846342
O O2 0.786662 0.653630 0.739057
O O3 0.639432 0.834562 0.065115
O O4 0.877294 0.084034 0.025538
O O5 0.159161 0.618623 0.615299
O O6 0.998064 0.504514 0.781083
O O7 0.500000 0.500000 0.500000
O O8 0.492586 0.234271 0.496767
O O9 0.510455 0.853512 0.324409
O O10 0.188282 0.658740 0.094773
O O11 0.500000 0.500000 0.000000
O O12 0.235186 0.332917 0.759470
O O13 0.134543 0.912928 0.446018
#
# Coordination Sequence:
#
# PCOD8040955 Si02
#       6
#     2   2   2   2   2   2
#     4  10  21  40  67  97 135 180 218 276 343 394
#     4  10  21  41  68 100 132 179 229 273 334 408
#     4  10  18  40  66  94 131 177 218 267 343 393
#     4  12  24  44  67  99 142 173 222 285 339 399
#     4  11  23  44  70  99 135 176 227 281 338 399
#     4  11  24  43  70 104 128 181 232 274 335 406
#
# _framework density 27.758391
#
# number of rings (size 3 to 8) (size 9 to 14) (size 15 to 20)
#    0.000    1.333    5.000    1.500    0.000    2.667 
#    3.000    4.167    0.000    0.000    0.000    0.000 
#    0.000    0.000    0.000    0.000    0.000    0.000 
#
# Total GULP energy -148805.504590 kJ/mol
# GULP energy per Si atom -12400.458716 kJ/mol
# Density = 2.769521 g / cm^3
# Si number density = 27.758391 Si / 1000 Ang^3
#
#
#
# Elastic Constant Matrix: (Units=GPa)
#
#
# Indices 1 2 3 4 5 6 
#
# 1 54.2520 17.2742 14.1902 -5.1243 -17.4802 -9.0923
# 2 17.2742 206.6694 73.0035 8.9424 -1.6322 -9.6910
# 3 14.1902 73.0035 118.6005 -8.2549 -15.7560 0.5616
# 4 -5.1243 8.9424 -8.2549 58.0185 -0.5243 -1.7100
# 5 -17.4802 -1.6322 -15.7560 -0.5243 59.5066 -4.1989
# 6 -9.0923 -9.6910 0.5616 -1.7100 -4.1989 31.4769
#
#
#
# Elastic Compliance Matrix: (Units=1/GPa)
#
#
# Indices 1 2 3 4 5 6 
#
# 1 0.022750 -0.001303 -0.000866 0.002363 0.006949 0.007241
# 2 -0.001303 0.006549 -0.004161 -0.001685 -0.001217 0.001460
# 3 -0.000866 -0.004161 0.011606 0.002203 0.002634 -0.001267
# 4 0.002363 -0.001685 0.002203 0.018069 0.001482 0.001304
# 5 0.006949 -0.001217 0.002634 0.001482 0.019828 0.004311
# 6 0.007241 0.001460 -0.001267 0.001304 0.004311 0.034979
#
#
# Mechanical properties :
#
#
# Convention : Reuss Voigt Hill
#
# Bulk Modulus (GPa) = 35.40627 65.38417 50.39522
# Shear Modulus (GPa) = 36.80325 48.13735 42.47030
#
# Velocity S-wave (km/s) = 3.64516 4.16884 3.91576
# Velocity P-wave (km/s) = 5.52260 6.83945 6.21600
#
# Compressibility (1/GPa) = 0.02824358
#
# Stress axis : x y z
#
# Youngs Moduli (GPa) = 43.95607 152.68966 86.16241
#
# Poissons Ratio (x) = 0.19901 0.07464
# Poissons Ratio (y) = 0.05729 0.35854
# Poissons Ratio (z) = 0.03808 0.63537
#
# Static dielectric constant tensor:
#      x y z
#    x 7.826190 -1.795300 2.074220 
#    y -1.795300 5.986360 -1.459520 
#    z 2.074220 -1.459520 8.345560 
# 
# 
# High freq. dielectric constant tensor:
#      x y z
#    x 2.151840 -0.000670 -0.005220 
#    y -0.000670 2.105240 0.017960 
#    z -0.005220 0.017960 2.157160 
# 
# From -- ./inp_files/386250.got.cif
#   From: 2010.06.25/outbox.cif.g09.slc.cpg/sg2_194_cif.got.tgz:386250.got - 2010.06.27 13:26:56.
