data_PCOD8040868
_publ_section_title
;
Structure prediction by ZEFSAII (Michael W. Deem and Ramdas Pophale) SiO2 
 PCOD8040868
Probable space group: P -1
;
_chemical_formula_sum "Si O2"
_cell_formula_units_Z 14
_cell_length_a 8.672747
_cell_length_b 14.744824
_cell_length_c 16.078475
_cell_angle_alpha 38.471198
_cell_angle_beta 39.232504
_cell_angle_gamma 32.688846
_cell_volume 648.604279
_symmetry_space_group_name_H-M "P -1"
_symmetry_group_IT_number 2
_symmetry_cell_setting 'triclinic'
loop_
_space_group_symop_operation_xyz
x,y,z
-x,-y,-z
loop_
_atom_site_type_symbol
_atom_site_label
_atom_site_fract_x
_atom_site_fract_y
_atom_site_fract_z
Si Si1 0.278105 0.278944 0.635706
Si Si2 0.844560 0.927216 0.417958
Si Si3 0.069965 0.605022 0.139458
Si Si4 0.348918 0.778019 0.828205
Si Si5 0.880628 0.487528 0.146179
Si Si6 0.266041 0.111184 0.331573
Si Si7 0.769420 0.385564 0.646646
O O1 0.200120 0.318331 0.737335
O O2 0.342349 0.413130 0.473591
O O3 0.002353 0.300304 0.686990
O O4 0.582571 0.075175 0.647804
O O5 0.918235 0.891150 0.510995
O O6 0.075984 0.737920 0.410697
O O7 0.500000 0.000000 0.500000
O O8 0.854263 0.087505 0.260400
O O9 0.977544 0.567974 0.117586
O O10 0.369751 0.416994 0.185322
O O11 0.137145 0.752100 0.992620
O O12 0.469371 0.870316 0.765763
O O13 0.516970 0.607260 0.210118
O O14 0.023295 0.278066 0.254957
O O15 0.000000 0.500000 0.000000
#
# Coordination Sequence:
#
# PCOD8040868 Si02
#       7
#     2   2   2   2   2   2   2
#     4  11  23  39  69 101 122 167 232 263 312 382
#     4  10  18  39  64  97 126 164 217 266 315 370
#     4  10  23  39  64  93 130 173 217 261 323 384
#     4   9  19  37  64  93 123 175 214 269 304 382
#     4  11  27  47  62  93 138 175 207 265 339 384
#     4  10  22  40  67  96 130 171 216 264 321 385
#     4  11  24  40  68  98 131 170 212 275 319 382
#
# _framework density 21.584810999999998
#
# number of rings (size 3 to 8) (size 9 to 14) (size 15 to 20)
#    0.000    1.714    2.857    2.571    8.000    4.571 
#    0.000    2.857    0.000    0.000    0.000    0.000 
#    0.000    0.000    0.000    0.000    0.000    0.000 
#
# Total GULP energy -173630.443803 kJ/mol
# GULP energy per Si atom -12402.174557 kJ/mol
# Density = 2.153568 g / cm^3
# Si number density = 21.584811 Si / 1000 Ang^3
#
#
#
# Elastic Constant Matrix: (Units=GPa)
#
#
# Indices 1 2 3 4 5 6 
#
# 1 54.3135 28.7895 29.6960 7.8205 14.5722 4.0813
# 2 28.7895 124.8164 44.3915 2.5749 11.5967 13.1502
# 3 29.6960 44.3915 102.3912 -0.0335 16.2840 4.1949
# 4 7.8205 2.5749 -0.0335 47.7855 0.8534 3.8600
# 5 14.5722 11.5967 16.2840 0.8534 40.6684 4.2001
# 6 4.0813 13.1502 4.1949 3.8600 4.2001 28.2416
#
#
#
# Elastic Compliance Matrix: (Units=1/GPa)
#
#
# Indices 1 2 3 4 5 6 
#
# 1 0.025013 -0.003432 -0.004820 -0.003814 -0.005985 0.000111
# 2 -0.003432 0.010400 -0.003354 0.000313 0.000003 -0.003891
# 3 -0.004820 -0.003354 0.013010 0.000978 -0.002606 0.000580
# 4 -0.003814 0.000313 0.000978 0.021750 0.000720 -0.002820
# 5 -0.005985 0.000003 -0.002606 0.000720 0.028073 -0.003023
# 6 0.000111 -0.003891 0.000580 -0.002820 -0.003023 0.037954
#
#
# Mechanical properties :
#
#
# Convention : Reuss Voigt Hill
#
# Bulk Modulus (GPa) = 39.66802 54.14167 46.90485
# Shear Modulus (GPa) = 29.79464 35.24870 32.52167
#
# Velocity S-wave (km/s) = 3.71934 4.04546 3.88582
# Velocity P-wave (km/s) = 6.07143 6.85264 6.47383
#
# Compressibility (1/GPa) = 0.02520922
#
# Stress axis : x y z
#
# Youngs Moduli (GPa) = 39.97920 96.15776 76.86540
#
# Poissons Ratio (x) = 0.33000 0.37052
# Poissons Ratio (y) = 0.13720 0.25783
# Poissons Ratio (z) = 0.19272 0.32254
#
# Static dielectric constant tensor:
#      x y z
#    x 3.750550 0.014060 0.030140 
#    y 0.014060 3.964910 -0.328860 
#    z 0.030140 -0.328860 4.422630 
# 
# 
# High freq. dielectric constant tensor:
#      x y z
#    x 1.824050 0.003530 0.003680 
#    y 0.003530 1.850840 -0.007360 
#    z 0.003680 -0.007360 1.856060 
# 
# From -- ./inp_files/180022.got.cif
#   From: 2010.06.25/outbox.cif.g09.slc.cpg/sg2_91_cif.got.tgz:180022.got - 2010.06.27 13:26:56.
