data_PCOD8040969
_publ_section_title
;
Structure prediction by ZEFSAII (Michael W. Deem and Ramdas Pophale) SiO2 
 PCOD8040969
Probable space group: P -1
;
_chemical_formula_sum "Si O2"
_cell_formula_units_Z 16
_cell_length_a 10.938553
_cell_length_b 16.033801
_cell_length_c 9.400066
_cell_angle_alpha 52.461530
_cell_angle_beta 62.853925
_cell_angle_gamma 105.635032
_cell_volume 733.799183
_symmetry_space_group_name_H-M "P -1"
_symmetry_group_IT_number 2
_symmetry_cell_setting 'triclinic'
loop_
_space_group_symop_operation_xyz
x,y,z
-x,-y,-z
loop_
_atom_site_type_symbol
_atom_site_label
_atom_site_fract_x
_atom_site_fract_y
_atom_site_fract_z
Si Si1 0.488733 0.710892 0.580968
Si Si2 0.091883 0.370552 0.787526
Si Si3 0.160093 0.346967 0.253425
Si Si4 0.643726 0.156165 0.360969
Si Si5 0.324200 0.940375 0.259642
Si Si6 0.299351 0.340708 0.924137
Si Si7 0.743211 0.669597 0.475965
Si Si8 0.491472 0.260019 0.787659
O O1 0.479899 0.806378 0.589672
O O2 0.719086 0.781839 0.398826
O O3 0.469703 0.740127 0.399149
O O4 0.283150 0.516634 0.935176
O O5 0.157737 0.345856 0.918403
O O6 0.055460 0.262940 0.788739
O O7 0.278320 0.567407 0.444109
O O8 0.873612 0.306614 0.001101
O O9 0.270297 0.394216 0.298200
O O10 0.903032 0.210557 0.546570
O O11 0.196092 0.266526 0.214408
O O12 0.687020 0.126288 0.517776
O O13 0.500000 0.000000 0.500000
O O14 0.500000 0.000000 0.000000
O O15 0.392766 0.101160 0.085561
O O16 0.546418 0.527677 0.618403
O O17 0.305712 0.238143 0.936024
#
# Coordination Sequence:
#
# PCOD8040969 Si02
#       8
#     2   2   2   2   2   2   2   2
#     4  11  21  44  72  95 130 182 219 267 336 399
#     4  11  21  43  72  96 130 178 222 267 329 401
#     4  11  24  41  70 101 134 172 220 278 329 388
#     4  12  29  47  65  97 137 175 222 277 330 398
#     4  12  27  43  62  98 139 171 222 277 322 392
#     4  10  18  40  69 100 127 168 225 273 318 398
#     4  10  21  40  71 105 130 162 229 281 317 389
#     4  11  21  39  73  98 128 178 221 268 331 392
#
# _framework density 21.80433
#
# number of rings (size 3 to 8) (size 9 to 14) (size 15 to 20)
#    0.000    1.000    6.250    2.250    3.500    4.500 
#    2.250    2.500    0.000    0.000    0.000    0.000 
#    0.000    0.000    0.000    0.000    0.000    0.000 
#
# Total GULP energy -198255.180457 kJ/mol
# GULP energy per Si atom -12390.948779 kJ/mol
# Density = 2.175470 g / cm^3
# Si number density = 21.804330 Si / 1000 Ang^3
#
#
#
# Elastic Constant Matrix: (Units=GPa)
#
#
# Indices 1 2 3 4 5 6 
#
# 1 51.8544 37.8864 11.7878 3.0996 6.3907 -14.6631
# 2 37.8864 128.5461 28.3815 20.4815 -5.1861 -25.2725
# 3 11.7878 28.3815 71.2655 9.3414 0.1696 -11.4575
# 4 3.0996 20.4815 9.3414 39.2772 -4.5365 -1.7653
# 5 6.3907 -5.1861 0.1696 -4.5365 27.3974 4.0434
# 6 -14.6631 -25.2725 -11.4575 -1.7653 4.0434 37.8060
#
#
#
# Elastic Compliance Matrix: (Units=1/GPa)
#
#
# Indices 1 2 3 4 5 6 
#
# 1 0.027565 -0.007165 -0.000755 0.001047 -0.008588 0.006640
# 2 -0.007165 0.012063 -0.002356 -0.004682 0.002593 0.004075
# 3 -0.000755 -0.002356 0.015903 -0.002502 -0.001220 0.002965
# 4 0.001047 -0.004682 -0.002502 0.028763 0.004027 -0.002569
# 5 -0.008588 0.002593 -0.001220 0.004027 0.040571 -0.006118
# 6 0.006640 0.004075 0.002965 -0.002569 -0.006118 0.033183
#
#
# Mechanical properties :
#
#
# Convention : Reuss Voigt Hill
#
# Bulk Modulus (GPa) = 28.59004 45.30861 36.94932
# Shear Modulus (GPa) = 26.27961 32.47014 29.37488
#
# Velocity S-wave (km/s) = 3.47543 3.86315 3.67441
# Velocity P-wave (km/s) = 5.40790 6.38148 5.91476
#
# Compressibility (1/GPa) = 0.03497722
#
# Stress axis : x y z
#
# Youngs Moduli (GPa) = 36.27777 82.89710 62.88171
#
# Poissons Ratio (x) = 0.59400 0.04749
# Poissons Ratio (y) = 0.25995 0.14817
# Poissons Ratio (z) = 0.02740 0.19533
#
# Static dielectric constant tensor:
#      x y z
#    x 4.400360 1.410180 -0.180460 
#    y 1.410180 17.095280 -1.239540 
#    z -0.180460 -1.239540 4.475490 
# 
# 
# High freq. dielectric constant tensor:
#      x y z
#    x 1.843790 -0.012310 -0.006260 
#    y -0.012310 1.865080 0.031010 
#    z -0.006260 0.031010 1.843890 
# 
# From -- ./inp_files/272123.got.cif
#   From: 2010.06.25/outbox.cif.g09.slc.cpg/sg2_137_cif.got.tgz:272123.got - 2010.06.27 13:26:56.
