data_PCOD8040053
_publ_section_title
;
Structure prediction by ZEFSAII (Michael W. Deem and Ramdas Pophale) SiO2 
 PCOD8040053
Probable space group: P -1
;
_chemical_formula_sum "Si O2"
_cell_formula_units_Z 16
_cell_length_a 11.584283
_cell_length_b 11.769863
_cell_length_c 14.070717
_cell_angle_alpha 57.701468
_cell_angle_beta 88.955745
_cell_angle_gamma 136.350565
_cell_volume 805.996169
_symmetry_space_group_name_H-M "P -1"
_symmetry_group_IT_number 2
_symmetry_cell_setting 'triclinic'
loop_
_space_group_symop_operation_xyz
x,y,z
-x,-y,-z
loop_
_atom_site_type_symbol
_atom_site_label
_atom_site_fract_x
_atom_site_fract_y
_atom_site_fract_z
Si Si1 0.998887 0.940250 0.313008
Si Si2 0.208981 0.870876 0.909896
Si Si3 0.769341 0.928722 0.444805
Si Si4 0.483944 0.008301 0.385416
Si Si5 0.583487 0.755423 0.730578
Si Si6 0.388853 0.662916 0.433375
Si Si7 0.962053 0.377198 0.171591
Si Si8 0.050675 0.141074 0.026408
O O1 0.916415 0.952734 0.393812
O O2 0.843980 0.649897 0.447901
O O3 0.263509 0.164046 0.228005
O O4 0.977327 0.989011 0.190301
O O5 0.036947 0.693259 0.900087
O O6 0.113427 0.893913 0.967108
O O7 0.475602 0.165006 0.743884
O O8 0.185006 0.700195 0.039762
O O9 0.668490 0.791525 0.610190
O O10 0.556169 0.740127 0.461115
O O11 0.935486 0.230307 0.314624
O O12 0.380414 0.048841 0.346284
O O13 0.741341 0.254110 0.229750
O O14 0.500000 0.000000 0.500000
O O15 0.323010 0.732226 0.461096
O O16 0.318732 0.450158 0.887638
O O17 0.000000 0.000000 0.000000
#
# Coordination Sequence:
#
# PCOD8040053 Si02
#       8
#     2   2   2   2   2   2   2   2
#     4  12  25  41  57  89 132 161 196 248 309 369
#     4   9  18  34  59  90 108 148 204 256 279 344
#     4  10  20  39  64  88 116 167 205 242 290 376
#     4  10  18  35  62  89 114 150 206 249 290 360
#     4  12  24  39  62  93 124 158 195 257 314 350
#     4  10  21  36  65  85 116 162 211 241 293 351
#     4   9  16  32  62  89 107 146 210 245 288 335
#     4  12  25  39  62  89 123 159 203 252 299 362
#
# _framework density 19.851212
#
# number of rings (size 3 to 8) (size 9 to 14) (size 15 to 20)
#    0.000    1.750    6.250    1.875    1.750    0.500 
#    0.000    0.000    0.000    0.750    0.000    0.000 
#    0.000    0.000    0.000    0.000    0.000    0.000 
#
# Total GULP energy -198347.829381 kJ/mol
# GULP energy per Si atom -12396.739336 kJ/mol
# Density = 1.980603 g / cm^3
# Si number density = 19.851212 Si / 1000 Ang^3
#
#
#
# Elastic Constant Matrix: (Units=GPa)
#
#
# Indices 1 2 3 4 5 6 
#
# 1 78.3530 36.8080 8.0173 -2.6549 -12.0669 -26.3842
# 2 36.8080 61.8062 35.3917 -7.4688 -7.3635 -22.9313
# 3 8.0173 35.3917 107.4033 -10.7848 0.5041 -18.6374
# 4 -2.6549 -7.4688 -10.7848 29.2813 -9.0139 -3.2079
# 5 -12.0669 -7.3635 0.5041 -9.0139 23.6470 3.4857
# 6 -26.3842 -22.9313 -18.6374 -3.2079 3.4857 32.8370
#
#
#
# Elastic Compliance Matrix: (Units=1/GPa)
#
#
# Indices 1 2 3 4 5 6 
#
# 1 0.022890 -0.009145 0.004256 0.005554 0.008791 0.014030
# 2 -0.009145 0.031315 -0.007054 0.007761 0.006636 0.010571
# 3 0.004256 -0.007054 0.012785 0.004074 0.000355 0.006110
# 4 0.005554 0.007761 0.004074 0.046061 0.020583 0.014510
# 5 0.008791 0.006636 0.000355 0.020583 0.055497 0.008019
# 6 0.014030 0.010571 0.006110 0.014510 0.008019 0.053144
#
#
# Mechanical properties :
#
#
# Convention : Reuss Voigt Hill
#
# Bulk Modulus (GPa) = 23.19921 45.33293 34.26607
# Shear Modulus (GPa) = 19.23475 28.30944 23.77209
#
# Velocity S-wave (km/s) = 3.11617 3.78045 3.46426
# Velocity P-wave (km/s) = 4.96581 6.47624 5.77065
#
# Compressibility (1/GPa) = 0.04310491
#
# Stress axis : x y z
#
# Youngs Moduli (GPa) = 43.68765 31.93311 78.21549
#
# Poissons Ratio (x) = 0.29202 -0.33287
# Poissons Ratio (y) = 0.39951 0.55172
# Poissons Ratio (z) = -0.18593 0.22525
#
# Static dielectric constant tensor:
#      x y z
#    x 3.803180 -0.507950 0.000310 
#    y -0.507950 3.382020 0.047040 
#    z 0.000310 0.047040 3.942280 
# 
# 
# High freq. dielectric constant tensor:
#      x y z
#    x 1.763800 -0.039490 0.002800 
#    y -0.039490 1.739920 0.002100 
#    z 0.002800 0.002100 1.791050 
# 
# From -- ./inp_files/517783.got.cif
#   From: 2010.06.25/outbox.cif.g09.slc.cpg/sg2_259_cif.got.tgz:517783.got - 2010.06.27 13:26:56.
