data_PCOD8040507
_publ_section_title
;
Structure prediction by ZEFSAII (Michael W. Deem and Ramdas Pophale) SiO2 
 PCOD8040507
Probable space group: P -1
;
_chemical_formula_sum "Si O2"
_cell_formula_units_Z 16
_cell_length_a 17.642652
_cell_length_b 12.428616
_cell_length_c 12.134308
_cell_angle_alpha 144.066590
_cell_angle_beta 147.550627
_cell_angle_gamma 47.587090
_cell_volume 837.468187
_symmetry_space_group_name_H-M "P -1"
_symmetry_group_IT_number 2
_symmetry_cell_setting 'triclinic'
loop_
_space_group_symop_operation_xyz
x,y,z
-x,-y,-z
loop_
_atom_site_type_symbol
_atom_site_label
_atom_site_fract_x
_atom_site_fract_y
_atom_site_fract_z
Si Si1 0.636139 0.567699 0.534522
Si Si2 0.689247 0.191976 0.380467
Si Si3 0.317829 0.458890 0.042117
Si Si4 0.812280 0.698179 0.656384
Si Si5 0.137510 0.756204 0.162832
Si Si6 0.159575 0.946480 0.134018
Si Si7 0.160704 0.550943 0.716096
Si Si8 0.383325 0.196603 0.086309
O O1 0.700283 0.365543 0.456341
O O2 0.468885 0.563842 0.307639
O O3 0.706485 0.671442 0.604782
O O4 0.675381 0.677416 0.784955
O O5 0.827312 0.177888 0.615681
O O6 0.553688 0.207276 0.307140
O O7 0.676053 0.009679 0.138760
O O8 0.206836 0.561299 0.067467
O O9 0.334300 0.263161 0.959863
O O10 0.256992 0.440464 0.828833
O O11 0.801021 0.517611 0.415793
O O12 0.759456 0.876697 0.672107
O O13 0.969674 0.735401 0.925737
O O14 0.210397 0.894073 0.275893
O O15 0.180551 0.770945 0.933994
O O16 0.000000 0.000000 0.000000
O O17 0.000000 0.500000 0.500000
#
# Coordination Sequence:
#
# PCOD8040507 Si02
#       8
#     2   2   2   2   2   2   2   2
#     4  11  22  40  55  83 127 143 182 235 293 334
#     4  10  20  36  61  88 107 149 198 231 274 338
#     4  10  19  37  63  82 108 153 191 236 269 336
#     4  11  24  37  57  85 120 155 173 238 293 329
#     4  10  18  37  60  84 109 144 197 233 270 335
#     4   9  19  35  56  83 108 147 191 226 269 334
#     4  11  20  36  60  85 111 145 197 233 271 331
#     4  10  20  36  62  85 109 152 192 232 279 335
#
# _framework density 19.105204000000001
#
# number of rings (size 3 to 8) (size 9 to 14) (size 15 to 20)
#    0.000    1.750    6.250    0.750    1.750    2.000 
#    0.000    3.125    0.000    0.000    0.000    0.000 
#    0.000    0.000    0.000    0.000    0.000    0.000 
#
# Total GULP energy -198341.087918 kJ/mol
# GULP energy per Si atom -12396.317995 kJ/mol
# Density = 1.906172 g / cm^3
# Si number density = 19.105204 Si / 1000 Ang^3
#
#
#
# Elastic Constant Matrix: (Units=GPa)
#
#
# Indices 1 2 3 4 5 6 
#
# 1 70.7721 21.6431 22.9371 9.8404 -1.6494 8.0669
# 2 21.6431 95.0498 29.5213 11.4479 -3.6496 5.7665
# 3 22.9371 29.5213 60.8050 -3.1954 -12.3542 4.7099
# 4 9.8404 11.4479 -3.1954 37.8361 4.6969 0.0919
# 5 -1.6494 -3.6496 -12.3542 4.6969 20.0466 0.9863
# 6 8.0669 5.7665 4.7099 0.0919 0.9863 22.7306
#
#
#
# Elastic Compliance Matrix: (Units=1/GPa)
#
#
# Indices 1 2 3 4 5 6 
#
# 1 0.017656 -0.001333 -0.006161 -0.004537 -0.001299 -0.004577
# 2 -0.001333 0.013311 -0.006139 -0.004143 -0.000421 -0.001597
# 3 -0.006161 -0.006139 0.024704 0.003966 0.012766 -0.001945
# 4 -0.004537 -0.004143 0.003966 0.029912 -0.005789 0.001970
# 5 -0.001299 -0.000421 0.012766 -0.005789 0.059151 -0.004621
# 6 -0.004577 -0.001597 -0.001945 0.001970 -0.004621 0.046618
#
#
# Mechanical properties :
#
#
# Convention : Reuss Voigt Hill
#
# Bulk Modulus (GPa) = 35.20543 41.64775 38.42659
# Shear Modulus (GPa) = 21.92145 26.29103 24.10624
#
# Velocity S-wave (km/s) = 3.39101 3.71363 3.55598
# Velocity P-wave (km/s) = 5.81370 6.34307 6.08415
#
# Compressibility (1/GPa) = 0.02840471
#
# Stress axis : x y z
#
# Youngs Moduli (GPa) = 56.63655 75.12718 40.47977
#
# Poissons Ratio (x) = 0.10012 0.24940
# Poissons Ratio (y) = 0.07547 0.24852
# Poissons Ratio (z) = 0.34895 0.46123
#
# Static dielectric constant tensor:
#      x y z
#    x 3.460920 -0.093160 -0.164230 
#    y -0.093160 4.063990 0.030430 
#    z -0.164230 0.030430 3.571570 
# 
# 
# High freq. dielectric constant tensor:
#      x y z
#    x 1.710070 0.002740 -0.015260 
#    y 0.002740 1.757440 -0.003030 
#    z -0.015260 -0.003030 1.734290 
# 
# From -- ./inp_files/260969.got.cif
#   From: 2010.06.25/outbox.cif.g09.slc.cpg/sg2_131_cif.got.tgz:260969.got - 2010.06.27 13:26:56.
