data_PCOD8040594
_publ_section_title
;
Structure prediction by ZEFSAII (Michael W. Deem and Ramdas Pophale) SiO2 
 PCOD8040594
Probable space group: P -1
;
_chemical_formula_sum "Si O2"
_cell_formula_units_Z 14
_cell_length_a 25.203807
_cell_length_b 7.867946
_cell_length_c 10.931088
_cell_angle_alpha 132.733087
_cell_angle_beta 157.346503
_cell_angle_gamma 40.139339
_cell_volume 535.038424
_symmetry_space_group_name_H-M "P -1"
_symmetry_group_IT_number 2
_symmetry_cell_setting 'triclinic'
loop_
_space_group_symop_operation_xyz
x,y,z
-x,-y,-z
loop_
_atom_site_type_symbol
_atom_site_label
_atom_site_fract_x
_atom_site_fract_y
_atom_site_fract_z
Si Si1 0.393536 0.640601 0.718510
Si Si2 0.247163 0.155487 0.485396
Si Si3 0.956948 0.893127 0.478740
Si Si4 0.273082 0.472868 0.896283
Si Si5 0.057364 0.831367 0.163130
Si Si6 0.622651 0.154531 0.806381
Si Si7 0.525052 0.948766 0.287731
O O1 0.243662 0.620664 0.446296
O O2 0.497651 0.366166 0.736951
O O3 0.326885 0.888376 0.605359
O O4 0.488591 0.705811 0.060909
O O5 0.284999 0.372031 0.732379
O O6 0.325332 0.084297 0.484917
O O7 0.057699 0.296360 0.135404
O O8 0.973483 0.005149 0.698269
O O9 0.778277 0.946744 0.111657
O O10 0.000000 0.000000 0.500000
O O11 0.094457 0.586144 0.623204
O O12 0.332977 0.688759 0.125967
O O13 0.373044 0.228079 0.075598
O O14 0.000000 0.000000 0.000000
O O15 0.557253 0.976661 0.512905
#
# Coordination Sequence:
#
# PCOD8040594 Si02
#       7
#     2   2   2   2   2   2   2
#     4  10  21  39  59  93 128 161 216 265 313 382
#     4  10  18  37  63  96 119 167 222 261 310 370
#     4  10  23  41  60  96 131 166 213 262 321 380
#     4  10  19  36  63  94 125 161 220 273 294 380
#     4  10  23  41  64  91 132 170 209 263 323 381
#     4  11  21  37  62  91 128 168 206 268 320 373
#     4  11  20  36  68  94 120 170 222 259 313 373
#
# _framework density 26.166343000000001
#
# number of rings (size 3 to 8) (size 9 to 14) (size 15 to 20)
#    0.000    1.714    2.857    3.000    4.000    0.571 
#    5.143    5.000    0.000    0.000    0.000    0.000 
#    0.000    0.000    0.000    0.000    0.000    0.000 
#
# Total GULP energy -173532.164257 kJ/mol
# GULP energy per Si atom -12395.154590 kJ/mol
# Density = 2.610679 g / cm^3
# Si number density = 26.166343 Si / 1000 Ang^3
#
#
#
# Elastic Constant Matrix: (Units=GPa)
#
#
# Indices 1 2 3 4 5 6 
#
# 1 117.3928 54.2691 61.4398 4.8351 -11.4187 -34.6608
# 2 54.2691 127.9671 72.0725 5.9308 19.0381 -16.9265
# 3 61.4398 72.0725 187.3155 2.7744 11.6792 -18.6817
# 4 4.8351 5.9308 2.7744 50.2132 -24.4378 7.2330
# 5 -11.4187 19.0381 11.6792 -24.4378 36.4530 4.7774
# 6 -34.6608 -16.9265 -18.6817 7.2330 4.7774 50.3038
#
#
#
# Elastic Compliance Matrix: (Units=1/GPa)
#
#
# Indices 1 2 3 4 5 6 
#
# 1 0.015360 -0.005768 -0.002907 0.003503 0.010307 0.006080
# 2 -0.005768 0.014557 -0.002395 -0.008598 -0.014756 0.002672
# 3 -0.002907 -0.002395 0.007470 -0.001401 -0.003052 0.000457
# 4 0.003503 -0.008598 -0.001401 0.037995 0.032763 -0.009574
# 5 0.010307 -0.014756 -0.003052 0.032763 0.062575 -0.009651
# 6 0.006080 0.002672 0.000457 -0.009574 -0.009651 0.027431
#
#
# Mechanical properties :
#
#
# Convention : Reuss Voigt Hill
#
# Bulk Modulus (GPa) = 65.58775 89.80423 77.69599
# Shear Modulus (GPa) = 25.95920 43.72028 34.83974
#
# Velocity S-wave (km/s) = 3.15315 4.09205 3.65289
# Velocity P-wave (km/s) = 6.19489 7.53137 6.89558
#
# Compressibility (1/GPa) = 0.01524675
#
# Stress axis : x y z
#
# Youngs Moduli (GPa) = 65.10511 68.69563 133.86553
#
# Poissons Ratio (x) = 0.39625 0.38911
# Poissons Ratio (y) = 0.37554 0.32062
# Poissons Ratio (z) = 0.18924 0.16453
#
# Static dielectric constant tensor:
#      x y z
#    x 5.367540 -0.444950 -0.621710 
#    y -0.444950 5.050450 0.158080 
#    z -0.621710 0.158080 6.654740 
# 
# 
# High freq. dielectric constant tensor:
#      x y z
#    x 2.068660 -0.012340 -0.002330 
#    y -0.012340 2.049220 -0.010750 
#    z -0.002330 -0.010750 2.068980 
# 
# From -- ./inp_files/221845.got.cif
#   From: 2010.06.25/outbox.cif.g09.slc.cpg/sg2_111_cif.got.tgz:221845.got - 2010.06.27 13:26:56.
