data_PCOD8040155
_publ_section_title
;
Structure prediction by ZEFSAII (Michael W. Deem and Ramdas Pophale) SiO2 
 PCOD8040155
Probable space group: P -1
;
_chemical_formula_sum "Si O2"
_cell_formula_units_Z 16
_cell_length_a 18.444027
_cell_length_b 18.414077
_cell_length_c 11.812914
_cell_angle_alpha 130.343117
_cell_angle_beta 39.977073
_cell_angle_gamma 157.874645
_cell_volume 937.877848
_symmetry_space_group_name_H-M "P -1"
_symmetry_group_IT_number 2
_symmetry_cell_setting 'triclinic'
loop_
_space_group_symop_operation_xyz
x,y,z
-x,-y,-z
loop_
_atom_site_type_symbol
_atom_site_label
_atom_site_fract_x
_atom_site_fract_y
_atom_site_fract_z
Si Si1 0.197123 0.497620 0.070557
Si Si2 0.095869 0.696101 0.978584
Si Si3 0.401610 0.516796 0.015097
Si Si4 0.314230 0.594009 0.380370
Si Si5 0.010862 0.600294 0.233666
Si Si6 0.391077 0.839497 0.191639
Si Si7 0.265857 0.210796 0.927076
Si Si8 0.735223 0.230750 0.480815
O O1 0.341086 0.513949 0.961583
O O2 0.391274 0.725406 0.066939
O O3 0.107261 0.406692 0.959521
O O4 0.964849 0.353702 0.275357
O O5 0.102233 0.588127 0.837046
O O6 0.346054 0.925798 0.876155
O O7 0.037006 0.673281 0.156654
O O8 0.241297 0.458495 0.238677
O O9 0.675115 0.732053 0.950156
O O10 0.346506 0.365196 0.921108
O O11 0.584988 0.771194 0.274480
O O12 0.293237 0.682295 0.439818
O O13 0.159569 0.466234 0.548818
O O14 0.267146 0.788391 0.176008
O O15 0.236044 0.751056 0.399037
O O16 0.000000 0.000000 0.000000
O O17 0.500000 0.000000 0.500000
#
# Coordination Sequence:
#
# PCOD8040155 Si02
#       8
#     2   2   2   2   2   2   2   2
#     4  11  20  32  51  75 112 136 166 219 258 321
#     4  10  21  33  48  75 108 149 178 206 248 308
#     4   9  20  34  53  77 101 135 169 214 276 304
#     4  10  18  36  52  78 108 140 170 215 263 314
#     4  10  20  35  49  71 110 145 182 209 244 312
#     4  11  18  32  48  72 107 143 173 206 256 308
#     4   9  20  36  53  77 103 132 175 219 268 316
#     4  12  20  30  50  86 112 137 172 206 271 325
#
# _framework density 17.059791000000001
#
# number of rings (size 3 to 8) (size 9 to 14) (size 15 to 20)
#    0.750    1.000    5.000    1.500    1.750    1.000 
#    2.250    0.000    0.000    0.750    0.000    1.750 
#    0.000    0.000    0.000    0.000    0.000    0.000 
#
# Total GULP energy -198209.747558 kJ/mol
# GULP energy per Si atom -12388.109222 kJ/mol
# Density = 1.702096 g / cm^3
# Si number density = 17.059791 Si / 1000 Ang^3
#
#
#
# Elastic Constant Matrix: (Units=GPa)
#
#
# Indices 1 2 3 4 5 6 
#
# 1 134.3302 32.2942 21.5638 -2.8213 10.6412 16.5342
# 2 32.2942 83.0240 2.3400 -8.7707 -1.5519 12.5728
# 3 21.5638 2.3400 30.8028 -1.4254 14.9248 -1.6041
# 4 -2.8213 -8.7707 -1.4254 18.1995 4.8298 1.8839
# 5 10.6412 -1.5519 14.9248 4.8298 30.3284 1.5329
# 6 16.5342 12.5728 -1.6041 1.8839 1.5329 21.2904
#
#
#
# Elastic Compliance Matrix: (Units=1/GPa)
#
#
# Indices 1 2 3 4 5 6 
#
# 1 0.010088 -0.002632 -0.007303 0.000380 0.000207 -0.006878
# 2 -0.002632 0.014993 0.000297 0.007420 0.000742 -0.007497
# 3 -0.007303 0.000297 0.050033 0.008202 -0.023869 0.010258
# 4 0.000380 0.007420 0.008202 0.063708 -0.013495 -0.008725
# 5 0.000207 0.000742 -0.023869 -0.013495 0.047065 -0.004591
# 6 -0.006878 -0.007497 0.010258 -0.008725 -0.004591 0.058614
#
#
# Mechanical properties :
#
#
# Convention : Reuss Voigt Hill
#
# Bulk Modulus (GPa) = 17.90873 40.06145 28.98509
# Shear Modulus (GPa) = 17.70598 26.76094 22.23346
#
# Velocity S-wave (km/s) = 3.22511 3.96492 3.61400
# Velocity P-wave (km/s) = 4.93851 6.67044 5.86871
#
# Compressibility (1/GPa) = 0.05583868
#
# Stress axis : x y z
#
# Youngs Moduli (GPa) = 99.13023 66.69617 19.98668
#
# Poissons Ratio (x) = 0.17557 0.14596
# Poissons Ratio (y) = 0.26095 -0.00594
# Poissons Ratio (z) = 0.72393 -0.01983
#
# Static dielectric constant tensor:
#      x y z
#    x 3.460410 0.162050 0.122880 
#    y 0.162050 3.025270 0.020380 
#    z 0.122880 0.020380 2.942780 
# 
# 
# High freq. dielectric constant tensor:
#      x y z
#    x 1.666810 0.013150 0.007320 
#    y 0.013150 1.661550 0.004410 
#    z 0.007320 0.004410 1.612070 
# 
# From -- ./inp_files/472590.got.cif
#   From: 2010.06.25/outbox.cif.g09.slc.cpg/sg2_237_cif.got.tgz:472590.got - 2010.06.27 13:26:56.
