data_PCOD8040879
_publ_section_title
;
Structure prediction by ZEFSAII (Michael W. Deem and Ramdas Pophale) SiO2 
 PCOD8040879
Probable space group: P -1
;
_chemical_formula_sum "Si O2"
_cell_formula_units_Z 16
_cell_length_a 11.333757
_cell_length_b 8.752817
_cell_length_c 11.848153
_cell_angle_alpha 115.880296
_cell_angle_beta 129.097460
_cell_angle_gamma 56.915778
_cell_volume 756.549737
_symmetry_space_group_name_H-M "P -1"
_symmetry_group_IT_number 2
_symmetry_cell_setting 'triclinic'
loop_
_space_group_symop_operation_xyz
x,y,z
-x,-y,-z
loop_
_atom_site_type_symbol
_atom_site_label
_atom_site_fract_x
_atom_site_fract_y
_atom_site_fract_z
Si Si1 0.267543 0.796824 0.684784
Si Si2 0.180014 0.147511 0.330408
Si Si3 0.240561 0.129281 0.611562
Si Si4 0.121843 0.938614 0.879919
Si Si5 0.608720 0.029628 0.806688
Si Si6 0.413235 0.188687 0.076158
Si Si7 0.081783 0.575650 0.396971
Si Si8 0.944386 0.664521 0.105126
O O1 0.462026 0.706507 0.806439
O O2 0.221319 0.644731 0.545708
O O3 0.231480 0.977174 0.644345
O O4 0.161883 0.855634 0.752738
O O5 0.222059 0.060165 0.452372
O O6 0.332538 0.037236 0.305687
O O7 0.148607 0.360377 0.390717
O O8 0.018091 0.124257 0.174352
O O9 0.091677 0.322580 0.610547
O O10 0.413445 0.158602 0.732197
O O11 0.050546 0.159129 0.899575
O O12 0.282640 0.867017 0.036132
O O13 0.633215 0.849258 0.837460
O O14 0.239619 0.305234 0.949181
O O15 0.500000 0.000000 0.000000
O O16 0.066484 0.614763 0.267700
O O17 0.000000 0.500000 0.000000
#
# Coordination Sequence:
#
# PCOD8040879 Si02
#       8
#     2   2   2   2   2   2   2   2
#     4  11  21  39  69  94 113 161 217 257 294 358
#     4  12  25  41  59  89 134 166 195 247 315 372
#     4  11  22  40  64  90 118 163 208 248 304 362
#     4  11  21  41  66  88 122 163 209 247 308 365
#     4  10  22  39  63  90 120 162 204 251 310 366
#     4  10  18  39  66  93 119 159 208 257 301 358
#     4  12  23  39  62  95 123 160 210 255 301 361
#     4  11  22  39  65  96 124 155 206 263 306 357
#
# _framework density 21.148643
#
# number of rings (size 3 to 8) (size 9 to 14) (size 15 to 20)
#    0.000    1.000    5.000    4.500    0.000    0.000 
#    0.000   10.000    0.000    0.000    0.000    0.000 
#    0.000    0.000    0.000    0.000    0.000    0.000 
#
# Total GULP energy -198391.196667 kJ/mol
# GULP energy per Si atom -12399.449792 kJ/mol
# Density = 2.110051 g / cm^3
# Si number density = 21.148643 Si / 1000 Ang^3
#
#
#
# Elastic Constant Matrix: (Units=GPa)
#
#
# Indices 1 2 3 4 5 6 
#
# 1 96.3436 21.5101 38.3523 14.5317 11.3001 -12.6764
# 2 21.5101 58.2444 31.7187 17.0309 12.3880 -5.7018
# 3 38.3523 31.7187 132.1344 20.2168 19.7189 -3.8581
# 4 14.5317 17.0309 20.2168 28.7521 0.2135 -2.7105
# 5 11.3001 12.3880 19.7189 0.2135 56.4305 3.6242
# 6 -12.6764 -5.7018 -3.8581 -2.7105 3.6242 19.1105
#
#
#
# Elastic Compliance Matrix: (Units=1/GPa)
#
#
# Indices 1 2 3 4 5 6 
#
# 1 0.013494 -0.001397 -0.002521 -0.003459 -0.002010 0.007916
# 2 -0.001397 0.023803 -0.002873 -0.010885 -0.004212 0.004850
# 3 -0.002521 -0.002873 0.009930 -0.004052 -0.002276 -0.000668
# 4 -0.003459 -0.010885 -0.004052 0.045726 0.004370 -0.000703
# 5 -0.002010 -0.004212 -0.002276 0.004370 0.020229 -0.006266
# 6 0.007916 0.004850 -0.000668 -0.000703 -0.006266 0.059979
#
#
# Mechanical properties :
#
#
# Convention : Reuss Voigt Hill
#
# Bulk Modulus (GPa) = 29.72208 52.20940 40.96574
# Shear Modulus (GPa) = 25.25807 33.86804 29.56306
#
# Velocity S-wave (km/s) = 3.45963 4.00613 3.74287
# Velocity P-wave (km/s) = 5.48116 6.79258 6.17180
#
# Compressibility (1/GPa) = 0.03364502
#
# Stress axis : x y z
#
# Youngs Moduli (GPa) = 74.10772 42.01185 100.70942
#
# Poissons Ratio (x) = 0.05868 0.25390
# Poissons Ratio (y) = 0.10351 0.28932
# Poissons Ratio (z) = 0.18683 0.12069
#
# Static dielectric constant tensor:
#      x y z
#    x 3.926080 -0.091950 0.110440 
#    y -0.091950 3.415590 -0.167070 
#    z 0.110440 -0.167070 4.292630 
# 
# 
# High freq. dielectric constant tensor:
#      x y z
#    x 1.836480 -0.012550 0.001030 
#    y -0.012550 1.782820 -0.003490 
#    z 0.001030 -0.003490 1.855650 
# 
# From -- ./inp_files/257129.got.cif
#   From: 2010.06.25/outbox.cif.g09.slc.cpg/sg2_129_cif.got.tgz:257129.got - 2010.06.27 13:26:56.
