data_PCOD8040428
_publ_section_title
;
Structure prediction by ZEFSAII (Michael W. Deem and Ramdas Pophale) SiO2 
 PCOD8040428
Probable space group: P -1
;
_chemical_formula_sum "Si O2"
_cell_formula_units_Z 16
_cell_length_a 20.234382
_cell_length_b 25.569842
_cell_length_c 8.616290
_cell_angle_alpha 145.796741
_cell_angle_beta 34.918105
_cell_angle_gamma 161.897071
_cell_volume 763.894493
_symmetry_space_group_name_H-M "P -1"
_symmetry_group_IT_number 2
_symmetry_cell_setting 'triclinic'
loop_
_space_group_symop_operation_xyz
x,y,z
-x,-y,-z
loop_
_atom_site_type_symbol
_atom_site_label
_atom_site_fract_x
_atom_site_fract_y
_atom_site_fract_z
Si Si1 0.564040 0.899763 0.506394
Si Si2 0.432329 0.655360 0.391520
Si Si3 0.787659 0.951638 0.917754
Si Si4 0.003462 0.721811 0.750320
Si Si5 0.187412 0.681394 0.492281
Si Si6 0.891867 0.876763 0.050932
Si Si7 0.001030 0.741553 0.456566
Si Si8 0.348285 0.633279 0.843686
O O1 0.449339 0.755325 0.494407
O O2 0.688936 0.924155 0.199099
O O3 0.379666 0.836413 0.624296
O O4 0.762331 0.093321 0.679742
O O5 0.257749 0.464345 0.185042
O O6 0.651433 0.749020 0.224877
O O7 0.345359 0.639891 0.680747
O O8 0.592292 0.767654 0.752225
O O9 0.900876 0.110079 0.984567
O O10 0.974658 0.009483 0.765851
O O11 0.053585 0.730628 0.496087
O O12 0.112433 0.726054 0.671720
O O13 0.000000 0.500000 0.500000
O O14 0.286011 0.686921 0.176710
O O15 0.883625 0.760618 0.754405
O O16 0.000000 0.000000 0.000000
O O17 0.833720 0.566783 0.247484
#
# Coordination Sequence:
#
# PCOD8040428 Si02
#       8
#     2   2   2   2   2   2   2   2
#     4   9  18  36  61  82 115 152 197 227 288 352
#     4  11  19  36  61  89 114 153 193 243 280 341
#     4   9  20  39  59  85 118 152 193 240 283 351
#     4   9  20  36  61  84 111 154 201 234 284 351
#     4  11  21  40  62  83 114 161 195 238 296 344
#     4  10  18  36  67  84 115 161 191 223 292 358
#     4   9  20  38  59  90 119 151 192 238 288 347
#     4  10  24  38  57  87 127 141 197 252 285 329
#
# _framework density 20.945302000000002
#
# number of rings (size 3 to 8) (size 9 to 14) (size 15 to 20)
#    0.000    2.500    3.750    0.000    0.000   11.500 
#    2.250    1.250    0.000    0.000    0.000    0.000 
#    0.000    0.000    0.000    0.000    0.000    0.000 
#
# Total GULP energy -198228.856158 kJ/mol
# GULP energy per Si atom -12389.303510 kJ/mol
# Density = 2.089763 g / cm^3
# Si number density = 20.945302 Si / 1000 Ang^3
#
#
#
# Elastic Constant Matrix: (Units=GPa)
#
#
# Indices 1 2 3 4 5 6 
#
# 1 129.2626 58.8777 29.2740 3.9845 -23.3540 6.9450
# 2 58.8777 180.8561 28.4406 18.7273 -2.3822 18.2854
# 3 29.2740 28.4406 32.4977 -1.2024 -4.5405 6.3435
# 4 3.9845 18.7273 -1.2024 36.0357 3.1640 0.7575
# 5 -23.3540 -2.3822 -4.5405 3.1640 16.5986 -6.2407
# 6 6.9450 18.2854 6.3435 0.7575 -6.2407 44.7442
#
#
#
# Elastic Compliance Matrix: (Units=1/GPa)
#
#
# Indices 1 2 3 4 5 6 
#
# 1 0.014396 -0.003263 -0.008096 -0.001900 0.019038 0.002934
# 2 -0.003263 0.007805 -0.004181 -0.003338 -0.005005 -0.002732
# 3 -0.008096 -0.004181 0.042206 0.004783 -0.002662 -0.003471
# 4 -0.001900 -0.003338 0.004783 0.030562 -0.007910 -0.000640
# 5 0.019038 -0.005005 -0.002662 -0.007910 0.091755 0.012399
# 6 0.002934 -0.002732 -0.003471 -0.000640 0.012399 0.025243
#
#
# Mechanical properties :
#
#
# Convention : Reuss Voigt Hill
#
# Bulk Modulus (GPa) = 30.00505 63.97788 46.99146
# Shear Modulus (GPa) = 19.67303 34.54397 27.10850
#
# Velocity S-wave (km/s) = 3.06806 4.06550 3.60147
# Velocity P-wave (km/s) = 5.18721 7.25598 6.30699
#
# Compressibility (1/GPa) = 0.03332773
#
# Stress axis : x y z
#
# Youngs Moduli (GPa) = 69.46239 128.12541 23.69353
#
# Poissons Ratio (x) = 0.41805 0.19182
# Poissons Ratio (y) = 0.22664 0.09906
# Poissons Ratio (z) = 0.56236 0.53568
#
# Static dielectric constant tensor:
#      x y z
#    x 3.972390 0.252940 -0.009430 
#    y 0.252940 4.682940 0.103530 
#    z -0.009430 0.103530 3.319870 
# 
# 
# High freq. dielectric constant tensor:
#      x y z
#    x 1.823920 0.006890 -0.001960 
#    y 0.006890 1.853590 -0.002390 
#    z -0.001960 -0.002390 1.766190 
# 
# From -- ./inp_files/215737.got.cif
#   From: 2010.06.25/outbox.cif.g09.slc.cpg/sg2_108_cif.got.tgz:215737.got - 2010.06.27 13:26:56.
