data_PCOD8040546
_publ_section_title
;
Structure prediction by ZEFSAII (Michael W. Deem and Ramdas Pophale) SiO2 
 PCOD8040546
Probable space group: P -1
;
_chemical_formula_sum "Si O2"
_cell_formula_units_Z 16
_cell_length_a 8.386498
_cell_length_b 10.603160
_cell_length_c 14.954563
_cell_angle_alpha 45.510941
_cell_angle_beta 131.480599
_cell_angle_gamma 136.125163
_cell_volume 623.384739
_symmetry_space_group_name_H-M "P -1"
_symmetry_group_IT_number 2
_symmetry_cell_setting 'triclinic'
loop_
_space_group_symop_operation_xyz
x,y,z
-x,-y,-z
loop_
_atom_site_type_symbol
_atom_site_label
_atom_site_fract_x
_atom_site_fract_y
_atom_site_fract_z
Si Si1 0.102775 0.306274 0.092099
Si Si2 0.954966 0.664076 0.261457
Si Si3 0.478410 0.889266 0.390922
Si Si4 0.073830 0.728859 0.618928
Si Si5 0.622703 0.707556 0.390745
Si Si6 0.674434 0.732634 0.971355
Si Si7 0.791034 0.270889 0.143750
Si Si8 0.511451 0.452596 0.318779
O O1 0.154971 0.175504 0.100428
O O2 0.324245 0.401315 0.195814
O O3 0.852248 0.180138 0.120735
O O4 0.094780 0.490061 0.947671
O O5 0.010720 0.505438 0.308974
O O6 0.778508 0.535222 0.337968
O O7 0.199238 0.837409 0.311641
O O8 0.847316 0.767731 0.102929
O O9 0.552981 0.871146 0.323770
O O10 0.537876 0.739309 0.544844
O O11 0.642322 0.116322 0.377025
O O12 0.051055 0.752828 0.705591
O O13 0.912620 0.798135 0.466481
O O14 0.500000 0.500000 0.500000
O O15 0.529656 0.644372 0.286246
O O16 0.496145 0.827000 0.883668
O O17 0.500000 0.500000 0.000000
#
# Coordination Sequence:
#
# PCOD8040546 Si02
#       8
#     2   2   2   2   2   2   2   2
#     4  10  19  32  64  98 119 165 217 258 318 385
#     4  12  22  42  65  91 129 168 214 262 319 383
#     4  11  26  39  64  96 126 171 208 262 324 379
#     4  12  22  41  67  91 132 165 211 265 319 385
#     4  10  21  39  62  89 124 167 207 257 314 377
#     4  10  18  37  61  94 122 164 218 261 316 379
#     4  10  19  34  63  94 120 165 215 258 317 380
#     4  11  21  39  63  94 130 163 217 260 314 392
#
# _framework density 25.666332000000001
#
# number of rings (size 3 to 8) (size 9 to 14) (size 15 to 20)
#    0.000    1.250    7.500    2.250    0.000    0.500 
#    0.000    0.625    2.750    1.500    0.000    0.000 
#    0.000    0.000    0.000    0.000    0.000    0.000 
#
# Total GULP energy -198231.957570 kJ/mol
# GULP energy per Si atom -12389.497348 kJ/mol
# Density = 2.560791 g / cm^3
# Si number density = 25.666332 Si / 1000 Ang^3
#
#
#
# Elastic Constant Matrix: (Units=GPa)
#
#
# Indices 1 2 3 4 5 6 
#
# 1 135.1587 3.2515 -1.2505 -8.0920 -9.2175 15.7566
# 2 3.2515 87.2528 23.2310 18.9322 10.2433 13.5742
# 3 -1.2505 23.2310 72.3572 15.8755 5.9011 -4.9816
# 4 -8.0920 18.9322 15.8755 13.9783 7.1777 12.0691
# 5 -9.2175 10.2433 5.9011 7.1777 40.5889 3.6515
# 6 15.7566 13.5742 -4.9816 12.0691 3.6515 26.4445
#
#
#
# Elastic Compliance Matrix: (Units=1/GPa)
#
#
# Indices 1 2 3 4 5 6 
#
# 1 0.018243 -0.005903 -0.019941 0.085898 -0.002115 -0.050508
# 2 -0.005903 0.018287 0.007221 -0.054118 0.000758 0.020085
# 3 -0.019941 0.007221 0.053296 -0.165474 0.006815 0.092795
# 4 0.085898 -0.054118 -0.165474 0.733709 -0.037962 -0.384193
# 5 -0.002115 0.000758 0.006815 -0.037962 0.028287 0.015575
# 6 -0.050508 0.020085 0.092795 -0.384193 0.015575 0.248274
#
#
# Mechanical properties :
#
#
# Convention : Reuss Voigt Hill
#
# Bulk Modulus (GPa) = 19.01824 38.35918 28.68871
# Shear Modulus (GPa) = 4.32950 34.17144 19.25047
#
# Velocity S-wave (km/s) = 1.30019 3.65276 2.74164
# Velocity P-wave (km/s) = 3.11125 5.72433 4.60694
#
# Compressibility (1/GPa) = 0.05258109
#
# Stress axis : x y z
#
# Youngs Moduli (GPa) = 54.81572 54.68335 18.76314
#
# Poissons Ratio (x) = 0.32280 0.37415
# Poissons Ratio (y) = 0.32358 -0.13550
# Poissons Ratio (z) = 1.09307 -0.39489
#
# Static dielectric constant tensor:
#      x y z
#    x 5.651810 0.070210 -0.256910 
#    y 0.070210 4.708810 0.361950 
#    z -0.256910 0.361950 4.861880 
# 
# 
# High freq. dielectric constant tensor:
#      x y z
#    x 2.032720 0.010490 -0.003050 
#    y 0.010490 1.997960 0.007710 
#    z -0.003050 0.007710 2.024010 
# 
# From -- ./inp_files/500097.got.cif
#   From: 2010.06.25/outbox.cif.g09.slc.cpg/sg2_251_cif.got.tgz:500097.got - 2010.06.27 13:26:56.
