data_PCOD8040295
_publ_section_title
;
Structure prediction by ZEFSAII (Michael W. Deem and Ramdas Pophale) SiO2 
 PCOD8040295
Probable space group: P -1
;
_chemical_formula_sum "Si O2"
_cell_formula_units_Z 16
_cell_length_a 5.325646
_cell_length_b 21.703104
_cell_length_c 9.142864
_cell_angle_alpha 58.259369
_cell_angle_beta 69.540961
_cell_angle_gamma 50.622069
_cell_volume 694.482316
_symmetry_space_group_name_H-M "P -1"
_symmetry_group_IT_number 2
_symmetry_cell_setting 'triclinic'
loop_
_space_group_symop_operation_xyz
x,y,z
-x,-y,-z
loop_
_atom_site_type_symbol
_atom_site_label
_atom_site_fract_x
_atom_site_fract_y
_atom_site_fract_z
Si Si1 0.175740 0.173025 0.199954
Si Si2 0.834210 0.033575 0.334645
Si Si3 0.180212 0.844635 0.477146
Si Si4 0.085501 0.217540 0.625815
Si Si5 0.792548 0.908022 0.992978
Si Si6 0.750649 0.524649 0.764700
Si Si7 0.151596 0.599776 0.618617
Si Si8 0.103803 0.634981 0.903095
O O1 0.453002 0.106194 0.343302
O O2 0.312878 0.131675 0.063747
O O3 0.870238 0.171218 0.321685
O O4 0.085827 0.270918 0.098381
O O5 0.948124 0.079503 0.147830
O O6 0.000000 0.000000 0.500000
O O7 0.920042 0.944366 0.349189
O O8 0.533216 0.826064 0.417279
O O9 0.110693 0.782379 0.475847
O O10 0.919276 0.320147 0.570857
O O11 0.032629 0.166503 0.826226
O O12 0.500000 0.000000 0.000000
O O13 0.540857 0.533567 0.651608
O O14 0.494857 0.588970 0.863930
O O15 0.002214 0.550037 0.640452
O O16 0.957155 0.425197 0.905883
O O17 0.964157 0.642134 0.759209
#
# Coordination Sequence:
#
# PCOD8040295 Si02
#       8
#     2   2   2   2   2   2   2   2
#     4  12  25  43  66 101 135 176 228 284 330 402
#     4  12  26  43  67  95 131 178 228 281 337 386
#     4  12  24  44  69  93 132 176 228 276 334 388
#     4  12  25  42  71  98 133 180 222 279 329 409
#     4  12  28  45  64  95 137 185 227 277 338 395
#     4   9  19  35  63 100 130 167 205 285 329 394
#     4  10  18  36  60  95 129 164 215 261 334 389
#     4   9  20  34  62  97 130 165 218 274 334 389
#
# _framework density 23.038744000000001
#
# number of rings (size 3 to 8) (size 9 to 14) (size 15 to 20)
#    0.750    0.250    3.750    3.750    1.750    2.000 
#    0.000    0.000    0.000    1.500    0.000    0.000 
#    0.000    0.000    0.000    0.000    0.000    0.000 
#
# Total GULP energy -198287.632569 kJ/mol
# GULP energy per Si atom -12392.977036 kJ/mol
# Density = 2.298631 g / cm^3
# Si number density = 23.038744 Si / 1000 Ang^3
#
#
#
# Elastic Constant Matrix: (Units=GPa)
#
#
# Indices 1 2 3 4 5 6 
#
# 1 103.5935 10.4260 15.3402 1.2008 -8.1675 14.4191
# 2 10.4260 65.9424 9.5106 -16.0788 5.3225 4.2316
# 3 15.3402 9.5106 106.8300 -15.2833 -7.1399 -0.2921
# 4 1.2008 -16.0788 -15.2833 42.0652 3.1537 -2.0592
# 5 -8.1675 5.3225 -7.1399 3.1537 29.8625 -8.3099
# 6 14.4191 4.2316 -0.2921 -2.0592 -8.3099 18.1704
#
#
#
# Elastic Compliance Matrix: (Units=1/GPa)
#
#
# Indices 1 2 3 4 5 6 
#
# 1 0.011343 -0.001553 -0.001751 -0.002031 0.000801 -0.008531
# 2 -0.001553 0.017983 -0.000809 0.006827 -0.005907 -0.004896
# 3 -0.001751 -0.000809 0.010372 0.003471 0.002720 0.003382
# 4 -0.002031 0.006827 0.003471 0.028041 -0.003435 0.001685
# 5 0.000801 -0.005907 0.002720 -0.003435 0.041114 0.019197
# 6 -0.008531 -0.004896 0.003382 0.001685 0.019197 0.071970
#
#
# Mechanical properties :
#
#
# Convention : Reuss Voigt Hill
#
# Bulk Modulus (GPa) = 31.77626 38.54663 35.16144
# Shear Modulus (GPa) = 25.05778 34.09222 29.57500
#
# Velocity S-wave (km/s) = 3.30151 3.85096 3.58677
# Velocity P-wave (km/s) = 5.32501 6.04489 5.69634
#
# Compressibility (1/GPa) = 0.03147004
#
# Stress axis : x y z
#
# Youngs Moduli (GPa) = 88.16078 55.60901 96.41667
#
# Poissons Ratio (x) = 0.08638 0.16882
# Poissons Ratio (y) = 0.13695 0.07803
# Poissons Ratio (z) = 0.15436 0.04501
#
# Static dielectric constant tensor:
#      x y z
#    x 3.963620 0.124540 -0.058210 
#    y 0.124540 4.126820 -0.205330 
#    z -0.058210 -0.205330 4.128480 
# 
# 
# High freq. dielectric constant tensor:
#      x y z
#    x 1.901580 0.009230 -0.007870 
#    y 0.009230 1.894750 -0.031050 
#    z -0.007870 -0.031050 1.903580 
# 
# From -- ./inp_files/141240.got.cif
#   From: 2010.06.25/outbox.cif.g09.slc.cpg/sg2_71_cif.got.tgz:141240.got - 2010.06.27 13:26:56.
