data_PCOD8040189
_publ_section_title
;
Structure prediction by ZEFSAII (Michael W. Deem and Ramdas Pophale) SiO2 
 PCOD8040189
Probable space group: P -1
;
_chemical_formula_sum "Si O2"
_cell_formula_units_Z 16
_cell_length_a 9.129620
_cell_length_b 8.030668
_cell_length_c 19.977043
_cell_angle_alpha 103.821271
_cell_angle_beta 139.368228
_cell_angle_gamma 67.106339
_cell_volume 874.762962
_symmetry_space_group_name_H-M "P -1"
_symmetry_group_IT_number 2
_symmetry_cell_setting 'triclinic'
loop_
_space_group_symop_operation_xyz
x,y,z
-x,-y,-z
loop_
_atom_site_type_symbol
_atom_site_label
_atom_site_fract_x
_atom_site_fract_y
_atom_site_fract_z
Si Si1 0.391370 0.361701 0.620220
Si Si2 0.858890 0.504832 0.144024
Si Si3 0.107632 0.787485 0.276438
Si Si4 0.942020 0.255455 0.461886
Si Si5 0.107900 0.088950 0.645470
Si Si6 0.009143 0.892535 0.834370
Si Si7 0.644444 0.297705 0.961822
Si Si8 0.413433 0.855371 0.206213
O O1 0.607049 0.271910 0.635331
O O2 0.302599 0.578024 0.607588
O O3 0.475380 0.307974 0.719725
O O4 0.170925 0.297106 0.516200
O O5 0.990294 0.309621 0.208115
O O6 0.640984 0.625745 0.125508
O O7 0.031623 0.622709 0.202803
O O8 0.755863 0.459093 0.032462
O O9 0.040322 0.811044 0.332689
O O10 0.982795 0.976616 0.211860
O O11 0.983640 0.195447 0.547140
O O12 0.900542 0.112600 0.382382
O O13 0.381466 0.076115 0.746665
O O14 0.242941 0.862913 0.959685
O O15 0.774108 0.977379 0.805404
O O16 0.714475 0.219360 0.904381
#
# Coordination Sequence:
#
# PCOD8040189 Si02
#       8
#     2   2   2   2   2   2   2   2
#     4   9  21  37  58  79 113 137 185 230 275 335
#     4   9  20  36  54  80 118 147 180 230 268 317
#     4  11  21  38  56  89 107 148 186 224 271 336
#     4   9  20  41  54  82 107 143 175 236 285 321
#     4  10  21  35  60  79 111 140 186 224 280 338
#     4   9  21  35  56  80 117 149 180 230 266 316
#     4   9  18  37  54  78 117 153 178 227 271 314
#     4  10  18  36  57  81 109 151 183 224 272 322
#
# _framework density 18.290669999999999
#
# number of rings (size 3 to 8) (size 9 to 14) (size 15 to 20)
#    0.750    1.750    1.250    0.375    1.750    2.500 
#    2.250    2.500    0.000    0.000    0.000    0.000 
#    0.000    0.000    0.000    0.000    0.000    0.000 
#
# Total GULP energy -198302.134327 kJ/mol
# GULP energy per Si atom -12393.883395 kJ/mol
# Density = 1.824904 g / cm^3
# Si number density = 18.290670 Si / 1000 Ang^3
#
#
#
# Elastic Constant Matrix: (Units=GPa)
#
#
# Indices 1 2 3 4 5 6 
#
# 1 81.0247 33.2767 28.0714 5.4342 15.6286 -9.3762
# 2 33.2767 112.6332 41.9318 -9.5718 11.0460 7.4007
# 3 28.0714 41.9318 58.9492 2.7841 1.5207 -6.0638
# 4 5.4342 -9.5718 2.7841 34.1749 -4.2332 3.0529
# 5 15.6286 11.0460 1.5207 -4.2332 12.8034 -0.1296
# 6 -9.3762 7.4007 -6.0638 3.0529 -0.1296 26.5237
#
#
#
# Elastic Compliance Matrix: (Units=1/GPa)
#
#
# Indices 1 2 3 4 5 6 
#
# 1 0.022399 -0.002557 -0.006990 -0.007722 -0.026779 0.007791
# 2 -0.002557 0.015257 -0.010554 0.005397 -0.007087 -0.008230
# 3 -0.006990 -0.010554 0.028366 -0.003168 0.013296 0.007388
# 4 -0.007722 0.005397 -0.003168 0.035120 0.016667 -0.008921
# 5 -0.026779 -0.007087 0.013296 0.016667 0.120780 -0.005778
# 6 0.007791 -0.008230 0.007388 -0.008921 -0.005778 0.045440
#
#
# Mechanical properties :
#
#
# Convention : Reuss Voigt Hill
#
# Bulk Modulus (GPa) = 38.72971 51.01853 44.87412
# Shear Modulus (GPa) = 15.81420 24.65556 20.23488
#
# Velocity S-wave (km/s) = 2.94361 3.67548 3.32971
# Velocity P-wave (km/s) = 5.72483 6.77982 6.27453
#
# Compressibility (1/GPa) = 0.02581997
#
# Stress axis : x y z
#
# Youngs Moduli (GPa) = 44.64535 65.54246 35.25311
#
# Poissons Ratio (x) = 0.16759 0.24643
# Poissons Ratio (y) = 0.11416 0.37205
# Poissons Ratio (z) = 0.31209 0.69172
#
# Static dielectric constant tensor:
#      x y z
#    x 3.171350 0.006250 0.116420 
#    y 0.006250 3.467720 -0.061990 
#    z 0.116420 -0.061990 3.310980 
# 
# 
# High freq. dielectric constant tensor:
#      x y z
#    x 1.692470 -0.008050 0.008000 
#    y -0.008050 1.716180 -0.005410 
#    z 0.008000 -0.005410 1.702750 
# 
# From -- ./inp_files/312229.got.cif
#   From: 2010.06.25/outbox.cif.g09.slc.cpg/sg2_157_cif.got.tgz:312229.got - 2010.06.27 13:26:56.
