data_PCOD8040378
_publ_section_title
;
Structure prediction by ZEFSAII (Michael W. Deem and Ramdas Pophale) SiO2 
 PCOD8040378
Probable space group: P -1
;
_chemical_formula_sum "Si O2"
_cell_formula_units_Z 16
_cell_length_a 20.887775
_cell_length_b 9.155720
_cell_length_c 15.047456
_cell_angle_alpha 75.401661
_cell_angle_beta 21.114300
_cell_angle_gamma 62.216035
_cell_volume 751.256385
_symmetry_space_group_name_H-M "P -1"
_symmetry_group_IT_number 2
_symmetry_cell_setting 'triclinic'
loop_
_space_group_symop_operation_xyz
x,y,z
-x,-y,-z
loop_
_atom_site_type_symbol
_atom_site_label
_atom_site_fract_x
_atom_site_fract_y
_atom_site_fract_z
Si Si1 0.723138 0.631893 0.125195
Si Si2 0.761937 0.496255 0.897995
Si Si3 0.118271 0.353090 0.786990
Si Si4 0.586799 0.562849 0.697669
Si Si5 0.673853 0.018043 0.318329
Si Si6 0.916364 0.852718 0.855756
Si Si7 0.218432 0.959170 0.182280
Si Si8 0.723276 0.814214 0.794358
O O1 0.470600 0.758373 0.486458
O O2 0.707263 0.582148 0.054310
O O3 0.772173 0.781384 0.039736
O O4 0.933770 0.428147 0.934749
O O5 0.683226 0.664692 0.900683
O O6 0.041528 0.303758 0.552907
O O7 0.607055 0.433817 0.098217
O O8 0.330239 0.347380 0.487595
O O9 0.201248 0.139201 0.737787
O O10 0.000000 0.500000 0.000000
O O11 0.803574 0.339777 0.485639
O O12 0.454630 0.723319 0.925986
O O13 0.500000 0.000000 0.500000
O O14 0.860895 0.961392 0.007372
O O15 0.835965 0.006684 0.857740
O O16 0.250406 0.104156 0.162258
O O17 0.000000 0.000000 0.500000
O O18 0.500000 0.000000 0.000000
#
# Coordination Sequence:
#
# PCOD8040378 Si02
#       8
#     2   2   2   2   2   2   2   2
#     4  10  21  37  63  89 126 168 211 258 318 381
#     4  11  25  46  60  95 136 170 211 272 335 378
#     4  11  20  37  67  96 121 169 223 255 314 383
#     4  11  24  39  68  95 132 164 215 271 315 378
#     4  10  18  36  63  92 122 164 216 256 307 379
#     4  10  22  39  67  92 126 171 215 263 317 379
#     4  12  25  43  66  99 123 168 225 266 318 386
#     4  11  27  45  66  89 131 177 218 268 330 388
#
# _framework density 21.297657000000001
#
# number of rings (size 3 to 8) (size 9 to 14) (size 15 to 20)
#    0.000    1.250    6.250    1.500    5.250    0.500 
#    0.000    1.250    0.000    0.000    0.000    0.000 
#    0.000    0.000    0.000    0.000    0.000    0.000 
#
# Total GULP energy -198324.608390 kJ/mol
# GULP energy per Si atom -12395.288024 kJ/mol
# Density = 2.124918 g / cm^3
# Si number density = 21.297657 Si / 1000 Ang^3
#
#
#
# Elastic Constant Matrix: (Units=GPa)
#
#
# Indices 1 2 3 4 5 6 
#
# 1 83.5220 43.9076 37.5786 10.3195 19.6429 -8.2799
# 2 43.9076 75.7276 52.9198 13.9314 1.1015 -13.0198
# 3 37.5786 52.9198 132.8308 27.0759 21.1996 -1.0577
# 4 10.3195 13.9314 27.0759 35.8946 7.4661 1.8434
# 5 19.6429 1.1015 21.1996 7.4661 26.9211 9.2272
# 6 -8.2799 -13.0198 -1.0577 1.8434 9.2272 40.1682
#
#
#
# Elastic Compliance Matrix: (Units=1/GPa)
#
#
# Indices 1 2 3 4 5 6 
#
# 1 0.023627 -0.014162 0.001991 0.001159 -0.020238 0.004928
# 2 -0.014162 0.028832 -0.009381 -0.003643 0.016690 0.002512
# 3 0.001991 -0.009381 0.013347 -0.004865 -0.010340 0.000320
# 4 0.001159 -0.003643 -0.004865 0.033887 -0.005822 -0.001288
# 5 -0.020238 0.016690 -0.010340 -0.005822 0.065740 -0.013868
# 6 0.004928 0.002512 0.000320 -0.001288 -0.013868 0.029979
#
#
# Mechanical properties :
#
#
# Convention : Reuss Voigt Hill
#
# Bulk Modulus (GPa) = 44.05039 62.32135 53.18587
# Shear Modulus (GPa) = 20.31839 31.10840 25.71339
#
# Velocity S-wave (km/s) = 3.09207 3.82599 3.47844
# Velocity P-wave (km/s) = 5.78584 6.98879 6.41557
#
# Compressibility (1/GPa) = 0.02270128
#
# Stress axis : x y z
#
# Youngs Moduli (GPa) = 42.32405 34.68426 74.92345
#
# Poissons Ratio (x) = 0.49120 -0.14917
# Poissons Ratio (y) = 0.59940 0.70287
# Poissons Ratio (z) = -0.08427 0.32538
#
# Static dielectric constant tensor:
#      x y z
#    x 2.235070 0.896410 0.439020 
#    y 0.896410 3.846440 0.542790 
#    z 0.439020 0.542790 4.585010 
# 
# 
# High freq. dielectric constant tensor:
#      x y z
#    x 1.821450 -0.010950 0.018270 
#    y -0.010950 1.825170 0.023300 
#    z 0.018270 0.023300 1.850860 
# 
# From -- ./inp_files/349605.got.cif
#   From: 2010.06.25/outbox.cif.g09.slc.cpg/sg2_175_cif.got.tgz:349605.got - 2010.06.27 13:26:56.
