data_PCOD8040887
_publ_section_title
;
Structure prediction by ZEFSAII (Michael W. Deem and Ramdas Pophale) SiO2 
 PCOD8040887
Probable space group: P -1
;
_chemical_formula_sum "Si O2"
_cell_formula_units_Z 16
_cell_length_a 19.668276
_cell_length_b 9.817029
_cell_length_c 10.112569
_cell_angle_alpha 42.537947
_cell_angle_beta 138.916793
_cell_angle_gamma 127.978185
_cell_volume 859.566055
_symmetry_space_group_name_H-M "P -1"
_symmetry_group_IT_number 2
_symmetry_cell_setting 'triclinic'
loop_
_space_group_symop_operation_xyz
x,y,z
-x,-y,-z
loop_
_atom_site_type_symbol
_atom_site_label
_atom_site_fract_x
_atom_site_fract_y
_atom_site_fract_z
Si Si1 0.691257 0.937095 0.071964
Si Si2 0.720124 0.872545 0.684560
Si Si3 0.017842 0.958299 0.707892
Si Si4 0.799342 0.768214 0.596800
Si Si5 0.199255 0.275536 0.836843
Si Si6 0.185086 0.681370 0.122989
Si Si7 0.733836 0.299693 0.484297
Si Si8 0.469416 0.951956 0.640334
O O1 0.725552 0.809412 0.336654
O O2 0.718769 0.832622 0.050375
O O3 0.752410 0.165683 0.001303
O O4 0.567496 0.942003 0.887354
O O5 0.735755 0.799651 0.612284
O O6 0.779788 0.100948 0.636939
O O7 0.595733 0.870473 0.529052
O O8 0.768802 0.723868 0.963470
O O9 0.907168 0.920420 0.646310
O O10 0.083537 0.156988 0.727790
O O11 0.075246 0.757155 0.944777
O O12 0.000000 0.000000 0.500000
O O13 0.830448 0.542169 0.801267
O O14 0.204686 0.508920 0.636862
O O15 0.252314 0.678898 0.354859
O O16 0.607271 0.264214 0.304651
O O17 0.500000 0.000000 0.500000
#
# Coordination Sequence:
#
# PCOD8040887 Si02
#       8
#     2   2   2   2   2   2   2   2
#     4  11  20  38  63  89 122 157 210 251 287 368
#     4  10  24  42  57  93 130 153 200 267 300 345
#     4  11  20  40  67  90 120 162 204 246 298 370
#     4  12  25  39  62  92 129 157 199 261 309 341
#     4  11  20  39  63  90 119 159 210 246 294 375
#     4  11  20  39  65  90 116 161 208 241 296 374
#     4  10  20  39  66  89 118 159 206 245 302 362
#     4  10  18  39  67  85 121 166 203 247 302 359
#
# _framework density 18.614044
#
# number of rings (size 3 to 8) (size 9 to 14) (size 15 to 20)
#    0.750    0.500    8.750    0.375    0.000    2.500 
#    2.250    1.250    0.000    0.000    0.000    0.000 
#    0.000    0.000    0.000    0.000    0.000    0.000 
#
# Total GULP energy -198334.202488 kJ/mol
# GULP energy per Si atom -12395.887655 kJ/mol
# Density = 1.857168 g / cm^3
# Si number density = 18.614044 Si / 1000 Ang^3
#
#
#
# Elastic Constant Matrix: (Units=GPa)
#
#
# Indices 1 2 3 4 5 6 
#
# 1 90.8859 24.3942 39.5971 9.1574 -0.1238 -5.7226
# 2 24.3942 62.8656 21.2347 -10.0650 -5.2744 4.1707
# 3 39.5971 21.2347 88.1637 3.6944 -1.8092 9.7125
# 4 9.1574 -10.0650 3.6944 31.5410 9.7858 -1.0607
# 5 -0.1238 -5.2744 -1.8092 9.7858 28.7969 4.1028
# 6 -5.7226 4.1707 9.7125 -1.0607 4.1028 19.4632
#
#
#
# Elastic Compliance Matrix: (Units=1/GPa)
#
#
# Indices 1 2 3 4 5 6 
#
# 1 0.016690 -0.005667 -0.006983 -0.005207 -0.000993 0.009532
# 2 -0.005667 0.020543 -0.002152 0.007771 0.001663 -0.004921
# 3 -0.006983 -0.002152 0.016267 -0.001740 0.002666 -0.010366
# 4 -0.005207 0.007771 -0.001740 0.039902 -0.012625 0.002508
# 5 -0.000993 0.001663 0.002666 -0.012625 0.041098 -0.011331
# 6 0.009532 -0.004921 -0.010366 0.002508 -0.011331 0.062934
#
#
# Mechanical properties :
#
#
# Convention : Reuss Voigt Hill
#
# Bulk Modulus (GPa) = 41.84911 45.81858 43.83384
# Shear Modulus (GPa) = 21.27626 26.40619 23.84122
#
# Velocity S-wave (km/s) = 3.38453 3.77054 3.58274
# Velocity P-wave (km/s) = 6.14855 6.60488 6.38080
#
# Compressibility (1/GPa) = 0.02389537
#
# Stress axis : x y z
#
# Youngs Moduli (GPa) = 59.91699 48.67817 61.47435
#
# Poissons Ratio (x) = 0.27585 0.42929
# Poissons Ratio (y) = 0.33954 0.13230
# Poissons Ratio (z) = 0.41842 0.10476
#
# Static dielectric constant tensor:
#      x y z
#    x 3.288250 0.264090 0.066560 
#    y 0.264090 3.429620 -0.045460 
#    z 0.066560 -0.045460 3.542400 
# 
# 
# High freq. dielectric constant tensor:
#      x y z
#    x 1.702460 0.014370 -0.000690 
#    y 0.014370 1.709220 0.001060 
#    z -0.000690 0.001060 1.730870 
# 
# From -- ./inp_files/343356.got.cif
#   From: 2010.06.25/outbox.cif.g09.slc.cpg/sg2_172_cif.got.tgz:343356.got - 2010.06.27 13:26:56.
