data_PCOD8040364
_publ_section_title
;
Structure prediction by ZEFSAII (Michael W. Deem and Ramdas Pophale) SiO2 
 PCOD8040364
Probable space group: P -1
;
_chemical_formula_sum "Si O2"
_cell_formula_units_Z 16
_cell_length_a 8.866300
_cell_length_b 18.759101
_cell_length_c 13.779037
_cell_angle_alpha 151.290298
_cell_angle_beta 137.858883
_cell_angle_gamma 40.566636
_cell_volume 694.885132
_symmetry_space_group_name_H-M "P -1"
_symmetry_group_IT_number 2
_symmetry_cell_setting 'triclinic'
loop_
_space_group_symop_operation_xyz
x,y,z
-x,-y,-z
loop_
_atom_site_type_symbol
_atom_site_label
_atom_site_fract_x
_atom_site_fract_y
_atom_site_fract_z
Si Si1 0.104098 0.457619 0.892952
Si Si2 0.316025 0.503973 0.625248
Si Si3 0.130515 0.368105 0.537379
Si Si4 0.372846 0.763514 0.095194
Si Si5 0.312642 0.622616 0.489860
Si Si6 0.064430 0.673454 0.977995
Si Si7 0.487830 0.123891 0.058318
Si Si8 0.248603 0.012427 0.170846
O O1 0.351593 0.315206 0.841182
O O2 0.114437 0.626270 0.059293
O O3 0.947787 0.395332 0.664826
O O4 0.000000 0.500000 0.000000
O O5 0.223490 0.375532 0.480234
O O6 0.588568 0.417294 0.621180
O O7 0.159014 0.575028 0.538389
O O8 0.279806 0.653455 0.852562
O O9 0.197508 0.496440 0.785901
O O10 0.232100 0.187794 0.403997
O O11 0.333034 0.921836 0.204516
O O12 0.205357 0.787540 0.141336
O O13 0.500000 0.500000 0.500000
O O14 0.312157 0.796033 0.725714
O O15 0.780276 0.749442 0.915946
O O16 0.500000 0.000000 0.000000
O O17 0.551775 0.048732 0.891850
O O18 0.000000 0.000000 0.000000
#
# Coordination Sequence:
#
# PCOD8040364 Si02
#       8
#     2   2   2   2   2   2   2   2
#     4  12  24  42  71 103 140 181 230 287 342 416
#     4  10  18  36  62  96 129 175 223 272 330 402
#     4  10  21  37  68  96 134 174 228 277 332 405
#     4  11  23  41  65  98 135 182 227 280 344 408
#     4  12  22  40  69 102 136 176 231 282 337 408
#     4  11  24  45  69  97 134 183 234 278 339 415
#     4  12  25  41  69 106 141 176 229 293 346 401
#     4  12  24  39  66 102 142 178 222 287 352 400
#
# _framework density 23.025390000000002
#
# number of rings (size 3 to 8) (size 9 to 14) (size 15 to 20)
#    0.000    0.750    5.000    3.375    3.500    0.000 
#    0.000    0.625    5.500    2.250    0.000    0.000 
#    0.000    0.000    0.000    0.000    0.000    0.000 
#
# Total GULP energy -198264.236671 kJ/mol
# GULP energy per Si atom -12391.514792 kJ/mol
# Density = 2.297298 g / cm^3
# Si number density = 23.025390 Si / 1000 Ang^3
#
#
#
# Elastic Constant Matrix: (Units=GPa)
#
#
# Indices 1 2 3 4 5 6 
#
# 1 133.7687 59.5422 22.1252 14.5685 11.7344 8.6875
# 2 59.5422 166.3001 38.8228 11.4282 20.3308 18.8886
# 3 22.1252 38.8228 67.6014 16.7981 9.2464 7.2274
# 4 14.5685 11.4282 16.7981 44.5023 -0.5094 9.6097
# 5 11.7344 20.3308 9.2464 -0.5094 30.0675 2.7464
# 6 8.6875 18.8886 7.2274 9.6097 2.7464 44.2222
#
#
#
# Elastic Compliance Matrix: (Units=1/GPa)
#
#
# Indices 1 2 3 4 5 6 
#
# 1 0.009194 -0.002811 -0.000681 -0.002058 -0.001517 0.000047
# 2 -0.002811 0.008450 -0.003337 0.000492 -0.003362 -0.002410
# 3 -0.000681 -0.003337 0.018911 -0.006098 -0.003397 0.000005
# 4 -0.002058 0.000492 -0.006098 0.026381 0.003226 -0.004742
# 5 -0.001517 -0.003362 -0.003397 0.003226 0.037289 -0.000728
# 6 0.000047 -0.002410 0.000005 -0.004742 -0.000728 0.024708
#
#
# Mechanical properties :
#
#
# Convention : Reuss Voigt Hill
#
# Bulk Modulus (GPa) = 43.67481 67.62783 55.65132
# Shear Modulus (GPa) = 34.19413 40.23707 37.21560
#
# Velocity S-wave (km/s) = 3.85783 4.18486 4.02467
# Velocity P-wave (km/s) = 6.23323 7.26536 6.76899
#
# Compressibility (1/GPa) = 0.02289649
#
# Stress axis : x y z
#
# Youngs Moduli (GPa) = 108.77041 118.34706 52.87792
#
# Poissons Ratio (x) = 0.33271 0.03599
# Poissons Ratio (y) = 0.30579 0.17647
# Poissons Ratio (z) = 0.07403 0.39496
#
# Static dielectric constant tensor:
#      x y z
#    x 5.032470 0.312970 0.386210 
#    y 0.312970 4.169340 0.128560 
#    z 0.386210 0.128560 3.807500 
# 
# 
# High freq. dielectric constant tensor:
#      x y z
#    x 1.950960 0.013710 0.011620 
#    y 0.013710 1.902190 0.006250 
#    z 0.011620 0.006250 1.873660 
# 
# From -- ./inp_files/507362.got.cif
#   From: 2010.06.25/outbox.cif.g09.slc.cpg/sg2_254_cif.got.tgz:507362.got - 2010.06.27 13:26:56.
