data_PCOD8040067
_publ_section_title
;
Structure prediction by ZEFSAII (Michael W. Deem and Ramdas Pophale) SiO2 
 PCOD8040067
Probable space group: P -1
;
_chemical_formula_sum "Si O2"
_cell_formula_units_Z 16
_cell_length_a 13.323825
_cell_length_b 22.415080
_cell_length_c 5.430412
_cell_angle_alpha 86.657985
_cell_angle_beta 85.081796
_cell_angle_gamma 22.496426
_cell_volume 617.333389
_symmetry_space_group_name_H-M "P -1"
_symmetry_group_IT_number 2
_symmetry_cell_setting 'triclinic'
loop_
_space_group_symop_operation_xyz
x,y,z
-x,-y,-z
loop_
_atom_site_type_symbol
_atom_site_label
_atom_site_fract_x
_atom_site_fract_y
_atom_site_fract_z
Si Si1 0.310984 0.556403 0.783255
Si Si2 0.574197 0.212898 0.960355
Si Si3 0.008004 0.935766 0.263178
Si Si4 0.135749 0.744503 0.142679
Si Si5 0.668165 0.056922 0.653764
Si Si6 0.187306 0.145396 0.458465
Si Si7 0.894418 0.445581 0.950457
Si Si8 0.218222 0.258462 0.423565
O O1 0.618708 0.388623 0.676063
O O2 0.276723 0.520613 0.992887
O O3 0.094706 0.667234 0.590023
O O4 0.246980 0.655086 0.895395
O O5 0.538109 0.164900 0.878792
O O6 0.290818 0.394539 0.041606
O O7 0.727089 0.170066 0.732665
O O8 0.765459 0.109770 0.182121
O O9 0.053148 0.857843 0.071655
O O10 0.934768 0.943691 0.534488
O O11 0.877651 0.851214 0.270835
O O12 0.460534 0.170738 0.440665
O O13 0.724238 0.955273 0.732595
O O14 0.358513 0.113696 0.439124
O O15 0.095870 0.340549 0.164793
O O16 0.029012 0.369773 0.673620
#
# Coordination Sequence:
#
# PCOD8040067 Si02
#       8
#     2   2   2   2   2   2   2   2
#     4  10  19  35  60  97 131 175 219 282 340 405
#     4  11  24  44  67  96 137 178 234 282 348 396
#     4  10  23  42  65  99 132 179 225 289 340 409
#     4  10  18  35  62  94 133 169 228 272 348 402
#     4  11  25  43  67  96 135 184 229 281 338 417
#     4  10  21  40  62  98 132 174 224 282 343 403
#     4  11  25  46  71 100 139 183 230 286 334 406
#     4  11  26  47  71 102 138 183 231 280 343 401
#
# _framework density 25.917925
#
# number of rings (size 3 to 8) (size 9 to 14) (size 15 to 20)
#    0.000    1.500    2.500    1.875    3.500    1.000 
#    0.000    1.875    0.000    0.000    0.000    0.000 
#    0.000    0.000    0.000    0.000    0.000    0.000 
#
# Total GULP energy -198252.893531 kJ/mol
# GULP energy per Si atom -12390.805846 kJ/mol
# Density = 2.585893 g / cm^3
# Si number density = 25.917925 Si / 1000 Ang^3
#
#
#
# Elastic Constant Matrix: (Units=GPa)
#
#
# Indices 1 2 3 4 5 6 
#
# 1 86.7144 14.7453 11.6506 19.9129 3.9784 12.8759
# 2 14.7453 100.1451 16.7509 15.1382 7.6014 40.5182
# 3 11.6506 16.7509 65.6026 11.8920 8.6921 15.3404
# 4 19.9129 15.1382 11.8920 34.9303 1.0219 2.1126
# 5 3.9784 7.6014 8.6921 1.0219 21.3537 6.9171
# 6 12.8759 40.5182 15.3404 2.1126 6.9171 38.2340
#
#
#
# Elastic Compliance Matrix: (Units=1/GPa)
#
#
# Indices 1 2 3 4 5 6 
#
# 1 0.014082 0.001623 0.000101 -0.008383 -0.000940 -0.005870
# 2 0.001623 0.019349 0.001284 -0.008463 -0.000503 -0.021008
# 3 0.000101 0.001284 0.018495 -0.006303 -0.005269 -0.007515
# 4 -0.008383 -0.008463 -0.006303 0.038457 0.001433 0.011936
# 5 -0.000940 -0.000503 -0.005269 0.001433 0.051335 -0.006403
# 6 -0.005870 -0.021008 -0.007515 0.011936 -0.006403 0.053909
#
#
# Mechanical properties :
#
#
# Convention : Reuss Voigt Hill
#
# Bulk Modulus (GPa) = 17.25786 37.63952 27.44869
# Shear Modulus (GPa) = 23.93216 32.85794 28.39505
#
# Velocity S-wave (km/s) = 3.04202 3.56444 3.31354
# Velocity P-wave (km/s) = 4.36023 5.61199 5.02524
#
# Compressibility (1/GPa) = 0.05794462
#
# Stress axis : x y z
#
# Youngs Moduli (GPa) = 71.01075 51.68237 54.06834
#
# Poissons Ratio (x) = -0.08389 -0.00549
# Poissons Ratio (y) = -0.11526 -0.06945
# Poissons Ratio (z) = -0.00721 -0.06638
#
# Static dielectric constant tensor:
#      x y z
#    x 5.144090 -0.046790 0.194410 
#    y -0.046790 5.141330 -0.085100 
#    z 0.194410 -0.085100 3.989300 
# 
# 
# High freq. dielectric constant tensor:
#      x y z
#    x 2.054090 0.001200 0.005550 
#    y 0.001200 2.053290 0.000030 
#    z 0.005550 0.000030 1.995730 
# 
# From -- ./inp_files/70881.got.cif
#   From: 2010.06.25/outbox.cif.g09.slc.cpg/sg2_36_cif.got.tgz:70881.got - 2010.06.27 13:26:56.
