data_PCOD8040690
_publ_section_title
;
Structure prediction by ZEFSAII (Michael W. Deem and Ramdas Pophale) SiO2 
 PCOD8040690
Probable space group: P -1
;
_chemical_formula_sum "Si O2"
_cell_formula_units_Z 16
_cell_length_a 8.449323
_cell_length_b 16.380207
_cell_length_c 11.701101
_cell_angle_alpha 114.002804
_cell_angle_beta 96.989800
_cell_angle_gamma 35.311823
_cell_volume 784.429222
_symmetry_space_group_name_H-M "P -1"
_symmetry_group_IT_number 2
_symmetry_cell_setting 'triclinic'
loop_
_space_group_symop_operation_xyz
x,y,z
-x,-y,-z
loop_
_atom_site_type_symbol
_atom_site_label
_atom_site_fract_x
_atom_site_fract_y
_atom_site_fract_z
Si Si1 0.864698 0.335802 0.187706
Si Si2 0.250741 0.579294 0.391254
Si Si3 0.095429 0.868360 0.004179
Si Si4 0.812629 0.503863 0.441802
Si Si5 0.799977 0.526438 0.856365
Si Si6 0.816035 0.498223 0.093154
Si Si7 0.162391 0.870939 0.266882
Si Si8 0.843074 0.185132 0.517683
O O1 0.567007 0.454333 0.295786
O O2 0.014767 0.343697 0.283976
O O3 0.783874 0.417614 0.104423
O O4 0.045517 0.157550 0.076991
O O5 0.298394 0.504869 0.469777
O O6 0.071239 0.600644 0.300939
O O7 0.077999 0.754569 0.490951
O O8 0.007656 0.914634 0.157732
O O9 0.445723 0.695342 0.919097
O O10 0.000000 0.000000 0.000000
O O11 0.507302 0.678749 0.449838
O O12 0.000000 0.500000 0.500000
O O13 0.926264 0.564865 0.860463
O O14 0.915376 0.434522 0.935314
O O15 0.516070 0.699192 0.182643
O O16 0.074559 0.854243 0.361692
O O17 0.058760 0.020326 0.369293
#
# Coordination Sequence:
#
# PCOD8040690 Si02
#       8
#     2   2   2   2   2   2   2   2
#     4  10  20  36  61  86 110 150 199 235 277 350
#     4  10  20  33  59  86 112 149 197 235 278 343
#     4  10  23  37  59  86 116 152 193 235 293 336
#     4  11  22  37  62  85 118 153 189 243 288 336
#     4   9  21  34  60  85 114 150 186 243 283 342
#     4  10  18  38  59  84 114 146 194 233 291 337
#     4  10  21  36  60  80 118 152 187 240 284 338
#     4  10  21  37  58  85 114 150 199 228 289 342
#
# _framework density 20.396996000000001
#
# number of rings (size 3 to 8) (size 9 to 14) (size 15 to 20)
#    0.000    2.000    2.500    2.250    7.000    1.500 
#    0.000    1.250    0.000    0.000    0.000    0.000 
#    0.000    0.000    0.000    0.000    0.000    0.000 
#
# Total GULP energy -198210.549441 kJ/mol
# GULP energy per Si atom -12388.159340 kJ/mol
# Density = 2.035057 g / cm^3
# Si number density = 20.396996 Si / 1000 Ang^3
#
#
#
# Elastic Constant Matrix: (Units=GPa)
#
#
# Indices 1 2 3 4 5 6 
#
# 1 62.4360 42.0911 29.5402 -10.4483 17.4592 22.2509
# 2 42.0911 84.1583 45.9578 -10.5345 19.1937 32.3203
# 3 29.5402 45.9578 109.3461 -12.4784 28.0488 20.1011
# 4 -10.4483 -10.5345 -12.4784 32.1650 4.8119 0.7334
# 5 17.4592 19.1937 28.0488 4.8119 38.6614 -1.7173
# 6 22.2509 32.3203 20.1011 0.7334 -1.7173 31.8931
#
#
#
# Elastic Compliance Matrix: (Units=1/GPa)
#
#
# Indices 1 2 3 4 5 6 
#
# 1 0.031864 -0.003537 0.002829 0.013374 -0.017313 -0.021669
# 2 -0.003537 0.029965 -0.001414 0.010980 -0.014866 -0.028060
# 3 0.002829 -0.001414 0.015459 0.008710 -0.013373 -0.011205
# 4 0.013374 0.010980 0.008710 0.046780 -0.024892 -0.028363
# 5 -0.017313 -0.014866 -0.013373 -0.024892 0.055604 0.039139
# 6 -0.021669 -0.028060 -0.011205 -0.028363 0.039139 0.084731
#
#
# Mechanical properties :
#
#
# Convention : Reuss Voigt Hill
#
# Bulk Modulus (GPa) = 13.69019 54.56875 34.12947
# Shear Modulus (GPa) = 17.06520 29.76731 23.41625
#
# Velocity S-wave (km/s) = 2.89563 3.82435 3.39193
# Velocity P-wave (km/s) = 4.23155 6.80531 5.66649
#
# Compressibility (1/GPa) = 0.07304500
#
# Stress axis : x y z
#
# Youngs Moduli (GPa) = 31.38314 33.37253 64.68605
#
# Poissons Ratio (x) = 0.11804 -0.18301
# Poissons Ratio (y) = 0.11100 0.09145
# Poissons Ratio (z) = -0.08879 0.04718
#
# Static dielectric constant tensor:
#      x y z
#    x 3.907490 0.374910 0.621410 
#    y 0.374910 3.747370 -0.093570 
#    z 0.621410 -0.093570 4.385410 
# 
# 
# High freq. dielectric constant tensor:
#      x y z
#    x 1.778410 0.028540 0.019160 
#    y 0.028540 1.775790 -0.024470 
#    z 0.019160 -0.024470 1.814740 
# 
# From -- ./inp_files/284154.got.cif
#   From: 2010.06.25/outbox.cif.g09.slc.cpg/sg2_143_cif.got.tgz:284154.got - 2010.06.27 13:26:56.
