data_PCOD8040788
_publ_section_title
;
Structure prediction by ZEFSAII (Michael W. Deem and Ramdas Pophale) SiO2 
 PCOD8040788
Probable space group: P -1
;
_chemical_formula_sum "Si O2"
_cell_formula_units_Z 12
_cell_length_a 12.874744
_cell_length_b 14.383556
_cell_length_c 9.170753
_cell_angle_alpha 50.773821
_cell_angle_beta 68.087445
_cell_angle_gamma 29.879364
_cell_volume 584.017081
_symmetry_space_group_name_H-M "P -1"
_symmetry_group_IT_number 2
_symmetry_cell_setting 'triclinic'
loop_
_space_group_symop_operation_xyz
x,y,z
-x,-y,-z
loop_
_atom_site_type_symbol
_atom_site_label
_atom_site_fract_x
_atom_site_fract_y
_atom_site_fract_z
Si Si1 0.806853 0.350200 0.267519
Si Si2 0.514481 0.182643 0.687061
Si Si3 0.875291 0.725380 0.761443
Si Si4 0.981575 0.632575 0.477972
Si Si5 0.814857 0.110562 0.661416
Si Si6 0.666089 0.098687 0.993017
O O1 0.763442 0.299778 0.476390
O O2 0.975884 0.294658 0.287249
O O3 0.921891 0.168999 0.253678
O O4 0.560686 0.639455 0.060699
O O5 0.237013 0.445792 0.558769
O O6 0.622827 0.213169 0.568071
O O7 0.624058 0.982480 0.715819
O O8 0.586012 0.084533 0.915988
O O9 0.849538 0.718614 0.610763
O O10 0.000000 0.500000 0.000000
O O11 0.000000 0.500000 0.500000
O O12 0.831991 0.876253 0.238362
O O13 0.800462 0.087226 0.862605
#
# Coordination Sequence:
#
# PCOD8040788 Si02
#       6
#     2   2   2   2   2   2
#     4  10  18  38  67  89 120 159 204 240 308 359
#     4   9  22  42  61  86 126 153 203 248 303 353
#     4  11  23  40  63  88 122 166 201 249 300 357
#     4  12  26  39  60  93 124 162 204 247 302 358
#     4   8  19  38  65  91 118 159 196 253 303 356
#     4  10  21  38  65  89 118 160 200 251 299 354
#
# _framework density 20.547345
#
# number of rings (size 3 to 8) (size 9 to 14) (size 15 to 20)
#    1.000    1.000    1.667    1.500    2.333    3.333 
#    0.000    3.333    0.000    6.000    0.000    0.000 
#    0.000    0.000    0.000    0.000    0.000    0.000 
#
# Total GULP energy -148716.574963 kJ/mol
# GULP energy per Si atom -12393.047914 kJ/mol
# Density = 2.050058 g / cm^3
# Si number density = 20.547345 Si / 1000 Ang^3
#
#
#
# Elastic Constant Matrix: (Units=GPa)
#
#
# Indices 1 2 3 4 5 6 
#
# 1 50.9452 10.0220 28.9818 1.4846 -5.6279 0.9797
# 2 10.0220 118.3086 53.0335 -14.2082 10.6004 -2.5304
# 3 28.9818 53.0335 145.4032 -5.3589 2.7483 -4.0644
# 4 1.4846 -14.2082 -5.3589 30.9069 -1.3398 -0.5458
# 5 -5.6279 10.6004 2.7483 -1.3398 22.4266 -4.8290
# 6 0.9797 -2.5304 -4.0644 -0.5458 -4.8290 23.5398
#
#
#
# Elastic Compliance Matrix: (Units=1/GPa)
#
#
# Indices 1 2 3 4 5 6 
#
# 1 0.023150 -0.000751 -0.004551 -0.001975 0.006487 -0.000545
# 2 -0.000751 0.011093 -0.003656 0.004289 -0.004790 -0.000291
# 3 -0.004551 -0.003656 0.009165 0.000140 -0.000242 0.001332
# 4 -0.001975 0.004289 0.000140 0.034461 -0.000196 0.001326
# 5 0.006487 -0.004790 -0.000242 -0.000196 0.050554 0.009540
# 6 -0.000545 -0.000291 0.001332 0.001326 0.009540 0.044690
#
#
# Mechanical properties :
#
#
# Convention : Reuss Voigt Hill
#
# Bulk Modulus (GPa) = 39.22735 55.41462 47.32099
# Shear Modulus (GPa) = 25.05931 30.21599 27.63765
#
# Velocity S-wave (km/s) = 3.49605 3.83894 3.67150
# Velocity P-wave (km/s) = 5.95224 6.83211 6.40730
#
# Compressibility (1/GPa) = 0.02549242
#
# Stress axis : x y z
#
# Youngs Moduli (GPa) = 43.19597 90.14777 109.11184
#
# Poissons Ratio (x) = 0.06771 0.49657
# Poissons Ratio (y) = 0.03244 0.39889
# Poissons Ratio (z) = 0.19659 0.32956
#
# Static dielectric constant tensor:
#      x y z
#    x 3.558160 -0.032440 -0.175990 
#    y -0.032440 4.226570 0.001970 
#    z -0.175990 0.001970 3.473540 
# 
# 
# High freq. dielectric constant tensor:
#      x y z
#    x 1.784020 -0.007450 -0.022970 
#    y -0.007450 1.828350 -0.009600 
#    z -0.022970 -0.009600 1.777200 
# 
# From -- ./inp_files/311182.got.cif
#   From: 2010.06.25/outbox.cif.g09.slc.cpg/sg2_156_cif.got.tgz:311182.got - 2010.06.27 13:26:56.
