data_PCOD8040995
_publ_section_title
;
Structure prediction by ZEFSAII (Michael W. Deem and Ramdas Pophale) SiO2 
 PCOD8040995
Probable space group: P -1
;
_chemical_formula_sum "Si O2"
_cell_formula_units_Z 16
_cell_length_a 11.230520
_cell_length_b 11.850908
_cell_length_c 13.950591
_cell_angle_alpha 32.423105
_cell_angle_beta 76.117396
_cell_angle_gamma 98.680901
_cell_volume 709.425232
_symmetry_space_group_name_H-M "P -1"
_symmetry_group_IT_number 2
_symmetry_cell_setting 'triclinic'
loop_
_space_group_symop_operation_xyz
x,y,z
-x,-y,-z
loop_
_atom_site_type_symbol
_atom_site_label
_atom_site_fract_x
_atom_site_fract_y
_atom_site_fract_z
Si Si1 0.343603 0.842402 0.575612
Si Si2 0.484435 0.702244 0.117516
Si Si3 0.552174 0.165479 0.647699
Si Si4 0.825681 0.156871 0.031076
Si Si5 0.379416 0.344680 0.224568
Si Si6 0.142158 0.346747 0.368905
Si Si7 0.072146 0.191022 0.083527
Si Si8 0.265010 0.212267 0.860458
O O1 0.392188 0.874517 0.432977
O O2 0.203348 0.511592 0.870223
O O3 0.500000 0.000000 0.500000
O O4 0.282132 0.009537 0.484792
O O5 0.571388 0.015084 0.835118
O O6 0.498126 0.521858 0.168527
O O7 0.285964 0.521226 0.300283
O O8 0.575280 0.741755 0.169506
O O9 0.670129 0.500262 0.409530
O O10 0.364435 0.029059 0.768843
O O11 0.841983 0.044457 0.010304
O O12 0.919944 0.490218 0.759337
O O13 0.914125 0.134357 0.114761
O O14 0.233396 0.353322 0.251677
O O15 0.500000 0.500000 0.000000
O O16 0.985726 0.025602 0.662970
O O17 0.149433 0.130080 0.031759
#
# Coordination Sequence:
#
# PCOD8040995 Si02
#       8
#     2   2   2   2   2   2   2   2
#     4  11  23  41  67  92 122 164 211 259 322 374
#     4   9  20  39  64  92 126 156 221 255 303 373
#     4  10  21  40  63  98 122 160 216 266 300 377
#     4  11  23  43  62  89 133 166 209 262 317 370
#     4  10  18  41  66  90 123 162 207 258 310 366
#     4   9  23  41  62  94 130 163 210 262 311 373
#     4  11  25  41  61  93 131 161 212 261 314 387
#     4  11  23  38  65  93 123 174 210 258 317 366
#
# _framework density 22.553467999999999
#
# number of rings (size 3 to 8) (size 9 to 14) (size 15 to 20)
#    0.750    1.000    1.250    3.000    1.750    6.000 
#    2.250    0.625    0.000    0.000    0.000    0.000 
#    0.000    0.000    0.000    0.000    0.000    0.000 
#
# Total GULP energy -198347.826923 kJ/mol
# GULP energy per Si atom -12396.739183 kJ/mol
# Density = 2.250213 g / cm^3
# Si number density = 22.553468 Si / 1000 Ang^3
#
#
#
# Elastic Constant Matrix: (Units=GPa)
#
#
# Indices 1 2 3 4 5 6 
#
# 1 39.9461 7.7072 5.7177 -10.2213 8.2406 -10.6157
# 2 7.7072 62.4452 39.2285 -24.5813 8.5345 -10.5997
# 3 5.7177 39.2285 148.2837 -8.1899 9.0690 -18.1404
# 4 -10.2213 -24.5813 -8.1899 24.2441 -9.0964 5.0891
# 5 8.2406 8.5345 9.0690 -9.0964 30.4202 -3.7384
# 6 -10.6157 -10.5997 -18.1404 5.0891 -3.7384 31.7490
#
#
#
# Elastic Compliance Matrix: (Units=1/GPa)
#
#
# Indices 1 2 3 4 5 6 
#
# 1 0.030967 0.003423 -0.000028 0.013018 -0.004357 0.008882
# 2 0.003423 0.032992 -0.006776 0.032669 0.002010 0.003287
# 3 -0.000028 -0.006776 0.008771 -0.005335 -0.001887 0.003373
# 4 0.013018 0.032669 -0.005335 0.083134 0.013821 0.000512
# 5 -0.004357 0.002010 -0.001887 0.013821 0.038237 0.000423
# 6 0.008882 0.003287 0.003373 0.000512 0.000423 0.037459
#
#
# Mechanical properties :
#
#
# Convention : Reuss Voigt Hill
#
# Bulk Modulus (GPa) = 15.15903 39.55352 27.35627
# Shear Modulus (GPa) = 19.20774 30.48408 24.84591
#
# Velocity S-wave (km/s) = 2.92148 3.68045 3.32270
# Velocity P-wave (km/s) = 4.25629 5.96965 5.18424
#
# Compressibility (1/GPa) = 0.06596730
#
# Stress axis : x y z
#
# Youngs Moduli (GPa) = 32.29215 30.31061 114.01274
#
# Poissons Ratio (x) = -0.10374 0.00314
# Poissons Ratio (y) = -0.11052 0.77259
# Poissons Ratio (z) = 0.00089 0.20540
#
# Static dielectric constant tensor:
#      x y z
#    x 4.015380 -0.321920 0.253100 
#    y -0.321920 4.094230 -0.386880 
#    z 0.253100 -0.386880 4.339170 
# 
# 
# High freq. dielectric constant tensor:
#      x y z
#    x 1.876070 -0.017760 0.010920 
#    y -0.017760 1.880140 -0.014590 
#    z 0.010920 -0.014590 1.894130 
# 
# From -- ./inp_files/517462.got.cif
#   From: 2010.06.25/outbox.cif.g09.slc.cpg/sg2_259_cif.got.tgz:517462.got - 2010.06.27 13:26:56.
