data_PCOD8040830
_publ_section_title
;
Structure prediction by ZEFSAII (Michael W. Deem and Ramdas Pophale) SiO2 
 PCOD8040830
Probable space group: P -1
;
_chemical_formula_sum "Si O2"
_cell_formula_units_Z 16
_cell_length_a 23.545815
_cell_length_b 6.534706
_cell_length_c 18.013631
_cell_angle_alpha 102.647785
_cell_angle_beta 20.536441
_cell_angle_gamma 113.358556
_cell_volume 786.455000
_symmetry_space_group_name_H-M "P -1"
_symmetry_group_IT_number 2
_symmetry_cell_setting 'triclinic'
loop_
_space_group_symop_operation_xyz
x,y,z
-x,-y,-z
loop_
_atom_site_type_symbol
_atom_site_label
_atom_site_fract_x
_atom_site_fract_y
_atom_site_fract_z
Si Si1 0.577533 0.240426 0.873212
Si Si2 0.591975 0.647101 0.126268
Si Si3 0.223097 0.248239 0.243909
Si Si4 0.759673 0.542539 0.293620
Si Si5 0.436244 0.204571 0.393507
Si Si6 0.611172 0.978452 0.249494
Si Si7 0.730386 0.294250 0.534371
Si Si8 0.952407 0.414316 0.934286
O O1 0.732299 0.501738 0.747733
O O2 0.700374 0.233953 0.653653
O O3 0.377937 0.199424 0.085081
O O4 0.500000 0.000000 0.000000
O O5 0.561530 0.425601 0.198506
O O6 0.389382 0.585249 0.334293
O O7 0.685434 0.899496 0.081349
O O8 0.738761 0.687589 0.884809
O O9 0.000000 0.000000 0.500000
O O10 0.710696 0.752803 0.376636
O O11 0.881603 0.566007 0.217544
O O12 0.565402 0.261590 0.511659
O O13 0.875221 0.575207 0.078903
O O14 0.568126 0.185154 0.291874
O O15 0.323567 0.948054 0.465661
O O16 0.780744 0.120057 0.113960
O O17 0.958425 0.487515 0.249684
#
# Coordination Sequence:
#
# PCOD8040830 Si02
#       8
#     2   2   2   2   2   2   2   2
#     4  10  22  41  61  87 124 157 191 247 298 346
#     4   9  19  39  59  81 120 154 184 240 293 336
#     4  10  22  39  62  89 117 156 199 241 293 359
#     4  10  22  41  58  81 118 154 189 238 292 338
#     4  10  18  39  59  79 118 153 190 237 289 336
#     4  10  21  38  57  84 116 150 191 240 284 338
#     4  10  20  38  60  84 117 153 192 238 287 343
#     4  11  21  39  59  85 115 151 193 239 287 341
#
# _framework density 20.344456000000001
#
# number of rings (size 3 to 8) (size 9 to 14) (size 15 to 20)
#    0.000    2.000    3.750    1.125    1.750    1.500 
#    6.750    0.000    0.000    0.000    0.000    0.000 
#    0.000    0.000    0.000    0.000    0.000    0.000 
#
# Total GULP energy -198290.527738 kJ/mol
# GULP energy per Si atom -12393.157984 kJ/mol
# Density = 2.029815 g / cm^3
# Si number density = 20.344456 Si / 1000 Ang^3
#
#
#
# Elastic Constant Matrix: (Units=GPa)
#
#
# Indices 1 2 3 4 5 6 
#
# 1 6.7779 9.8636 44.2318 -4.1084 27.1515 22.6696
# 2 9.8636 76.1143 40.2655 -9.3187 -4.8343 -6.0229
# 3 44.2318 40.2655 124.3646 -4.7544 9.8327 15.7430
# 4 -4.1084 -9.3187 -4.7544 22.3608 11.3389 -0.2925
# 5 27.1515 -4.8343 9.8327 11.3389 28.5469 -13.4975
# 6 22.6696 -6.0229 15.7430 -0.2925 -13.4975 22.8744
#
#
#
# Elastic Compliance Matrix: (Units=1/GPa)
#
#
# Indices 1 2 3 4 5 6 
#
# 1 -0.005131 0.005352 -0.005155 -0.011254 0.023179 0.023575
# 2 0.005352 0.018297 -0.008518 0.006112 0.001517 0.006349
# 3 -0.005155 -0.008518 0.015087 0.003123 -0.009031 -0.012806
# 4 -0.011254 0.006112 0.003123 0.048213 -0.004408 0.008628
# 5 0.023179 0.001517 -0.009031 -0.004408 0.014345 -0.007948
# 6 0.023575 0.006349 -0.012806 0.008628 -0.007948 0.026259
#
#
# Mechanical properties :
#
#
# Convention : Reuss Voigt Hill
#
# Bulk Modulus (GPa) = 86.11994 43.99764 65.05879
# Shear Modulus (GPa) = 36.34211 22.28281 29.31246
#
# Velocity S-wave (km/s) = 4.23110 3.31309 3.79992
# Velocity P-wave (km/s) = 8.14201 6.02567 7.16244
#
# Compressibility (1/GPa) = 0.01161171
#
# Stress axis : x y z
#
# Youngs Moduli (GPa) = -194.89935 54.65228 66.28402
#
# Poissons Ratio (x) = -0.29249 0.34170
# Poissons Ratio (y) = 1.04307 0.56458
# Poissons Ratio (z) = -1.00471 0.46551
#
# Static dielectric constant tensor:
#      x y z
#    x 3.772780 0.082710 0.227710 
#    y 0.082710 3.841180 0.065300 
#    z 0.227710 0.065300 3.845550 
# 
# 
# High freq. dielectric constant tensor:
#      x y z
#    x 1.790730 0.014590 0.014670 
#    y 0.014590 1.794250 0.002140 
#    z 0.014670 0.002140 1.793250 
# 
# From -- ./inp_files/115899.got.cif
#   From: 2010.06.25/outbox.cif.g09.slc.cpg/sg2_58_cif.got.tgz:115899.got - 2010.06.27 13:26:56.
