data_PCOD8040515
_publ_section_title
;
Structure prediction by ZEFSAII (Michael W. Deem and Ramdas Pophale) SiO2 
 PCOD8040515
Probable space group: P -1
;
_chemical_formula_sum "Si O2"
_cell_formula_units_Z 16
_cell_length_a 11.760697
_cell_length_b 11.182434
_cell_length_c 8.780828
_cell_angle_alpha 50.673083
_cell_angle_beta 106.000216
_cell_angle_gamma 112.459667
_cell_volume 824.617812
_symmetry_space_group_name_H-M "P -1"
_symmetry_group_IT_number 2
_symmetry_cell_setting 'triclinic'
loop_
_space_group_symop_operation_xyz
x,y,z
-x,-y,-z
loop_
_atom_site_type_symbol
_atom_site_label
_atom_site_fract_x
_atom_site_fract_y
_atom_site_fract_z
Si Si1 0.641298 0.343478 0.370622
Si Si2 0.505375 0.043927 0.735359
Si Si3 0.342249 0.097798 0.879650
Si Si4 0.665197 0.297797 0.080377
Si Si5 0.492206 0.436323 0.719884
Si Si6 0.916039 0.361532 0.974517
Si Si7 0.082392 0.905800 0.016808
Si Si8 0.124333 0.607415 0.389208
O O1 0.575311 0.156069 0.533990
O O2 0.690147 0.379737 0.188266
O O3 0.538947 0.435962 0.282828
O O4 0.757330 0.418021 0.462556
O O5 0.402490 0.116390 0.717980
O O6 0.438166 0.867879 0.791341
O O7 0.608229 0.035883 0.905270
O O8 0.383139 0.271945 0.831472
O O9 0.194820 0.039475 0.873494
O O10 0.619292 0.406007 0.851187
O O11 0.792298 0.268803 0.093527
O O12 0.500000 0.500000 0.500000
O O13 0.977950 0.222852 0.040983
O O14 0.874760 0.447449 0.742988
O O15 0.000000 0.500000 0.000000
O O16 0.126943 0.796975 0.247402
O O17 0.000000 0.000000 0.000000
O O18 0.000000 0.500000 0.500000
#
# Coordination Sequence:
#
# PCOD8040515 Si02
#       8
#     2   2   2   2   2   2   2   2
#     4  12  22  38  61  94 127 164 211 258 315 385
#     4  10  18  37  60  88 118 160 202 251 311 380
#     4  10  19  36  62  87 120 157 206 255 311 370
#     4  11  23  38  60  90 130 163 205 258 321 379
#     4  11  23  36  61  93 125 160 206 262 317 373
#     4  10  21  40  65  89 120 169 212 257 317 372
#     4  10  22  39  63  92 122 165 218 261 316 370
#     4  10  22  39  62  90 120 166 218 259 313 378
#
# _framework density 19.402929
#
# number of rings (size 3 to 8) (size 9 to 14) (size 15 to 20)
#    0.750    0.750    3.750    2.250    3.500    0.000 
#    0.000    0.000    0.000    1.500    0.000    0.000 
#    0.000    0.000    0.000    0.000    0.000    0.000 
#
# Total GULP energy -198226.713066 kJ/mol
# GULP energy per Si atom -12389.169567 kJ/mol
# Density = 1.935877 g / cm^3
# Si number density = 19.402929 Si / 1000 Ang^3
#
#
#
# Elastic Constant Matrix: (Units=GPa)
#
#
# Indices 1 2 3 4 5 6 
#
# 1 106.1084 45.4210 28.8461 2.6887 -10.8449 -7.7807
# 2 45.4210 102.6367 33.2758 11.8171 1.8844 -4.0923
# 3 28.8461 33.2758 86.7654 6.9052 -11.0452 -1.5779
# 4 2.6887 11.8171 6.9052 33.0903 -2.3405 -5.6244
# 5 -10.8449 1.8844 -11.0452 -2.3405 31.7555 -2.3420
# 6 -7.7807 -4.0923 -1.5779 -5.6244 -2.3420 39.0383
#
#
#
# Elastic Compliance Matrix: (Units=1/GPa)
#
#
# Indices 1 2 3 4 5 6 
#
# 1 0.012739 -0.005271 -0.001767 0.001943 0.004373 0.002457
# 2 -0.005271 0.013831 -0.003780 -0.004128 -0.004284 -0.000605
# 3 -0.001767 -0.003780 0.014224 -0.001171 0.004477 -0.000074
# 4 0.001943 -0.004128 -0.001171 0.032835 0.003278 0.004834
# 5 0.004373 -0.004284 0.004477 0.003278 0.035272 0.003192
# 6 0.002457 -0.000605 -0.000074 0.004834 0.003192 0.026927
#
#
# Mechanical properties :
#
#
# Convention : Reuss Voigt Hill
#
# Bulk Modulus (GPa) = 52.19568 56.73292 54.46430
# Shear Modulus (GPa) = 30.51592 33.30802 31.91197
#
# Velocity S-wave (km/s) = 3.97009 4.14774 4.05989
# Velocity P-wave (km/s) = 6.92639 7.22781 7.07870
#
# Compressibility (1/GPa) = 0.01915867
#
# Stress axis : x y z
#
# Youngs Moduli (GPa) = 78.50087 72.30228 70.30292
#
# Poissons Ratio (x) = 0.38107 0.12423
# Poissons Ratio (y) = 0.41374 0.26574
# Poissons Ratio (z) = 0.13872 0.27330
#
# Static dielectric constant tensor:
#      x y z
#    x 3.411020 -0.067380 -0.095260 
#    y -0.067380 3.539490 -0.063680 
#    z -0.095260 -0.063680 3.489230 
# 
# 
# High freq. dielectric constant tensor:
#      x y z
#    x 1.746380 -0.002530 -0.020340 
#    y -0.002530 1.751770 -0.008290 
#    z -0.020340 -0.008290 1.741550 
# 
# From -- ./inp_files/217291.got.cif
#   From: 2010.06.25/outbox.cif.g09.slc.cpg/sg2_109_cif.got.tgz:217291.got - 2010.06.27 13:26:56.
