data_PCOD8040757
_publ_section_title
;
Structure prediction by ZEFSAII (Michael W. Deem and Ramdas Pophale) SiO2 
 PCOD8040757
Probable space group: P -1
;
_chemical_formula_sum "Si O2"
_cell_formula_units_Z 14
_cell_length_a 8.188890
_cell_length_b 17.515429
_cell_length_c 15.537749
_cell_angle_alpha 21.451172
_cell_angle_beta 52.102829
_cell_angle_gamma 42.473364
_cell_volume 526.257472
_symmetry_space_group_name_H-M "P -1"
_symmetry_group_IT_number 2
_symmetry_cell_setting 'triclinic'
loop_
_space_group_symop_operation_xyz
x,y,z
-x,-y,-z
loop_
_atom_site_type_symbol
_atom_site_label
_atom_site_fract_x
_atom_site_fract_y
_atom_site_fract_z
Si Si1 0.064891 0.740057 0.712293
Si Si2 0.080726 0.028462 0.801157
Si Si3 0.960762 0.550468 0.292158
Si Si4 0.585869 0.487958 0.717939
Si Si5 0.705679 0.091388 0.325927
Si Si6 0.841293 0.487292 0.909375
Si Si7 0.542945 0.262805 0.683422
O O1 0.357458 0.569520 0.769716
O O2 0.022490 0.588843 0.960094
O O3 0.000000 0.000000 0.500000
O O4 0.884361 0.817035 0.606315
O O5 0.987103 0.300680 0.584327
O O6 0.836500 0.024972 0.854882
O O7 0.255839 0.967293 0.725683
O O8 0.261994 0.813807 0.039914
O O9 0.196229 0.535895 0.269016
O O10 0.967887 0.541315 0.195558
O O11 0.671178 0.782494 0.169591
O O12 0.492197 0.677782 0.469574
O O13 0.415423 0.223841 0.310668
O O14 0.778810 0.283017 0.126079
O O15 0.500000 0.500000 0.500000
#
# Coordination Sequence:
#
# PCOD8040757 Si02
#       7
#     2   2   2   2   2   2   2
#     4  10  20  35  69  95 128 174 211 258 324 389
#     4  11  23  43  68  93 129 173 214 267 322 379
#     4  11  24  41  66  99 131 167 218 268 317 389
#     4  12  22  45  70  94 129 175 217 263 328 377
#     4  10  18  38  64  92 127 173 209 260 323 379
#     4  10  19  38  61  98 131 164 212 265 322 383
#     4  10  25  46  67  95 132 169 220 272 316 384
#
# _framework density 26.602948000000001
#
# number of rings (size 3 to 8) (size 9 to 14) (size 15 to 20)
#    0.000    1.429    4.286    2.143    0.000    3.429 
#    0.000   15.000    0.000    0.000    0.000    0.000 
#    0.000    0.000    0.000    0.000    0.000    0.000 
#
# Total GULP energy -173594.617809 kJ/mol
# GULP energy per Si atom -12399.615558 kJ/mol
# Density = 2.654240 g / cm^3
# Si number density = 26.602948 Si / 1000 Ang^3
#
#
#
# Elastic Constant Matrix: (Units=GPa)
#
#
# Indices 1 2 3 4 5 6 
#
# 1 72.8090 16.9353 1.7497 -5.2848 15.9197 -16.9578
# 2 16.9353 136.0889 31.1702 -0.3768 13.4373 -32.4564
# 3 1.7497 31.1702 103.6916 -10.1215 31.8431 -25.1825
# 4 -5.2848 -0.3768 -10.1215 42.5665 -7.5345 6.6420
# 5 15.9197 13.4373 31.8431 -7.5345 34.7930 -0.5113
# 6 -16.9578 -32.4564 -25.1825 6.6420 -0.5113 44.1104
#
#
#
# Elastic Compliance Matrix: (Units=1/GPa)
#
#
# Indices 1 2 3 4 5 6 
#
# 1 0.019593 0.000241 0.007164 -0.000435 -0.015537 0.011685
# 2 0.000241 0.009441 -0.000023 -0.001730 -0.004003 0.007240
# 3 0.007164 -0.000023 0.019096 -0.000318 -0.020617 0.013448
# 4 -0.000435 -0.001730 -0.000318 0.025347 0.006568 -0.005363
# 5 -0.015537 -0.004003 -0.020617 0.006568 0.057379 -0.021013
# 6 0.011685 0.007240 0.013448 -0.005363 -0.021013 0.040731
#
#
# Mechanical properties :
#
#
# Convention : Reuss Voigt Hill
#
# Bulk Modulus (GPa) = 15.90027 45.81111 30.85569
# Shear Modulus (GPa) = 28.12307 41.80958 34.96633
#
# Velocity S-wave (km/s) = 3.25490 3.96866 3.62937
# Velocity P-wave (km/s) = 4.48505 6.18531 5.40249
#
# Compressibility (1/GPa) = 0.06289202
#
# Stress axis : x y z
#
# Youngs Moduli (GPa) = 51.03764 105.92488 52.36576
#
# Poissons Ratio (x) = -0.02548 -0.37512
# Poissons Ratio (y) = -0.01228 0.00122
# Poissons Ratio (z) = -0.36561 0.00247
#
# Static dielectric constant tensor:
#      x y z
#    x 5.017830 -0.106500 0.093070 
#    y -0.106500 5.027420 -0.106520 
#    z 0.093070 -0.106520 5.548280 
# 
# 
# High freq. dielectric constant tensor:
#      x y z
#    x 2.072340 -0.010960 -0.014650 
#    y -0.010960 2.071880 -0.011380 
#    z -0.014650 -0.011380 2.105550 
# 
# From -- ./inp_files/562497.got.cif
#   From: 2010.06.25/outbox.cif.g09.slc.cpg/sg2_282_cif.got.tgz:562497.got - 2010.06.27 13:26:56.
