data_PCOD8040592
_publ_section_title
;
Structure prediction by ZEFSAII (Michael W. Deem and Ramdas Pophale) SiO2 
 PCOD8040592
Probable space group: P -1
;
_chemical_formula_sum "Si O2"
_cell_formula_units_Z 14
_cell_length_a 5.461310
_cell_length_b 15.488966
_cell_length_c 13.088681
_cell_angle_alpha 132.277171
_cell_angle_beta 102.224096
_cell_angle_gamma 54.078064
_cell_volume 631.723676
_symmetry_space_group_name_H-M "P -1"
_symmetry_group_IT_number 2
_symmetry_cell_setting 'triclinic'
loop_
_space_group_symop_operation_xyz
x,y,z
-x,-y,-z
loop_
_atom_site_type_symbol
_atom_site_label
_atom_site_fract_x
_atom_site_fract_y
_atom_site_fract_z
Si Si1 0.979790 0.541895 0.360598
Si Si2 0.577133 0.028242 0.138846
Si Si3 0.744807 0.060773 0.808371
Si Si4 0.631018 0.615750 0.038535
Si Si5 0.491738 0.424105 0.785696
Si Si6 0.936883 0.226839 0.489278
Si Si7 0.581919 0.669681 0.619970
O O1 0.873291 0.491092 0.215703
O O2 0.789666 0.557042 0.456591
O O3 0.892531 0.697268 0.440022
O O4 0.341841 0.412596 0.327633
O O5 0.372065 0.204534 0.271391
O O6 0.442263 0.969508 0.155518
O O7 0.951712 0.954028 0.131194
O O8 0.500000 0.000000 0.000000
O O9 0.475631 0.226807 0.879887
O O10 0.837103 0.951990 0.631737
O O11 0.441416 0.640674 0.146016
O O12 0.551966 0.545620 0.885770
O O13 0.000000 0.500000 0.000000
O O14 0.712338 0.288992 0.618496
O O15 0.773191 0.261349 0.389969
#
# Coordination Sequence:
#
# PCOD8040592 Si02
#       7
#     2   2   2   2   2   2   2
#     4  10  18  37  63  94 130 176 219 277 331 403
#     4  11  24  43  65 105 140 184 225 274 348 420
#     4  11  26  45  73  97 143 183 226 293 342 410
#     4  11  26  47  67  95 133 178 235 292 349 408
#     4  10  24  41  67  97 128 173 237 285 342 407
#     4  10  20  41  65 100 135 177 227 277 346 407
#     4   9  20  34  60  94 138 172 221 268 332 410
#
# _framework density 22.16159
#
# number of rings (size 3 to 8) (size 9 to 14) (size 15 to 20)
#    0.000    1.714    1.429    1.714    6.000    1.714 
#    0.000    2.857    0.000    0.000    0.000    0.000 
#    0.000    0.000    0.000    0.000    0.000    0.000 
#
# Total GULP energy -173449.695023 kJ/mol
# GULP energy per Si atom -12389.263930 kJ/mol
# Density = 2.211115 g / cm^3
# Si number density = 22.161590 Si / 1000 Ang^3
#
#
#
# Elastic Constant Matrix: (Units=GPa)
#
#
# Indices 1 2 3 4 5 6 
#
# 1 108.3499 34.1747 43.4381 4.2559 21.7291 3.5113
# 2 34.1747 106.3645 70.1972 24.9447 13.7904 3.3528
# 3 43.4381 70.1972 138.9578 4.0929 22.7065 -1.5037
# 4 4.2559 24.9447 4.0929 34.7248 -0.5180 4.9701
# 5 21.7291 13.7904 22.7065 -0.5180 38.5750 -2.0552
# 6 3.5113 3.3528 -1.5037 4.9701 -2.0552 29.7835
#
#
#
# Elastic Compliance Matrix: (Units=1/GPa)
#
#
# Indices 1 2 3 4 5 6 
#
# 1 0.011593 -0.001842 -0.001933 0.000292 -0.004817 -0.001638
# 2 -0.001842 0.018320 -0.008189 -0.011935 -0.000869 -0.000327
# 3 -0.001933 -0.008189 0.012326 0.004505 -0.003136 0.000804
# 4 0.000292 -0.011935 0.004505 0.037489 0.001709 -0.004602
# 5 -0.004817 -0.000869 -0.003136 0.001709 0.030942 0.002358
# 6 -0.001638 -0.000327 0.000804 -0.004602 0.002358 0.034777
#
#
# Mechanical properties :
#
#
# Convention : Reuss Voigt Hill
#
# Bulk Modulus (GPa) = 54.60874 72.14358 63.37616
# Shear Modulus (GPa) = 28.49378 34.34080 31.41729
#
# Velocity S-wave (km/s) = 3.58960 3.94072 3.76925
# Velocity P-wave (km/s) = 6.47108 7.30273 6.89945
#
# Compressibility (1/GPa) = 0.01831209
#
# Stress axis : x y z
#
# Youngs Moduli (GPa) = 86.26060 54.58565 81.13064
#
# Poissons Ratio (x) = 0.10052 0.15680
# Poissons Ratio (y) = 0.15885 0.66437
# Poissons Ratio (z) = 0.16672 0.44699
#
# Static dielectric constant tensor:
#      x y z
#    x 4.085360 -0.096170 0.143290 
#    y -0.096170 4.158680 0.010180 
#    z 0.143290 0.010180 4.312880 
# 
# 
# High freq. dielectric constant tensor:
#      x y z
#    x 1.872770 0.003140 0.014280 
#    y 0.003140 1.854810 -0.001700 
#    z 0.014280 -0.001700 1.881460 
# 
# From -- ./inp_files/28365.got.cif
#   From: 2010.06.25/outbox.cif.g09.slc.cpg/sg2_15_cif.got.tgz:28365.got - 2010.06.27 13:26:56.
