data_PCOD8040534
_publ_section_title
;
Structure prediction by ZEFSAII (Michael W. Deem and Ramdas Pophale) SiO2 
 PCOD8040534
Probable space group: P -1
;
_chemical_formula_sum "Si O2"
_cell_formula_units_Z 16
_cell_length_a 20.868259
_cell_length_b 9.343437
_cell_length_c 7.614742
_cell_angle_alpha 79.867211
_cell_angle_beta 47.817662
_cell_angle_gamma 115.122458
_cell_volume 723.706567
_symmetry_space_group_name_H-M "P -1"
_symmetry_group_IT_number 2
_symmetry_cell_setting 'triclinic'
loop_
_space_group_symop_operation_xyz
x,y,z
-x,-y,-z
loop_
_atom_site_type_symbol
_atom_site_label
_atom_site_fract_x
_atom_site_fract_y
_atom_site_fract_z
Si Si1 0.096607 0.389241 0.778193
Si Si2 0.819458 0.720889 0.643639
Si Si3 0.785887 0.561243 0.089886
Si Si4 0.319457 0.877465 0.241842
Si Si5 0.643168 0.616329 0.556907
Si Si6 0.466122 0.648555 0.846481
Si Si7 0.813395 0.004170 0.428932
Si Si8 0.429294 0.916384 0.391338
O O1 0.117760 0.274309 0.643975
O O2 0.124784 0.388624 0.930288
O O3 0.186363 0.630347 0.484373
O O4 0.946214 0.249139 0.071242
O O5 0.848286 0.929140 0.530737
O O6 0.873699 0.722398 0.726891
O O7 0.665517 0.503114 0.985587
O O8 0.708142 0.605065 0.288312
O O9 0.684555 0.314593 0.252691
O O10 0.289012 0.007511 0.306154
O O11 0.376274 0.860064 0.304003
O O12 0.434360 0.002656 0.860094
O O13 0.544472 0.604824 0.648542
O O14 0.749479 0.841669 0.418613
O O15 0.567035 0.410724 0.871503
O O16 0.551911 0.899758 0.602537
#
# Coordination Sequence:
#
# PCOD8040534 Si02
#       8
#     2   2   2   2   2   2   2   2
#     4  11  22  43  62  86 119 161 203 245 288 348
#     4  11  24  40  61  92 119 156 203 244 295 355
#     4  11  24  39  61  90 123 157 198 244 295 357
#     4  10  19  36  65  92 114 157 200 240 300 358
#     4  10  20  35  59  90 122 151 197 247 297 352
#     4  10  18  37  61  87 120 156 192 248 300 351
#     4  11  22  38  64  88 119 161 201 242 296 345
#     4  10  19  35  62  89 120 156 192 242 306 352
#
# _framework density 22.108407
#
# number of rings (size 3 to 8) (size 9 to 14) (size 15 to 20)
#    0.000    1.500    5.000    2.250    3.500    1.500 
#    0.000    0.000    0.000    3.750    0.000    0.000 
#    0.000    0.000    0.000    0.000    0.000    0.000 
#
# Total GULP energy -198346.451965 kJ/mol
# GULP energy per Si atom -12396.653248 kJ/mol
# Density = 2.205809 g / cm^3
# Si number density = 22.108407 Si / 1000 Ang^3
#
#
#
# Elastic Constant Matrix: (Units=GPa)
#
#
# Indices 1 2 3 4 5 6 
#
# 1 50.5955 15.2811 20.5841 3.0720 1.6918 -2.1849
# 2 15.2811 92.3684 16.0731 -8.7110 -0.0042 -20.8755
# 3 20.5841 16.0731 52.5438 -17.4351 -7.3074 -0.6912
# 4 3.0720 -8.7110 -17.4351 20.2218 -1.7897 -2.1254
# 5 1.6918 -0.0042 -7.3074 -1.7897 29.1792 3.8146
# 6 -2.1849 -20.8755 -0.6912 -2.1254 3.8146 22.5722
#
#
#
# Elastic Compliance Matrix: (Units=1/GPa)
#
#
# Indices 1 2 3 4 5 6 
#
# 1 0.031107 -0.004660 -0.020300 -0.025257 -0.008053 -0.002937
# 2 -0.004660 0.015914 0.000008 0.009076 -0.001172 0.015320
# 3 -0.020300 0.000008 0.042654 0.041213 0.014280 0.000816
# 4 -0.025257 0.009076 0.041213 0.095559 0.015880 0.013525
# 5 -0.008053 -0.001172 0.014280 0.015880 0.040166 -0.006719
# 6 -0.002937 0.015320 0.000816 0.013525 -0.006719 0.060620
#
#
# Mechanical properties :
#
#
# Convention : Reuss Voigt Hill
#
# Bulk Modulus (GPa) = 25.14453 33.26492 29.20473
# Shear Modulus (GPa) = 14.31924 23.96592 19.14258
#
# Velocity S-wave (km/s) = 2.54772 3.29602 2.94573
# Velocity P-wave (km/s) = 4.47800 5.43727 4.98078
#
# Compressibility (1/GPa) = 0.03977008
#
# Stress axis : x y z
#
# Youngs Moduli (GPa) = 32.14734 62.83798 23.44457
#
# Poissons Ratio (x) = 0.29282 0.47593
# Poissons Ratio (y) = 0.14980 -0.00018
# Poissons Ratio (z) = 0.65259 -0.00049
#
# Static dielectric constant tensor:
#      x y z
#    x 3.774900 -0.132250 -0.173640 
#    y -0.132250 3.907970 -0.261700 
#    z -0.173640 -0.261700 3.948680 
# 
# 
# High freq. dielectric constant tensor:
#      x y z
#    x 1.846530 -0.011710 -0.015990 
#    y -0.011710 1.870190 -0.019530 
#    z -0.015990 -0.019530 1.854660 
# 
# From -- ./inp_files/351708.got.cif
#   From: 2010.06.25/outbox.cif.g09.slc.cpg/sg2_176_cif.got.tgz:351708.got - 2010.06.27 13:26:56.
