data_PCOD8040227
_publ_section_title
;
Structure prediction by ZEFSAII (Michael W. Deem and Ramdas Pophale) SiO2 
 PCOD8040227
Probable space group: P -1
;
_chemical_formula_sum "Si O2"
_cell_formula_units_Z 16
_cell_length_a 9.074128
_cell_length_b 11.831195
_cell_length_c 22.460264
_cell_angle_alpha 30.066594
_cell_angle_beta 41.903796
_cell_angle_gamma 51.696488
_cell_volume 804.717525
_symmetry_space_group_name_H-M "P -1"
_symmetry_group_IT_number 2
_symmetry_cell_setting 'triclinic'
loop_
_space_group_symop_operation_xyz
x,y,z
-x,-y,-z
loop_
_atom_site_type_symbol
_atom_site_label
_atom_site_fract_x
_atom_site_fract_y
_atom_site_fract_z
Si Si1 0.776747 0.610975 0.532887
Si Si2 0.102162 0.022016 0.760992
Si Si3 0.829053 0.658627 0.949872
Si Si4 0.500761 0.726033 0.790154
Si Si5 0.849829 0.597951 0.339719
Si Si6 0.545752 0.307489 0.655732
Si Si7 0.845863 0.764159 0.573128
Si Si8 0.783455 0.883460 0.742222
O O1 0.778528 0.848499 0.389726
O O2 0.578935 0.428703 0.654790
O O3 0.750996 0.657979 0.588631
O O4 0.000000 0.500000 0.500000
O O5 0.033748 0.188092 0.758030
O O6 0.285085 0.862561 0.803603
O O7 0.870932 0.890120 0.869680
O O8 0.876868 0.716766 0.839332
O O9 0.582048 0.534025 0.083544
O O10 0.000000 0.500000 0.000000
O O11 0.646158 0.833528 0.642904
O O12 0.642553 0.735214 0.803724
O O13 0.688854 0.458437 0.496947
O O14 0.713302 0.689535 0.283616
O O15 0.031385 0.430993 0.339417
O O16 0.627630 0.055375 0.744277
O O17 0.009587 0.984851 0.412716
#
# Coordination Sequence:
#
# PCOD8040227 Si02
#       8
#     2   2   2   2   2   2   2   2
#     4  11  17  32  57  84 112 146 188 231 277 339
#     4  10  18  36  59  76 111 151 197 219 270 343
#     4  10  22  39  57  81 112 158 197 226 267 346
#     4  11  24  37  54  89 118 148 185 240 286 325
#     4   9  17  32  55  84 111 144 186 231 277 338
#     4   9  17  29  58  86 103 141 197 228 267 332
#     4  11  22  35  58  91 120 140 180 246 296 326
#     4  11  19  38  61  82 112 155 192 226 279 346
#
# _framework density 19.882753000000001
#
# number of rings (size 3 to 8) (size 9 to 14) (size 15 to 20)
#    0.000    1.750    6.250    0.750    1.750    0.500 
#    0.000    0.625    0.000    0.750    0.000    0.000 
#    0.000    0.000    0.000    0.000    0.000    0.000 
#
# Total GULP energy -198299.296629 kJ/mol
# GULP energy per Si atom -12393.706039 kJ/mol
# Density = 1.983750 g / cm^3
# Si number density = 19.882753 Si / 1000 Ang^3
#
#
#
# Elastic Constant Matrix: (Units=GPa)
#
#
# Indices 1 2 3 4 5 6 
#
# 1 146.4881 25.6713 52.3838 -14.4566 -14.2604 14.4960
# 2 25.6713 31.7867 25.5789 -10.5886 -5.3415 0.7301
# 3 52.3838 25.5789 88.8425 -12.4196 -14.9906 2.8873
# 4 -14.4566 -10.5886 -12.4196 18.1230 3.5041 -4.8520
# 5 -14.2604 -5.3415 -14.9906 3.5041 33.7327 -11.7409
# 6 14.4960 0.7301 2.8873 -4.8520 -11.7409 21.2247
#
#
#
# Elastic Compliance Matrix: (Units=1/GPa)
#
#
# Indices 1 2 3 4 5 6 
#
# 1 0.009713 -0.003998 -0.004363 0.000930 -0.000672 -0.006062
# 2 -0.003998 0.048977 -0.008518 0.021343 0.003131 0.008816
# 3 -0.004363 -0.008518 0.017671 0.003848 0.006029 0.005084
# 4 0.000930 0.021343 0.003848 0.074939 0.003718 0.017295
# 5 -0.000672 0.003131 0.006029 0.003718 0.039980 0.022497
# 6 -0.006062 0.008816 0.005084 0.017295 0.022497 0.066659
#
#
# Mechanical properties :
#
#
# Convention : Reuss Voigt Hill
#
# Bulk Modulus (GPa) = 23.47248 52.70948 38.09098
# Shear Modulus (GPa) = 16.34537 25.51496 20.93017
#
# Velocity S-wave (km/s) = 2.87032 3.58616 3.24802
# Velocity P-wave (km/s) = 4.77661 6.61174 5.76763
#
# Compressibility (1/GPa) = 0.04260309
#
# Stress axis : x y z
#
# Youngs Moduli (GPa) = 102.95047 20.41787 56.59085
#
# Poissons Ratio (x) = 0.08163 0.24688
# Poissons Ratio (y) = 0.41161 0.48205
# Poissons Ratio (z) = 0.44913 0.17392
#
# Static dielectric constant tensor:
#      x y z
#    x 4.398000 0.086820 -0.248600 
#    y 0.086820 3.369360 -0.474940 
#    z -0.248600 -0.474940 3.636660 
# 
# 
# High freq. dielectric constant tensor:
#      x y z
#    x 1.801790 0.003500 -0.013350 
#    y 0.003500 1.736930 -0.040330 
#    z -0.013350 -0.040330 1.745080 
# 
# From -- ./inp_files/274626.got.cif
#   From: 2010.06.25/outbox.cif.g09.slc.cpg/sg2_138_cif.got.tgz:274626.got - 2010.06.27 13:26:56.
