data_PCOD8040165
_publ_section_title
;
Structure prediction by ZEFSAII (Michael W. Deem and Ramdas Pophale) SiO2 
 PCOD8040165
Probable space group: P -1
;
_chemical_formula_sum "Si O2"
_cell_formula_units_Z 16
_cell_length_a 8.686515
_cell_length_b 13.796367
_cell_length_c 18.326339
_cell_angle_alpha 135.712105
_cell_angle_beta 41.287417
_cell_angle_gamma 146.879590
_cell_volume 768.695874
_symmetry_space_group_name_H-M "P -1"
_symmetry_group_IT_number 2
_symmetry_cell_setting 'triclinic'
loop_
_space_group_symop_operation_xyz
x,y,z
-x,-y,-z
loop_
_atom_site_type_symbol
_atom_site_label
_atom_site_fract_x
_atom_site_fract_y
_atom_site_fract_z
Si Si1 0.273358 0.335139 0.545369
Si Si2 0.622859 0.755107 0.002230
Si Si3 0.418492 0.565273 0.829337
Si Si4 0.112796 0.737497 0.232267
Si Si5 0.319645 0.083014 0.165997
Si Si6 0.951682 0.977769 0.377172
Si Si7 0.356391 0.610079 0.422622
Si Si8 0.845636 0.091799 0.013912
O O1 0.500000 0.500000 0.500000
O O2 0.498312 0.342282 0.523438
O O3 0.064129 0.362086 0.681789
O O4 0.039647 0.142434 0.483945
O O5 0.433687 0.582946 0.921602
O O6 0.836401 0.738184 0.968394
O O7 0.433848 0.781400 0.139289
O O8 0.805725 0.923820 0.972063
O O9 0.634439 0.525624 0.701727
O O10 0.067641 0.392130 0.843382
O O11 0.500587 0.735078 0.847225
O O12 0.122392 0.908212 0.312523
O O13 0.078458 0.056935 0.293494
O O14 0.565372 0.088057 0.128663
O O15 0.131953 0.911846 0.084109
O O16 0.578697 0.813512 0.415777
O O17 0.000000 0.500000 0.500000
#
# Coordination Sequence:
#
# PCOD8040165 Si02
#       8
#     2   2   2   2   2   2   2   2
#     4  10  21  40  61  86 116 154 199 245 295 350
#     4  10  18  36  54  89 113 149 197 238 288 344
#     4   9  20  35  59  81 117 155 189 239 292 348
#     4  10  19  35  58  83 114 155 194 233 290 357
#     4  10  18  37  57  82 112 155 189 234 299 347
#     4  10  19  37  64  83 110 163 198 233 295 363
#     4  10  22  41  58  88 119 153 200 247 290 342
#     4   9  20  33  56  83 118 145 191 244 285 347
#
# _framework density 20.814473
#
# number of rings (size 3 to 8) (size 9 to 14) (size 15 to 20)
#    0.000    2.500    1.250    3.375    0.000    1.000 
#   11.250    1.875    0.000    0.000    0.000    0.000 
#    0.000    0.000    0.000    0.000    0.000    0.000 
#
# Total GULP energy -198215.554145 kJ/mol
# GULP energy per Si atom -12388.472134 kJ/mol
# Density = 2.076710 g / cm^3
# Si number density = 20.814473 Si / 1000 Ang^3
#
#
#
# Elastic Constant Matrix: (Units=GPa)
#
#
# Indices 1 2 3 4 5 6 
#
# 1 89.2429 36.0404 41.6590 -8.0521 7.2352 22.6196
# 2 36.0404 70.2068 37.0462 -2.3453 2.3324 17.4820
# 3 41.6590 37.0462 97.3584 -7.5129 14.5438 22.9606
# 4 -8.0521 -2.3453 -7.5129 39.9601 2.4866 -0.8089
# 5 7.2352 2.3324 14.5438 2.4866 29.5749 -2.5180
# 6 22.6196 17.4820 22.9606 -0.8089 -2.5180 28.9491
#
#
#
# Elastic Compliance Matrix: (Units=1/GPa)
#
#
# Indices 1 2 3 4 5 6 
#
# 1 0.017180 -0.005088 -0.002711 0.002695 -0.003412 -0.008422
# 2 -0.005088 0.020439 -0.004911 -0.000946 0.001757 -0.004346
# 3 -0.002711 -0.004911 0.016832 0.002661 -0.008209 -0.008906
# 4 0.002695 -0.000946 0.002661 0.026219 -0.004378 -0.003293
# 5 -0.003412 0.001757 -0.008209 -0.004378 0.039889 0.011463
# 6 -0.008422 -0.004346 -0.008906 -0.003293 0.011463 0.051717
#
#
# Mechanical properties :
#
#
# Convention : Reuss Voigt Hill
#
# Bulk Modulus (GPa) = 34.44600 54.03327 44.23963
# Shear Modulus (GPa) = 24.11106 29.16764 26.63935
#
# Velocity S-wave (km/s) = 3.40719 3.74748 3.58138
# Velocity P-wave (km/s) = 5.66247 6.68884 6.19694
#
# Compressibility (1/GPa) = 0.02903095
#
# Stress axis : x y z
#
# Youngs Moduli (GPa) = 58.20576 48.92581 59.41119
#
# Poissons Ratio (x) = 0.24895 0.16108
# Poissons Ratio (y) = 0.29616 0.29175
# Poissons Ratio (z) = 0.15781 0.24026
#
# Static dielectric constant tensor:
#      x y z
#    x 3.747060 0.140580 0.316550 
#    y 0.140580 3.927890 -0.037330 
#    z 0.316550 -0.037330 3.969240 
# 
# 
# High freq. dielectric constant tensor:
#      x y z
#    x 1.792900 0.004690 0.022150 
#    y 0.004690 1.809430 -0.002710 
#    z 0.022150 -0.002710 1.815550 
# 
# From -- ./inp_files/590472.got.cif
#   From: 2010.06.25/outbox.cif.g09.slc.cpg/sg2_296_cif.got.tgz:590472.got - 2010.06.27 13:26:56.
