data_PCOD8040039
_publ_section_title
;
Structure prediction by ZEFSAII (Michael W. Deem and Ramdas Pophale) SiO2 
 PCOD8040039
Probable space group: P -1
;
_chemical_formula_sum "Si O2"
_cell_formula_units_Z 14
_cell_length_a 8.635913
_cell_length_b 12.482643
_cell_length_c 10.299747
_cell_angle_alpha 119.611502
_cell_angle_beta 115.890660
_cell_angle_gamma 46.993998
_cell_volume 697.179788
_symmetry_space_group_name_H-M "P -1"
_symmetry_group_IT_number 2
_symmetry_cell_setting 'triclinic'
loop_
_space_group_symop_operation_xyz
x,y,z
-x,-y,-z
loop_
_atom_site_type_symbol
_atom_site_label
_atom_site_fract_x
_atom_site_fract_y
_atom_site_fract_z
Si Si1 0.831182 0.668516 0.184604
Si Si2 0.193995 0.333411 0.126493
Si Si3 0.879010 0.030210 0.736645
Si Si4 0.346433 0.024623 0.573106
Si Si5 0.423395 0.671023 0.049253
Si Si6 0.291652 0.080478 0.180973
Si Si7 0.652894 0.166464 0.128405
O O1 0.819924 0.798217 0.340329
O O2 0.623296 0.676158 0.144835
O O3 0.041606 0.509733 0.218806
O O4 0.854990 0.685213 0.050396
O O5 0.140471 0.241108 0.145921
O O6 0.440169 0.272278 0.200817
O O7 0.792343 0.032701 0.562556
O O8 0.838848 0.935019 0.764984
O O9 0.135365 0.937874 0.768481
O O10 0.763868 0.205568 0.846120
O O11 0.500000 0.000000 0.500000
O O12 0.503496 0.930401 0.695362
O O13 0.500000 0.500000 0.000000
O O14 0.331267 0.725016 0.901372
O O15 0.385909 0.941148 0.032387
#
# Coordination Sequence:
#
# PCOD8040039 Si02
#       7
#     2   2   2   2   2   2   2
#     4  10  20  36  57  85 116 146 188 237 278 331
#     4  10  21  35  57  87 111 149 190 234 276 331
#     4  10  21  36  58  85 117 144 184 241 281 328
#     4  10  18  38  57  82 116 147 186 234 280 333
#     4  10  19  33  56  85 114 141 188 237 282 317
#     4  10  18  35  62  82 108 148 200 227 269 335
#     4  10  20  36  52  88 112 145 190 234 278 325
#
# _framework density 20.080902999999999
#
# number of rings (size 3 to 8) (size 9 to 14) (size 15 to 20)
#    0.000    2.000    5.714    2.143    4.000    0.000 
#    0.000    5.714    0.000    0.000    0.000    0.000 
#    0.000    0.000    0.000    0.000    0.000    0.000 
#
# Total GULP energy -173523.274684 kJ/mol
# GULP energy per Si atom -12394.519620 kJ/mol
# Density = 2.003520 g / cm^3
# Si number density = 20.080903 Si / 1000 Ang^3
#
#
#
# Elastic Constant Matrix: (Units=GPa)
#
#
# Indices 1 2 3 4 5 6 
#
# 1 36.0512 22.9458 10.4442 -2.8822 7.9494 -19.3407
# 2 22.9458 138.6952 34.2040 6.2178 -3.2888 -4.6975
# 3 10.4442 34.2040 66.3457 2.6947 11.9569 -5.0278
# 4 -2.8822 6.2178 2.6947 27.9154 -11.9616 0.1660
# 5 7.9494 -3.2888 11.9569 -11.9616 21.8879 -2.4553
# 6 -19.3407 -4.6975 -5.0278 0.1660 -2.4553 44.1462
#
#
#
# Elastic Compliance Matrix: (Units=1/GPa)
#
#
# Indices 1 2 3 4 5 6 
#
# 1 0.045768 -0.007598 0.001205 -0.001065 -0.016936 0.018442
# 2 -0.007598 0.009862 -0.005419 0.000683 0.007295 -0.002494
# 3 0.001205 -0.005419 0.021185 -0.008028 -0.017050 0.001446
# 4 -0.001065 0.000683 -0.008028 0.050190 0.032337 0.000302
# 5 -0.016936 0.007295 -0.017050 0.032337 0.079439 -0.004289
# 6 0.018442 -0.002494 0.001446 0.000302 -0.004289 0.030391
#
#
# Mechanical properties :
#
#
# Convention : Reuss Voigt Hill
#
# Bulk Modulus (GPa) = 18.80038 41.80889 30.30464
# Shear Modulus (GPa) = 17.97330 30.35644 24.16487
#
# Velocity S-wave (km/s) = 2.99498 3.89229 3.47273
# Velocity P-wave (km/s) = 4.61979 6.40822 5.58604
#
# Compressibility (1/GPa) = 0.05319040
#
# Stress axis : x y z
#
# Youngs Moduli (GPa) = 21.84913 101.40399 47.20291
#
# Poissons Ratio (x) = 0.77051 -0.05690
# Poissons Ratio (y) = 0.16602 0.25581
# Poissons Ratio (z) = -0.02634 0.54955
#
# Static dielectric constant tensor:
#      x y z
#    x 3.486670 -0.162990 0.069290 
#    y -0.162990 3.972840 -0.209680 
#    z 0.069290 -0.209680 3.810400 
# 
# 
# High freq. dielectric constant tensor:
#      x y z
#    x 1.768930 -0.017370 -0.002700 
#    y -0.017370 1.789500 -0.006080 
#    z -0.002700 -0.006080 1.754460 
# 
# From -- ./inp_files/190211.got.cif
#   From: 2010.06.25/outbox.cif.g09.slc.cpg/sg2_96_cif.got.tgz:190211.got - 2010.06.27 13:26:56.
