data_PCOD8040500
_publ_section_title
;
Structure prediction by ZEFSAII (Michael W. Deem and Ramdas Pophale) SiO2 
 PCOD8040500
Probable space group: P -1
;
_chemical_formula_sum "Si O2"
_cell_formula_units_Z 16
_cell_length_a 15.391140
_cell_length_b 13.198174
_cell_length_c 14.369649
_cell_angle_alpha 41.322036
_cell_angle_beta 153.442020
_cell_angle_gamma 151.735390
_cell_volume 608.596470
_symmetry_space_group_name_H-M "P -1"
_symmetry_group_IT_number 2
_symmetry_cell_setting 'triclinic'
loop_
_space_group_symop_operation_xyz
x,y,z
-x,-y,-z
loop_
_atom_site_type_symbol
_atom_site_label
_atom_site_fract_x
_atom_site_fract_y
_atom_site_fract_z
Si Si1 0.906656 0.592021 0.974782
Si Si2 0.535050 0.170411 0.661206
Si Si3 0.225894 0.245141 0.412111
Si Si4 0.574407 0.346976 0.389794
Si Si5 0.644289 0.879881 0.001486
Si Si6 0.257287 0.261668 0.970871
Si Si7 0.052283 0.400447 0.784174
Si Si8 0.307364 0.259268 0.677741
O O1 0.962268 0.773738 0.835574
O O2 0.595378 0.356695 0.840152
O O3 0.997225 0.695950 0.093513
O O4 0.141224 0.596127 0.168201
O O5 0.316325 0.124232 0.552136
O O6 0.456509 0.175083 0.477903
O O7 0.537170 0.989867 0.802721
O O8 0.500000 0.500000 0.500000
O O9 0.109447 0.172426 0.457797
O O10 0.343873 0.223989 0.174781
O O11 0.646436 0.554467 0.355196
O O12 0.845871 0.424683 0.548976
O O13 0.820670 0.905636 0.067509
O O14 0.367633 0.630191 0.925848
O O15 0.807444 0.929579 0.224528
O O16 0.500000 0.500000 0.000000
O O17 0.010290 0.241084 0.777337
#
# Coordination Sequence:
#
# PCOD8040500 Si02
#       8
#     2   2   2   2   2   2   2   2
#     4   9  18  37  58  84 109 148 184 227 276 328
#     4  11  22  37  58  87 117 141 184 236 282 327
#     4  10  19  36  60  83 109 147 193 225 274 333
#     4  11  19  37  62  85 107 149 196 224 267 341
#     4  10  22  39  54  85 120 145 177 242 284 313
#     4  10  18  37  60  80 115 146 189 228 272 331
#     4   9  19  36  61  83 108 152 190 223 272 338
#     4  10  19  39  59  80 113 148 190 232 269 332
#
# _framework density 26.289997
#
# number of rings (size 3 to 8) (size 9 to 14) (size 15 to 20)
#    0.000    2.000    6.250    0.000    0.000    5.000 
#    4.500    3.125    0.000    0.000    0.000    0.000 
#    0.000    0.000    0.000    0.000    0.000    0.000 
#
# Total GULP energy -198263.673267 kJ/mol
# GULP energy per Si atom -12391.479579 kJ/mol
# Density = 2.623016 g / cm^3
# Si number density = 26.289997 Si / 1000 Ang^3
#
#
#
# Elastic Constant Matrix: (Units=GPa)
#
#
# Indices 1 2 3 4 5 6 
#
# 1 106.6916 22.1162 65.0946 -12.3049 -21.4206 -0.4587
# 2 22.1162 73.9428 29.1697 -29.5703 -17.5020 11.6232
# 3 65.0946 29.1697 129.6425 -22.3968 -3.7348 1.2389
# 4 -12.3049 -29.5703 -22.3968 47.5520 13.3074 -5.5307
# 5 -21.4206 -17.5020 -3.7348 13.3074 48.8854 -3.4934
# 6 -0.4587 11.6232 1.2389 -5.5307 -3.4934 31.1377
#
#
#
# Elastic Compliance Matrix: (Units=1/GPa)
#
#
# Indices 1 2 3 4 5 6 
#
# 1 0.015287 -0.001029 -0.007600 -0.001893 0.006357 0.001289
# 2 -0.001029 0.020271 -0.002221 0.009654 0.003625 -0.005372
# 3 -0.007600 -0.002221 0.012559 0.003782 -0.004165 0.000422
# 4 -0.001893 0.009654 0.003782 0.029876 -0.005149 0.000947
# 5 0.006357 0.003625 -0.004165 -0.005149 0.025685 0.000873
# 6 0.001289 -0.005372 0.000422 0.000947 0.000873 0.034389
#
#
# Mechanical properties :
#
#
# Convention : Reuss Voigt Hill
#
# Bulk Modulus (GPa) = 37.85522 60.33755 49.09638
# Shear Modulus (GPa) = 29.66102 38.44143 34.05122
#
# Velocity S-wave (km/s) = 3.36255 3.82803 3.60282
# Velocity P-wave (km/s) = 5.43194 6.52219 6.00188
#
# Compressibility (1/GPa) = 0.02641644
#
# Stress axis : x y z
#
# Youngs Moduli (GPa) = 65.41680 49.33152 79.62613
#
# Poissons Ratio (x) = 0.05076 0.60518
# Poissons Ratio (y) = 0.06731 0.17683
# Poissons Ratio (z) = 0.49718 0.10955
#
# Static dielectric constant tensor:
#      x y z
#    x 5.616160 0.333690 -0.282010 
#    y 0.333690 4.859830 0.104320 
#    z -0.282010 0.104320 5.282350 
# 
# 
# High freq. dielectric constant tensor:
#      x y z
#    x 2.061550 0.022830 -0.013560 
#    y 0.022830 2.063910 -0.000770 
#    z -0.013560 -0.000770 2.070930 
# 
# From -- ./inp_files/504593.got.cif
#   From: 2010.06.25/outbox.cif.g09.slc.cpg/sg2_253_cif.got.tgz:504593.got - 2010.06.27 13:26:56.
