data_PCOD8040718
_publ_section_title
;
Structure prediction by ZEFSAII (Michael W. Deem and Ramdas Pophale) SiO2 
 PCOD8040718
Probable space group: P -1
;
_chemical_formula_sum "Si O2"
_cell_formula_units_Z 14
_cell_length_a 11.940273
_cell_length_b 15.319757
_cell_length_c 11.785661
_cell_angle_alpha 124.574086
_cell_angle_beta 46.902098
_cell_angle_gamma 152.998455
_cell_volume 709.133346
_symmetry_space_group_name_H-M "P -1"
_symmetry_group_IT_number 2
_symmetry_cell_setting 'triclinic'
loop_
_space_group_symop_operation_xyz
x,y,z
-x,-y,-z
loop_
_atom_site_type_symbol
_atom_site_label
_atom_site_fract_x
_atom_site_fract_y
_atom_site_fract_z
Si Si1 0.371372 0.428077 0.159072
Si Si2 0.673229 0.796733 0.605656
Si Si3 0.923434 0.884469 0.711216
Si Si4 0.635711 0.038442 0.595444
Si Si5 0.213315 0.258017 0.716025
Si Si6 0.327222 0.969182 0.184866
Si Si7 0.103240 0.678796 0.565875
O O1 0.198235 0.221239 0.159768
O O2 0.615516 0.574847 0.190664
O O3 0.175566 0.415919 0.292921
O O4 0.500000 0.500000 0.000000
O O5 0.670755 0.731454 0.678692
O O6 0.568099 0.668315 0.474309
O O7 0.535235 0.833498 0.743992
O O8 0.000000 0.000000 0.500000
O O9 0.176529 0.955046 0.553568
O O10 0.041479 0.071716 0.771614
O O11 0.661996 0.086512 0.744226
O O12 0.738391 0.198704 0.569920
O O13 0.314989 0.822564 0.629299
O O14 0.992202 0.206470 0.767335
O O15 0.500000 0.000000 0.000000
O O16 0.000000 0.500000 0.500000
#
# Coordination Sequence:
#
# PCOD8040718 Si02
#       7
#     2   2   2   2   2   2   2
#     4  11  25  38  54  87 117 147 191 234 281 329
#     4   8  15  33  58  83 104 138 187 223 272 341
#     4   9  17  38  61  83 108 148 193 227 277 335
#     4  10  18  38  62  81 112 148 194 226 273 340
#     4  10  19  38  61  81 113 147 185 234 278 338
#     4  10  19  33  60  89 112 143 181 238 291 323
#     4  10  23  39  58  82 111 156 192 228 269 336
#
# _framework density 19.742408000000001
#
# number of rings (size 3 to 8) (size 9 to 14) (size 15 to 20)
#    0.000    2.571    4.286    0.857    2.000    1.143 
#    5.143    0.000    0.000    4.286    0.000    0.000 
#    0.000    0.000    0.000    0.000    0.000    0.000 
#
# Total GULP energy -173484.489122 kJ/mol
# GULP energy per Si atom -12391.749223 kJ/mol
# Density = 1.969747 g / cm^3
# Si number density = 19.742408 Si / 1000 Ang^3
#
#
#
# Elastic Constant Matrix: (Units=GPa)
#
#
# Indices 1 2 3 4 5 6 
#
# 1 117.9387 42.6707 44.8346 -1.9720 12.9321 0.6947
# 2 42.6707 70.7831 26.9235 -1.0085 3.8248 1.9120
# 3 44.8346 26.9235 110.6754 -4.5056 12.9817 1.8896
# 4 -1.9720 -1.0085 -4.5056 19.3912 -4.9251 6.0353
# 5 12.9321 3.8248 12.9817 -4.9251 29.7348 0.5239
# 6 0.6947 1.9120 1.8896 6.0353 0.5239 33.9845
#
#
#
# Elastic Compliance Matrix: (Units=1/GPa)
#
#
# Indices 1 2 3 4 5 6 
#
# 1 0.012186 -0.006001 -0.003129 -0.000778 -0.003299 0.000452
# 2 -0.006001 0.018542 -0.002196 0.000447 0.001273 -0.000897
# 3 -0.003129 -0.002196 0.011266 0.001638 -0.002992 -0.000684
# 4 -0.000778 0.000447 0.001638 0.057504 0.009275 -0.010456
# 5 -0.003299 0.001273 -0.002992 0.009275 0.037780 -0.002067
# 6 0.000452 -0.000897 -0.000684 -0.010456 -0.002067 0.031393
#
#
# Mechanical properties :
#
#
# Convention : Reuss Voigt Hill
#
# Bulk Modulus (GPa) = 51.69755 58.69499 55.19627
# Shear Modulus (GPa) = 25.28180 28.95333 27.11756
#
# Velocity S-wave (km/s) = 3.58241 3.83372 3.71019
# Velocity P-wave (km/s) = 6.58441 7.02791 6.80977
#
# Compressibility (1/GPa) = 0.01934328
#
# Stress axis : x y z
#
# Youngs Moduli (GPa) = 82.06377 53.93132 88.75904
#
# Poissons Ratio (x) = 0.32363 0.27774
# Poissons Ratio (y) = 0.49245 0.19488
# Poissons Ratio (z) = 0.25679 0.11841
#
# Static dielectric constant tensor:
#      x y z
#    x 4.094000 -0.057900 0.301790 
#    y -0.057900 3.448660 0.109100 
#    z 0.301790 0.109100 3.623330 
# 
# 
# High freq. dielectric constant tensor:
#      x y z
#    x 1.790980 -0.005290 0.011670 
#    y -0.005290 1.744820 0.000190 
#    z 0.011670 0.000190 1.742020 
# 
# From -- ./inp_files/402171.got.cif
#   From: 2010.06.25/outbox.cif.g09.slc.cpg/sg2_202_cif.got.tgz:402171.got - 2010.06.27 13:26:56.
