data_PCOD8040576
_publ_section_title
;
Structure prediction by ZEFSAII (Michael W. Deem and Ramdas Pophale) SiO2 
 PCOD8040576
Probable space group: P -1
;
_chemical_formula_sum "Si O2"
_cell_formula_units_Z 16
_cell_length_a 8.914049
_cell_length_b 23.614522
_cell_length_c 22.701133
_cell_angle_alpha 19.179245
_cell_angle_beta 140.376499
_cell_angle_gamma 149.173682
_cell_volume 780.476062
_symmetry_space_group_name_H-M "P -1"
_symmetry_group_IT_number 2
_symmetry_cell_setting 'triclinic'
loop_
_space_group_symop_operation_xyz
x,y,z
-x,-y,-z
loop_
_atom_site_type_symbol
_atom_site_label
_atom_site_fract_x
_atom_site_fract_y
_atom_site_fract_z
Si Si1 0.827174 0.458595 0.385070
Si Si2 0.367740 0.324731 0.477344
Si Si3 0.828014 0.118183 0.111924
Si Si4 0.216328 0.411438 0.041681
Si Si5 0.346068 0.548493 0.789284
Si Si6 0.783983 0.251319 0.344185
Si Si7 0.305520 0.977269 0.018004
Si Si8 0.719192 0.643320 0.372187
O O1 0.583039 0.340335 0.478539
O O2 0.655050 0.392744 0.335769
O O3 0.999270 0.356098 0.540191
O O4 0.039003 0.720954 0.202044
O O5 0.544337 0.541044 0.358378
O O6 0.089375 0.285473 0.399575
O O7 0.243585 0.116155 0.686686
O O8 0.917108 0.198655 0.128338
O O9 0.529248 0.088534 0.032853
O O10 0.099979 0.284663 0.985200
O O11 0.310890 0.365259 0.177601
O O12 0.500000 0.500000 0.000000
O O13 0.196474 0.610148 0.842248
O O14 0.243342 0.659783 0.689916
O O15 0.500000 0.000000 0.500000
O O16 0.173730 0.107901 0.837413
O O17 0.500000 0.000000 0.000000
O O18 0.500000 0.500000 0.500000
#
# Coordination Sequence:
#
# PCOD8040576 Si02
#       8
#     2   2   2   2   2   2   2   2
#     4  12  26  43  59 101 138 167 208 272 332 376
#     4  12  24  39  64  98 135 161 213 276 325 380
#     4  10  18  37  63  86 119 169 211 255 312 374
#     4   8  17  34  60  89 111 157 216 266 304 362
#     4  10  20  40  65  87 125 167 218 264 319 387
#     4  10  19  38  65  94 118 166 225 264 312 385
#     4  12  22  40  67  92 128 173 217 265 310 387
#     4  12  23  42  66  95 126 176 227 253 312 393
#
# _framework density 20.500309000000001
#
# number of rings (size 3 to 8) (size 9 to 14) (size 15 to 20)
#    0.000    1.500    3.750    4.875    0.000    0.500 
#    6.750    3.125    0.000    0.000    0.000    0.000 
#    0.000    0.000    0.000    0.000    0.000    0.000 
#
# Total GULP energy -198337.260912 kJ/mol
# GULP energy per Si atom -12396.078807 kJ/mol
# Density = 2.045365 g / cm^3
# Si number density = 20.500309 Si / 1000 Ang^3
#
#
#
# Elastic Constant Matrix: (Units=GPa)
#
#
# Indices 1 2 3 4 5 6 
#
# 1 89.4637 37.4702 29.9585 8.7420 9.6484 8.6804
# 2 37.4702 148.5077 36.9056 23.8442 9.2451 -0.4115
# 3 29.9585 36.9056 116.0650 13.5860 27.7634 6.6840
# 4 8.7420 23.8442 13.5860 34.5188 4.8381 10.1634
# 5 9.6484 9.2451 27.7634 4.8381 22.9177 4.4602
# 6 8.6804 -0.4115 6.6840 10.1634 4.4602 22.4478
#
#
#
# Elastic Compliance Matrix: (Units=1/GPa)
#
#
# Indices 1 2 3 4 5 6 
#
# 1 0.013663 -0.003037 -0.002107 0.001103 -0.001241 -0.004964
# 2 -0.003037 0.008885 -0.001598 -0.006087 0.000027 0.004564
# 3 -0.002107 -0.001598 0.013250 -0.001712 -0.014245 0.000446
# 4 0.001103 -0.006087 -0.001712 0.038811 -0.000731 -0.017455
# 5 -0.001241 0.000027 -0.014245 -0.000731 0.063011 -0.007467
# 6 -0.004964 0.004564 0.000446 -0.017455 -0.007467 0.055805
#
#
# Mechanical properties :
#
#
# Convention : Reuss Voigt Hill
#
# Bulk Modulus (GPa) = 44.81623 62.52278 53.66950
# Shear Modulus (GPa) = 23.32651 32.62369 27.97510
#
# Velocity S-wave (km/s) = 3.37688 3.99353 3.69808
# Velocity P-wave (km/s) = 6.09205 7.19924 6.66867
#
# Compressibility (1/GPa) = 0.02231335
#
# Stress axis : x y z
#
# Youngs Moduli (GPa) = 73.18906 112.54381 75.47003
#
# Poissons Ratio (x) = 0.34183 0.15904
# Poissons Ratio (y) = 0.22230 0.12061
# Poissons Ratio (z) = 0.15424 0.17986
#
# Static dielectric constant tensor:
#      x y z
#    x 3.353500 -0.106120 0.178800 
#    y -0.106120 4.450280 0.236620 
#    z 0.178800 0.236620 3.972670 
# 
# 
# High freq. dielectric constant tensor:
#      x y z
#    x 1.755850 -0.004740 0.013880 
#    y -0.004740 1.821330 0.011000 
#    z 0.013880 0.011000 1.810390 
# 
# From -- ./inp_files/608736.got.cif
#   From: 2010.06.25/outbox.cif.g09.slc.cpg/sg2_305_cif.got.tgz:608736.got - 2010.06.27 13:26:56.
