data_PCOD8040250
_publ_section_title
;
Structure prediction by ZEFSAII (Michael W. Deem and Ramdas Pophale) SiO2 
 PCOD8040250
Probable space group: P -1
;
_chemical_formula_sum "Si O2"
_cell_formula_units_Z 16
_cell_length_a 12.018271
_cell_length_b 9.182707
_cell_length_c 14.441067
_cell_angle_alpha 139.193561
_cell_angle_beta 74.378528
_cell_angle_gamma 122.489183
_cell_volume 850.817221
_symmetry_space_group_name_H-M "P -1"
_symmetry_group_IT_number 2
_symmetry_cell_setting 'triclinic'
loop_
_space_group_symop_operation_xyz
x,y,z
-x,-y,-z
loop_
_atom_site_type_symbol
_atom_site_label
_atom_site_fract_x
_atom_site_fract_y
_atom_site_fract_z
Si Si1 0.834574 0.659495 0.688904
Si Si2 0.353497 0.544660 0.630752
Si Si3 0.341634 0.191997 0.301196
Si Si4 0.094930 0.590665 0.305328
Si Si5 0.883309 0.893069 0.200077
Si Si6 0.170631 0.683345 0.640642
Si Si7 0.875631 0.414370 0.917296
Si Si8 0.865846 0.894816 0.418422
O O1 0.704046 0.677256 0.704184
O O2 0.817038 0.525854 0.729062
O O3 0.867757 0.500527 0.529520
O O4 0.966378 0.951267 0.803050
O O5 0.340499 0.313618 0.458263
O O6 0.507125 0.736109 0.723807
O O7 0.307644 0.722197 0.673494
O O8 0.254294 0.397811 0.668641
O O9 0.243573 0.881327 0.178353
O O10 0.069659 0.544470 0.179828
O O11 0.949763 0.454669 0.324154
O O12 0.182506 0.900572 0.457589
O O13 0.904236 0.886593 0.301139
O O14 0.799625 0.030224 0.257247
O O15 0.812308 0.597060 0.034578
O O16 0.000000 0.500000 0.000000
O O17 0.000000 0.000000 0.500000
#
# Coordination Sequence:
#
# PCOD8040250 Si02
#       8
#     2   2   2   2   2   2   2   2
#     4  10  18  36  59  88 119 146 189 241 288 333
#     4  10  21  36  64  85 111 154 197 237 282 334
#     4  10  21  40  56  85 122 151 187 239 288 342
#     4  11  20  34  60  88 114 150 192 240 284 337
#     4  11  21  35  57  87 118 148 185 246 290 330
#     4  10  19  35  59  90 115 144 193 243 286 329
#     4  12  24  38  56  89 121 153 189 237 291 345
#     4  12  18  34  60  90 108 144 203 238 278 335
#
# _framework density 18.805448999999999
#
# number of rings (size 3 to 8) (size 9 to 14) (size 15 to 20)
#    0.000    1.250    6.250    2.250    0.000    2.000 
#    0.000    3.125    0.000    0.000    0.000    0.000 
#    0.000    0.000    0.000    0.000    0.000    0.000 
#
# Total GULP energy -198376.961622 kJ/mol
# GULP energy per Si atom -12398.560101 kJ/mol
# Density = 1.876265 g / cm^3
# Si number density = 18.805449 Si / 1000 Ang^3
#
#
#
# Elastic Constant Matrix: (Units=GPa)
#
#
# Indices 1 2 3 4 5 6 
#
# 1 114.4268 47.9129 31.8603 19.9898 8.4841 -6.2870
# 2 47.9129 102.9135 37.2202 5.0006 10.1066 -14.9704
# 3 31.8603 37.2202 92.8884 13.1912 -4.9787 -7.7865
# 4 19.9898 5.0006 13.1912 32.0820 -4.3286 1.4863
# 5 8.4841 10.1066 -4.9787 -4.3286 25.6605 4.3957
# 6 -6.2870 -14.9704 -7.7865 1.4863 4.3957 23.1580
#
#
#
# Elastic Compliance Matrix: (Units=1/GPa)
#
#
# Indices 1 2 3 4 5 6 
#
# 1 0.012661 -0.004315 -0.001715 -0.007147 -0.004254 0.001338
# 2 -0.004315 0.015132 -0.004359 0.000835 -0.006670 0.008358
# 3 -0.001715 -0.004359 0.013881 -0.003421 0.004264 0.000794
# 4 -0.007147 0.000835 -0.003421 0.038427 0.009005 -0.006726
# 5 -0.004254 -0.006670 0.004264 0.009005 0.047691 -0.013663
# 6 0.001338 0.008358 0.000794 -0.006726 -0.013663 0.052240
#
#
# Mechanical properties :
#
#
# Convention : Reuss Voigt Hill
#
# Bulk Modulus (GPa) = 47.85188 60.46838 54.16013
# Shear Modulus (GPa) = 24.06459 29.06246 26.56353
#
# Velocity S-wave (km/s) = 3.58111 3.93546 3.76246
# Velocity P-wave (km/s) = 6.52688 7.27152 6.90924
#
# Compressibility (1/GPa) = 0.02089782
#
# Stress axis : x y z
#
# Youngs Moduli (GPa) = 78.98441 66.08336 72.03899
#
# Poissons Ratio (x) = 0.28513 0.12352
# Poissons Ratio (y) = 0.34079 0.31402
# Poissons Ratio (z) = 0.13543 0.28806
#
# Static dielectric constant tensor:
#      x y z
#    x 3.537620 -0.354820 -0.173710 
#    y -0.354820 3.572530 0.133710 
#    z -0.173710 0.133710 3.439100 
# 
# 
# High freq. dielectric constant tensor:
#      x y z
#    x 1.719090 -0.030820 -0.013690 
#    y -0.030820 1.728520 0.004390 
#    z -0.013690 0.004390 1.712970 
# 
# From -- ./inp_files/181479.got.cif
#   From: 2010.06.25/outbox.cif.g09.slc.cpg/sg2_91_cif.got.tgz:181479.got - 2010.06.27 13:26:56.
