data_PCOD8040097
_publ_section_title
;
Structure prediction by ZEFSAII (Michael W. Deem and Ramdas Pophale) SiO2 
 PCOD8040097
Probable space group: P -1
;
_chemical_formula_sum "Si O2"
_cell_formula_units_Z 16
_cell_length_a 7.482615
_cell_length_b 16.252981
_cell_length_c 20.142352
_cell_angle_alpha 30.855337
_cell_angle_beta 136.265741
_cell_angle_gamma 144.138584
_cell_volume 733.056430
_symmetry_space_group_name_H-M "P -1"
_symmetry_group_IT_number 2
_symmetry_cell_setting 'triclinic'
loop_
_space_group_symop_operation_xyz
x,y,z
-x,-y,-z
loop_
_atom_site_type_symbol
_atom_site_label
_atom_site_fract_x
_atom_site_fract_y
_atom_site_fract_z
Si Si1 0.447632 0.266189 0.621334
Si Si2 0.741717 0.815429 0.021535
Si Si3 0.097621 0.851359 0.630812
Si Si4 0.930885 0.406090 0.764572
Si Si5 0.316264 0.549814 0.197016
Si Si6 0.160844 0.813422 0.528461
Si Si7 0.208793 0.418351 0.601663
Si Si8 0.349500 0.955620 0.266275
O O1 0.605542 0.284083 0.722303
O O2 0.580430 0.479154 0.477865
O O3 0.523766 0.144049 0.677445
O O4 0.074794 0.161498 0.598447
O O5 0.445506 0.707005 0.064998
O O6 0.867676 0.684494 0.126001
O O7 0.642487 0.874200 0.887903
O O8 0.000000 0.000000 0.000000
O O9 0.018860 0.762904 0.598112
O O10 0.899615 0.656103 0.754884
O O11 0.447921 0.959115 0.672348
O O12 0.000000 0.000000 0.500000
O O13 0.849868 0.399725 0.825201
O O14 0.141828 0.617738 0.640782
O O15 0.595951 0.541774 0.307786
O O16 0.500000 0.000000 0.500000
O O17 0.000000 0.500000 0.500000
O O18 0.987013 0.190720 0.692866
#
# Coordination Sequence:
#
# PCOD8040097 Si02
#       8
#     2   2   2   2   2   2   2   2
#     4  11  20  41  65 100 136 170 220 284 350 397
#     4  12  24  46  67  98 135 180 240 272 324 401
#     4  11  22  42  66  95 134 169 220 274 344 407
#     4  11  25  43  70  98 138 175 227 282 334 404
#     4  11  24  43  65  94 135 184 220 279 338 387
#     4  11  25  40  62 102 137 173 215 278 351 402
#     4  10  18  35  63  95 128 165 217 276 337 387
#     4  11  23  39  68 102 128 178 229 275 328 410
#
# _framework density 21.826425
#
# number of rings (size 3 to 8) (size 9 to 14) (size 15 to 20)
#    0.000    1.000    6.250    1.875    3.500    1.000 
#    0.000    2.500    0.000    0.000    0.000    0.000 
#    0.000    0.000    0.000    0.000    0.000    0.000 
#
# Total GULP energy -198281.008440 kJ/mol
# GULP energy per Si atom -12392.563027 kJ/mol
# Density = 2.177675 g / cm^3
# Si number density = 21.826425 Si / 1000 Ang^3
#
#
#
# Elastic Constant Matrix: (Units=GPa)
#
#
# Indices 1 2 3 4 5 6 
#
# 1 74.3604 23.7165 30.9325 -11.6224 7.7089 4.0943
# 2 23.7165 129.5072 34.2514 -10.3295 3.4452 16.8277
# 3 30.9325 34.2514 100.8904 -4.1418 6.9372 3.3987
# 4 -11.6224 -10.3295 -4.1418 39.5552 2.3589 -2.9492
# 5 7.7089 3.4452 6.9372 2.3589 32.5316 -3.1435
# 6 4.0943 16.8277 3.3987 -2.9492 -3.1435 36.3185
#
#
#
# Elastic Compliance Matrix: (Units=1/GPa)
#
#
# Indices 1 2 3 4 5 6 
#
# 1 0.016698 -0.001418 -0.004212 0.004233 -0.003290 -0.000772
# 2 -0.001418 0.009271 -0.002481 0.001494 -0.000595 -0.003834
# 3 -0.004212 -0.002481 0.012098 -0.000519 -0.001248 0.000342
# 4 0.004233 0.001494 -0.000519 0.027098 -0.002936 0.000825
# 5 -0.003290 -0.000595 -0.001248 -0.002936 0.032383 0.003328
# 6 -0.000772 -0.003834 0.000342 0.000825 0.003328 0.029721
#
#
# Mechanical properties :
#
#
# Convention : Reuss Voigt Hill
#
# Bulk Modulus (GPa) = 45.77881 53.61764 49.69822
# Shear Modulus (GPa) = 33.16275 36.07154 34.61715
#
# Velocity S-wave (km/s) = 3.90216 4.06970 3.98681
# Velocity P-wave (km/s) = 6.42822 6.83389 6.63416
#
# Compressibility (1/GPa) = 0.02184417
#
# Stress axis : x y z
#
# Youngs Moduli (GPa) = 59.88833 107.86769 82.65556
#
# Poissons Ratio (x) = 0.15300 0.34814
# Poissons Ratio (y) = 0.08495 0.20507
# Poissons Ratio (z) = 0.25224 0.26762
#
# Static dielectric constant tensor:
#      x y z
#    x 4.189860 0.161670 0.165290 
#    y 0.161670 3.738820 -0.253980 
#    z 0.165290 -0.253980 4.399670 
# 
# 
# High freq. dielectric constant tensor:
#      x y z
#    x 1.852590 0.000060 0.002100 
#    y 0.000060 1.869180 -0.007490 
#    z 0.002100 -0.007490 1.846170 
# 
# From -- ./inp_files/407379.got.cif
#   From: 2010.06.25/outbox.cif.g09.slc.cpg/sg2_204_cif.got.tgz:407379.got - 2010.06.27 13:26:56.
