data_PCOD8040649
_publ_section_title
;
Structure prediction by ZEFSAII (Michael W. Deem and Ramdas Pophale) SiO2 
 PCOD8040649
Probable space group: P -1
;
_chemical_formula_sum "Si O2"
_cell_formula_units_Z 16
_cell_length_a 12.271127
_cell_length_b 18.634622
_cell_length_c 9.169298
_cell_angle_alpha 27.601805
_cell_angle_beta 132.067839
_cell_angle_gamma 132.509558
_cell_volume 700.394054
_symmetry_space_group_name_H-M "P -1"
_symmetry_group_IT_number 2
_symmetry_cell_setting 'triclinic'
loop_
_space_group_symop_operation_xyz
x,y,z
-x,-y,-z
loop_
_atom_site_type_symbol
_atom_site_label
_atom_site_fract_x
_atom_site_fract_y
_atom_site_fract_z
Si Si1 0.284399 0.815849 0.643597
Si Si2 0.436702 0.092991 0.451793
Si Si3 0.500456 0.681682 0.645692
Si Si4 0.977681 0.328365 0.536418
Si Si5 0.922371 0.312691 0.082566
Si Si6 0.196879 0.793007 0.141229
Si Si7 0.357432 0.106988 0.862212
Si Si8 0.107450 0.157530 0.748217
O O1 0.446988 0.807320 0.743459
O O2 0.170562 0.793216 0.446169
O O3 0.216844 0.678241 0.949211
O O4 0.292881 0.989712 0.418414
O O5 0.401751 0.214746 0.321738
O O6 0.504490 0.960717 0.834430
O O7 0.328928 0.701916 0.458089
O O8 0.577661 0.737214 0.459117
O O9 0.500000 0.500000 0.000000
O O10 0.956222 0.290846 0.755997
O O11 0.123822 0.286442 0.664860
O O12 0.980920 0.511995 0.183111
O O13 0.028220 0.216342 0.431389
O O14 0.849927 0.216094 0.051116
O O15 0.249288 0.978602 0.892840
O O16 0.270585 0.145199 0.859643
O O17 0.000000 0.000000 0.000000
#
# Coordination Sequence:
#
# PCOD8040649 Si02
#       8
#     2   2   2   2   2   2   2   2
#     4  10  18  37  67  93 116 165 225 257 313 383
#     4  10  20  39  68  90 124 173 213 265 326 386
#     4  11  24  39  65  96 132 167 211 278 327 379
#     4  11  22  42  66  90 132 178 209 272 320 385
#     4  11  24  38  66  96 129 176 216 263 325 388
#     4  11  22  45  64  91 132 173 225 252 328 391
#     4  11  21  40  65  91 133 168 209 270 323 382
#     4  11  22  41  64  95 128 166 219 264 317 381
#
# _framework density 22.844282
#
# number of rings (size 3 to 8) (size 9 to 14) (size 15 to 20)
#    0.000    1.250    3.750    5.625    1.750    1.500 
#    0.000    5.000    0.000    6.000    0.000    0.000 
#    0.000    0.000    0.000    0.000    0.000    0.000 
#
# Total GULP energy -198289.495408 kJ/mol
# GULP energy per Si atom -12393.093463 kJ/mol
# Density = 2.279229 g / cm^3
# Si number density = 22.844282 Si / 1000 Ang^3
#
#
#
# Elastic Constant Matrix: (Units=GPa)
#
#
# Indices 1 2 3 4 5 6 
#
# 1 109.8711 5.4933 28.9829 -7.5020 -19.4198 -15.2630
# 2 5.4933 54.4899 3.3628 -3.3027 -2.6330 -4.4301
# 3 28.9829 3.3628 105.3482 -16.8183 -18.9265 -3.5447
# 4 -7.5020 -3.3027 -16.8183 25.1925 -6.8027 -9.6243
# 5 -19.4198 -2.6330 -18.9265 -6.8027 39.3941 -1.2697
# 6 -15.2630 -4.4301 -3.5447 -9.6243 -1.2697 28.5596
#
#
#
# Elastic Compliance Matrix: (Units=1/GPa)
#
#
# Indices 1 2 3 4 5 6 
#
# 1 0.012759 0.000617 -0.000015 0.010254 0.008441 0.010744
# 2 0.000617 0.019261 0.001079 0.006581 0.003434 0.005822
# 3 -0.000015 0.001079 0.013724 0.014589 0.009409 0.007197
# 4 0.010254 0.006581 0.014589 0.073544 0.026308 0.034265
# 5 0.008441 0.003434 0.009409 0.026308 0.039381 0.016828
# 6 0.010744 0.005822 0.007197 0.034265 0.016828 0.054848
#
#
# Mechanical properties :
#
#
# Convention : Reuss Voigt Hill
#
# Bulk Modulus (GPa) = 20.36385 38.37635 29.37010
# Shear Modulus (GPa) = 22.07272 34.08724 28.07998
#
# Velocity S-wave (km/s) = 3.11179 3.86703 3.50979
# Velocity P-wave (km/s) = 4.67381 6.06417 5.41381
#
# Compressibility (1/GPa) = 0.04910663
#
# Stress axis : x y z
#
# Youngs Moduli (GPa) = 78.37478 51.91752 72.86628
#
# Poissons Ratio (x) = -0.03206 0.00109
# Poissons Ratio (y) = -0.04840 -0.07860
# Poissons Ratio (z) = 0.00118 -0.05600
#
# Static dielectric constant tensor:
#      x y z
#    x 4.541230 -0.283040 -0.189050 
#    y -0.283040 4.247920 -0.020610 
#    z -0.189050 -0.020610 3.866400 
# 
# 
# High freq. dielectric constant tensor:
#      x y z
#    x 1.908890 -0.016800 -0.033270 
#    y -0.016800 1.898810 -0.000100 
#    z -0.033270 -0.000100 1.881650 
# 
# From -- ./inp_files/277253.got.cif
#   From: 2010.06.25/outbox.cif.g09.slc.cpg/sg2_139_cif.got.tgz:277253.got - 2010.06.27 13:26:56.
