data_PCOD8040965
_publ_section_title
;
Structure prediction by ZEFSAII (Michael W. Deem and Ramdas Pophale) SiO2 
 PCOD8040965
Probable space group: P -1
;
_chemical_formula_sum "Si O2"
_cell_formula_units_Z 14
_cell_length_a 7.472377
_cell_length_b 12.634284
_cell_length_c 9.382895
_cell_angle_alpha 58.672772
_cell_angle_beta 112.752174
_cell_angle_gamma 135.827985
_cell_volume 527.123059
_symmetry_space_group_name_H-M "P -1"
_symmetry_group_IT_number 2
_symmetry_cell_setting 'triclinic'
loop_
_space_group_symop_operation_xyz
x,y,z
-x,-y,-z
loop_
_atom_site_type_symbol
_atom_site_label
_atom_site_fract_x
_atom_site_fract_y
_atom_site_fract_z
Si Si1 0.492972 0.128513 0.102640
Si Si2 0.663097 0.574740 0.788203
Si Si3 0.601698 0.919793 0.403565
Si Si4 0.332765 0.657061 0.721302
Si Si5 0.165364 0.204398 0.878143
Si Si6 0.911818 0.828515 0.446024
Si Si7 0.050968 0.686715 0.069540
O O1 0.638612 0.249901 0.194973
O O2 0.473163 0.973534 0.232833
O O3 0.211183 0.076214 0.028122
O O4 0.652267 0.212845 0.945911
O O5 0.550559 0.641888 0.798021
O O6 0.456553 0.379178 0.849935
O O7 0.754795 0.656315 0.602378
O O8 0.905847 0.628951 0.913314
O O9 0.361506 0.750892 0.522279
O O10 0.769666 0.900795 0.367997
O O11 0.794558 0.047919 0.496235
O O12 0.054323 0.474027 0.759242
O O13 0.060293 0.186848 0.700908
O O14 0.981001 0.197575 0.937066
#
# Coordination Sequence:
#
# PCOD8040965 Si02
#       7
#     2   2   2   2   2   2   2
#     4  12  22  39  68  99 128 173 214 264 326 381
#     4  10  18  40  68  94 129 168 217 263 320 391
#     4  10  23  41  66  92 130 181 216 253 322 406
#     4  10  20  38  65  98 123 170 222 260 309 390
#     4  11  23  39  67 104 128 164 214 284 321 367
#     4  10  22  42  66  94 133 173 217 263 327 383
#     4  11  21  40  70  99 127 166 222 265 320 390
#
# _framework density 26.559263999999999
#
# number of rings (size 3 to 8) (size 9 to 14) (size 15 to 20)
#    0.000    1.429    4.286    2.143    0.000    0.571 
#    0.000    7.143    0.000    6.857    0.000    0.000 
#    0.000    0.000    0.000    0.000    0.000    0.000 
#
# Total GULP energy -173684.315532 kJ/mol
# GULP energy per Si atom -12406.022538 kJ/mol
# Density = 2.649881 g / cm^3
# Si number density = 26.559264 Si / 1000 Ang^3
#
#
#
# Elastic Constant Matrix: (Units=GPa)
#
#
# Indices 1 2 3 4 5 6 
#
# 1 134.5734 32.8620 58.8521 -11.2683 -3.5469 14.8248
# 2 32.8620 41.7650 28.2175 -2.9948 2.5257 -1.3922
# 3 58.8521 28.2175 109.4545 -18.5586 -4.6561 10.7528
# 4 -11.2683 -2.9948 -18.5586 51.8319 -1.9246 -2.5273
# 5 -3.5469 2.5257 -4.6561 -1.9246 41.3006 0.1191
# 6 14.8248 -1.3922 10.7528 -2.5273 0.1191 26.8864
#
#
#
# Elastic Compliance Matrix: (Units=1/GPa)
#
#
# Indices 1 2 3 4 5 6 
#
# 1 0.011295 -0.006532 -0.003766 0.000522 0.000984 -0.005015
# 2 -0.006532 0.033729 -0.006344 -0.001492 -0.003431 0.007761
# 3 -0.003766 -0.006344 0.013834 0.003667 0.001805 -0.003448
# 4 0.000522 -0.001492 0.003667 0.020695 0.001513 0.000107
# 5 0.000984 -0.003431 0.001805 0.001513 0.024785 -0.001409
# 6 -0.005015 0.007761 -0.003448 0.000107 -0.001409 0.041756
#
#
# Mechanical properties :
#
#
# Convention : Reuss Voigt Hill
#
# Bulk Modulus (GPa) = 39.10444 58.40625 48.75535
# Shear Modulus (GPa) = 26.60940 35.06120 30.83530
#
# Velocity S-wave (km/s) = 3.16869 3.63728 3.41104
# Velocity P-wave (km/s) = 5.30499 6.29908 5.82328
#
# Compressibility (1/GPa) = 0.02557254
#
# Stress axis : x y z
#
# Youngs Moduli (GPa) = 88.53350 29.64829 72.28493
#
# Poissons Ratio (x) = 0.19366 0.27225
# Poissons Ratio (y) = 0.57830 0.45861
# Poissons Ratio (z) = 0.33344 0.18810
#
# Static dielectric constant tensor:
#      x y z
#    x 4.788450 -0.026860 -0.078740 
#    y -0.026860 4.952240 -0.506990 
#    z -0.078740 -0.506990 4.814620 
# 
# 
# High freq. dielectric constant tensor:
#      x y z
#    x 2.078760 -0.000620 -0.008820 
#    y -0.000620 2.068430 -0.021150 
#    z -0.008820 -0.021150 2.063530 
# 
# From -- ./inp_files/199872.got.cif
#   From: 2010.06.25/outbox.cif.g09.slc.cpg/sg2_100_cif.got.tgz:199872.got - 2010.06.27 13:26:56.
