data_PCOD8040083
_publ_section_title
;
Structure prediction by ZEFSAII (Michael W. Deem and Ramdas Pophale) SiO2 
 PCOD8040083
Probable space group: P -1
;
_chemical_formula_sum "Si O2"
_cell_formula_units_Z 14
_cell_length_a 11.981514
_cell_length_b 9.861066
_cell_length_c 8.825955
_cell_angle_alpha 51.020732
_cell_angle_beta 57.319527
_cell_angle_gamma 62.303432
_cell_volume 669.715485
_symmetry_space_group_name_H-M "P -1"
_symmetry_group_IT_number 2
_symmetry_cell_setting 'triclinic'
loop_
_space_group_symop_operation_xyz
x,y,z
-x,-y,-z
loop_
_atom_site_type_symbol
_atom_site_label
_atom_site_fract_x
_atom_site_fract_y
_atom_site_fract_z
Si Si1 0.312243 0.763840 0.099562
Si Si2 0.817818 0.024106 0.523761
Si Si3 0.251626 0.701121 0.852907
Si Si4 0.544725 0.590184 0.256286
Si Si5 0.065175 0.742333 0.496375
Si Si6 0.031742 0.391004 0.902213
Si Si7 0.294408 0.121803 0.997382
O O1 0.419882 0.619688 0.211881
O O2 0.162591 0.765849 0.270751
O O3 0.345802 0.959079 0.960806
O O4 0.322933 0.713317 0.952118
O O5 0.728945 0.126584 0.380523
O O6 0.891294 0.176324 0.434639
O O7 0.729755 0.951059 0.766565
O O8 0.917739 0.859012 0.488611
O O9 0.324284 0.524477 0.838074
O O10 0.094156 0.694838 0.997973
O O11 0.500000 0.500000 0.500000
O O12 0.584005 0.773365 0.151956
O O13 0.062314 0.533193 0.655797
O O14 0.159746 0.235559 0.942737
O O15 0.000000 0.500000 0.000000
#
# Coordination Sequence:
#
# PCOD8040083 Si02
#       7
#     2   2   2   2   2   2   2
#     4  11  26  40  59  94 132 159 201 256 315 359
#     4  10  18  35  63  88 122 158 207 248 301 363
#     4  12  24  40  62  93 129 160 199 264 313 353
#     4  12  24  45  69  86 117 168 216 248 294 380
#     4  10  19  36  60  93 120 164 205 249 297 369
#     4  12  19  37  67  95 122 158 213 253 299 362
#     4  11  22  41  67  91 118 162 214 252 298 369
#
# _framework density 20.904401
#
# number of rings (size 3 to 8) (size 9 to 14) (size 15 to 20)
#    0.000    0.857    4.286    5.143    0.000    2.857 
#    0.000    7.143    0.000    0.000    0.000    0.000 
#    0.000    0.000    0.000    0.000    0.000    0.000 
#
# Total GULP energy -173649.554781 kJ/mol
# GULP energy per Si atom -12403.539627 kJ/mol
# Density = 2.085682 g / cm^3
# Si number density = 20.904401 Si / 1000 Ang^3
#
#
#
# Elastic Constant Matrix: (Units=GPa)
#
#
# Indices 1 2 3 4 5 6 
#
# 1 87.5772 21.5239 45.7612 -1.7307 14.1627 8.2506
# 2 21.5239 56.2307 39.6903 -4.8306 11.8023 1.6241
# 3 45.7612 39.6903 121.6000 -22.6048 3.2603 19.2010
# 4 -1.7307 -4.8306 -22.6048 30.4221 -3.3746 2.2103
# 5 14.1627 11.8023 3.2603 -3.3746 38.1754 -3.8097
# 6 8.2506 1.6241 19.2010 2.2103 -3.8097 24.1433
#
#
#
# Elastic Compliance Matrix: (Units=1/GPa)
#
#
# Indices 1 2 3 4 5 6 
#
# 1 0.015744 -0.000864 -0.006167 -0.004372 -0.005522 -0.000889
# 2 -0.000864 0.025722 -0.009537 -0.004186 -0.006640 0.005485
# 3 -0.006167 -0.009537 0.017803 0.012638 0.003636 -0.011993
# 4 -0.004372 -0.004186 0.012638 0.042677 0.004464 -0.011478
# 5 -0.005522 -0.006640 0.003636 0.004464 0.030768 0.003888
# 6 -0.000889 0.005485 -0.011993 -0.011478 0.003888 0.052556
#
#
# Mechanical properties :
#
#
# Convention : Reuss Voigt Hill
#
# Bulk Modulus (GPa) = 38.26681 53.26208 45.76445
# Shear Modulus (GPa) = 22.01526 29.11033 25.56279
#
# Velocity S-wave (km/s) = 3.24873 3.73573 3.50071
# Velocity P-wave (km/s) = 5.69366 6.64393 6.18706
#
# Compressibility (1/GPa) = 0.02613230
#
# Stress axis : x y z
#
# Youngs Moduli (GPa) = 63.51777 38.87784 56.17137
#
# Poissons Ratio (x) = 0.03360 0.34641
# Poissons Ratio (y) = 0.05490 0.53568
# Poissons Ratio (z) = 0.39171 0.37076
#
# Static dielectric constant tensor:
#      x y z
#    x 3.905310 -0.446260 0.245510 
#    y -0.446260 4.241570 -0.665900 
#    z 0.245510 -0.665900 4.248460 
# 
# 
# High freq. dielectric constant tensor:
#      x y z
#    x 1.801800 -0.018980 0.001840 
#    y -0.018980 1.815330 -0.015780 
#    z 0.001840 -0.015780 1.824670 
# 
# From -- ./inp_files/206493.got.cif
#   From: 2010.06.25/outbox.cif.g09.slc.cpg/sg2_104_cif.got.tgz:206493.got - 2010.06.27 13:26:56.
