data_PCOD8040117
_publ_section_title
;
Structure prediction by ZEFSAII (Michael W. Deem and Ramdas Pophale) SiO2 
 PCOD8040117
Probable space group: P -1
;
_chemical_formula_sum "Si O2"
_cell_formula_units_Z 16
_cell_length_a 9.112174
_cell_length_b 11.400253
_cell_length_c 9.643441
_cell_angle_alpha 52.998277
_cell_angle_beta 104.952292
_cell_angle_gamma 96.589693
_cell_volume 771.876759
_symmetry_space_group_name_H-M "P -1"
_symmetry_group_IT_number 2
_symmetry_cell_setting 'triclinic'
loop_
_space_group_symop_operation_xyz
x,y,z
-x,-y,-z
loop_
_atom_site_type_symbol
_atom_site_label
_atom_site_fract_x
_atom_site_fract_y
_atom_site_fract_z
Si Si1 0.921675 0.038590 0.804802
Si Si2 0.645748 0.674916 0.653045
Si Si3 0.432808 0.941749 0.883986
Si Si4 0.380848 0.640803 0.185078
Si Si5 0.726570 0.608892 0.260383
Si Si6 0.301137 0.193301 0.135615
Si Si7 0.817419 0.811914 0.372179
Si Si8 0.687615 0.309599 0.564108
O O1 0.780757 0.155821 0.697318
O O2 0.033198 0.095568 0.672286
O O3 0.854403 0.890595 0.834502
O O4 0.000000 0.000000 0.000000
O O5 0.661633 0.500117 0.815986
O O6 0.643532 0.765188 0.729316
O O7 0.796043 0.707804 0.574411
O O8 0.485563 0.713345 0.508706
O O9 0.566864 0.910205 0.829198
O O10 0.320242 0.070821 0.713139
O O11 0.338111 0.794672 0.987841
O O12 0.500000 0.000000 0.000000
O O13 0.559620 0.635963 0.263637
O O14 0.301304 0.628992 0.321654
O O15 0.825337 0.714819 0.302537
O O16 0.769911 0.433553 0.404099
O O17 0.733593 0.658229 0.067356
#
# Coordination Sequence:
#
# PCOD8040117 Si02
#       8
#     2   2   2   2   2   2   2   2
#     4  12  25  40  63  93 125 165 214 257 306 369
#     4  11  23  41  64  93 130 160 204 264 313 364
#     4  11  19  36  65  90 122 157 207 256 304 364
#     4  10  18  35  64  95 120 159 204 257 310 361
#     4  10  19  37  63  94 120 158 206 254 305 367
#     4  11  24  41  63  94 127 163 207 259 313 365
#     4  12  21  39  61  91 124 166 204 255 310 362
#     4  11  21  38  67  95 121 159 214 253 308 373
#
# _framework density 20.728698000000001
#
# number of rings (size 3 to 8) (size 9 to 14) (size 15 to 20)
#    0.000    1.000    6.250    3.000    0.000    7.500 
#    0.000    0.000    0.000    5.250    0.000    0.000 
#    0.000    0.000    0.000    0.000    0.000    0.000 
#
# Total GULP energy -198299.323959 kJ/mol
# GULP energy per Si atom -12393.707747 kJ/mol
# Density = 2.068152 g / cm^3
# Si number density = 20.728698 Si / 1000 Ang^3
#
#
#
# Elastic Constant Matrix: (Units=GPa)
#
#
# Indices 1 2 3 4 5 6 
#
# 1 77.2147 38.9256 31.1911 1.7589 -28.3575 21.0615
# 2 38.9256 110.6019 41.0960 3.4300 -7.4998 13.7066
# 3 31.1911 41.0960 71.4897 -9.3421 -13.9233 6.9517
# 4 1.7589 3.4300 -9.3421 44.4403 0.5569 -9.5838
# 5 -28.3575 -7.4998 -13.9233 0.5569 25.1107 -4.5168
# 6 21.0615 13.7066 6.9517 -9.5838 -4.5168 22.0213
#
#
#
# Elastic Compliance Matrix: (Units=1/GPa)
#
#
# Indices 1 2 3 4 5 6 
#
# 1 0.038022 -0.005329 -0.005402 -0.008749 0.033457 -0.028288
# 2 -0.005329 0.013548 -0.006713 -0.002989 -0.006313 -0.003813
# 3 -0.005402 -0.006713 0.021359 0.006548 0.004748 0.006426
# 4 -0.008749 -0.002989 0.006548 0.028783 -0.004215 0.019823
# 5 0.033457 -0.006313 0.004748 -0.004215 0.075588 -0.015899
# 6 -0.028288 -0.003813 0.006426 0.019823 -0.015899 0.078176
#
#
# Mechanical properties :
#
#
# Convention : Reuss Voigt Hill
#
# Bulk Modulus (GPa) = 26.28650 53.52574 39.90612
# Shear Modulus (GPa) = 16.49920 28.18735 22.34328
#
# Velocity S-wave (km/s) = 2.82434 3.69158 3.28669
# Velocity P-wave (km/s) = 4.83162 6.63690 5.80487
#
# Compressibility (1/GPa) = 0.03804234
#
# Stress axis : x y z
#
# Youngs Moduli (GPa) = 26.30059 73.81082 46.81758
#
# Poissons Ratio (x) = 0.39331 0.25293
# Poissons Ratio (y) = 0.14014 0.31427
# Poissons Ratio (z) = 0.14209 0.49546
#
# Static dielectric constant tensor:
#      x y z
#    x 3.233410 0.546310 -0.428930 
#    y 0.546310 3.476670 -0.316010 
#    z -0.428930 -0.316010 3.721030 
# 
# 
# High freq. dielectric constant tensor:
#      x y z
#    x 1.791200 0.009920 -0.026260 
#    y 0.009920 1.812320 -0.031080 
#    z -0.026260 -0.031080 1.800180 
# 
# From -- ./inp_files/175322.got.cif
#   From: 2010.06.25/outbox.cif.g09.slc.cpg/sg2_88_cif.got.tgz:175322.got - 2010.06.27 13:26:56.
