data_PCOD8040187
_publ_section_title
;
Structure prediction by ZEFSAII (Michael W. Deem and Ramdas Pophale) SiO2 
 PCOD8040187
Probable space group: P -1
;
_chemical_formula_sum "Si O2"
_cell_formula_units_Z 14
_cell_length_a 13.284286
_cell_length_b 9.358324
_cell_length_c 9.330296
_cell_angle_alpha 65.581859
_cell_angle_beta 119.938813
_cell_angle_gamma 128.765293
_cell_volume 774.941870
_symmetry_space_group_name_H-M "P -1"
_symmetry_group_IT_number 2
_symmetry_cell_setting 'triclinic'
loop_
_space_group_symop_operation_xyz
x,y,z
-x,-y,-z
loop_
_atom_site_type_symbol
_atom_site_label
_atom_site_fract_x
_atom_site_fract_y
_atom_site_fract_z
Si Si1 0.203380 0.366857 0.806199
Si Si2 0.045809 0.960804 0.400520
Si Si3 0.593996 0.235792 0.200479
Si Si4 0.868629 0.844053 0.892832
Si Si5 0.434557 0.342630 0.832630
Si Si6 0.337117 0.064060 0.624431
Si Si7 0.415606 0.233884 0.312499
O O1 0.259984 0.581529 0.724513
O O2 0.324107 0.327822 0.874270
O O3 0.071668 0.233321 0.671059
O O4 0.172478 0.339407 0.968138
O O5 0.088699 0.139107 0.251998
O O6 0.176295 0.942628 0.522620
O O7 0.000000 0.000000 0.500000
O O8 0.492956 0.166709 0.293413
O O9 0.616378 0.074424 0.234177
O O10 0.533946 0.292333 0.002947
O O11 0.744014 0.878551 0.799231
O O12 0.000000 0.000000 0.000000
O O13 0.355796 0.199755 0.709070
O O14 0.521989 0.546989 0.743668
O O15 0.429526 0.183947 0.505947
#
# Coordination Sequence:
#
# PCOD8040187 Si02
#       7
#     2   2   2   2   2   2   2
#     4  10  18  36  57  79 102 145 188 214 257 325
#     4  10  20  35  56  80 107 140 182 228 259 311
#     4  11  21  35  56  81 115 140 174 224 274 323
#     4   9  17  31  56  80  98 137 186 220 247 314
#     4  11  19  35  58  79 109 144 181 221 260 325
#     4  11  23  34  53  86 112 141 173 228 280 307
#     4  10  19  36  55  81 106 142 187 215 262 323
#
# _framework density 18.065871000000001
#
# number of rings (size 3 to 8) (size 9 to 14) (size 15 to 20)
#    0.000    1.714    4.286    2.143    0.000    0.571 
#    0.000    0.000    0.000    0.857    0.000    0.000 
#    0.000    0.000    0.000    0.000    0.000    0.000 
#
# Total GULP energy -173487.529130 kJ/mol
# GULP energy per Si atom -12391.966366 kJ/mol
# Density = 1.802475 g / cm^3
# Si number density = 18.065871 Si / 1000 Ang^3
#
#
#
# Elastic Constant Matrix: (Units=GPa)
#
#
# Indices 1 2 3 4 5 6 
#
# 1 77.3290 38.9718 35.4435 -8.8730 -11.2103 11.7190
# 2 38.9718 75.0666 36.9360 0.9732 9.6692 7.3217
# 3 35.4435 36.9360 85.2940 -4.4689 -6.0694 4.1566
# 4 -8.8730 0.9732 -4.4689 27.2327 2.8955 5.0804
# 5 -11.2103 9.6692 -6.0694 2.8955 35.7008 -0.9482
# 6 11.7190 7.3217 4.1566 5.0804 -0.9482 27.4114
#
#
#
# Elastic Compliance Matrix: (Units=1/GPa)
#
#
# Indices 1 2 3 4 5 6 
#
# 1 0.023429 -0.010878 -0.003604 0.007933 0.008842 -0.007729
# 2 -0.010878 0.023729 -0.006728 -0.004321 -0.010642 -0.000234
# 3 -0.003604 -0.006728 0.016407 0.001261 0.003397 0.000734
# 4 0.007933 -0.004321 0.001261 0.041529 0.000239 -0.010117
# 5 0.008842 -0.010642 0.003397 0.000239 0.034219 -0.000313
# 6 -0.007729 -0.000234 0.000734 -0.010117 -0.000313 0.041601
#
#
# Mechanical properties :
#
#
# Convention : Reuss Voigt Hill
#
# Bulk Modulus (GPa) = 47.28974 51.15469 49.22221
# Shear Modulus (GPa) = 21.70307 26.49152 24.09730
#
# Velocity S-wave (km/s) = 3.46978 3.83350 3.65616
# Velocity P-wave (km/s) = 6.50274 6.92614 6.71777
#
# Compressibility (1/GPa) = 0.02114623
#
# Stress axis : x y z
#
# Youngs Moduli (GPa) = 42.68164 42.14235 60.94971
#
# Poissons Ratio (x) = 0.45844 0.21964
# Poissons Ratio (y) = 0.46431 0.41004
# Poissons Ratio (z) = 0.15381 0.28351
#
# Static dielectric constant tensor:
#      x y z
#    x 3.533890 0.443510 -0.281650 
#    y 0.443510 3.351630 -0.026570 
#    z -0.281650 -0.026570 3.623170 
# 
# 
# High freq. dielectric constant tensor:
#      x y z
#    x 1.695920 0.032910 -0.010770 
#    y 0.032910 1.681860 0.007010 
#    z -0.010770 0.007010 1.710840 
# 
# From -- ./inp_files/158901.got.cif
#   From: 2010.06.25/outbox.cif.g09.slc.cpg/sg2_80_cif.got.tgz:158901.got - 2010.06.27 13:26:56.
