data_PCOD8040329
_publ_section_title
;
Structure prediction by ZEFSAII (Michael W. Deem and Ramdas Pophale) SiO2 
 PCOD8040329
Probable space group: P -1
;
_chemical_formula_sum "Si O2"
_cell_formula_units_Z 16
_cell_length_a 10.082945
_cell_length_b 20.193581
_cell_length_c 11.736871
_cell_angle_alpha 151.280908
_cell_angle_beta 77.822802
_cell_angle_gamma 82.243493
_cell_volume 821.787358
_symmetry_space_group_name_H-M "P -1"
_symmetry_group_IT_number 2
_symmetry_cell_setting 'triclinic'
loop_
_space_group_symop_operation_xyz
x,y,z
-x,-y,-z
loop_
_atom_site_type_symbol
_atom_site_label
_atom_site_fract_x
_atom_site_fract_y
_atom_site_fract_z
Si Si1 0.397899 0.312759 0.265851
Si Si2 0.166807 0.173526 0.804559
Si Si3 0.501654 0.026041 0.171731
Si Si4 0.574818 0.255001 0.921687
Si Si5 0.793271 0.373890 0.046944
Si Si6 0.787311 0.543523 0.831770
Si Si7 0.818158 0.538772 0.072779
Si Si8 0.142881 0.251473 0.186335
O O1 0.357942 0.436121 0.567408
O O2 0.204116 0.372030 0.349651
O O3 0.487115 0.340458 0.191413
O O4 0.543815 0.091289 0.939854
O O5 0.340059 0.956077 0.418163
O O6 0.219155 0.286759 0.918669
O O7 0.131670 0.194561 0.977726
O O8 0.988634 0.238677 0.870528
O O9 0.357520 0.240396 0.556516
O O10 0.500000 0.000000 0.000000
O O11 0.704895 0.932859 0.040526
O O12 0.729441 0.260943 0.875781
O O13 0.409954 0.383545 0.055034
O O14 0.806967 0.426113 0.997129
O O15 0.944882 0.372910 0.464438
O O16 0.828288 0.465972 0.835776
O O17 0.000000 0.500000 0.000000
#
# Coordination Sequence:
#
# PCOD8040329 Si02
#       8
#     2   2   2   2   2   2   2   2
#     4  10  20  39  62  91 118 156 203 251 302 353
#     4  12  21  42  63  89 124 158 210 256 295 358
#     4  10  18  36  61  96 119 149 207 257 298 345
#     4  12  26  38  61  94 125 163 201 253 311 364
#     4  12  25  41  59  91 131 163 195 250 317 364
#     4  12  21  40  66  90 120 159 213 253 298 357
#     4  12  22  38  65  92 122 161 206 251 300 368
#     4  10  21  37  68  94 113 156 209 262 296 347
#
# _framework density 19.469757000000001
#
# number of rings (size 3 to 8) (size 9 to 14) (size 15 to 20)
#    0.750    0.000    5.000    4.500    0.000    0.500 
#    0.000    0.000    0.000    1.500    0.000    0.000 
#    0.000    0.000    0.000    0.000    0.000    0.000 
#
# Total GULP energy -198406.943201 kJ/mol
# GULP energy per Si atom -12400.433950 kJ/mol
# Density = 1.942544 g / cm^3
# Si number density = 19.469757 Si / 1000 Ang^3
#
#
#
# Elastic Constant Matrix: (Units=GPa)
#
#
# Indices 1 2 3 4 5 6 
#
# 1 91.4777 43.9796 15.3996 -0.8673 -11.3632 -11.6456
# 2 43.9796 133.3518 29.2575 -23.3937 -5.0110 -22.5020
# 3 15.3996 29.2575 78.4081 -7.4493 -8.6604 -9.7632
# 4 -0.8673 -23.3937 -7.4493 36.8198 -7.9146 -1.2124
# 5 -11.3632 -5.0110 -8.6604 -7.9146 23.1893 2.9857
# 6 -11.6456 -22.5020 -9.7632 -1.2124 2.9857 32.2868
#
#
#
# Elastic Compliance Matrix: (Units=1/GPa)
#
#
# Indices 1 2 3 4 5 6 
#
# 1 0.013861 -0.004281 -0.000534 -0.001377 0.005025 0.001338
# 2 -0.004281 0.011748 -0.001890 0.007507 0.001497 0.006215
# 3 -0.000534 -0.001890 0.014789 0.003059 0.005567 0.002562
# 4 -0.001377 0.007507 0.003059 0.035607 0.013502 0.005749
# 5 0.005025 0.001497 0.005567 0.013502 0.052573 0.000184
# 6 0.001338 0.006215 0.002562 0.005749 0.000184 0.036760
#
#
# Mechanical properties :
#
#
# Convention : Reuss Voigt Hill
#
# Bulk Modulus (GPa) = 37.05604 53.39012 45.22308
# Shear Modulus (GPa) = 26.63194 32.76591 29.69893
#
# Velocity S-wave (km/s) = 3.70247 4.10678 3.90986
# Velocity P-wave (km/s) = 6.11160 7.06889 6.60760
#
# Compressibility (1/GPa) = 0.02698615
#
# Stress axis : x y z
#
# Youngs Moduli (GPa) = 72.14291 85.12381 67.61960
#
# Poissons Ratio (x) = 0.36445 0.03611
# Poissons Ratio (y) = 0.30887 0.12782
# Poissons Ratio (z) = 0.03853 0.16091
#
# Static dielectric constant tensor:
#      x y z
#    x 3.266520 -0.154100 -0.022280 
#    y -0.154100 3.602170 -0.170740 
#    z -0.022280 -0.170740 3.534730 
# 
# 
# High freq. dielectric constant tensor:
#      x y z
#    x 1.735530 -0.024240 -0.010610 
#    y -0.024240 1.763980 -0.008100 
#    z -0.010610 -0.008100 1.764330 
# 
# From -- ./inp_files/405071.got.cif
#   From: 2010.06.25/outbox.cif.g09.slc.cpg/sg2_203_cif.got.tgz:405071.got - 2010.06.27 13:26:56.
