data_PCOD8040580
_publ_section_title
;
Structure prediction by ZEFSAII (Michael W. Deem and Ramdas Pophale) SiO2 
 PCOD8040580
Probable space group: P -1
;
_chemical_formula_sum "Si O2"
_cell_formula_units_Z 16
_cell_length_a 14.786617
_cell_length_b 9.247172
_cell_length_c 26.786564
_cell_angle_alpha 36.936854
_cell_angle_beta 19.349722
_cell_angle_gamma 44.738153
_cell_volume 711.389082
_symmetry_space_group_name_H-M "P -1"
_symmetry_group_IT_number 2
_symmetry_cell_setting 'triclinic'
loop_
_space_group_symop_operation_xyz
x,y,z
-x,-y,-z
loop_
_atom_site_type_symbol
_atom_site_label
_atom_site_fract_x
_atom_site_fract_y
_atom_site_fract_z
Si Si1 0.109026 0.989264 0.344041
Si Si2 0.644136 0.254877 0.938114
Si Si3 0.726379 0.092070 0.258094
Si Si4 0.597826 0.630731 0.717738
Si Si5 0.176848 0.754856 0.655454
Si Si6 0.167492 0.161451 0.092458
Si Si7 0.978589 0.246027 0.860095
Si Si8 0.570122 0.776769 0.798963
O O1 0.933388 0.701190 0.510407
O O2 0.166834 0.064097 0.351549
O O3 0.905783 0.147274 0.381641
O O4 0.400519 0.041813 0.148040
O O5 0.877488 0.351041 0.831986
O O6 0.527975 0.484549 0.915460
O O7 0.778293 0.115601 0.862871
O O8 0.494343 0.892535 0.464446
O O9 0.853602 0.963525 0.181460
O O10 0.589705 0.304216 0.247737
O O11 0.963047 0.213882 0.140618
O O12 0.596835 0.810335 0.716657
O O13 0.469793 0.349425 0.877025
O O14 0.963740 0.802942 0.795739
O O15 0.170478 0.466014 0.731371
O O16 0.707328 0.131233 0.066189
#
# Coordination Sequence:
#
# PCOD8040580 Si02
#       8
#     2   2   2   2   2   2   2   2
#     4  10  20  36  60  89 119 148 189 244 293 335
#     4  10  20  37  64  86 118 150 191 245 284 341
#     4  10  24  38  60  83 120 153 197 238 286 342
#     4  11  23  37  58  83 124 161 185 231 291 356
#     4  11  19  38  62  89 112 148 199 245 285 334
#     4  11  23  40  59  87 118 157 194 233 294 340
#     4  10  18  37  63  88 110 149 195 244 291 326
#     4  11  19  38  62  89 121 143 195 246 287 339
#
# _framework density 22.491208
#
# number of rings (size 3 to 8) (size 9 to 14) (size 15 to 20)
#    0.000    1.500    3.750    2.250    0.000    3.000 
#    0.000    1.250    0.000    0.000    0.000    0.000 
#    0.000    0.000    0.000    0.000    0.000    0.000 
#
# Total GULP energy -198295.085957 kJ/mol
# GULP energy per Si atom -12393.442872 kJ/mol
# Density = 2.244002 g / cm^3
# Si number density = 22.491208 Si / 1000 Ang^3
#
#
#
# Elastic Constant Matrix: (Units=GPa)
#
#
# Indices 1 2 3 4 5 6 
#
# 1 71.1968 -2.2971 10.6503 -8.2496 -10.3233 13.7553
# 2 -2.2971 51.1008 20.4962 2.1574 -3.4867 15.7382
# 3 10.6503 20.4962 116.1929 -10.3510 -15.6223 7.4120
# 4 -8.2496 2.1574 -10.3510 17.5511 6.8098 -4.3889
# 5 -10.3233 -3.4867 -15.6223 6.8098 25.9121 -1.8307
# 6 13.7553 15.7382 7.4120 -4.3889 -1.8307 26.7905
#
#
#
# Elastic Compliance Matrix: (Units=1/GPa)
#
#
# Indices 1 2 3 4 5 6 
#
# 1 0.017494 0.004713 -0.000769 0.002250 0.005788 -0.010774
# 2 0.004713 0.028235 -0.004536 -0.010398 0.004321 -0.019160
# 3 -0.000769 -0.004536 0.010398 0.005055 0.004115 0.001292
# 4 0.002250 -0.010398 0.005055 0.071806 -0.015318 0.014271
# 5 0.005788 0.004321 0.004115 -0.015318 0.047568 -0.005908
# 6 -0.010774 -0.019160 0.001292 0.014271 -0.005908 0.055691
#
#
# Mechanical properties :
#
#
# Convention : Reuss Voigt Hill
#
# Bulk Modulus (GPa) = 18.20040 32.90990 25.55515
# Shear Modulus (GPa) = 19.94492 28.02681 23.98587
#
# Velocity S-wave (km/s) = 2.98113 3.53388 3.26921
# Velocity P-wave (km/s) = 4.46758 5.59599 5.06332
#
# Compressibility (1/GPa) = 0.05494385
#
# Stress axis : x y z
#
# Youngs Moduli (GPa) = 57.16200 35.41698 96.17101
#
# Poissons Ratio (x) = -0.16692 0.07395
# Poissons Ratio (y) = -0.26940 0.43620
# Poissons Ratio (z) = 0.04396 0.16064
#
# Static dielectric constant tensor:
#      x y z
#    x 4.029420 0.275930 -0.221950 
#    y 0.275930 3.599440 0.028530 
#    z -0.221950 0.028530 4.264960 
# 
# 
# High freq. dielectric constant tensor:
#      x y z
#    x 1.885410 0.021520 -0.016990 
#    y 0.021520 1.852920 0.003610 
#    z -0.016990 0.003610 1.895790 
# 
# From -- ./inp_files/190715.got.cif
#   From: 2010.06.25/outbox.cif.g09.slc.cpg/sg2_96_cif.got.tgz:190715.got - 2010.06.27 13:26:56.
