data_PCOD8040927
_publ_section_title
;
Structure prediction by ZEFSAII (Michael W. Deem and Ramdas Pophale) SiO2 
 PCOD8040927
Probable space group: P -1
;
_chemical_formula_sum "Si O2"
_cell_formula_units_Z 16
_cell_length_a 9.034347
_cell_length_b 16.822556
_cell_length_c 20.232116
_cell_angle_alpha 160.276366
_cell_angle_beta 59.874100
_cell_angle_gamma 126.569174
_cell_volume 813.495881
_symmetry_space_group_name_H-M "P -1"
_symmetry_group_IT_number 2
_symmetry_cell_setting 'triclinic'
loop_
_space_group_symop_operation_xyz
x,y,z
-x,-y,-z
loop_
_atom_site_type_symbol
_atom_site_label
_atom_site_fract_x
_atom_site_fract_y
_atom_site_fract_z
Si Si1 0.473387 0.537222 0.458527
Si Si2 0.421940 0.010725 0.433987
Si Si3 0.787317 0.300067 0.649501
Si Si4 0.645569 0.042989 0.742774
Si Si5 0.182664 0.323255 0.589696
Si Si6 0.085550 0.314946 0.305262
Si Si7 0.792574 0.734610 0.901649
Si Si8 0.367188 0.514093 0.830148
O O1 0.500000 0.500000 0.500000
O O2 0.641164 0.486842 0.346221
O O3 0.266772 0.334511 0.322259
O O4 0.498188 0.828255 0.658630
O O5 0.263703 0.753292 0.302674
O O6 0.444977 0.979028 0.326436
O O7 0.626632 0.067904 0.462879
O O8 0.364343 0.246885 0.649481
O O9 0.792612 0.574054 0.841309
O O10 0.987523 0.302292 0.588683
O O11 0.824217 0.968822 0.636549
O O12 0.705209 0.335329 0.983023
O O13 0.221518 0.450520 0.752868
O O14 0.140567 0.378196 0.265316
O O15 0.000000 0.500000 0.500000
O O16 0.926523 0.025407 0.117983
O O17 0.581538 0.703601 0.909305
#
# Coordination Sequence:
#
# PCOD8040927 Si02
#       8
#     2   2   2   2   2   2   2   2
#     4  10  21  39  55  85 120 152 192 234 295 337
#     4   9  20  40  65  82 118 152 195 238 297 342
#     4  10  20  40  61  88 118 154 186 250 292 341
#     4   9  20  38  61  85 113 157 193 240 284 353
#     4   9  21  38  58  82 122 152 189 241 292 344
#     4  11  22  38  61  85 114 160 197 239 283 345
#     4  10  22  38  59  87 115 152 205 232 288 344
#     4  10  18  40  60  82 115 156 192 240 286 349
#
# _framework density 19.668201
#
# number of rings (size 3 to 8) (size 9 to 14) (size 15 to 20)
#    0.750    1.500    1.250    1.500    1.750    3.000 
#    0.000   11.875    0.000    0.000    0.000    0.000 
#    0.000    0.000    0.000    0.000    0.000    0.000 
#
# Total GULP energy -198255.516856 kJ/mol
# GULP energy per Si atom -12390.969803 kJ/mol
# Density = 1.962344 g / cm^3
# Si number density = 19.668201 Si / 1000 Ang^3
#
#
#
# Elastic Constant Matrix: (Units=GPa)
#
#
# Indices 1 2 3 4 5 6 
#
# 1 104.9544 48.8091 36.6060 -6.2572 9.6225 1.4103
# 2 48.8091 94.3586 45.4200 0.2256 0.1595 -18.6298
# 3 36.6060 45.4200 111.2052 -19.9179 -2.6935 -6.9985
# 4 -6.2572 0.2256 -19.9179 30.4981 2.2672 -0.7721
# 5 9.6225 0.1595 -2.6935 2.2672 14.0760 1.0160
# 6 1.4103 -18.6298 -6.9985 -0.7721 1.0160 42.7760
#
#
#
# Elastic Compliance Matrix: (Units=1/GPa)
#
#
# Indices 1 2 3 4 5 6 
#
# 1 0.014842 -0.007523 -0.001843 0.002587 -0.010558 -0.003770
# 2 -0.007523 0.018585 -0.005528 -0.005422 0.004225 0.007240
# 3 -0.001843 -0.005528 0.013385 0.008212 0.002566 -0.000069
# 4 0.002587 -0.005422 0.008212 0.039195 -0.006431 -0.000243
# 5 -0.010558 0.004225 0.002566 -0.006431 0.079696 0.000599
# 6 -0.003770 0.007240 -0.000069 -0.000243 0.000599 0.026625
#
#
# Mechanical properties :
#
#
# Convention : Reuss Voigt Hill
#
# Bulk Modulus (GPa) = 58.73363 63.57650 61.15507
# Shear Modulus (GPa) = 21.95001 29.44892 25.69946
#
# Velocity S-wave (km/s) = 3.34431 3.87368 3.61868
# Velocity P-wave (km/s) = 6.69623 7.23891 6.97285
#
# Compressibility (1/GPa) = 0.01702602
#
# Stress axis : x y z
#
# Youngs Moduli (GPa) = 67.37586 53.80605 74.70937
#
# Poissons Ratio (x) = 0.40479 0.13766
# Poissons Ratio (y) = 0.50687 0.41296
# Poissons Ratio (z) = 0.12415 0.29742
#
# Static dielectric constant tensor:
#      x y z
#    x 3.504370 -0.035230 0.088020 
#    y -0.035230 3.621930 0.072530 
#    z 0.088020 0.072530 3.373220 
# 
# 
# High freq. dielectric constant tensor:
#      x y z
#    x 1.767030 -0.002100 0.008920 
#    y -0.002100 1.764480 0.003080 
#    z 0.008920 0.003080 1.743630 
# 
# From -- ./inp_files/591070.got.cif
#   From: 2010.06.25/outbox.cif.g09.slc.cpg/sg2_296_cif.got.tgz:591070.got - 2010.06.27 13:26:56.
