data_PCOD8040763
_publ_section_title
;
Structure prediction by ZEFSAII (Michael W. Deem and Ramdas Pophale) SiO2 
 PCOD8040763
Probable space group: P -1
;
_chemical_formula_sum "Si O2"
_cell_formula_units_Z 14
_cell_length_a 12.948095
_cell_length_b 9.202229
_cell_length_c 9.851039
_cell_angle_alpha 124.162461
_cell_angle_beta 140.475194
_cell_angle_gamma 67.238499
_cell_volume 615.714157
_symmetry_space_group_name_H-M "P -1"
_symmetry_group_IT_number 2
_symmetry_cell_setting 'triclinic'
loop_
_space_group_symop_operation_xyz
x,y,z
-x,-y,-z
loop_
_atom_site_type_symbol
_atom_site_label
_atom_site_fract_x
_atom_site_fract_y
_atom_site_fract_z
Si Si1 0.651535 0.554535 0.083302
Si Si2 0.893654 0.156554 0.014806
Si Si3 0.385555 0.947663 0.525680
Si Si4 0.452138 0.284675 0.603011
Si Si5 0.245783 0.073218 0.702464
Si Si6 0.115584 0.859138 0.694251
Si Si7 0.153824 0.468319 0.477610
O O1 0.649476 0.738275 0.097217
O O2 0.815791 0.556627 0.341685
O O3 0.500000 0.500000 0.000000
O O4 0.627118 0.400100 0.864643
O O5 0.823640 0.134280 0.085760
O O6 0.996128 0.345820 0.207742
O O7 0.748198 0.150499 0.759250
O O8 0.000000 0.000000 0.000000
O O9 0.540274 0.835528 0.588864
O O10 0.414743 0.154415 0.625811
O O11 0.335097 0.936779 0.625914
O O12 0.306615 0.413041 0.513806
O O13 0.066601 0.084444 0.465574
O O14 0.237372 0.998663 0.807409
O O15 0.124652 0.671157 0.529980
#
# Coordination Sequence:
#
# PCOD8040763 Si02
#       7
#     2   2   2   2   2   2   2
#     4  10  18  38  65  87 121 160 218 243 293 376
#     4  12  20  38  65  98 120 155 215 260 299 361
#     4  11  21  38  64  92 123 159 207 253 306 366
#     4  10  21  36  63  89 120 160 211 250 294 360
#     4  11  22  42  58  96 125 164 200 254 321 362
#     4  11  24  38  64  89 133 158 199 263 313 361
#     4  11  21  39  60  97 117 161 214 253 295 370
#
# _framework density 22.737822999999999
#
# number of rings (size 3 to 8) (size 9 to 14) (size 15 to 20)
#    0.000    1.143    7.143    1.286    2.000    0.000 
#    0.000    5.714    0.000    0.000    0.000    0.000 
#    0.000    0.000    0.000    0.000    0.000    0.000 
#
# Total GULP energy -173528.373365 kJ/mol
# GULP energy per Si atom -12394.883812 kJ/mol
# Density = 2.268607 g / cm^3
# Si number density = 22.737823 Si / 1000 Ang^3
#
#
#
# Elastic Constant Matrix: (Units=GPa)
#
#
# Indices 1 2 3 4 5 6 
#
# 1 115.9917 36.0687 10.1777 20.6651 -15.5385 1.4439
# 2 36.0687 75.0563 19.2517 33.6596 -2.1987 6.1009
# 3 10.1777 19.2517 98.8011 30.9414 6.8044 18.8201
# 4 20.6651 33.6596 30.9414 35.1742 -0.0868 4.1297
# 5 -15.5385 -2.1987 6.8044 -0.0868 23.0391 11.8213
# 6 1.4439 6.1009 18.8201 4.1297 11.8213 40.5920
#
#
#
# Elastic Compliance Matrix: (Units=1/GPa)
#
#
# Indices 1 2 3 4 5 6 
#
# 1 0.011472 -0.003750 0.000389 -0.003223 0.008343 -0.002127
# 2 -0.003750 0.025885 0.003949 -0.025683 0.000240 -0.003045
# 3 0.000389 0.003949 0.015945 -0.017342 -0.001100 -0.005915
# 4 -0.003223 -0.025683 -0.017342 0.069498 -0.002090 0.005553
# 5 0.008343 0.000240 -0.001100 -0.002090 0.057810 -0.016445
# 6 -0.002127 -0.003045 -0.005915 0.005553 -0.016445 0.032136
#
#
# Mechanical properties :
#
#
# Convention : Reuss Voigt Hill
#
# Bulk Modulus (GPa) = 18.35620 46.76060 32.55840
# Shear Modulus (GPa) = 21.76487 34.71780 28.24134
#
# Velocity S-wave (km/s) = 3.09724 3.91176 3.52809
# Velocity P-wave (km/s) = 4.56957 6.40408 5.56297
#
# Compressibility (1/GPa) = 0.05447752
#
# Stress axis : x y z
#
# Youngs Moduli (GPa) = 87.17190 38.63315 62.71391
#
# Poissons Ratio (x) = 0.14487 -0.02438
# Poissons Ratio (y) = 0.32688 -0.24766
# Poissons Ratio (z) = -0.03389 -0.15256
#
# Static dielectric constant tensor:
#      x y z
#    x 4.510030 -0.371800 0.033070 
#    y -0.371800 3.977000 0.434640 
#    z 0.033070 0.434640 4.353660 
# 
# 
# High freq. dielectric constant tensor:
#      x y z
#    x 1.903900 -0.031550 0.007560 
#    y -0.031550 1.870190 0.036860 
#    z 0.007560 0.036860 1.893340 
# 
# From -- ./inp_files/159425.got.cif
#   From: 2010.06.25/outbox.cif.g09.slc.cpg/sg2_80_cif.got.tgz:159425.got - 2010.06.27 13:26:56.
