data_PCOD8040619
_publ_section_title
;
Structure prediction by ZEFSAII (Michael W. Deem and Ramdas Pophale) SiO2 
 PCOD8040619
Probable space group: P -1
;
_chemical_formula_sum "Si O2"
_cell_formula_units_Z 14
_cell_length_a 8.973335
_cell_length_b 12.010120
_cell_length_c 11.291803
_cell_angle_alpha 39.408746
_cell_angle_beta 77.306916
_cell_angle_gamma 60.461608
_cell_volume 642.892465
_symmetry_space_group_name_H-M "P -1"
_symmetry_group_IT_number 2
_symmetry_cell_setting 'triclinic'
loop_
_space_group_symop_operation_xyz
x,y,z
-x,-y,-z
loop_
_atom_site_type_symbol
_atom_site_label
_atom_site_fract_x
_atom_site_fract_y
_atom_site_fract_z
Si Si1 0.892720 0.360666 0.525875
Si Si2 0.085484 0.935381 0.410025
Si Si3 0.567368 0.727558 0.770019
Si Si4 0.558592 0.071527 0.615906
Si Si5 0.749188 0.807528 0.251739
Si Si6 0.793116 0.153874 0.898499
Si Si7 0.245829 0.731093 0.928691
O O1 0.902145 0.274660 0.462647
O O2 0.808177 0.605370 0.328373
O O3 0.762236 0.310646 0.668352
O O4 0.093291 0.246786 0.636903
O O5 0.282631 0.894552 0.405965
O O6 0.000000 0.000000 0.500000
O O7 0.962637 0.111204 0.191712
O O8 0.564240 0.781560 0.589053
O O9 0.364962 0.808125 0.781375
O O10 0.642709 0.836583 0.750772
O O11 0.700830 0.485604 0.960164
O O12 0.434873 0.127077 0.705843
O O13 0.711373 0.005767 0.016171
O O14 0.716496 0.287454 0.922222
O O15 0.000000 0.000000 0.000000
#
# Coordination Sequence:
#
# PCOD8040619 Si02
#       7
#     2   2   2   2   2   2   2
#     4  10  22  40  67  91 124 167 213 256 314 370
#     4  12  24  41  61  93 136 164 193 269 330 369
#     4  10  22  37  66  90 118 170 214 254 298 386
#     4  11  22  39  62  93 128 163 208 261 316 370
#     4  10  20  39  66  94 114 167 221 255 297 379
#     4  10  18  37  65  88 120 159 216 257 295 368
#     4  11  20  41  64  90 123 162 216 255 310 371
#
# _framework density 21.776582000000001
#
# number of rings (size 3 to 8) (size 9 to 14) (size 15 to 20)
#    0.000    1.429    5.714    0.857    2.000    1.143 
#    0.000    2.143    0.000    0.000    0.000    0.000 
#    0.000    0.000    0.000    0.000    0.000    0.000 
#
# Total GULP energy -173577.336755 kJ/mol
# GULP energy per Si atom -12398.381197 kJ/mol
# Density = 2.172702 g / cm^3
# Si number density = 21.776582 Si / 1000 Ang^3
#
#
#
# Elastic Constant Matrix: (Units=GPa)
#
#
# Indices 1 2 3 4 5 6 
#
# 1 86.0405 50.3983 18.6335 -17.6422 -21.4690 8.5411
# 2 50.3983 132.6447 32.1735 -6.3687 -16.1521 20.9771
# 3 18.6335 32.1735 52.3387 -3.3243 -19.3841 9.9751
# 4 -17.6422 -6.3687 -3.3243 35.6048 -1.9731 -12.2132
# 5 -21.4690 -16.1521 -19.3841 -1.9731 27.3165 0.4086
# 6 8.5411 20.9771 9.9751 -12.2132 0.4086 39.3958
#
#
#
# Elastic Compliance Matrix: (Units=1/GPa)
#
#
# Indices 1 2 3 4 5 6 
#
# 1 0.020528 -0.006301 0.002498 0.010584 0.014924 0.001399
# 2 -0.006301 0.011436 -0.004780 -0.003154 -0.001743 -0.004473
# 3 0.002498 -0.004780 0.029907 0.002612 0.020622 -0.004973
# 4 0.010584 -0.003154 0.002612 0.037077 0.010834 0.010105
# 5 0.014924 -0.001743 0.020622 0.010834 0.062795 -0.004821
# 6 0.001399 -0.004473 -0.004973 0.010105 -0.004821 0.031904
#
#
# Mechanical properties :
#
#
# Convention : Reuss Voigt Hill
#
# Bulk Modulus (GPa) = 22.36940 52.60382 37.48661
# Shear Modulus (GPa) = 22.15201 31.78467 26.96834
#
# Velocity S-wave (km/s) = 3.19288 3.82459 3.52292
# Velocity P-wave (km/s) = 4.88745 6.61150 5.81374
#
# Compressibility (1/GPa) = 0.04470393
#
# Stress axis : x y z
#
# Youngs Moduli (GPa) = 48.71510 87.44225 33.43743
#
# Poissons Ratio (x) = 0.55098 -0.08353
# Poissons Ratio (y) = 0.30696 0.15983
# Poissons Ratio (z) = -0.12169 0.41798
#
# Static dielectric constant tensor:
#      x y z
#    x 3.315410 -0.294410 -0.454200 
#    y -0.294410 3.858570 0.051390 
#    z -0.454200 0.051390 4.219410 
# 
# 
# High freq. dielectric constant tensor:
#      x y z
#    x 1.833950 -0.000300 -0.030390 
#    y -0.000300 1.873900 -0.007750 
#    z -0.030390 -0.007750 1.838530 
# 
# From -- ./inp_files/240226.got.cif
#   From: 2010.06.25/outbox.cif.g09.slc.cpg/sg2_121_cif.got.tgz:240226.got - 2010.06.27 13:26:56.
