data_PCOD8040940
_publ_section_title
;
Structure prediction by ZEFSAII (Michael W. Deem and Ramdas Pophale) SiO2 
 PCOD8040940
Probable space group: P -1
;
_chemical_formula_sum "Si O2"
_cell_formula_units_Z 12
_cell_length_a 8.945341
_cell_length_b 8.930320
_cell_length_c 9.312788
_cell_angle_alpha 64.339087
_cell_angle_beta 102.952613
_cell_angle_gamma 113.799940
_cell_volume 612.448956
_symmetry_space_group_name_H-M "P -1"
_symmetry_group_IT_number 2
_symmetry_cell_setting 'triclinic'
loop_
_space_group_symop_operation_xyz
x,y,z
-x,-y,-z
loop_
_atom_site_type_symbol
_atom_site_label
_atom_site_fract_x
_atom_site_fract_y
_atom_site_fract_z
Si Si1 0.505368 0.688219 0.976157
Si Si2 0.836317 0.975235 0.557054
Si Si3 0.600768 0.167484 0.858771
Si Si4 0.832754 0.985558 0.893322
Si Si5 0.525263 0.690488 0.488255
Si Si6 0.621510 0.175787 0.376499
O O1 0.435590 0.797299 0.804764
O O2 0.695398 0.804905 0.994754
O O3 0.500000 0.500000 0.000000
O O4 0.392498 0.666224 0.104956
O O5 0.857526 0.978660 0.731204
O O6 0.794744 0.148062 0.424627
O O7 0.702786 0.786854 0.558101
O O8 0.000000 0.000000 0.500000
O O9 0.775352 0.152142 0.856617
O O10 0.498866 0.178015 0.692017
O O11 0.500000 0.000000 0.000000
O O12 0.000000 0.000000 0.000000
O O13 0.500000 0.500000 0.500000
O O14 0.384696 0.661601 0.592351
O O15 0.500000 0.000000 0.500000
#
# Coordination Sequence:
#
# PCOD8040940 Si02
#       6
#     2   2   2   2   2   2
#     4  11  22  39  64  92 120 154 199 249 299 347
#     4  11  23  39  62  88 118 160 203 242 294 353
#     4  10  21  37  62  89 115 159 203 235 291 365
#     4  11  23  40  59  89 123 157 198 246 293 357
#     4  11  21  39  65  87 115 154 202 253 292 342
#     4  10  18  40  63  83 117 161 202 241 284 359
#
# _framework density 19.593468999999999
#
# number of rings (size 3 to 8) (size 9 to 14) (size 15 to 20)
#    0.000    1.333    5.000    4.000    7.000    0.000 
#    0.000    3.333    0.000    0.000    0.000    0.000 
#    0.000    0.000    0.000    0.000    0.000    0.000 
#
# Total GULP energy -148688.819354 kJ/mol
# GULP energy per Si atom -12390.734946 kJ/mol
# Density = 1.954887 g / cm^3
# Si number density = 19.593469 Si / 1000 Ang^3
#
#
#
# Elastic Constant Matrix: (Units=GPa)
#
#
# Indices 1 2 3 4 5 6 
#
# 1 182.3814 68.3296 62.3734 23.7930 1.8948 -21.2479
# 2 68.3296 103.9096 25.0691 21.2153 6.4366 -19.4148
# 3 62.3734 25.0691 121.2900 27.7370 10.6205 9.6061
# 4 23.7930 21.2153 27.7370 30.7722 -5.5912 -6.3219
# 5 1.8948 6.4366 10.6205 -5.5912 39.1915 8.9998
# 6 -21.2479 -19.4148 9.6061 -6.3219 8.9998 24.4412
#
#
#
# Elastic Compliance Matrix: (Units=1/GPa)
#
#
# Indices 1 2 3 4 5 6 
#
# 1 0.009243 -0.003836 -0.004846 0.001358 0.000029 0.007233
# 2 -0.003836 0.015626 0.000092 -0.006990 -0.005532 0.009270
# 3 -0.004846 0.000092 0.014840 -0.012714 -0.002808 -0.012227
# 4 0.001358 -0.006990 -0.012714 0.051603 0.009483 0.010480
# 5 0.000029 -0.005532 -0.002808 0.009483 0.031376 -0.012366
# 6 0.007233 0.009270 -0.012227 0.010480 -0.012366 0.066636
#
#
# Mechanical properties :
#
#
# Convention : Reuss Voigt Hill
#
# Bulk Modulus (GPa) = 44.38987 79.90279 62.14633
# Shear Modulus (GPa) = 23.36286 35.66824 29.51555
#
# Velocity S-wave (km/s) = 3.45683 4.27126 3.88544
# Velocity P-wave (km/s) = 6.21591 8.07426 7.20525
#
# Compressibility (1/GPa) = 0.02252766
#
# Stress axis : x y z
#
# Youngs Moduli (GPa) = 108.19096 63.99433 67.38689
#
# Poissons Ratio (x) = 0.24551 0.32656
# Poissons Ratio (y) = 0.41507 -0.00619
# Poissons Ratio (z) = 0.52431 -0.00588
#
# Static dielectric constant tensor:
#      x y z
#    x 4.159930 -0.706520 -0.236980 
#    y -0.706520 3.637140 0.368780 
#    z -0.236980 0.368780 3.834350 
# 
# 
# High freq. dielectric constant tensor:
#      x y z
#    x 1.762160 -0.044560 -0.003920 
#    y -0.044560 1.739160 0.018610 
#    z -0.003920 0.018610 1.783670 
# 
# From -- ./inp_files/147519.got.cif
#   From: 2010.06.25/outbox.cif.g09.slc.cpg/sg2_74_cif.got.tgz:147519.got - 2010.06.27 13:26:56.
