data_PCOD8040746
_publ_section_title
;
Structure prediction by ZEFSAII (Michael W. Deem and Ramdas Pophale) SiO2 
 PCOD8040746
Probable space group: P -1
;
_chemical_formula_sum "Si O2"
_cell_formula_units_Z 16
_cell_length_a 8.147966
_cell_length_b 7.897545
_cell_length_c 20.607257
_cell_angle_alpha 61.259069
_cell_angle_beta 37.824626
_cell_angle_gamma 77.483233
_cell_volume 679.423935
_symmetry_space_group_name_H-M "P -1"
_symmetry_group_IT_number 2
_symmetry_cell_setting 'triclinic'
loop_
_space_group_symop_operation_xyz
x,y,z
-x,-y,-z
loop_
_atom_site_type_symbol
_atom_site_label
_atom_site_fract_x
_atom_site_fract_y
_atom_site_fract_z
Si Si1 0.016242 0.070164 0.742411
Si Si2 0.966795 0.709089 0.903655
Si Si3 0.609517 0.790660 0.669516
Si Si4 0.383677 0.904703 0.486598
Si Si5 0.348507 0.983082 0.254950
Si Si6 0.735160 0.518444 0.370167
Si Si7 0.091642 0.726244 0.007737
Si Si8 0.459108 0.392755 0.721969
O O1 0.349255 0.107644 0.636465
O O2 0.994125 0.279810 0.743249
O O3 0.916685 0.050678 0.702857
O O4 0.845835 0.871490 0.873971
O O5 0.806263 0.475131 0.979876
O O6 0.278763 0.746889 0.772959
O O7 0.953411 0.739722 0.978636
O O8 0.644861 0.571083 0.679821
O O9 0.767052 0.963034 0.535036
O O10 0.697027 0.871302 0.700043
O O11 0.165683 0.682367 0.611362
O O12 0.500000 0.000000 0.500000
O O13 0.368297 0.767522 0.314551
O O14 0.628596 0.085745 0.106128
O O15 0.500000 0.500000 0.500000
O O16 0.585230 0.503691 0.350093
O O17 0.852312 0.731738 0.132355
#
# Coordination Sequence:
#
# PCOD8040746 Si02
#       8
#     2   2   2   2   2   2   2   2
#     4  10  22  37  56  88 119 153 182 242 305 340
#     4   8  16  35  59  82 114 150 199 235 280 342
#     4   9  19  37  61  86 112 153 195 240 286 344
#     4  10  18  38  64  84 104 147 206 242 277 344
#     4  11  22  38  55  86 130 152 183 241 301 344
#     4  10  20  37  62  83 110 150 198 241 287 345
#     4   9  18  34  61  85 108 158 200 235 277 345
#     4  11  20  37  62  86 112 156 205 234 279 349
#
# _framework density 23.549363
#
# number of rings (size 3 to 8) (size 9 to 14) (size 15 to 20)
#    0.000    2.250    1.250    4.125    0.000    0.500 
#    2.250    8.750    0.000    0.000    0.000    0.000 
#    0.000    0.000    0.000    0.000    0.000    0.000 
#
# Total GULP energy -198250.571636 kJ/mol
# GULP energy per Si atom -12390.660727 kJ/mol
# Density = 2.349576 g / cm^3
# Si number density = 23.549363 Si / 1000 Ang^3
#
#
#
# Elastic Constant Matrix: (Units=GPa)
#
#
# Indices 1 2 3 4 5 6 
#
# 1 74.0670 27.6038 21.2398 -16.7077 16.8154 16.6402
# 2 27.6038 110.5465 32.1637 -34.9617 6.6430 23.4426
# 3 21.2398 32.1637 73.8814 -19.9748 31.8835 -7.7658
# 4 -16.7077 -34.9617 -19.9748 47.4276 -1.9244 4.1624
# 5 16.8154 6.6430 31.8835 -1.9244 28.7271 2.3726
# 6 16.6402 23.4426 -7.7658 4.1624 2.3726 27.1022
#
#
#
# Elastic Compliance Matrix: (Units=1/GPa)
#
#
# Indices 1 2 3 4 5 6 
#
# 1 0.020957 0.002679 -0.003501 0.009089 -0.006990 -0.016972
# 2 0.002679 0.023158 -0.016563 0.014269 0.014886 -0.029916
# 3 -0.003501 -0.016563 0.046610 0.001243 -0.048568 0.033892
# 4 0.009089 0.014269 0.001243 0.037099 -0.005633 -0.022771
# 5 -0.006990 0.014886 -0.048568 -0.005633 0.091434 -0.029639
# 6 -0.016972 -0.029916 0.033892 -0.022771 -0.029639 0.088998
#
#
# Mechanical properties :
#
#
# Convention : Reuss Voigt Hill
#
# Bulk Modulus (GPa) = 17.87107 46.72325 32.29716
# Shear Modulus (GPa) = 13.82450 32.48389 23.15420
#
# Velocity S-wave (km/s) = 2.42553 3.71805 3.13904
# Velocity P-wave (km/s) = 3.93058 6.18995 5.18483
#
# Compressibility (1/GPa) = 0.05595635
#
# Stress axis : x y z
#
# Youngs Moduli (GPa) = 47.71677 43.18118 21.45465
#
# Poissons Ratio (x) = -0.11569 0.07511
# Poissons Ratio (y) = -0.12785 0.35534
# Poissons Ratio (z) = 0.16706 0.71519
#
# Static dielectric constant tensor:
#      x y z
#    x 3.798690 -0.110890 0.388440 
#    y -0.110890 4.892040 -0.782370 
#    z 0.388440 -0.782370 4.759020 
# 
# 
# High freq. dielectric constant tensor:
#      x y z
#    x 1.892420 0.011310 0.031320 
#    y 0.011310 1.940170 -0.027680 
#    z 0.031320 -0.027680 1.931510 
# 
# From -- ./inp_files/586665.got.cif
#   From: 2010.06.25/outbox.cif.g09.slc.cpg/sg2_294_cif.got.tgz:586665.got - 2010.06.27 13:26:56.
