data_PCOD8040647
_publ_section_title
;
Structure prediction by ZEFSAII (Michael W. Deem and Ramdas Pophale) SiO2 
 PCOD8040647
Probable space group: P -1
;
_chemical_formula_sum "Si O2"
_cell_formula_units_Z 16
_cell_length_a 10.685183
_cell_length_b 9.947806
_cell_length_c 9.358361
_cell_angle_alpha 55.746555
_cell_angle_beta 111.617925
_cell_angle_gamma 109.181158
_cell_volume 754.807706
_symmetry_space_group_name_H-M "P -1"
_symmetry_group_IT_number 2
_symmetry_cell_setting 'triclinic'
loop_
_space_group_symop_operation_xyz
x,y,z
-x,-y,-z
loop_
_atom_site_type_symbol
_atom_site_label
_atom_site_fract_x
_atom_site_fract_y
_atom_site_fract_z
Si Si1 0.272767 0.181242 0.745946
Si Si2 0.569436 0.511758 0.252194
Si Si3 0.103111 0.577839 0.877470
Si Si4 0.629380 0.932729 0.862682
Si Si5 0.000265 0.334492 0.514605
Si Si6 0.291622 0.801220 0.476571
Si Si7 0.326752 0.367413 0.079340
Si Si8 0.323566 0.891262 0.755583
O O1 0.395363 0.339669 0.706893
O O2 0.131384 0.249730 0.645124
O O3 0.284179 0.066809 0.681911
O O4 0.277456 0.068847 0.956515
O O5 0.668022 0.379754 0.401334
O O6 0.408902 0.431361 0.221927
O O7 0.593167 0.585667 0.061199
O O8 0.012469 0.624633 0.681774
O O9 0.213953 0.740626 0.863182
O O10 0.182965 0.427447 0.968338
O O11 0.000000 0.500000 0.000000
O O12 0.684891 0.830106 0.816316
O O13 0.473719 0.872658 0.886372
O O14 0.642146 0.112817 0.690178
O O15 0.871050 0.208200 0.591306
O O16 0.000000 0.500000 0.500000
O O17 0.339933 0.891286 0.591230
#
# Coordination Sequence:
#
# PCOD8040647 Si02
#       8
#     2   2   2   2   2   2   2   2
#     4  11  24  39  65  93 135 171 201 260 335 365
#     4  10  18  39  66  91 120 175 213 252 311 382
#     4  11  24  41  66  94 129 167 212 260 319 378
#     4  11  23  39  69  97 125 165 219 264 310 378
#     4  11  22  43  64  88 129 171 212 257 306 381
#     4  11  22  40  69  92 126 170 218 259 308 377
#     4  10  18  37  67  91 119 167 221 251 307 380
#     4  11  23  43  63  96 132 162 203 280 320 360
#
# _framework density 21.197451999999998
#
# number of rings (size 3 to 8) (size 9 to 14) (size 15 to 20)
#    0.000    1.250    5.000    3.000    0.000    5.500 
#    0.000    0.625    0.000    0.000    0.000    0.000 
#    0.000    0.000    0.000    0.000    0.000    0.000 
#
# Total GULP energy -198271.878468 kJ/mol
# GULP energy per Si atom -12391.992404 kJ/mol
# Density = 2.114921 g / cm^3
# Si number density = 21.197452 Si / 1000 Ang^3
#
#
#
# Elastic Constant Matrix: (Units=GPa)
#
#
# Indices 1 2 3 4 5 6 
#
# 1 78.9872 24.5038 42.0062 1.4665 10.8912 -0.9707
# 2 24.5038 109.3547 29.2341 -4.3037 -1.4965 -18.5971
# 3 42.0062 29.2341 89.6680 2.3014 11.0680 6.4416
# 4 1.4665 -4.3037 2.3014 17.7485 -1.2185 9.5216
# 5 10.8912 -1.4965 11.0680 -1.2185 38.9627 -6.7967
# 6 -0.9707 -18.5971 6.4416 9.5216 -6.7967 32.5656
#
#
#
# Elastic Compliance Matrix: (Units=1/GPa)
#
#
# Indices 1 2 3 4 5 6 
#
# 1 0.017553 -0.001985 -0.007232 -0.001554 -0.002859 0.000678
# 2 -0.001985 0.012187 -0.004104 -0.000766 0.003683 0.008705
# 3 -0.007232 -0.004104 0.016868 0.000898 -0.004124 -0.007019
# 4 -0.001554 -0.000766 0.000898 0.067108 -0.001338 -0.020562
# 5 -0.002859 0.003683 -0.004124 -0.001338 0.029368 0.009354
# 6 0.000678 0.008705 -0.007019 -0.020562 0.009354 0.045051
#
#
# Mechanical properties :
#
#
# Convention : Reuss Voigt Hill
#
# Bulk Modulus (GPa) = 50.08125 52.16645 51.12385
# Shear Modulus (GPa) = 22.58024 30.00641 26.29332
#
# Velocity S-wave (km/s) = 3.26733 3.76648 3.52575
# Velocity P-wave (km/s) = 6.15722 6.60139 6.38317
#
# Compressibility (1/GPa) = 0.01996755
#
# Stress axis : x y z
#
# Youngs Moduli (GPa) = 56.96875 82.05463 59.28272
#
# Poissons Ratio (x) = 0.16288 0.42873
# Poissons Ratio (y) = 0.11308 0.24328
# Poissons Ratio (z) = 0.41200 0.33673
#
# Static dielectric constant tensor:
#      x y z
#    x 4.085110 0.044580 0.610670 
#    y 0.044580 4.294310 -0.082330 
#    z 0.610670 -0.082330 4.051800 
# 
# 
# High freq. dielectric constant tensor:
#      x y z
#    x 1.811780 0.001860 0.026690 
#    y 0.001860 1.836500 -0.005960 
#    z 0.026690 -0.005960 1.830040 
# 
# From -- ./inp_files/242722.got.cif
#   From: 2010.06.25/outbox.cif.g09.slc.cpg/sg2_122_cif.got.tgz:242722.got - 2010.06.27 13:26:56.
