data_PCOD8040701
_publ_section_title
;
Structure prediction by ZEFSAII (Michael W. Deem and Ramdas Pophale) SiO2 
 PCOD8040701
Probable space group: P -1
;
_chemical_formula_sum "Si O2"
_cell_formula_units_Z 14
_cell_length_a 12.106639
_cell_length_b 12.133682
_cell_length_c 18.769113
_cell_angle_alpha 147.996469
_cell_angle_beta 152.641581
_cell_angle_gamma 38.049111
_cell_volume 664.806720
_symmetry_space_group_name_H-M "P -1"
_symmetry_group_IT_number 2
_symmetry_cell_setting 'triclinic'
loop_
_space_group_symop_operation_xyz
x,y,z
-x,-y,-z
loop_
_atom_site_type_symbol
_atom_site_label
_atom_site_fract_x
_atom_site_fract_y
_atom_site_fract_z
Si Si1 0.040143 0.519059 0.141282
Si Si2 0.681766 0.271745 0.230774
Si Si3 0.678540 0.754846 0.252489
Si Si4 0.234681 0.580616 0.486467
Si Si5 0.403015 0.763375 0.556654
Si Si6 0.172590 0.182055 0.929369
Si Si7 0.517147 0.523748 0.904615
O O1 0.196939 0.612152 0.341923
O O2 0.036132 0.687824 0.167024
O O3 0.175763 0.293766 0.069185
O O4 0.780959 0.472412 0.993652
O O5 0.722753 0.409519 0.398886
O O6 0.687804 0.404609 0.233947
O O7 0.878143 0.059368 0.224730
O O8 0.422225 0.191189 0.036079
O O9 0.553987 0.686767 0.215825
O O10 0.949243 0.630673 0.333884
O O11 0.674861 0.004359 0.389708
O O12 0.520187 0.702414 0.064879
O O13 0.387394 0.749172 0.626615
O O14 0.343160 0.343437 0.391743
#
# Coordination Sequence:
#
# PCOD8040701 Si02
#       7
#     2   2   2   2   2   2   2
#     4  10  18  38  60  92 119 153 202 254 291 362
#     4  10  20  36  60  91 119 155 199 252 298 352
#     4  11  24  44  61  86 127 166 195 244 304 363
#     4  11  23  39  64  94 122 150 207 255 295 356
#     4  11  23  38  66  93 119 157 202 254 302 350
#     4   9  19  31  62  90 121 149 201 253 304 338
#     4  10  24  42  60  85 125 162 200 240 300 367
#
# _framework density 21.058751999999998
#
# number of rings (size 3 to 8) (size 9 to 14) (size 15 to 20)
#    0.000    1.714    2.857    1.286    6.000    0.571 
#    2.571    2.143    0.000    0.000    0.000    0.000 
#    0.000    0.000    0.000    0.000    0.000    0.000 
#
# Total GULP energy -173511.072060 kJ/mol
# GULP energy per Si atom -12393.648004 kJ/mol
# Density = 2.101082 g / cm^3
# Si number density = 21.058752 Si / 1000 Ang^3
#
#
#
# Elastic Constant Matrix: (Units=GPa)
#
#
# Indices 1 2 3 4 5 6 
#
# 1 116.1810 60.7115 38.3260 10.3881 -9.7502 17.0058
# 2 60.7115 103.4551 26.9673 -0.8754 -1.1381 -2.8712
# 3 38.3260 26.9673 49.7847 0.9283 -8.3511 4.0272
# 4 10.3881 -0.8754 0.9283 24.3050 3.1400 -4.3588
# 5 -9.7502 -1.1381 -8.3511 3.1400 31.6418 -6.7094
# 6 17.0058 -2.8712 4.0272 -4.3588 -6.7094 33.3245
#
#
#
# Elastic Compliance Matrix: (Units=1/GPa)
#
#
# Indices 1 2 3 4 5 6 
#
# 1 0.018623 -0.009193 -0.007983 -0.010094 0.002135 -0.010221
# 2 -0.009193 0.015948 -0.002575 0.006085 -0.002112 0.006747
# 3 -0.007983 -0.002575 0.028309 0.001886 0.005093 0.001703
# 4 -0.010094 0.006085 0.001886 0.048168 -0.004892 0.010763
# 5 0.002135 -0.002112 0.005093 -0.004892 0.034973 0.004514
# 6 -0.010221 0.006747 0.001703 0.010763 0.004514 0.037916
#
#
# Mechanical properties :
#
#
# Convention : Reuss Voigt Hill
#
# Bulk Modulus (GPa) = 42.77894 57.93673 50.35783
# Shear Modulus (GPa) = 21.62352 27.41532 24.51942
#
# Velocity S-wave (km/s) = 3.20788 3.61203 3.41594
# Velocity P-wave (km/s) = 5.83771 6.70577 6.28674
#
# Compressibility (1/GPa) = 0.02337599
#
# Stress axis : x y z
#
# Youngs Moduli (GPa) = 53.69807 62.70555 35.32505
#
# Poissons Ratio (x) = 0.57646 0.28202
# Poissons Ratio (y) = 0.49365 0.09096
# Poissons Ratio (z) = 0.42870 0.16146
#
# Static dielectric constant tensor:
#      x y z
#    x 3.860970 0.141010 -0.218710 
#    y 0.141010 4.035150 -0.143870 
#    z -0.218710 -0.143870 3.508470 
# 
# 
# High freq. dielectric constant tensor:
#      x y z
#    x 1.821240 0.004110 -0.025430 
#    y 0.004110 1.830260 -0.013250 
#    z -0.025430 -0.013250 1.797380 
# 
# From -- ./inp_files/209742.got.cif
#   From: 2010.06.25/outbox.cif.g09.slc.cpg/sg2_105_cif.got.tgz:209742.got - 2010.06.27 13:26:56.
