data_PCOD8040435
_publ_section_title
;
Structure prediction by ZEFSAII (Michael W. Deem and Ramdas Pophale) SiO2 
 PCOD8040435
Probable space group: P -1
;
_chemical_formula_sum "Si O2"
_cell_formula_units_Z 16
_cell_length_a 8.707070
_cell_length_b 21.578830
_cell_length_c 18.741869
_cell_angle_alpha 159.443056
_cell_angle_beta 37.390334
_cell_angle_gamma 141.376338
_cell_volume 739.247551
_symmetry_space_group_name_H-M "P -1"
_symmetry_group_IT_number 2
_symmetry_cell_setting 'triclinic'
loop_
_space_group_symop_operation_xyz
x,y,z
-x,-y,-z
loop_
_atom_site_type_symbol
_atom_site_label
_atom_site_fract_x
_atom_site_fract_y
_atom_site_fract_z
Si Si1 0.884888 0.521550 0.868334
Si Si2 0.611094 0.364209 0.263765
Si Si3 0.429255 0.941570 0.350108
Si Si4 0.851358 0.924322 0.288370
Si Si5 0.920566 0.879772 0.830966
Si Si6 0.727869 0.455741 0.017100
Si Si7 0.788665 0.071480 0.954239
Si Si8 0.656194 0.287417 0.569485
O O1 0.762006 0.369702 0.694551
O O2 0.198838 0.545382 0.772193
O O3 0.795514 0.709842 0.088504
O O4 0.774261 0.454839 0.914046
O O5 0.500000 0.500000 0.500000
O O6 0.376205 0.220895 0.162857
O O7 0.799421 0.282465 0.162037
O O8 0.649992 0.980367 0.368541
O O9 0.164593 0.977267 0.524149
O O10 0.495703 0.085648 0.417987
O O11 0.397799 0.739091 0.116076
O O12 0.124421 0.000964 0.232286
O O13 0.106018 0.731663 0.591788
O O14 0.961101 0.019496 0.899443
O O15 0.000000 0.000000 0.000000
O O16 0.537927 0.589013 0.256736
O O17 0.000000 0.500000 0.000000
O O18 0.500000 0.000000 0.000000
#
# Coordination Sequence:
#
# PCOD8040435 Si02
#       8
#     2   2   2   2   2   2   2   2
#     4  11  21  42  71  95 132 170 228 275 328 401
#     4  10  21  41  69  97 130 174 226 281 330 390
#     4  11  22  37  70  95 126 167 219 269 332 388
#     4  10  18  36  67  99 119 168 222 273 315 388
#     4  11  24  44  65  98 137 177 225 278 341 400
#     4  12  28  45  61 102 141 172 217 280 348 405
#     4   9  20  37  62  95 129 164 222 272 319 392
#     4  12  23  45  73  94 131 181 228 275 329 410
#
# _framework density 21.643630000000002
#
# number of rings (size 3 to 8) (size 9 to 14) (size 15 to 20)
#    0.000    1.250    5.000    1.875    0.000    1.500 
#    9.000    0.625    0.000    0.000    0.000    0.000 
#    0.000    0.000    0.000    0.000    0.000    0.000 
#
# Total GULP energy -198214.736914 kJ/mol
# GULP energy per Si atom -12388.421057 kJ/mol
# Density = 2.159437 g / cm^3
# Si number density = 21.643630 Si / 1000 Ang^3
#
#
#
# Elastic Constant Matrix: (Units=GPa)
#
#
# Indices 1 2 3 4 5 6 
#
# 1 70.0762 12.6479 39.8212 0.0776 -3.2805 12.6298
# 2 12.6479 94.2083 33.9796 1.3640 -11.2408 12.0100
# 3 39.8212 33.9796 128.6762 -0.4691 -22.5651 5.9830
# 4 0.0776 1.3640 -0.4691 43.7799 5.0291 -5.3682
# 5 -3.2805 -11.2408 -22.5651 5.0291 28.1776 -4.6932
# 6 12.6298 12.0100 5.9830 -5.3682 -4.6932 24.4982
#
#
#
# Elastic Compliance Matrix: (Units=1/GPa)
#
#
# Indices 1 2 3 4 5 6 
#
# 1 0.019361 0.000450 -0.006393 -0.000820 -0.004141 -0.009614
# 2 0.000450 0.012559 -0.002832 -0.001350 0.002105 -0.005590
# 3 -0.006393 -0.002832 0.011774 -0.000306 0.008160 0.003304
# 4 -0.000820 -0.001350 -0.000306 0.024058 -0.004237 0.005619
# 5 -0.004141 0.002105 0.008160 -0.004237 0.044246 0.006658
# 6 -0.009614 -0.005590 0.003304 0.005619 0.006658 0.050216
#
#
# Mechanical properties :
#
#
# Convention : Reuss Voigt Hill
#
# Bulk Modulus (GPa) = 38.24794 51.76201 45.00498
# Shear Modulus (GPa) = 26.52835 33.05860 29.79347
#
# Velocity S-wave (km/s) = 3.50478 3.91244 3.71421
# Velocity P-wave (km/s) = 5.83850 6.66162 6.26359
#
# Compressibility (1/GPa) = 0.02614520
#
# Stress axis : x y z
#
# Youngs Moduli (GPa) = 51.64917 79.62434 84.93538
#
# Poissons Ratio (x) = -0.03581 0.54296
# Poissons Ratio (y) = -0.02323 0.24050
# Poissons Ratio (z) = 0.33017 0.22546
#
# Static dielectric constant tensor:
#      x y z
#    x 3.556090 0.508070 -0.288390 
#    y 0.508070 3.475540 -0.626110 
#    z -0.288390 -0.626110 4.126070 
# 
# 
# High freq. dielectric constant tensor:
#      x y z
#    x 1.806860 0.010810 -0.031650 
#    y 0.010810 1.865020 -0.009040 
#    z -0.031650 -0.009040 1.860680 
# 
# From -- ./inp_files/299564.got.cif
#   From: 2010.06.25/outbox.cif.g09.slc.cpg/sg2_150_cif.got.tgz:299564.got - 2010.06.27 13:26:56.
