data_PCOD8040244
_publ_section_title
;
Structure prediction by ZEFSAII (Michael W. Deem and Ramdas Pophale) SiO2 
 PCOD8040244
Probable space group: P -1
;
_chemical_formula_sum "Si O2"
_cell_formula_units_Z 16
_cell_length_a 11.937902
_cell_length_b 10.669683
_cell_length_c 12.070410
_cell_angle_alpha 106.830185
_cell_angle_beta 35.213723
_cell_angle_gamma 123.785406
_cell_volume 691.897753
_symmetry_space_group_name_H-M "P -1"
_symmetry_group_IT_number 2
_symmetry_cell_setting 'triclinic'
loop_
_space_group_symop_operation_xyz
x,y,z
-x,-y,-z
loop_
_atom_site_type_symbol
_atom_site_label
_atom_site_fract_x
_atom_site_fract_y
_atom_site_fract_z
Si Si1 0.932942 0.489516 0.919527
Si Si2 0.153846 0.367745 0.579939
Si Si3 0.157147 0.076755 0.721067
Si Si4 0.054170 0.213640 0.039286
Si Si5 0.884938 0.018183 0.704797
Si Si6 0.462754 0.625419 0.617800
Si Si7 0.572671 0.440865 0.784612
Si Si8 0.448667 0.679268 0.002620
O O1 0.036812 0.674419 0.870626
O O2 0.789811 0.422475 0.136074
O O3 0.776140 0.393614 0.914417
O O4 0.142674 0.460172 0.724359
O O5 0.358896 0.333495 0.411353
O O6 0.214657 0.487156 0.459289
O O7 0.910015 0.187565 0.720367
O O8 0.051030 0.148981 0.903793
O O9 0.432023 0.217759 0.504334
O O10 0.004998 0.008866 0.715892
O O11 0.137522 0.931528 0.763428
O O12 0.318950 0.309200 0.900246
O O13 0.610144 0.869025 0.897021
O O14 0.000000 0.000000 0.500000
O O15 0.500000 0.500000 0.500000
O O16 0.587702 0.596827 0.853137
O O17 0.630709 0.358724 0.813360
#
# Coordination Sequence:
#
# PCOD8040244 Si02
#       8
#     2   2   2   2   2   2   2   2
#     4  11  23  39  60  92 122 156 201 249 300 363
#     4  11  23  37  61  92 120 160 197 246 308 354
#     4  10  20  34  65  89 112 162 201 244 304 349
#     4  10  19  38  61  88 119 153 206 249 293 360
#     4  11  20  36  58  89 121 158 201 246 300 360
#     4  11  20  41  62  86 119 158 198 246 301 359
#     4  10  18  36  59  85 117 159 200 245 292 354
#     4  10  19  35  58  82 118 160 200 242 295 348
#
# _framework density 23.124804000000001
#
# number of rings (size 3 to 8) (size 9 to 14) (size 15 to 20)
#    0.000    1.500    6.250    0.750    0.000    1.500 
#    0.000    1.250    0.000    2.250    0.000    0.000 
#    0.000    0.000    0.000    0.000    0.000    0.000 
#
# Total GULP energy -198316.283032 kJ/mol
# GULP energy per Si atom -12394.767690 kJ/mol
# Density = 2.307217 g / cm^3
# Si number density = 23.124804 Si / 1000 Ang^3
#
#
#
# Elastic Constant Matrix: (Units=GPa)
#
#
# Indices 1 2 3 4 5 6 
#
# 1 83.2411 29.8624 62.0188 -4.1603 14.2598 1.2143
# 2 29.8624 160.3243 77.9827 -24.2841 12.6195 -16.3383
# 3 62.0188 77.9827 159.7636 -20.0476 23.1683 -17.2091
# 4 -4.1603 -24.2841 -20.0476 48.3876 -2.0571 12.8876
# 5 14.2598 12.6195 23.1683 -2.0571 46.5878 -0.8200
# 6 1.2143 -16.3383 -17.2091 12.8876 -0.8200 30.1224
#
#
#
# Elastic Compliance Matrix: (Units=1/GPa)
#
#
# Indices 1 2 3 4 5 6 
#
# 1 0.017733 -0.000269 -0.007025 -0.000330 -0.001960 -0.004787
# 2 -0.000269 0.008566 -0.003559 0.002360 -0.000336 0.001605
# 3 -0.007025 -0.003559 0.011728 0.001165 -0.002588 0.004484
# 4 -0.000330 0.002360 0.001165 0.024577 -0.000183 -0.008562
# 5 -0.001960 -0.000336 -0.002588 -0.000183 0.023419 -0.000866
# 6 -0.004787 0.001605 0.004484 -0.008562 -0.000866 0.040463
#
#
# Mechanical properties :
#
#
# Convention : Reuss Voigt Hill
#
# Bulk Modulus (GPa) = 61.27392 82.56188 71.91790
# Shear Modulus (GPa) = 32.54498 40.58390 36.56444
#
# Velocity S-wave (km/s) = 3.75555 4.19381 3.98072
# Velocity P-wave (km/s) = 6.73499 7.69617 7.23157
#
# Compressibility (1/GPa) = 0.01632016
#
# Stress axis : x y z
#
# Youngs Moduli (GPa) = 56.39169 116.74029 85.26665
#
# Poissons Ratio (x) = 0.03145 0.59900
# Poissons Ratio (y) = 0.01519 0.30346
# Poissons Ratio (z) = 0.39615 0.41547
#
# Static dielectric constant tensor:
#      x y z
#    x 5.285020 0.349160 -0.118660 
#    y 0.349160 4.528580 -0.297550 
#    z -0.118660 -0.297550 4.419910 
# 
# 
# High freq. dielectric constant tensor:
#      x y z
#    x 1.916960 0.019450 0.033230 
#    y 0.019450 1.924030 -0.010350 
#    z 0.033230 -0.010350 1.911460 
# 
# From -- ./inp_files/397302.got.cif
#   From: 2010.06.25/outbox.cif.g09.slc.cpg/sg2_199_cif.got.tgz:397302.got - 2010.06.27 13:26:56.
