data_PCOD8040924
_publ_section_title
;
Structure prediction by ZEFSAII (Michael W. Deem and Ramdas Pophale) SiO2 
 PCOD8040924
Probable space group: P -1
;
_chemical_formula_sum "Si O2"
_cell_formula_units_Z 16
_cell_length_a 19.966048
_cell_length_b 23.990307
_cell_length_c 12.576970
_cell_angle_alpha 27.136164
_cell_angle_beta 27.996620
_cell_angle_gamma 16.535955
_cell_volume 761.079756
_symmetry_space_group_name_H-M "P -1"
_symmetry_group_IT_number 2
_symmetry_cell_setting 'triclinic'
loop_
_space_group_symop_operation_xyz
x,y,z
-x,-y,-z
loop_
_atom_site_type_symbol
_atom_site_label
_atom_site_fract_x
_atom_site_fract_y
_atom_site_fract_z
Si Si1 0.466246 0.753714 0.724323
Si Si2 0.608306 0.769782 0.026284
Si Si3 0.650266 0.407377 0.719576
Si Si4 0.597695 0.967352 0.532639
Si Si5 0.225428 0.853184 0.510091
Si Si6 0.844381 0.466136 0.513017
Si Si7 0.087474 0.338179 0.029756
Si Si8 0.101888 0.068894 0.516115
O O1 0.718742 0.539574 0.679250
O O2 0.502797 0.830361 0.634383
O O3 0.292409 0.928714 0.581680
O O4 0.347165 0.716219 0.004708
O O5 0.386275 0.857713 0.243842
O O6 0.776626 0.733824 0.927720
O O7 0.503195 0.931194 0.808839
O O8 0.795447 0.541956 0.102292
O O9 0.386201 0.618091 0.681416
O O10 0.710044 0.483644 0.579285
O O11 0.836033 0.260615 0.612671
O O12 0.887191 0.771102 0.454180
O O13 0.500000 0.000000 0.500000
O O14 0.125867 0.937781 0.626277
O O15 0.000000 0.000000 0.500000
O O16 0.827908 0.622023 0.243738
O O17 0.154403 0.151619 0.227174
#
# Coordination Sequence:
#
# PCOD8040924 Si02
#       8
#     2   2   2   2   2   2   2   2
#     4  12  25  40  72 100 131 185 224 267 336 408
#     4  10  19  42  67  93 135 166 220 281 333 385
#     4  12  24  45  66  99 140 174 231 274 322 410
#     4  11  26  44  66 100 136 176 221 282 342 394
#     4  12  28  44  65 101 137 181 219 282 342 398
#     4  11  23  42  71  99 134 171 229 284 327 393
#     4  10  18  39  74  99 121 166 230 288 320 379
#     4  12  23  41  73  99 128 179 232 275 336 392
#
# _framework density 21.022763999999999
#
# number of rings (size 3 to 8) (size 9 to 14) (size 15 to 20)
#    0.000    0.750    6.250    1.500    1.750    4.000 
#    4.500    0.000    0.000    0.000    0.000    0.000 
#    0.000    0.000    0.000    0.000    0.000    0.000 
#
# Total GULP energy -198403.153864 kJ/mol
# GULP energy per Si atom -12400.197117 kJ/mol
# Density = 2.097492 g / cm^3
# Si number density = 21.022764 Si / 1000 Ang^3
#
#
#
# Elastic Constant Matrix: (Units=GPa)
#
#
# Indices 1 2 3 4 5 6 
#
# 1 92.9765 39.5771 15.5505 8.2070 2.0067 4.5306
# 2 39.5771 103.7304 39.7503 1.0789 -6.4934 10.4592
# 3 15.5505 39.7503 106.6664 5.7309 8.7074 7.9167
# 4 8.2070 1.0789 5.7309 20.5900 0.7359 4.5441
# 5 2.0067 -6.4934 8.7074 0.7359 16.6637 -0.5216
# 6 4.5306 10.4592 7.9167 4.5441 -0.5216 34.1489
#
#
#
# Elastic Compliance Matrix: (Units=1/GPa)
#
#
# Indices 1 2 3 4 5 6 
#
# 1 0.013591 -0.005698 0.000720 -0.005268 -0.003988 0.000415
# 2 -0.005698 0.014668 -0.005335 0.003285 0.008957 -0.002800
# 3 0.000720 -0.005335 0.012178 -0.002868 -0.008435 -0.001032
# 4 -0.005268 0.003285 -0.002868 0.052729 0.000876 -0.006646
# 5 -0.003988 0.008957 -0.008435 0.000876 0.068371 0.000669
# 6 0.000415 -0.002800 -0.001032 -0.006646 0.000669 0.031220
#
#
# Mechanical properties :
#
#
# Convention : Reuss Voigt Hill
#
# Bulk Modulus (GPa) = 50.48106 54.79213 52.63659
# Shear Modulus (GPa) = 22.72868 28.18019 25.45444
#
# Velocity S-wave (km/s) = 3.29165 3.66520 3.48344
# Velocity P-wave (km/s) = 6.20575 6.63562 6.42428
#
# Compressibility (1/GPa) = 0.01980941
#
# Stress axis : x y z
#
# Youngs Moduli (GPa) = 73.57589 68.17647 82.11859
#
# Poissons Ratio (x) = 0.38848 -0.05911
# Poissons Ratio (y) = 0.41925 0.43813
# Poissons Ratio (z) = -0.05296 0.36374
#
# Static dielectric constant tensor:
#      x y z
#    x 3.561870 0.094850 0.129860 
#    y 0.094850 4.158760 -0.067780 
#    z 0.129860 -0.067780 3.868700 
# 
# 
# High freq. dielectric constant tensor:
#      x y z
#    x 1.792690 0.008740 0.011500 
#    y 0.008740 1.838280 -0.004150 
#    z 0.011500 -0.004150 1.829710 
# 
# From -- ./inp_files/427707.got.cif
#   From: 2010.06.25/outbox.cif.g09.slc.cpg/sg2_214_cif.got.tgz:427707.got - 2010.06.27 13:26:56.
