data_PCOD8040663
_publ_section_title
;
Structure prediction by ZEFSAII (Michael W. Deem and Ramdas Pophale) SiO2 
 PCOD8040663
Probable space group: P -1
;
_chemical_formula_sum "Si O2"
_cell_formula_units_Z 14
_cell_length_a 12.373429
_cell_length_b 10.044881
_cell_length_c 22.943584
_cell_angle_alpha 145.416284
_cell_angle_beta 34.798928
_cell_angle_gamma 119.270183
_cell_volume 754.019088
_symmetry_space_group_name_H-M "P -1"
_symmetry_group_IT_number 2
_symmetry_cell_setting 'triclinic'
loop_
_space_group_symop_operation_xyz
x,y,z
-x,-y,-z
loop_
_atom_site_type_symbol
_atom_site_label
_atom_site_fract_x
_atom_site_fract_y
_atom_site_fract_z
Si Si1 0.854971 0.813990 0.290011
Si Si2 0.564971 0.927409 0.662420
Si Si3 0.344386 0.503528 0.913537
Si Si4 0.653909 0.337871 0.817862
Si Si5 0.766490 0.064614 0.100114
Si Si6 0.987017 0.560986 0.268679
Si Si7 0.416900 0.420353 0.720316
O O1 0.914697 0.666328 0.273050
O O2 0.749834 0.683588 0.250003
O O3 0.680723 0.156329 0.496152
O O4 0.080810 0.753549 0.136457
O O5 0.418359 0.844689 0.733858
O O6 0.759949 0.652614 0.439369
O O7 0.390938 0.190810 0.790494
O O8 0.688478 0.030924 0.687619
O O9 0.517851 0.523999 0.886938
O O10 0.394647 0.537657 0.837453
O O11 0.900135 0.290294 0.697880
O O12 0.500000 0.500000 0.000000
O O13 0.649529 0.326338 0.202274
O O14 0.000000 0.000000 0.000000
O O15 0.826759 0.781880 0.937393
#
# Coordination Sequence:
#
# PCOD8040663 Si02
#       7
#     2   2   2   2   2   2   2
#     4  11  20  38  62  84 121 165 201 248 293 361
#     4  10  22  36  65  93 115 159 209 247 301 355
#     4  10  20  37  62  90 114 156 207 249 293 354
#     4  10  18  37  69  92 114 157 215 256 288 353
#     4  12  24  41  58  92 130 161 196 258 304 361
#     4  12  20  40  66  92 119 161 210 253 297 356
#     4  11  24  37  57  90 125 157 202 247 305 363
#
# _framework density 18.567170000000001
#
# number of rings (size 3 to 8) (size 9 to 14) (size 15 to 20)
#    0.857    0.286    7.143    0.857    0.000    1.714 
#    0.000    0.714    0.000    4.286    0.000    0.000 
#    0.000    0.000    0.000    0.000    0.000    0.000 
#
# Total GULP energy -173578.534630 kJ/mol
# GULP energy per Si atom -12398.466759 kJ/mol
# Density = 1.852491 g / cm^3
# Si number density = 18.567170 Si / 1000 Ang^3
#
#
#
# Elastic Constant Matrix: (Units=GPa)
#
#
# Indices 1 2 3 4 5 6 
#
# 1 84.7179 25.5644 28.1763 -12.4903 -5.1301 -4.6258
# 2 25.5644 93.2000 45.6620 -8.0336 -1.6820 -19.9550
# 3 28.1763 45.6620 118.9447 -11.4844 -3.1948 -19.4010
# 4 -12.4903 -8.0336 -11.4844 34.8526 0.5475 -2.3260
# 5 -5.1301 -1.6820 -3.1948 0.5475 20.7384 0.6924
# 6 -4.6258 -19.9550 -19.4010 -2.3260 0.6924 26.4451
#
#
#
# Elastic Compliance Matrix: (Units=1/GPa)
#
#
# Indices 1 2 3 4 5 6 
#
# 1 0.013929 -0.002651 -0.001980 0.003632 0.002855 -0.000772
# 2 -0.002651 0.015233 -0.003650 0.001933 -0.000318 0.008531
# 3 -0.001980 -0.003650 0.011443 0.002575 0.000725 0.005502
# 4 0.003632 0.001933 0.002575 0.031733 0.000388 0.006764
# 5 0.002855 -0.000318 0.000725 0.000388 0.049017 -0.000458
# 6 -0.000772 0.008531 0.005502 0.006764 -0.000458 0.048760
#
#
# Mechanical properties :
#
#
# Convention : Reuss Voigt Hill
#
# Bulk Modulus (GPa) = 41.59529 55.07420 48.33474
# Shear Modulus (GPa) = 25.68168 29.57121 27.62645
#
# Velocity S-wave (km/s) = 3.72314 3.99515 3.86154
# Velocity P-wave (km/s) = 6.39794 7.14200 6.78018
#
# Compressibility (1/GPa) = 0.02404118
#
# Stress axis : x y z
#
# Youngs Moduli (GPa) = 71.79419 65.64901 87.38821
#
# Poissons Ratio (x) = 0.17404 0.17306
# Poissons Ratio (y) = 0.19033 0.31898
# Poissons Ratio (z) = 0.14218 0.23963
#
# Static dielectric constant tensor:
#      x y z
#    x 3.570690 0.066660 0.040550 
#    y 0.066660 3.194720 -0.018280 
#    z 0.040550 -0.018280 3.625080 
# 
# 
# High freq. dielectric constant tensor:
#      x y z
#    x 1.721670 -0.007240 0.001410 
#    y -0.007240 1.690700 -0.017260 
#    z 0.001410 -0.017260 1.732190 
# 
# From -- ./inp_files/353038.got.cif
#   From: 2010.06.25/outbox.cif.g09.slc.cpg/sg2_177_cif.got.tgz:353038.got - 2010.06.27 13:26:56.
