data_PCOD8040794
_publ_section_title
;
Structure prediction by ZEFSAII (Michael W. Deem and Ramdas Pophale) SiO2 
 PCOD8040794
Probable space group: P -1
;
_chemical_formula_sum "Si O2"
_cell_formula_units_Z 12
_cell_length_a 14.513862
_cell_length_b 11.887705
_cell_length_c 11.998274
_cell_angle_alpha 55.606309
_cell_angle_beta 143.061913
_cell_angle_gamma 150.238987
_cell_volume 556.813462
_symmetry_space_group_name_H-M "P -1"
_symmetry_group_IT_number 2
_symmetry_cell_setting 'triclinic'
loop_
_space_group_symop_operation_xyz
x,y,z
-x,-y,-z
loop_
_atom_site_type_symbol
_atom_site_label
_atom_site_fract_x
_atom_site_fract_y
_atom_site_fract_z
Si Si1 0.360656 0.742436 0.341999
Si Si2 0.235067 0.410271 0.557092
Si Si3 0.958840 0.310037 0.572745
Si Si4 0.728447 0.004635 0.139648
Si Si5 0.460402 0.568615 0.026017
Si Si6 0.251594 0.661352 0.041449
O O1 0.400877 0.661556 0.523478
O O2 0.318166 0.639251 0.236751
O O3 0.632205 0.041314 0.435649
O O4 0.069229 0.608706 0.158088
O O5 0.470718 0.471166 0.775928
O O6 0.052129 0.314473 0.542570
O O7 0.018957 0.190036 0.379856
O O8 0.000000 0.500000 0.500000
O O9 0.141059 0.386140 0.809512
O O10 0.682175 0.863026 0.072489
O O11 0.462796 0.765605 0.094842
O O12 0.707241 0.145164 0.003662
O O13 0.500000 0.500000 0.000000
#
# Coordination Sequence:
#
# PCOD8040794 Si02
#       6
#     2   2   2   2   2   2
#     4  10  20  37  61  91 127 151 210 249 305 358
#     4  10  22  40  63  88 119 167 204 247 302 363
#     4  11  23  40  63  90 125 160 200 256 306 360
#     4  10  18  38  68  87 121 161 211 246 305 353
#     4  10  23  39  60  91 127 165 197 247 313 366
#     4   9  19  34  64  99 115 152 210 269 286 346
#
# _framework density 21.551203000000001
#
# number of rings (size 3 to 8) (size 9 to 14) (size 15 to 20)
#    0.000    2.000    1.667    1.500    4.667    1.333 
#    0.000    0.833   14.667    0.000    0.000    0.000 
#    0.000    0.000    0.000    0.000    0.000    0.000 
#
# Total GULP energy -148697.024884 kJ/mol
# GULP energy per Si atom -12391.418740 kJ/mol
# Density = 2.150215 g / cm^3
# Si number density = 21.551203 Si / 1000 Ang^3
#
#
#
# Elastic Constant Matrix: (Units=GPa)
#
#
# Indices 1 2 3 4 5 6 
#
# 1 50.9308 32.6478 16.4768 7.7562 -1.1832 -7.5967
# 2 32.6478 124.9531 60.3658 19.8921 8.8887 6.8789
# 3 16.4768 60.3658 150.3409 5.8416 8.1968 -1.5775
# 4 7.7562 19.8921 5.8416 40.7741 1.0170 -3.1324
# 5 -1.1832 8.8887 8.1968 1.0170 27.4647 6.4036
# 6 -7.5967 6.8789 -1.5775 -3.1324 6.4036 40.4238
#
#
#
# Elastic Compliance Matrix: (Units=1/GPa)
#
#
# Indices 1 2 3 4 5 6 
#
# 1 0.025027 -0.006803 -0.000025 -0.001071 0.002056 0.005451
# 2 -0.006803 0.012887 -0.004167 -0.004621 -0.002199 -0.003644
# 3 -0.000025 -0.004167 0.008386 0.000977 -0.001505 0.001346
# 4 -0.001071 -0.004621 0.000977 0.027071 -0.000498 0.002800
# 5 0.002056 -0.002199 -0.001505 -0.000498 0.038963 -0.005509
# 6 0.005451 -0.003644 0.001346 0.002800 -0.005509 0.027525
#
#
# Mechanical properties :
#
#
# Convention : Reuss Voigt Hill
#
# Bulk Modulus (GPa) = 41.13652 60.57838 50.85745
# Shear Modulus (GPa) = 29.42022 36.18149 32.80086
#
# Velocity S-wave (km/s) = 3.69878 4.10184 3.90551
# Velocity P-wave (km/s) = 6.11314 7.11361 6.63227
#
# Compressibility (1/GPa) = 0.02430930
#
# Stress axis : x y z
#
# Youngs Moduli (GPa) = 39.95627 77.60053 119.24946
#
# Poissons Ratio (x) = 0.52793 0.00292
# Poissons Ratio (y) = 0.27183 0.49697
# Poissons Ratio (z) = 0.00098 0.32340
#
# Static dielectric constant tensor:
#      x y z
#    x 3.707570 0.070090 -0.038090 
#    y 0.070090 3.901650 -0.098510 
#    z -0.038090 -0.098510 4.673030 
# 
# 
# High freq. dielectric constant tensor:
#      x y z
#    x 1.815260 -0.000050 -0.008840 
#    y -0.000050 1.834500 0.002870 
#    z -0.008840 0.002870 1.869110 
# 
# From -- ./inp_files/153999.got.cif
#   From: 2010.06.25/outbox.cif.g09.slc.cpg/sg2_77_cif.got.tgz:153999.got - 2010.06.27 13:26:56.
