data_PCOD8040220
_publ_section_title
;
Structure prediction by ZEFSAII (Michael W. Deem and Ramdas Pophale) SiO2 
 PCOD8040220
Probable space group: P -1
;
_chemical_formula_sum "Si O2"
_cell_formula_units_Z 12
_cell_length_a 9.085260
_cell_length_b 14.091886
_cell_length_c 11.973587
_cell_angle_alpha 56.152902
_cell_angle_beta 50.349564
_cell_angle_gamma 99.002078
_cell_volume 587.537486
_symmetry_space_group_name_H-M "P -1"
_symmetry_group_IT_number 2
_symmetry_cell_setting 'triclinic'
loop_
_space_group_symop_operation_xyz
x,y,z
-x,-y,-z
loop_
_atom_site_type_symbol
_atom_site_label
_atom_site_fract_x
_atom_site_fract_y
_atom_site_fract_z
Si Si1 0.247004 0.785803 0.300415
Si Si2 0.082817 0.964371 0.589562
Si Si3 0.133882 0.306928 0.641623
Si Si4 0.582789 0.714099 0.167967
Si Si5 0.225897 0.102407 0.662141
Si Si6 0.471188 0.944576 0.317974
O O1 0.347566 0.707438 0.266322
O O2 0.922698 0.662926 0.473631
O O3 0.225591 0.784967 0.445538
O O4 0.500000 0.000000 0.000000
O O5 0.261802 0.124426 0.494935
O O6 0.310960 0.969529 0.446483
O O7 0.000000 0.000000 0.500000
O O8 0.750690 0.761032 0.937821
O O9 0.393841 0.513938 0.438976
O O10 0.281927 0.252733 0.589867
O O11 0.808345 0.149820 0.972322
O O12 0.860747 0.884889 0.010023
O O13 0.480343 0.137436 0.567651
#
# Coordination Sequence:
#
# PCOD8040220 Si02
#       6
#     2   2   2   2   2   2
#     4  10  18  36  58  85 112 150 192 233 280 335
#     4  10  20  39  61  83 115 154 192 233 290 342
#     4  11  21  38  63  85 115 152 196 238 278 339
#     4  10  22  37  61  88 114 149 199 233 285 340
#     4  10  22  39  59  84 122 151 187 236 294 340
#     4  11  20  37  63  84 118 156 186 236 292 338
#
# _framework density 20.424230000000001
#
# number of rings (size 3 to 8) (size 9 to 14) (size 15 to 20)
#    1.000    0.667    3.333    4.500    0.000    0.667 
#    0.000    5.833    0.000    0.000    0.000    0.000 
#    0.000    0.000    0.000    0.000    0.000    0.000 
#
# Total GULP energy -148714.558173 kJ/mol
# GULP energy per Si atom -12392.879848 kJ/mol
# Density = 2.037774 g / cm^3
# Si number density = 20.424230 Si / 1000 Ang^3
#
#
#
# Elastic Constant Matrix: (Units=GPa)
#
#
# Indices 1 2 3 4 5 6 
#
# 1 92.5044 26.3161 0.7620 -4.0416 10.7088 -22.6791
# 2 26.3161 125.7812 40.4876 -5.0896 2.7616 -40.9071
# 3 0.7620 40.4876 52.1499 2.8991 4.8848 -14.5812
# 4 -4.0416 -5.0896 2.8991 34.5737 -0.8422 -1.9801
# 5 10.7088 2.7616 4.8848 -0.8422 17.8675 10.2805
# 6 -22.6791 -40.9071 -14.5812 -1.9801 10.2805 39.1899
#
#
#
# Elastic Compliance Matrix: (Units=1/GPa)
#
#
# Indices 1 2 3 4 5 6 
#
# 1 0.018873 0.001773 0.006912 0.002529 -0.026215 0.022349
# 2 0.001773 0.016315 -0.006340 0.003932 -0.012733 0.019235
# 3 0.006912 -0.006340 0.029615 -0.002312 -0.019002 0.013269
# 4 0.002529 0.003932 -0.002312 0.030309 -0.004302 0.007368
# 5 -0.026215 -0.012733 -0.019002 -0.004302 0.116844 -0.066400
# 6 0.022349 0.019235 0.013269 0.007368 -0.066400 0.081256
#
#
# Mechanical properties :
#
#
# Convention : Reuss Voigt Hill
#
# Bulk Modulus (GPa) = 14.39016 45.06299 29.72657
# Shear Modulus (GPa) = 16.04175 31.85088 23.94631
#
# Velocity S-wave (km/s) = 2.80559 3.95329 3.42782
# Velocity P-wave (km/s) = 4.18999 6.55358 5.50025
#
# Compressibility (1/GPa) = 0.06949194
#
# Stress axis : x y z
#
# Youngs Moduli (GPa) = 52.98446 61.29496 33.76677
#
# Poissons Ratio (x) = -0.10866 -0.23338
# Poissons Ratio (y) = -0.09392 0.21407
# Poissons Ratio (z) = -0.36620 0.38859
#
# Static dielectric constant tensor:
#      x y z
#    x 5.252080 0.242750 0.103080 
#    y 0.242750 3.775280 0.064910 
#    z 0.103080 0.064910 3.357150 
# 
# 
# High freq. dielectric constant tensor:
#      x y z
#    x 1.814810 -0.005150 0.005630 
#    y -0.005150 1.801430 0.009430 
#    z 0.005630 0.009430 1.751100 
# 
# From -- ./inp_files/151320.got.cif
#   From: 2010.06.25/outbox.cif.g09.slc.cpg/sg2_76_cif.got.tgz:151320.got - 2010.06.27 13:26:56.
