data_PCOD8040883
_publ_section_title
;
Structure prediction by ZEFSAII (Michael W. Deem and Ramdas Pophale) SiO2 
 PCOD8040883
Probable space group: P -1
;
_chemical_formula_sum "Si O2"
_cell_formula_units_Z 16
_cell_length_a 23.919532
_cell_length_b 21.022447
_cell_length_c 8.985247
_cell_angle_alpha 33.477507
_cell_angle_beta 41.466602
_cell_angle_gamma 18.200391
_cell_volume 753.774315
_symmetry_space_group_name_H-M "P -1"
_symmetry_group_IT_number 2
_symmetry_cell_setting 'triclinic'
loop_
_space_group_symop_operation_xyz
x,y,z
-x,-y,-z
loop_
_atom_site_type_symbol
_atom_site_label
_atom_site_fract_x
_atom_site_fract_y
_atom_site_fract_z
Si Si1 0.206993 0.459203 0.806524
Si Si2 0.520509 0.242215 0.639539
Si Si3 0.840259 0.936081 0.789557
Si Si4 0.356540 0.029202 0.369968
Si Si5 0.761984 0.225456 0.894509
Si Si6 0.758944 0.514047 0.641361
Si Si7 0.879399 0.858348 0.210234
Si Si8 0.151187 0.851276 0.802959
O O1 0.367530 0.334483 0.815314
O O2 0.167798 0.569936 0.511103
O O3 0.024509 0.674771 0.846784
O O4 0.276377 0.246534 0.047461
O O5 0.613882 0.091336 0.592754
O O6 0.429200 0.478999 0.338083
O O7 0.672234 0.063457 0.814760
O O8 0.800592 0.120231 0.482847
O O9 0.861488 0.885850 0.017009
O O10 0.552407 0.814946 0.480541
O O11 0.212286 0.148466 0.538995
O O12 0.773345 0.181822 0.131878
O O13 0.929637 0.107452 0.748964
O O14 0.773065 0.094714 0.034670
O O15 0.902683 0.408807 0.662609
O O16 0.752554 0.388319 0.950089
#
# Coordination Sequence:
#
# PCOD8040883 Si02
#       8
#     2   2   2   2   2   2   2   2
#     4  11  23  46  68  95 122 162 222 272 312 362
#     4  11  22  41  69  97 121 162 217 267 317 365
#     4  12  26  40  61  96 138 174 202 250 320 389
#     4  11  24  43  70  94 123 162 222 270 311 366
#     4  10  19  38  67  93 130 157 211 267 313 372
#     4  10  21  42  70  94 123 161 215 270 317 363
#     4  11  27  41  57 101 135 173 205 247 321 390
#     4  10  18  39  66  95 128 160 207 266 318 367
#
# _framework density 21.226512
#
# number of rings (size 3 to 8) (size 9 to 14) (size 15 to 20)
#    0.000    1.250    3.750    4.500    1.750    8.000 
#    0.000    1.250    0.000    0.000    0.000    0.000 
#    0.000    0.000    0.000    0.000    0.000    0.000 
#
# Total GULP energy -198459.985639 kJ/mol
# GULP energy per Si atom -12403.749102 kJ/mol
# Density = 2.117820 g / cm^3
# Si number density = 21.226512 Si / 1000 Ang^3
#
#
#
# Elastic Constant Matrix: (Units=GPa)
#
#
# Indices 1 2 3 4 5 6 
#
# 1 97.6813 43.1990 37.8247 1.0269 24.6057 -30.8726
# 2 43.1990 60.4666 26.7535 -10.9171 6.6326 -24.4023
# 3 37.8247 26.7535 80.1613 -9.3465 -1.8769 -10.9947
# 4 1.0269 -10.9171 -9.3465 26.5908 3.4129 -4.6185
# 5 24.6057 6.6326 -1.8769 3.4129 27.7287 -5.8263
# 6 -30.8726 -24.4023 -10.9947 -4.6185 -5.8263 25.3244
#
#
#
# Elastic Compliance Matrix: (Units=1/GPa)
#
#
# Indices 1 2 3 4 5 6 
#
# 1 0.027011 -0.005793 -0.008735 -0.000737 -0.019086 0.019030
# 2 -0.005793 0.039391 -0.003415 0.020979 -0.000117 0.033212
# 3 -0.008735 -0.003415 0.017854 0.003487 0.008596 -0.003574
# 4 -0.000737 0.020979 0.003487 0.053172 -0.004475 0.029499
# 5 -0.019086 -0.000117 0.008596 -0.004475 0.052393 -0.008410
# 6 0.019030 0.033212 -0.003574 0.029499 -0.008410 0.096582
#
#
# Mechanical properties :
#
#
# Convention : Reuss Voigt Hill
#
# Bulk Modulus (GPa) = 20.67333 50.42929 35.55131
# Shear Modulus (GPa) = 14.77491 24.63092 19.70291
#
# Velocity S-wave (km/s) = 2.64116 3.41014 3.04998
# Velocity P-wave (km/s) = 4.36594 6.27014 5.40260
#
# Compressibility (1/GPa) = 0.04837150
#
# Stress axis : x y z
#
# Youngs Moduli (GPa) = 37.02147 25.38656 56.01061
#
# Poissons Ratio (x) = 0.14705 0.48925
# Poissons Ratio (y) = 0.21445 0.19126
# Poissons Ratio (z) = 0.32338 0.08669
#
# Static dielectric constant tensor:
#      x y z
#    x 3.653880 -0.293570 -0.036430 
#    y -0.293570 3.831520 -0.090760 
#    z -0.036430 -0.090760 3.806180 
# 
# 
# High freq. dielectric constant tensor:
#      x y z
#    x 1.813500 -0.024490 -0.007970 
#    y -0.024490 1.831500 -0.008270 
#    z -0.007970 -0.008270 1.834240 
# 
# From -- ./inp_files/271713.got.cif
#   From: 2010.06.25/outbox.cif.g09.slc.cpg/sg2_136_cif.got.tgz:271713.got - 2010.06.27 13:26:56.
