data_PCOD8040163
_publ_section_title
;
Structure prediction by ZEFSAII (Michael W. Deem and Ramdas Pophale) SiO2 
 PCOD8040163
Probable space group: P -1
;
_chemical_formula_sum "Si O2"
_cell_formula_units_Z 16
_cell_length_a 9.179280
_cell_length_b 33.725449
_cell_length_c 7.686068
_cell_angle_alpha 40.473573
_cell_angle_beta 127.799885
_cell_angle_gamma 147.464107
_cell_volume 827.905300
_symmetry_space_group_name_H-M "P -1"
_symmetry_group_IT_number 2
_symmetry_cell_setting 'triclinic'
loop_
_space_group_symop_operation_xyz
x,y,z
-x,-y,-z
loop_
_atom_site_type_symbol
_atom_site_label
_atom_site_fract_x
_atom_site_fract_y
_atom_site_fract_z
Si Si1 0.261700 0.996490 0.479589
Si Si2 0.660983 0.388571 0.988880
Si Si3 0.003490 0.775724 0.283340
Si Si4 0.505798 0.073562 0.056037
Si Si5 0.520355 0.572396 0.584539
Si Si6 0.277498 0.512052 0.980360
Si Si7 0.466613 0.115184 0.542259
Si Si8 0.715277 0.802554 0.796761
O O1 0.355410 0.057152 0.176025
O O2 0.271434 0.047898 0.469085
O O3 0.473574 0.995044 0.692975
O O4 0.963579 0.896225 0.566704
O O5 0.628476 0.432369 0.670907
O O6 0.616822 0.408650 0.078494
O O7 0.435249 0.280787 0.165000
O O8 0.954158 0.427982 0.052625
O O9 0.215349 0.829731 0.421298
O O10 0.822405 0.671619 0.506444
O O11 0.192268 0.822175 0.089569
O O12 0.816046 0.790649 0.083068
O O13 0.334766 0.053921 0.827032
O O14 0.561223 0.510876 0.778711
O O15 0.340332 0.542660 0.723017
O O16 0.486245 0.193436 0.301790
#
# Coordination Sequence:
#
# PCOD8040163 Si02
#       8
#     2   2   2   2   2   2   2   2
#     4  10  18  36  54  78 108 143 185 219 262 323
#     4  10  21  39  56  82 119 141 176 235 280 314
#     4   8  19  36  53  79 113 139 174 226 266 311
#     4   8  19  34  53  77 105 144 176 222 268 309
#     4  10  19  38  59  86 111 139 190 224 268 336
#     4  10  21  36  63  83 105 151 182 219 285 338
#     4  10  19  35  56  74 108 151 174 222 272 305
#     4  10  20  34  56  80 109 143 182 223 262 325
#
# _framework density 19.325882
#
# number of rings (size 3 to 8) (size 9 to 14) (size 15 to 20)
#    0.750    1.750    0.000    2.250    0.000    0.500 
#    9.000    2.500    2.750    0.000    0.000    0.000 
#    0.000    0.000    0.000    0.000    0.000    0.000 
#
# Total GULP energy -198224.465431 kJ/mol
# GULP energy per Si atom -12389.029089 kJ/mol
# Density = 1.928190 g / cm^3
# Si number density = 19.325882 Si / 1000 Ang^3
#
#
#
# Elastic Constant Matrix: (Units=GPa)
#
#
# Indices 1 2 3 4 5 6 
#
# 1 90.9729 47.0719 32.8035 0.7189 3.9241 -13.8057
# 2 47.0719 100.2131 24.6300 -9.7932 3.2656 -8.8918
# 3 32.8035 24.6300 53.0862 -5.4177 5.0505 -11.3005
# 4 0.7189 -9.7932 -5.4177 30.3015 1.7369 -1.3609
# 5 3.9241 3.2656 5.0505 1.7369 24.8920 1.2795
# 6 -13.8057 -8.8918 -11.3005 -1.3609 1.2795 26.7742
#
#
#
# Elastic Compliance Matrix: (Units=1/GPa)
#
#
# Indices 1 2 3 4 5 6 
#
# 1 0.017622 -0.006470 -0.007457 -0.003660 -0.000347 0.003621
# 2 -0.006470 0.013990 -0.001789 0.004438 -0.000804 0.000819
# 3 -0.007457 -0.001789 0.026803 0.004994 -0.004754 0.007354
# 4 -0.003660 0.004438 0.004994 0.035794 -0.003706 0.003691
# 5 -0.000347 -0.000804 -0.004754 -0.003706 0.041795 -0.004638
# 6 0.003621 0.000819 0.007354 0.003691 -0.004638 0.043002
#
#
# Mechanical properties :
#
#
# Convention : Reuss Voigt Hill
#
# Bulk Modulus (GPa) = 37.06077 50.36478 43.71278
# Shear Modulus (GPa) = 22.78601 25.71133 24.24867
#
# Velocity S-wave (km/s) = 3.43744 3.65143 3.54605
# Velocity P-wave (km/s) = 5.91380 6.62530 6.27964
#
# Compressibility (1/GPa) = 0.02698271
#
# Stress axis : x y z
#
# Youngs Moduli (GPa) = 56.74633 71.47967 37.30933
#
# Poissons Ratio (x) = 0.46245 0.27823
# Poissons Ratio (y) = 0.36713 0.06676
# Poissons Ratio (z) = 0.42317 0.12790
#
# Static dielectric constant tensor:
#      x y z
#    x 3.394330 0.103040 0.092940 
#    y 0.103040 3.389650 0.110960 
#    z 0.092940 0.110960 3.584270 
# 
# 
# High freq. dielectric constant tensor:
#      x y z
#    x 1.733780 0.014890 0.012140 
#    y 0.014890 1.742150 0.004920 
#    z 0.012140 0.004920 1.752620 
# 
# From -- ./inp_files/227946.got.cif
#   From: 2010.06.25/outbox.cif.g09.slc.cpg/sg2_114_cif.got.tgz:227946.got - 2010.06.27 13:26:56.
