data_PCOD8040118
_publ_section_title
;
Structure prediction by ZEFSAII (Michael W. Deem and Ramdas Pophale) SiO2 
 PCOD8040118
Probable space group: P -1
;
_chemical_formula_sum "Si O2"
_cell_formula_units_Z 16
_cell_length_a 9.404141
_cell_length_b 11.559768
_cell_length_c 9.145357
_cell_angle_alpha 86.875344
_cell_angle_beta 96.073283
_cell_angle_gamma 124.552605
_cell_volume 814.205694
_symmetry_space_group_name_H-M "P -1"
_symmetry_group_IT_number 2
_symmetry_cell_setting 'triclinic'
loop_
_space_group_symop_operation_xyz
x,y,z
-x,-y,-z
loop_
_atom_site_type_symbol
_atom_site_label
_atom_site_fract_x
_atom_site_fract_y
_atom_site_fract_z
Si Si1 0.084504 0.474128 0.645851
Si Si2 0.202017 0.277019 0.664216
Si Si3 0.278472 0.705864 0.318716
Si Si4 0.074381 0.970585 0.150261
Si Si5 0.417181 0.976153 0.149432
Si Si6 0.610145 0.232014 0.360062
Si Si7 0.267896 0.222405 0.361567
Si Si8 0.570067 0.477473 0.660538
O O1 0.152651 0.383078 0.602544
O O2 0.244442 0.622879 0.717866
O O3 0.000000 0.500000 0.500000
O O4 0.924446 0.381352 0.747134
O O5 0.197579 0.197978 0.521864
O O6 0.398252 0.371694 0.745913
O O7 0.075815 0.174445 0.783418
O O8 0.387594 0.831087 0.208415
O O9 0.308244 0.776814 0.477922
O O10 0.327444 0.594108 0.340192
O O11 0.238738 0.966650 0.126402
O O12 0.123185 0.091994 0.261844
O O13 0.000000 0.000000 0.000000
O O14 0.558081 0.101215 0.261209
O O15 0.500000 0.000000 0.000000
O O16 0.445073 0.232571 0.383154
O O17 0.302736 0.363506 0.276429
O O18 0.500000 0.500000 0.500000
#
# Coordination Sequence:
#
# PCOD8040118 Si02
#       8
#     2   2   2   2   2   2   2   2
#     4  10  19  34  60  96 123 145 187 252 303 344
#     4  11  19  38  64  91 118 150 197 245 297 357
#     4  11  20  39  63  93 121 152 193 247 300 349
#     4  11  26  44  58  83 123 162 204 246 285 347
#     4  11  26  44  58  82 123 166 202 239 292 351
#     4  10  19  38  64  91 120 152 194 245 296 355
#     4  10  19  38  64  93 118 150 197 245 297 351
#     4  10  18  35  64  95 121 146 189 247 302 358
#
# _framework density 19.651053999999998
#
# number of rings (size 3 to 8) (size 9 to 14) (size 15 to 20)
#    0.000    1.500    5.000    3.000    1.750    0.000 
#    6.750    2.500    0.000    0.000    0.000    0.000 
#    0.000    0.000    0.000    0.000    0.000    0.000 
#
# Total GULP energy -198286.686286 kJ/mol
# GULP energy per Si atom -12392.917893 kJ/mol
# Density = 1.960633 g / cm^3
# Si number density = 19.651054 Si / 1000 Ang^3
#
#
#
# Elastic Constant Matrix: (Units=GPa)
#
#
# Indices 1 2 3 4 5 6 
#
# 1 81.5034 27.8556 24.8631 -4.3169 -11.6394 4.8686
# 2 27.8556 110.6236 36.2519 -23.0463 -10.4564 6.8152
# 3 24.8631 36.2519 67.8285 -23.3796 -11.5497 4.1160
# 4 -4.3169 -23.0463 -23.3796 14.3407 3.3494 -4.5326
# 5 -11.6394 -10.4564 -11.5497 3.3494 28.5387 -4.5824
# 6 4.8686 6.8152 4.1160 -4.5326 -4.5824 39.5298
#
#
#
# Elastic Compliance Matrix: (Units=1/GPa)
#
#
# Indices 1 2 3 4 5 6 
#
# 1 0.016295 -0.004609 -0.009591 -0.019509 0.003028 -0.002100
# 2 -0.004609 0.015117 0.003975 0.029276 0.002015 0.001138
# 3 -0.009591 0.003975 0.041549 0.071267 0.006819 0.005132
# 4 -0.019509 0.029276 0.071267 0.230843 0.007289 0.017249
# 5 0.003028 0.002015 0.006819 0.007289 0.039559 0.003991
# 6 -0.002100 0.001138 0.005132 0.017249 0.003991 0.027266
#
#
# Mechanical properties :
#
#
# Convention : Reuss Voigt Hill
#
# Bulk Modulus (GPa) = 19.04371 48.65517 33.84944
# Shear Modulus (GPa) = 12.23744 27.88082 20.05913
#
# Velocity S-wave (km/s) = 2.49818 3.77078 3.19841
# Velocity P-wave (km/s) = 4.24655 6.61602 5.55899
#
# Compressibility (1/GPa) = 0.05251076
#
# Stress axis : x y z
#
# Youngs Moduli (GPa) = 61.36859 66.15102 24.06793
#
# Poissons Ratio (x) = 0.30487 0.23084
# Poissons Ratio (y) = 0.28283 -0.09567
# Poissons Ratio (z) = 0.58860 -0.26294
#
# Static dielectric constant tensor:
#      x y z
#    x 3.927770 0.426340 -0.141230 
#    y 0.426340 4.488700 -0.023600 
#    z -0.141230 -0.023600 3.238150 
# 
# 
# High freq. dielectric constant tensor:
#      x y z
#    x 1.779330 0.008270 -0.008570 
#    y 0.008270 1.790940 -0.009380 
#    z -0.008570 -0.009380 1.714080 
# 
# From -- ./inp_files/187682.got.cif
#   From: 2010.06.25/outbox.cif.g09.slc.cpg/sg2_94_cif.got.tgz:187682.got - 2010.06.27 13:26:56.
