data_PCOD8040145
_publ_section_title
;
Structure prediction by ZEFSAII (Michael W. Deem and Ramdas Pophale) SiO2 
 PCOD8040145
Probable space group: P -1
;
_chemical_formula_sum "Si O2"
_cell_formula_units_Z 16
_cell_length_a 9.159359
_cell_length_b 7.759443
_cell_length_c 10.934793
_cell_angle_alpha 80.550203
_cell_angle_beta 77.627604
_cell_angle_gamma 94.072580
_cell_volume 744.240111
_symmetry_space_group_name_H-M "P -1"
_symmetry_group_IT_number 2
_symmetry_cell_setting 'triclinic'
loop_
_space_group_symop_operation_xyz
x,y,z
-x,-y,-z
loop_
_atom_site_type_symbol
_atom_site_label
_atom_site_fract_x
_atom_site_fract_y
_atom_site_fract_z
Si Si1 0.779568 0.737927 0.574944
Si Si2 0.564059 0.669339 0.306030
Si Si3 0.707045 0.410364 0.477313
Si Si4 0.557300 0.599782 0.818544
Si Si5 0.171507 0.102922 0.712024
Si Si6 0.746175 0.467012 0.008908
Si Si7 0.030259 0.377623 0.856497
Si Si8 0.057090 0.749546 0.683041
O O1 0.789469 0.537534 0.551533
O O2 0.623732 0.732520 0.683186
O O3 0.786459 0.863630 0.442257
O O4 0.915134 0.807401 0.630409
O O5 0.674264 0.526779 0.350692
O O6 0.445445 0.693853 0.431749
O O7 0.483794 0.599139 0.204387
O O8 0.671482 0.852115 0.246658
O O9 0.811253 0.263246 0.437803
O O10 0.684342 0.587329 0.899677
O O11 0.398795 0.653722 0.893349
O O12 0.048138 0.223727 0.773279
O O13 0.107937 0.898714 0.758214
O O14 0.867105 0.337439 0.956660
O O15 0.830015 0.604476 0.075760
O O16 0.016401 0.564432 0.775433
#
# Coordination Sequence:
#
# PCOD8040145 Si02
#       8
#     2   2   2   2   2   2   2   2
#     4  10  20  36  58  94 123 150 199 245 298 365
#     4   9  17  34  54  88 114 155 192 245 289 356
#     4   9  18  31  58  82 122 154 193 234 299 358
#     4  10  18  35  67  91 112 160 208 243 300 352
#     4  11  23  36  60  92 127 151 198 244 305 367
#     4  10  21  37  64  88 112 164 213 246 290 353
#     4  11  22  41  61  90 121 157 207 247 297 353
#     4  12  21  36  59  92 121 165 189 243 308 359
#
# _framework density 21.498438
#
# number of rings (size 3 to 8) (size 9 to 14) (size 15 to 20)
#    0.000    1.750    5.000    1.500    0.000    0.500 
#    0.000    2.500    0.000    1.500    0.000    0.000 
#    0.000    0.000    0.000    0.000    0.000    0.000 
#
# Total GULP energy -198285.974973 kJ/mol
# GULP energy per Si atom -12392.873436 kJ/mol
# Density = 2.144951 g / cm^3
# Si number density = 21.498438 Si / 1000 Ang^3
#
#
#
# Elastic Constant Matrix: (Units=GPa)
#
#
# Indices 1 2 3 4 5 6 
#
# 1 105.3239 10.6663 24.0871 7.4079 -9.7891 6.7066
# 2 10.6663 70.7443 8.1591 16.8754 -11.9697 9.6024
# 3 24.0871 8.1591 87.2513 9.2236 -9.4230 -4.4582
# 4 7.4079 16.8754 9.2236 11.8483 -1.8650 6.2737
# 5 -9.7891 -11.9697 -9.4230 -1.8650 41.4325 9.1970
# 6 6.7066 9.6024 -4.4582 6.2737 9.1970 14.4237
#
#
#
# Elastic Compliance Matrix: (Units=1/GPa)
#
#
# Indices 1 2 3 4 5 6 
#
# 1 0.011123 0.000595 -0.003181 0.000260 0.004156 -0.009314
# 2 0.000595 0.023114 0.001182 -0.029166 0.007402 -0.007333
# 3 -0.003181 0.001182 0.014840 -0.018906 -0.001029 0.014158
# 4 0.000260 -0.029166 -0.018906 0.180725 0.011572 -0.072535
# 5 0.004156 0.007402 -0.001029 0.011572 0.035241 -0.034682
# 6 -0.009314 -0.007333 0.014158 -0.072535 -0.034682 0.136584
#
#
# Mechanical properties :
#
#
# Convention : Reuss Voigt Hill
#
# Bulk Modulus (GPa) = 21.61256 38.79384 30.20320
# Shear Modulus (GPa) = 11.90880 28.23468 20.07174
#
# Velocity S-wave (km/s) = 2.35614 3.62793 3.05886
# Velocity P-wave (km/s) = 4.18052 5.96936 5.15316
#
# Compressibility (1/GPa) = 0.04626940
#
# Stress axis : x y z
#
# Youngs Moduli (GPa) = 89.90594 43.26325 67.38677
#
# Poissons Ratio (x) = -0.02575 0.21435
# Poissons Ratio (y) = -0.05350 -0.07966
# Poissons Ratio (z) = 0.28598 -0.05114
#
# Static dielectric constant tensor:
#      x y z
#    x 4.130540 0.270820 -0.263920 
#    y 0.270820 3.318030 0.237060 
#    z -0.263920 0.237060 4.162290 
# 
# 
# High freq. dielectric constant tensor:
#      x y z
#    x 1.856770 0.023140 -0.016800 
#    y 0.023140 1.774860 0.019550 
#    z -0.016800 0.019550 1.854020 
# 
# From -- ./inp_files/376352.got.cif
#   From: 2010.06.25/outbox.cif.g09.slc.cpg/sg2_189_cif.got.tgz:376352.got - 2010.06.27 13:26:56.
