data_PCOD8040128
_publ_section_title
;
Structure prediction by ZEFSAII (Michael W. Deem and Ramdas Pophale) SiO2 
 PCOD8040128
Probable space group: P -1
;
_chemical_formula_sum "Si O2"
_cell_formula_units_Z 16
_cell_length_a 16.576366
_cell_length_b 8.687135
_cell_length_c 11.952197
_cell_angle_alpha 31.604750
_cell_angle_beta 117.412031
_cell_angle_gamma 105.015372
_cell_volume 767.263225
_symmetry_space_group_name_H-M "P -1"
_symmetry_group_IT_number 2
_symmetry_cell_setting 'triclinic'
loop_
_space_group_symop_operation_xyz
x,y,z
-x,-y,-z
loop_
_atom_site_type_symbol
_atom_site_label
_atom_site_fract_x
_atom_site_fract_y
_atom_site_fract_z
Si Si1 0.012363 0.333558 0.284860
Si Si2 0.232566 0.802516 0.978037
Si Si3 0.388279 0.010130 0.842899
Si Si4 0.755416 0.317678 0.481206
Si Si5 0.423133 0.142204 0.024898
Si Si6 0.848624 0.712651 0.797652
Si Si7 0.080790 0.386827 0.529906
Si Si8 0.670007 0.274518 0.676903
O O1 0.098519 0.307480 0.272847
O O2 0.034521 0.493008 0.314047
O O3 0.000000 0.000000 0.500000
O O4 0.916960 0.567059 0.033406
O O5 0.292024 0.905127 0.851342
O O6 0.123196 0.017343 0.776122
O O7 0.232396 0.458500 0.162747
O O8 0.269100 0.834633 0.105624
O O9 0.426021 0.955467 0.027188
O O10 0.369674 0.360881 0.576308
O O11 0.470331 0.809770 0.934008
O O12 0.661080 0.542175 0.225982
O O13 0.829513 0.496447 0.455004
O O14 0.730655 0.158935 0.675476
O O15 0.799365 0.067018 0.571753
O O16 0.410008 0.910100 0.258063
O O17 0.000000 0.500000 0.500000
#
# Coordination Sequence:
#
# PCOD8040128 Si02
#       8
#     2   2   2   2   2   2   2   2
#     4  11  24  44  63  87 125 165 215 251 306 366
#     4  11  22  41  59  93 125 161 206 247 311 371
#     4   9  18  35  61  91 121 160 199 257 304 366
#     4  11  23  40  59  95 124 159 205 258 303 359
#     4   9  18  35  60  91 126 151 205 257 305 360
#     4  11  26  40  63  90 123 175 202 250 313 372
#     4  12  24  41  65  90 125 160 204 262 302 353
#     4  10  18  35  65  91 119 159 209 250 310 359
#
# _framework density 20.853338999999998
#
# number of rings (size 3 to 8) (size 9 to 14) (size 15 to 20)
#    0.000    1.500    5.000    1.875    3.500    2.500 
#    0.000    0.625    0.000    1.500    0.000    0.000 
#    0.000    0.000    0.000    0.000    0.000    0.000 
#
# Total GULP energy -198299.279878 kJ/mol
# GULP energy per Si atom -12393.704992 kJ/mol
# Density = 2.080588 g / cm^3
# Si number density = 20.853339 Si / 1000 Ang^3
#
#
#
# Elastic Constant Matrix: (Units=GPa)
#
#
# Indices 1 2 3 4 5 6 
#
# 1 129.8468 25.3141 55.3881 -1.4932 -2.0408 -12.2063
# 2 25.3141 66.2842 21.2918 -4.7149 2.2189 -9.9175
# 3 55.3881 21.2918 89.7900 -2.9446 -11.4750 -10.4868
# 4 -1.4932 -4.7149 -2.9446 31.2237 -4.3235 -5.0443
# 5 -2.0408 2.2189 -11.4750 -4.3235 33.2349 -3.2256
# 6 -12.2063 -9.9175 -10.4868 -5.0443 -3.2256 20.2377
#
#
#
# Elastic Compliance Matrix: (Units=1/GPa)
#
#
# Indices 1 2 3 4 5 6 
#
# 1 0.010878 -0.001805 -0.006166 -0.000125 -0.001137 0.002269
# 2 -0.001805 0.017862 -0.002294 0.003422 -0.000954 0.007177
# 3 -0.006166 -0.002294 0.017095 0.002817 0.006603 0.005770
# 4 -0.000125 0.003422 0.002817 0.035836 0.006666 0.013056
# 5 -0.001137 -0.000954 0.006603 0.006666 0.034139 0.009372
# 6 0.002269 0.007177 0.005770 0.013056 0.009372 0.062036
#
#
# Mechanical properties :
#
#
# Convention : Reuss Voigt Hill
#
# Bulk Modulus (GPa) = 39.51839 54.43431 46.97635
# Shear Modulus (GPa) = 24.17681 29.20107 26.68894
#
# Velocity S-wave (km/s) = 3.40865 3.74613 3.58137
# Velocity P-wave (km/s) = 5.87228 6.69861 6.29901
#
# Compressibility (1/GPa) = 0.02530467
#
# Stress axis : x y z
#
# Youngs Moduli (GPa) = 91.93231 55.98564 58.49676
#
# Poissons Ratio (x) = 0.10104 0.36071
# Poissons Ratio (y) = 0.16592 0.13417
# Poissons Ratio (z) = 0.56689 0.12841
#
# Static dielectric constant tensor:
#      x y z
#    x 4.394510 -0.016480 -0.106520 
#    y -0.016480 3.474250 0.094040 
#    z -0.106520 0.094040 3.810640 
# 
# 
# High freq. dielectric constant tensor:
#      x y z
#    x 1.836200 -0.005340 -0.006650 
#    y -0.005340 1.777580 0.005360 
#    z -0.006650 0.005360 1.819540 
# 
# From -- ./inp_files/39502.got.cif
#   From: 2010.06.25/outbox.cif.g09.slc.cpg/sg2_20_cif.got.tgz:39502.got - 2010.06.27 13:26:56.
