data_PCOD8040445
_publ_section_title
;
Structure prediction by ZEFSAII (Michael W. Deem and Ramdas Pophale) SiO2 
 PCOD8040445
Probable space group: P -1
;
_chemical_formula_sum "Si O2"
_cell_formula_units_Z 14
_cell_length_a 21.073144
_cell_length_b 17.683094
_cell_length_c 11.950981
_cell_angle_alpha 140.256519
_cell_angle_beta 30.655481
_cell_angle_gamma 160.666351
_cell_volume 727.157741
_symmetry_space_group_name_H-M "P -1"
_symmetry_group_IT_number 2
_symmetry_cell_setting 'triclinic'
loop_
_space_group_symop_operation_xyz
x,y,z
-x,-y,-z
loop_
_atom_site_type_symbol
_atom_site_label
_atom_site_fract_x
_atom_site_fract_y
_atom_site_fract_z
Si Si1 0.802287 0.064706 0.229832
Si Si2 0.731444 0.268147 0.589198
Si Si3 0.840230 0.680240 0.211622
Si Si4 0.709525 0.835650 0.549964
Si Si5 0.009991 0.887080 0.787977
Si Si6 0.567753 0.358262 0.839126
Si Si7 0.708318 0.965907 0.920746
O O1 0.694562 0.105953 0.411820
O O2 0.848948 0.090799 0.321227
O O3 0.617458 0.808973 0.176005
O O4 0.065851 0.268189 0.998191
O O5 0.724670 0.364127 0.612888
O O6 0.000000 0.500000 0.500000
O O7 0.498432 0.099145 0.835636
O O8 0.802063 0.788732 0.407623
O O9 0.581719 0.401658 0.305425
O O10 0.032438 0.784912 0.129771
O O11 0.765690 0.979846 0.722462
O O12 0.848809 0.983352 0.394044
O O13 0.736150 0.612798 0.860829
O O14 0.000000 0.000000 0.000000
O O15 0.404619 0.235673 0.061827
#
# Coordination Sequence:
#
# PCOD8040445 Si02
#       7
#     2   2   2   2   2   2   2
#     4  11  20  41  61  92 116 154 202 241 296 346
#     4  10  18  36  70  89 116 149 203 256 283 345
#     4  10  21  37  61  85 114 159 201 243 285 349
#     4  11  22  37  58  84 123 159 192 242 294 355
#     4  12  24  38  57  88 125 157 193 242 304 355
#     4   9  22  37  62  89 113 151 198 246 291 344
#     4   9  21  38  60  90 111 151 204 242 294 339
#
# _framework density 19.253043999999999
#
# number of rings (size 3 to 8) (size 9 to 14) (size 15 to 20)
#    0.857    0.857    2.857    2.571    2.000    1.714 
#    0.000    0.714    0.000    1.714    0.000    0.000 
#    0.000    0.000    0.000    0.000    0.000    0.000 
#
# Total GULP energy -173499.358480 kJ/mol
# GULP energy per Si atom -12392.811320 kJ/mol
# Density = 1.920922 g / cm^3
# Si number density = 19.253044 Si / 1000 Ang^3
#
#
#
# Elastic Constant Matrix: (Units=GPa)
#
#
# Indices 1 2 3 4 5 6 
#
# 1 60.8190 30.6014 27.9488 -12.5510 20.1348 12.7027
# 2 30.6014 110.3632 28.9413 -7.7508 14.7593 7.6340
# 3 27.9488 28.9413 83.5087 -0.5530 6.0113 15.0754
# 4 -12.5510 -7.7508 -0.5530 31.5957 1.2169 -6.6789
# 5 20.1348 14.7593 6.0113 1.2169 33.7913 1.4849
# 6 12.7027 7.6340 15.0754 -6.6789 1.4849 23.3006
#
#
#
# Elastic Compliance Matrix: (Units=1/GPa)
#
#
# Indices 1 2 3 4 5 6 
#
# 1 0.029524 -0.003337 -0.006285 0.009869 -0.015058 -0.007147
# 2 -0.003337 0.011078 -0.002623 0.001544 -0.002461 0.000486
# 3 -0.006285 -0.002623 0.016154 -0.004568 0.002517 -0.007636
# 4 0.009869 0.001544 -0.004568 0.037937 -0.007478 0.008421
# 5 -0.015058 -0.002461 0.002517 -0.007478 0.039342 0.002736
# 6 -0.007147 0.000486 -0.007636 0.008421 0.002736 0.053834
#
#
# Mechanical properties :
#
#
# Convention : Reuss Voigt Hill
#
# Bulk Modulus (GPa) = 30.99194 47.74155 39.36674
# Shear Modulus (GPa) = 22.41006 28.88416 25.64711
#
# Velocity S-wave (km/s) = 3.41541 3.87749 3.65376
# Velocity P-wave (km/s) = 5.62898 6.70055 6.18800
#
# Compressibility (1/GPa) = 0.03226646
#
# Stress axis : x y z
#
# Youngs Moduli (GPa) = 33.87088 90.26977 61.90307
#
# Poissons Ratio (x) = 0.30123 0.38906
# Poissons Ratio (y) = 0.11303 0.16236
# Poissons Ratio (z) = 0.21288 0.23676
#
# Static dielectric constant tensor:
#      x y z
#    x 3.372150 0.163260 -0.111410 
#    y 0.163260 3.496800 -0.045730 
#    z -0.111410 -0.045730 3.556780 
# 
# 
# High freq. dielectric constant tensor:
#      x y z
#    x 1.729170 0.026860 -0.007940 
#    y 0.026860 1.745620 -0.004560 
#    z -0.007940 -0.004560 1.746080 
# 
# From -- ./inp_files/303048.got.cif
#   From: 2010.06.25/outbox.cif.g09.slc.cpg/sg2_152_cif.got.tgz:303048.got - 2010.06.27 13:26:56.
