data_PCOD8040803
_publ_section_title
;
Structure prediction by ZEFSAII (Michael W. Deem and Ramdas Pophale) SiO2 
 PCOD8040803
Probable space group: P -1
;
_chemical_formula_sum "Si O2"
_cell_formula_units_Z 16
_cell_length_a 10.025790
_cell_length_b 14.214757
_cell_length_c 11.629017
_cell_angle_alpha 123.275818
_cell_angle_beta 87.778714
_cell_angle_gamma 137.187580
_cell_volume 723.380841
_symmetry_space_group_name_H-M "P -1"
_symmetry_group_IT_number 2
_symmetry_cell_setting 'triclinic'
loop_
_space_group_symop_operation_xyz
x,y,z
-x,-y,-z
loop_
_atom_site_type_symbol
_atom_site_label
_atom_site_fract_x
_atom_site_fract_y
_atom_site_fract_z
Si Si1 0.312318 0.085492 0.141508
Si Si2 0.804188 0.207418 0.155318
Si Si3 0.589653 0.116037 0.317175
Si Si4 0.530549 0.476410 0.668473
Si Si5 0.884104 0.832412 0.705985
Si Si6 0.706266 0.361889 0.671084
Si Si7 0.552368 0.715451 0.952409
Si Si8 0.291881 0.682663 0.102675
O O1 0.453280 0.119920 0.258996
O O2 0.140804 0.055610 0.184092
O O3 0.503722 0.278291 0.170580
O O4 0.121218 0.867330 0.928552
O O5 0.838186 0.261428 0.326581
O O6 0.985205 0.411412 0.204007
O O7 0.500000 0.000000 0.000000
O O8 0.642306 0.201386 0.497962
O O9 0.425541 0.885801 0.177884
O O10 0.743137 0.651483 0.681283
O O11 0.245444 0.281998 0.491172
O O12 0.569973 0.376495 0.639996
O O13 0.551644 0.578661 0.844723
O O14 0.191439 0.043076 0.838619
O O15 0.608624 0.273710 0.743913
O O16 0.329717 0.598579 0.965994
O O17 0.000000 0.500000 0.000000
#
# Coordination Sequence:
#
# PCOD8040803 Si02
#       8
#     2   2   2   2   2   2   2   2
#     4  10  18  38  68  97 132 164 221 279 336 387
#     4  10  20  36  65  98 126 172 224 267 331 391
#     4  11  23  42  67  96 132 178 223 279 333 398
#     4  10  22  41  69 104 131 170 223 284 342 388
#     4  10  20  40  68 105 134 165 223 289 335 393
#     4  12  24  44  65  98 138 174 221 284 336 398
#     4  11  23  42  68  99 135 178 221 277 337 398
#     4  12  28  47  64  93 140 185 223 264 341 413
#
# _framework density 22.118362000000001
#
# number of rings (size 3 to 8) (size 9 to 14) (size 15 to 20)
#    0.000    1.250    2.500    5.250    1.750    0.500 
#    4.500    0.625    0.000    0.000    0.000    0.000 
#    0.000    0.000    0.000    0.000    0.000    0.000 
#
# Total GULP energy -198214.457237 kJ/mol
# GULP energy per Si atom -12388.403577 kJ/mol
# Density = 2.206802 g / cm^3
# Si number density = 22.118362 Si / 1000 Ang^3
#
#
#
# Elastic Constant Matrix: (Units=GPa)
#
#
# Indices 1 2 3 4 5 6 
#
# 1 60.2335 28.2919 28.5734 -2.3984 -7.9407 3.7154
# 2 28.2919 79.9975 16.7366 -13.1642 -2.8019 9.9480
# 3 28.5734 16.7366 92.8730 -12.6573 -10.3581 8.8343
# 4 -2.3984 -13.1642 -12.6573 29.8445 4.0687 -3.3063
# 5 -7.9407 -2.8019 -10.3581 4.0687 41.0747 -4.5209
# 6 3.7154 9.9480 8.8343 -3.3063 -4.5209 36.0772
#
#
#
# Elastic Compliance Matrix: (Units=1/GPa)
#
#
# Indices 1 2 3 4 5 6 
#
# 1 0.023295 -0.007723 -0.006159 -0.004421 0.002995 0.001209
# 2 -0.007723 0.016619 0.000480 0.006706 -0.001282 -0.003451
# 3 -0.006159 0.000480 0.013644 0.005051 0.001542 -0.002183
# 4 -0.004421 0.006706 0.005051 0.038708 -0.002897 0.000554
# 5 0.002995 -0.001282 0.001542 -0.002897 0.025803 0.002636
# 6 0.001209 -0.003451 -0.002183 0.000554 0.002636 0.029461
#
#
# Mechanical properties :
#
#
# Convention : Reuss Voigt Hill
#
# Bulk Modulus (GPa) = 37.37602 42.25642 39.81622
# Shear Modulus (GPa) = 27.28483 32.03275 29.65879
#
# Velocity S-wave (km/s) = 3.51605 3.80971 3.66582
# Velocity P-wave (km/s) = 5.78086 6.20467 5.99651
#
# Compressibility (1/GPa) = 0.02675512
#
# Stress axis : x y z
#
# Youngs Moduli (GPa) = 42.92692 60.17210 73.29383
#
# Poissons Ratio (x) = 0.46471 0.45140
# Poissons Ratio (y) = 0.33153 -0.03521
# Poissons Ratio (z) = 0.26438 -0.02891
#
# Static dielectric constant tensor:
#      x y z
#    x 4.215630 0.086480 -0.331820 
#    y 0.086480 4.132150 -0.285850 
#    z -0.331820 -0.285850 4.337370 
# 
# 
# High freq. dielectric constant tensor:
#      x y z
#    x 1.880990 -0.006100 -0.017280 
#    y -0.006100 1.842840 -0.009880 
#    z -0.017280 -0.009880 1.871820 
# 
# From -- ./inp_files/434228.got.cif
#   From: 2010.06.25/outbox.cif.g09.slc.cpg/sg2_218_cif.got.tgz:434228.got - 2010.06.27 13:26:56.
