data_PCOD8040832
_publ_section_title
;
Structure prediction by ZEFSAII (Michael W. Deem and Ramdas Pophale) SiO2 
 PCOD8040832
Probable space group: P -1
;
_chemical_formula_sum "Si O2"
_cell_formula_units_Z 16
_cell_length_a 6.742348
_cell_length_b 17.348454
_cell_length_c 20.484469
_cell_angle_alpha 20.210062
_cell_angle_beta 74.804686
_cell_angle_gamma 73.461632
_cell_volume 793.412405
_symmetry_space_group_name_H-M "P -1"
_symmetry_group_IT_number 2
_symmetry_cell_setting 'triclinic'
loop_
_space_group_symop_operation_xyz
x,y,z
-x,-y,-z
loop_
_atom_site_type_symbol
_atom_site_label
_atom_site_fract_x
_atom_site_fract_y
_atom_site_fract_z
Si Si1 0.537306 0.273963 0.943235
Si Si2 0.831354 0.633683 0.602371
Si Si3 0.907773 0.508557 0.184871
Si Si4 0.696484 0.008755 0.019526
Si Si5 0.669274 0.204552 0.360507
Si Si6 0.637612 0.066624 0.336919
Si Si7 0.020502 0.618899 0.333983
Si Si8 0.660745 0.384989 0.974032
O O1 0.628934 0.507826 0.732813
O O2 0.288370 0.304496 0.936589
O O3 0.633131 0.079520 0.042090
O O4 0.608927 0.207164 0.063749
O O5 0.769526 0.897057 0.410663
O O6 0.017625 0.560282 0.694432
O O7 0.909833 0.581236 0.563795
O O8 0.842562 0.306808 0.306206
O O9 0.093519 0.602318 0.055507
O O10 0.808708 0.755756 0.217236
O O11 0.824231 0.189681 0.829267
O O12 0.500000 0.000000 0.000000
O O13 0.584460 0.011047 0.564675
O O14 0.763459 0.100399 0.366718
O O15 0.469557 0.378359 0.219922
O O16 0.592700 0.301530 0.116290
O O17 0.000000 0.500000 0.500000
#
# Coordination Sequence:
#
# PCOD8040832 Si02
#       8
#     2   2   2   2   2   2   2   2
#     4   9  19  38  60  82 117 153 189 235 289 341
#     4  10  20  39  59  85 118 151 188 239 290 341
#     4  10  18  39  60  82 119 151 189 244 279 336
#     4  10  21  40  63  86 116 160 195 239 298 353
#     4  10  22  41  57  83 117 153 192 236 285 338
#     4  11  21  39  60  83 116 154 189 235 292 339
#     4  10  23  40  62  89 121 153 194 248 295 346
#     4  10  21  38  58  85 116 149 193 240 279 339
#
# _framework density 20.166056000000001
#
# number of rings (size 3 to 8) (size 9 to 14) (size 15 to 20)
#    0.000    2.000    3.750    1.125    1.750    2.500 
#    4.500    0.000    0.000    0.000    0.000    0.000 
#    0.000    0.000    0.000    0.000    0.000    0.000 
#
# Total GULP energy -198314.363470 kJ/mol
# GULP energy per Si atom -12394.647717 kJ/mol
# Density = 2.012016 g / cm^3
# Si number density = 20.166056 Si / 1000 Ang^3
#
#
#
# Elastic Constant Matrix: (Units=GPa)
#
#
# Indices 1 2 3 4 5 6 
#
# 1 125.3169 30.3754 34.7420 11.2616 -0.5098 -1.8995
# 2 30.3754 129.6506 47.2872 6.6744 -0.5473 7.0172
# 3 34.7420 47.2872 76.8191 23.9418 0.8903 -1.6740
# 4 11.2616 6.6744 23.9418 37.3873 0.0485 5.2242
# 5 -0.5098 -0.5473 0.8903 0.0485 10.8856 -2.5613
# 6 -1.8995 7.0172 -1.6740 5.2242 -2.5613 27.4399
#
#
#
# Elastic Compliance Matrix: (Units=1/GPa)
#
#
# Indices 1 2 3 4 5 6 
#
# 1 0.009218 -0.000926 -0.003422 -0.000540 0.000867 0.000850
# 2 -0.000926 0.010635 -0.007346 0.003631 0.000156 -0.003908
# 3 -0.003422 -0.007346 0.023400 -0.013413 -0.001085 0.005522
# 4 -0.000540 0.003631 -0.013413 0.036074 -0.000963 -0.008742
# 5 0.000867 0.000156 -0.001085 -0.000963 0.094105 0.008921
# 6 0.000850 -0.003908 0.005522 -0.008742 0.008921 0.040336
#
#
# Mechanical properties :
#
#
# Convention : Reuss Voigt Hill
#
# Bulk Modulus (GPa) = 50.34083 61.84399 56.09241
# Shear Modulus (GPa) = 20.51052 29.76802 25.13927
#
# Velocity S-wave (km/s) = 3.19263 3.84623 3.53457
# Velocity P-wave (km/s) = 6.21352 7.10342 6.67332
#
# Compressibility (1/GPa) = 0.01986459
#
# Stress axis : x y z
#
# Youngs Moduli (GPa) = 108.48495 94.03293 42.73423
#
# Poissons Ratio (x) = 0.08708 0.14624
# Poissons Ratio (y) = 0.10046 0.31392
# Poissons Ratio (z) = 0.37125 0.69076
#
# Static dielectric constant tensor:
#      x y z
#    x 3.499110 -0.063930 0.001570 
#    y -0.063930 3.459000 0.103900 
#    z 0.001570 0.103900 3.317790 
# 
# 
# High freq. dielectric constant tensor:
#      x y z
#    x 1.780270 0.005170 -0.000220 
#    y 0.005170 1.810040 -0.004830 
#    z -0.000220 -0.004830 1.762640 
# 
# From -- ./inp_files/140716.got.cif
#   From: 2010.06.25/outbox.cif.g09.slc.cpg/sg2_71_cif.got.tgz:140716.got - 2010.06.27 13:26:56.
