data_PCOD8040696
_publ_section_title
;
Structure prediction by ZEFSAII (Michael W. Deem and Ramdas Pophale) SiO2 
 PCOD8040696
Probable space group: P -1
;
_chemical_formula_sum "Si O2"
_cell_formula_units_Z 16
_cell_length_a 9.888502
_cell_length_b 16.011921
_cell_length_c 10.634306
_cell_angle_alpha 120.797024
_cell_angle_beta 101.660411
_cell_angle_gamma 36.408620
_cell_volume 782.295429
_symmetry_space_group_name_H-M "P -1"
_symmetry_group_IT_number 2
_symmetry_cell_setting 'triclinic'
loop_
_space_group_symop_operation_xyz
x,y,z
-x,-y,-z
loop_
_atom_site_type_symbol
_atom_site_label
_atom_site_fract_x
_atom_site_fract_y
_atom_site_fract_z
Si Si1 0.054412 0.748916 0.580952
Si Si2 0.552698 0.239794 0.907211
Si Si3 0.738001 0.733336 0.280768
Si Si4 0.618303 0.112858 0.224148
Si Si5 0.540105 0.936003 0.634091
Si Si6 0.287932 0.445285 0.252471
Si Si7 0.082113 0.063150 0.083640
Si Si8 0.006017 0.980278 0.632080
O O1 0.273030 0.551634 0.415539
O O2 0.806534 0.830681 0.605753
O O3 0.123192 0.750087 0.736552
O O4 0.019654 0.857087 0.560594
O O5 0.325593 0.329130 0.852049
O O6 0.758155 0.170528 0.801529
O O7 0.691002 0.069390 0.873940
O O8 0.452624 0.370479 0.099513
O O9 0.553066 0.849768 0.456458
O O10 0.023267 0.561190 0.243934
O O11 0.687487 0.856223 0.275890
O O12 0.503457 0.091231 0.262526
O O13 0.406284 0.291358 0.241377
O O14 0.747043 0.113927 0.341238
O O15 0.826183 0.946446 0.038291
O O16 0.000000 0.000000 0.000000
O O17 0.000000 0.000000 0.500000
#
# Coordination Sequence:
#
# PCOD8040696 Si02
#       8
#     2   2   2   2   2   2   2   2
#     4  10  21  41  63  90 121 165 208 249 312 364
#     4  10  19  39  62  90 121 167 205 248 309 368
#     4  10  19  38  64  90 124 164 203 250 313 364
#     4  11  23  38  62  96 123 158 207 258 307 362
#     4  10  21  37  67  93 120 160 217 253 291 373
#     4  10  24  37  63  93 130 159 199 258 319 361
#     4  10  18  38  60  85 120 159 205 249 298 362
#     4  11  22  39  67  89 120 166 214 246 299 375
#
# _framework density 20.452631
#
# number of rings (size 3 to 8) (size 9 to 14) (size 15 to 20)
#    0.000    1.750    5.000    1.125    3.500    3.000 
#    0.000    0.625    5.500    0.000    0.000    0.000 
#    0.000    0.000    0.000    0.000    0.000    0.000 
#
# Total GULP energy -198268.089108 kJ/mol
# GULP energy per Si atom -12391.755569 kJ/mol
# Density = 2.040608 g / cm^3
# Si number density = 20.452631 Si / 1000 Ang^3
#
#
#
# Elastic Constant Matrix: (Units=GPa)
#
#
# Indices 1 2 3 4 5 6 
#
# 1 84.2048 32.6972 37.0902 -8.4663 -15.9039 14.8069
# 2 32.6972 90.1919 40.3968 -8.7931 -11.8480 3.0227
# 3 37.0902 40.3968 158.2335 -9.2514 -5.2230 17.1792
# 4 -8.4663 -8.7931 -9.2514 31.2664 1.9863 -6.2630
# 5 -15.9039 -11.8480 -5.2230 1.9863 37.1346 -13.5373
# 6 14.8069 3.0227 17.1792 -6.2630 -13.5373 32.8898
#
#
#
# Elastic Compliance Matrix: (Units=1/GPa)
#
#
# Indices 1 2 3 4 5 6 
#
# 1 0.015904 -0.004078 -0.002052 0.001537 0.003722 -0.003889
# 2 -0.004078 0.014495 -0.002907 0.002692 0.003823 0.004108
# 3 -0.002052 -0.002907 0.007899 0.000350 -0.002070 -0.003720
# 4 0.001537 0.002692 0.000350 0.034385 0.002006 0.006251
# 5 0.003722 0.003823 -0.002070 0.002006 0.034283 0.013547
# 6 -0.003889 0.004108 -0.003720 0.006251 0.013547 0.040487
#
#
# Mechanical properties :
#
#
# Convention : Reuss Voigt Hill
#
# Bulk Modulus (GPa) = 49.44456 61.44429 55.44443
# Shear Modulus (GPa) = 29.02442 35.08788 32.05615
#
# Velocity S-wave (km/s) = 3.77119 4.14644 3.96325
# Velocity P-wave (km/s) = 6.57192 7.28226 6.93619
#
# Compressibility (1/GPa) = 0.02022467
#
# Stress axis : x y z
#
# Youngs Moduli (GPa) = 62.87563 68.99016 126.59783
#
# Poissons Ratio (x) = 0.28131 0.25979
# Poissons Ratio (y) = 0.25638 0.36804
# Poissons Ratio (z) = 0.12903 0.20057
#
# Static dielectric constant tensor:
#      x y z
#    x 3.477890 -0.143220 -0.104460 
#    y -0.143220 3.657540 -0.242640 
#    z -0.104460 -0.242640 4.508510 
# 
# 
# High freq. dielectric constant tensor:
#      x y z
#    x 1.778070 -0.024690 -0.004880 
#    y -0.024690 1.777650 -0.021290 
#    z -0.004880 -0.021290 1.820880 
# 
# From -- ./inp_files/399444.got.cif
#   From: 2010.06.25/outbox.cif.g09.slc.cpg/sg2_200_cif.got.tgz:399444.got - 2010.06.27 13:26:56.
