data_PCOD8040419
_publ_section_title
;
Structure prediction by ZEFSAII (Michael W. Deem and Ramdas Pophale) SiO2 
 PCOD8040419
Probable space group: P -1
;
_chemical_formula_sum "Si O2"
_cell_formula_units_Z 16
_cell_length_a 14.895455
_cell_length_b 12.643406
_cell_length_c 9.138319
_cell_angle_alpha 42.214186
_cell_angle_beta 110.461407
_cell_angle_gamma 133.051919
_cell_volume 801.187471
_symmetry_space_group_name_H-M "P -1"
_symmetry_group_IT_number 2
_symmetry_cell_setting 'triclinic'
loop_
_space_group_symop_operation_xyz
x,y,z
-x,-y,-z
loop_
_atom_site_type_symbol
_atom_site_label
_atom_site_fract_x
_atom_site_fract_y
_atom_site_fract_z
Si Si1 0.751526 0.460083 0.565626
Si Si2 0.952079 0.558381 0.147333
Si Si3 0.505414 0.333731 0.615667
Si Si4 0.134051 0.530305 0.116849
Si Si5 0.650724 0.009162 0.341883
Si Si6 0.236609 0.895692 0.389134
Si Si7 0.992074 0.179190 0.819000
Si Si8 0.428922 0.006782 0.152393
O O1 0.642749 0.472451 0.466073
O O2 0.797387 0.530229 0.689090
O O3 0.869646 0.604044 0.375183
O O4 0.683910 0.215190 0.764866
O O5 0.825902 0.348077 0.375093
O O6 0.024780 0.763606 0.085452
O O7 0.031364 0.490274 0.214727
O O8 0.919394 0.607397 0.922908
O O9 0.500000 0.500000 0.500000
O O10 0.390532 0.179748 0.592910
O O11 0.499486 0.196470 0.881071
O O12 0.222997 0.774054 0.875303
O O13 0.692512 0.975363 0.552743
O O14 0.534526 0.009272 0.286540
O O15 0.127143 0.898012 0.271189
O O16 0.355856 0.029114 0.208076
O O17 0.000000 0.000000 0.000000
#
# Coordination Sequence:
#
# PCOD8040419 Si02
#       8
#     2   2   2   2   2   2   2   2
#     4  11  20  41  62  87 117 159 209 245 293 363
#     4  10  21  37  62  90 116 158 204 254 299 353
#     4  11  24  39  61  90 125 162 193 244 308 365
#     4  10  18  36  66  89 114 147 216 259 286 343
#     4  10  21  39  60  93 116 154 206 255 295 350
#     4  11  22  38  64  87 119 158 208 253 295 359
#     4  12  26  41  58  91 131 164 196 248 320 369
#     4  11  20  39  66  88 118 157 207 250 294 355
#
# _framework density 19.970358999999998
#
# number of rings (size 3 to 8) (size 9 to 14) (size 15 to 20)
#    0.000    1.250    5.000    2.250    1.750    0.000 
#    2.250    1.250    0.000    0.000    0.000    0.000 
#    0.000    0.000    0.000    0.000    0.000    0.000 
#
# Total GULP energy -198259.910779 kJ/mol
# GULP energy per Si atom -12391.244424 kJ/mol
# Density = 1.992491 g / cm^3
# Si number density = 19.970359 Si / 1000 Ang^3
#
#
#
# Elastic Constant Matrix: (Units=GPa)
#
#
# Indices 1 2 3 4 5 6 
#
# 1 83.7010 49.8025 32.5882 -0.5146 -6.5789 -2.7653
# 2 49.8025 145.8973 47.5894 24.7162 13.8146 -5.1749
# 3 32.5882 47.5894 55.8310 7.6983 4.4305 -3.8980
# 4 -0.5146 24.7162 7.6983 28.8587 -1.2900 -0.3901
# 5 -6.5789 13.8146 4.4305 -1.2900 33.1323 -4.7722
# 6 -2.7653 -5.1749 -3.8980 -0.3901 -4.7722 31.5166
#
#
#
# Elastic Compliance Matrix: (Units=1/GPa)
#
#
# Indices 1 2 3 4 5 6 
#
# 1 0.019304 -0.006154 -0.007683 0.008031 0.007887 0.001027
# 2 -0.006154 0.013126 -0.005710 -0.010115 -0.006351 -0.000178
# 3 -0.007683 -0.005710 0.027970 -0.002814 -0.002794 0.001390
# 4 0.008031 -0.010115 -0.002814 0.044571 0.007989 0.000457
# 5 0.007887 -0.006351 -0.002794 0.007989 0.035775 0.004820
# 6 0.001027 -0.000178 0.001390 0.000457 0.004820 0.032697
#
#
# Mechanical properties :
#
#
# Convention : Reuss Voigt Hill
#
# Bulk Modulus (GPa) = 46.93839 60.59884 53.76862
# Shear Modulus (GPa) = 22.76459 29.06480 25.91469
#
# Velocity S-wave (km/s) = 3.37993 3.81910 3.60621
# Velocity P-wave (km/s) = 6.22792 7.06100 6.65750
#
# Compressibility (1/GPa) = 0.02130452
#
# Stress axis : x y z
#
# Youngs Moduli (GPa) = 51.80372 76.18550 35.75290
#
# Poissons Ratio (x) = 0.46885 0.27470
# Poissons Ratio (y) = 0.31880 0.20415
# Poissons Ratio (z) = 0.39803 0.43502
#
# Static dielectric constant tensor:
#      x y z
#    x 3.733870 0.153530 -0.279870 
#    y 0.153530 3.961660 0.248630 
#    z -0.279870 0.248630 3.505540 
# 
# 
# High freq. dielectric constant tensor:
#      x y z
#    x 1.779640 0.016740 -0.026670 
#    y 0.016740 1.786060 0.019300 
#    z -0.026670 0.019300 1.752670 
# 
# From -- ./inp_files/200260.got.cif
#   From: 2010.06.25/outbox.cif.g09.slc.cpg/sg2_101_cif.got.tgz:200260.got - 2010.06.27 13:26:56.
