data_PCOD8040997
_publ_section_title
;
Structure prediction by ZEFSAII (Michael W. Deem and Ramdas Pophale) SiO2 
 PCOD8040997
Probable space group: P -1
;
_chemical_formula_sum "Si O2"
_cell_formula_units_Z 16
_cell_length_a 9.214836
_cell_length_b 25.541723
_cell_length_c 9.100995
_cell_angle_alpha 152.056286
_cell_angle_beta 52.871598
_cell_angle_gamma 132.256525
_cell_volume 742.647223
_symmetry_space_group_name_H-M "P -1"
_symmetry_group_IT_number 2
_symmetry_cell_setting 'triclinic'
loop_
_space_group_symop_operation_xyz
x,y,z
-x,-y,-z
loop_
_atom_site_type_symbol
_atom_site_label
_atom_site_fract_x
_atom_site_fract_y
_atom_site_fract_z
Si Si1 0.568828 0.300143 0.376391
Si Si2 0.958029 0.274591 0.724409
Si Si3 0.186240 0.118742 0.695376
Si Si4 0.715861 0.749018 0.329090
Si Si5 0.447826 0.496727 0.816176
Si Si6 0.863648 0.674343 0.579863
Si Si7 0.469706 0.877575 0.299784
Si Si8 0.909270 0.457845 0.712081
O O1 0.445150 0.226336 0.407649
O O2 0.498909 0.413862 0.699161
O O3 0.805549 0.357405 0.399582
O O4 0.515771 0.220041 0.066275
O O5 0.738628 0.175936 0.623457
O O6 0.087668 0.233644 0.658084
O O7 0.038677 0.274272 0.509884
O O8 0.961447 0.408345 0.095642
O O9 0.250219 0.154413 0.578615
O O10 0.359324 0.096138 0.620439
O O11 0.117204 0.215854 0.055764
O O12 0.000000 0.000000 0.500000
O O13 0.637112 0.616934 0.970611
O O14 0.367345 0.411431 0.510608
O O15 0.268087 0.532841 0.062726
O O16 0.964645 0.590769 0.381954
O O17 0.500000 0.000000 0.500000
#
# Coordination Sequence:
#
# PCOD8040997 Si02
#       8
#     2   2   2   2   2   2   2   2
#     4  11  21  44  70  97 137 172 210 260 333 390
#     4  11  22  43  69 100 133 171 213 263 332 387
#     4  12  29  48  64  93 130 174 230 272 315 381
#     4  11  22  41  73  97 133 173 210 264 330 393
#     4  10  18  41  67 103 133 171 205 258 330 405
#     4  11  24  42  69  98 139 172 209 268 327 388
#     4  12  29  47  66  93 129 173 229 275 313 383
#     4  10  21  36  71 105 136 164 212 263 323 401
#
# _framework density 21.544549
#
# number of rings (size 3 to 8) (size 9 to 14) (size 15 to 20)
#    0.000    1.000    5.000    3.000    8.750    3.000 
#    0.000    3.750    0.000    0.000    0.000    0.000 
#    0.000    0.000    0.000    0.000    0.000    0.000 
#
# Total GULP energy -198349.300091 kJ/mol
# GULP energy per Si atom -12396.831256 kJ/mol
# Density = 2.149551 g / cm^3
# Si number density = 21.544549 Si / 1000 Ang^3
#
#
#
# Elastic Constant Matrix: (Units=GPa)
#
#
# Indices 1 2 3 4 5 6 
#
# 1 140.5093 47.7963 6.7343 14.4288 7.8081 -8.7269
# 2 47.7963 86.4019 -1.3682 17.3157 1.9581 -1.2698
# 3 6.7343 -1.3682 30.6834 3.9763 6.2955 5.6219
# 4 14.4288 17.3157 3.9763 29.6562 0.6288 4.7748
# 5 7.8081 1.9581 6.2955 0.6288 38.0260 10.6913
# 6 -8.7269 -1.2698 5.6219 4.7748 10.6913 37.8091
#
#
#
# Elastic Compliance Matrix: (Units=1/GPa)
#
#
# Indices 1 2 3 4 5 6 
#
# 1 0.009344 -0.004711 -0.002140 -0.001975 -0.002184 0.003184
# 2 -0.004711 0.015673 0.002703 -0.007217 -0.000167 -0.000004
# 3 -0.002140 0.002703 0.035380 -0.004569 -0.004401 -0.003842
# 4 -0.001975 -0.007217 -0.004569 0.040393 0.002504 -0.005828
# 5 -0.002184 -0.000167 -0.004401 0.002504 0.029865 -0.008616
# 6 0.003184 -0.000004 -0.003842 -0.005828 -0.008616 0.030927
#
#
# Mechanical properties :
#
#
# Convention : Reuss Voigt Hill
#
# Bulk Modulus (GPa) = 19.19341 40.43551 29.81446
# Shear Modulus (GPa) = 26.70317 34.72708 30.71512
#
# Velocity S-wave (km/s) = 3.52439 4.01917 3.77988
# Velocity P-wave (km/s) = 5.04874 6.35196 5.73747
#
# Compressibility (1/GPa) = 0.05210123
#
# Stress axis : x y z
#
# Youngs Moduli (GPa) = 107.02199 63.80556 28.26439
#
# Poissons Ratio (x) = 0.30057 0.06049
# Poissons Ratio (y) = 0.50415 -0.07640
# Poissons Ratio (z) = 0.22903 -0.17247
#
# Static dielectric constant tensor:
#      x y z
#    x 4.260540 -0.008740 0.318740 
#    y -0.008740 4.074460 0.353560 
#    z 0.318740 0.353560 4.065960 
# 
# 
# High freq. dielectric constant tensor:
#      x y z
#    x 1.867870 -0.001220 0.015080 
#    y -0.001220 1.834090 0.006600 
#    z 0.015080 0.006600 1.835800 
# 
# From -- ./inp_files/226778.got.cif
#   From: 2010.06.25/outbox.cif.g09.slc.cpg/sg2_114_cif.got.tgz:226778.got - 2010.06.27 13:26:56.
