data_PCOD8040286
_publ_section_title
;
Structure prediction by ZEFSAII (Michael W. Deem and Ramdas Pophale) SiO2 
 PCOD8040286
Probable space group: P -1
;
_chemical_formula_sum "Si O2"
_cell_formula_units_Z 16
_cell_length_a 7.594319
_cell_length_b 18.727021
_cell_length_c 6.901508
_cell_angle_alpha 69.839583
_cell_angle_beta 69.163345
_cell_angle_gamma 45.823922
_cell_volume 651.019439
_symmetry_space_group_name_H-M "P -1"
_symmetry_group_IT_number 2
_symmetry_cell_setting 'triclinic'
loop_
_space_group_symop_operation_xyz
x,y,z
-x,-y,-z
loop_
_atom_site_type_symbol
_atom_site_label
_atom_site_fract_x
_atom_site_fract_y
_atom_site_fract_z
Si Si1 0.991708 0.346620 0.247276
Si Si2 0.496895 0.036139 0.756405
Si Si3 0.969777 0.210760 0.876359
Si Si4 0.397319 0.821404 0.463983
Si Si5 0.508308 0.726452 0.907753
Si Si6 0.810215 0.509034 0.920911
Si Si7 0.953465 0.836881 0.655379
Si Si8 0.060296 0.357983 0.638662
O O1 0.247350 0.298823 0.067055
O O2 0.014684 0.387110 0.401393
O O3 0.980149 0.260770 0.379901
O O4 0.763705 0.439598 0.117840
O O5 0.203056 0.122041 0.731162
O O6 0.627988 0.083740 0.670568
O O7 0.664483 0.939376 0.636717
O O8 0.500000 0.000000 0.000000
O O9 0.934984 0.310210 0.783458
O O10 0.719026 0.230238 0.893544
O O11 0.011386 0.178870 0.113874
O O12 0.424578 0.806799 0.698588
O O13 0.145243 0.845363 0.475015
O O14 0.643381 0.721233 0.358710
O O15 0.568588 0.626260 0.884909
O O16 0.924123 0.461621 0.709711
O O17 0.000000 0.500000 0.000000
#
# Coordination Sequence:
#
# PCOD8040286 Si02
#       8
#     2   2   2   2   2   2   2   2
#     4  10  21  38  59  92 123 160 203 254 298 357
#     4   9  18  33  62  92 119 158 204 249 306 362
#     4   9  18  37  59  85 119 163 196 252 302 357
#     4   9  19  35  59  87 120 165 199 246 304 363
#     4   9  20  37  60  81 122 162 203 246 308 351
#     4  10  21  39  64  87 120 167 206 247 302 357
#     4  10  18  36  60  90 124 159 203 250 302 364
#     4  10  20  39  60  84 129 157 202 253 300 349
#
# _framework density 24.576841000000002
#
# number of rings (size 3 to 8) (size 9 to 14) (size 15 to 20)
#    0.000    2.500    1.250    0.375    0.000    5.000 
#    4.500    6.875    0.000    0.000    0.000    0.000 
#    0.000    0.000    0.000    0.000    0.000    0.000 
#
# Total GULP energy -198242.973893 kJ/mol
# GULP energy per Si atom -12390.185868 kJ/mol
# Density = 2.452090 g / cm^3
# Si number density = 24.576841 Si / 1000 Ang^3
#
#
#
# Elastic Constant Matrix: (Units=GPa)
#
#
# Indices 1 2 3 4 5 6 
#
# 1 50.2981 16.1200 29.4383 -1.9237 -34.0136 7.8763
# 2 16.1200 103.0842 38.8902 -5.9473 -5.1084 15.0493
# 3 29.4383 38.8902 90.5700 7.4416 -22.8372 2.2577
# 4 -1.9237 -5.9473 7.4416 36.9943 9.1842 3.6017
# 5 -34.0136 -5.1084 -22.8372 9.1842 44.8399 4.0184
# 6 7.8763 15.0493 2.2577 3.6017 4.0184 25.7554
#
#
#
# Elastic Compliance Matrix: (Units=1/GPa)
#
#
# Indices 1 2 3 4 5 6 
#
# 1 0.054837 -0.001451 -0.005923 -0.004355 0.041209 -0.021223
# 2 -0.001451 0.013467 -0.006325 0.004829 -0.003145 -0.007055
# 3 -0.005923 -0.006325 0.017225 -0.006308 0.004477 0.004181
# 4 -0.004355 0.004829 -0.006308 0.032236 -0.012252 -0.003534
# 5 0.041209 -0.003145 0.004477 -0.012252 0.059673 -0.018754
# 6 -0.021223 -0.007055 0.004181 -0.003534 -0.018754 0.052493
#
#
# Mechanical properties :
#
#
# Convention : Reuss Voigt Hill
#
# Bulk Modulus (GPa) = 17.20261 45.87214 31.53738
# Shear Modulus (GPa) = 18.06975 32.15151 25.11063
#
# Velocity S-wave (km/s) = 2.71446 3.62083 3.19990
# Velocity P-wave (km/s) = 4.10355 6.01547 5.14903
#
# Compressibility (1/GPa) = 0.05813073
#
# Stress axis : x y z
#
# Youngs Moduli (GPa) = 18.23575 74.25782 58.05520
#
# Poissons Ratio (x) = 0.10778 0.34387
# Poissons Ratio (y) = 0.02647 0.36718
# Poissons Ratio (z) = 0.10801 0.46965
#
# Static dielectric constant tensor:
#      x y z
#    x 4.133090 -0.225290 -0.388930 
#    y -0.225290 5.018710 -0.104700 
#    z -0.388930 -0.104700 4.529680 
# 
# 
# High freq. dielectric constant tensor:
#      x y z
#    x 1.942510 -0.000690 -0.017360 
#    y -0.000690 1.978710 -0.014630 
#    z -0.017360 -0.014630 1.990040 
# 
# From -- ./inp_files/222047.got.cif
#   From: 2010.06.25/outbox.cif.g09.slc.cpg/sg2_112_cif.got.tgz:222047.got - 2010.06.27 13:26:56.
