data_PCOD8040095
_publ_section_title
;
Structure prediction by ZEFSAII (Michael W. Deem and Ramdas Pophale) SiO2 
 PCOD8040095
Probable space group: P -1
;
_chemical_formula_sum "Si O2"
_cell_formula_units_Z 16
_cell_length_a 15.425652
_cell_length_b 9.400276
_cell_length_c 11.407794
_cell_angle_alpha 76.263883
_cell_angle_beta 148.754506
_cell_angle_gamma 116.947056
_cell_volume 723.520763
_symmetry_space_group_name_H-M "P -1"
_symmetry_group_IT_number 2
_symmetry_cell_setting 'triclinic'
loop_
_space_group_symop_operation_xyz
x,y,z
-x,-y,-z
loop_
_atom_site_type_symbol
_atom_site_label
_atom_site_fract_x
_atom_site_fract_y
_atom_site_fract_z
Si Si1 0.972948 0.161787 0.451042
Si Si2 0.073008 0.177717 0.987206
Si Si3 0.565271 0.740142 0.758303
Si Si4 0.179839 0.791383 0.498089
Si Si5 0.401162 0.960419 0.109189
Si Si6 0.370076 0.824288 0.327733
Si Si7 0.047691 0.359580 0.120218
Si Si8 0.769515 0.518882 0.447167
O O1 0.952645 0.201274 0.554251
O O2 0.170060 0.328030 0.604128
O O3 0.781560 0.134726 0.168530
O O4 0.000000 0.000000 0.500000
O O5 0.889659 0.172188 0.712984
O O6 0.238626 0.237482 0.069759
O O7 0.168388 0.323966 0.168737
O O8 0.000000 0.000000 0.000000
O O9 0.409060 0.696114 0.478250
O O10 0.457511 0.585920 0.758131
O O11 0.623077 0.910754 0.860004
O O12 0.164184 0.608619 0.503755
O O13 0.399036 0.937347 0.750615
O O14 0.415463 0.824578 0.240148
O O15 0.500000 0.000000 0.500000
O O16 0.160998 0.806909 0.094930
O O17 0.121107 0.381190 0.330804
O O18 0.000000 0.500000 0.000000
#
# Coordination Sequence:
#
# PCOD8040095 Si02
#       8
#     2   2   2   2   2   2   2   2
#     4  12  26  44  68  97 126 166 225 284 321 371
#     4  12  24  39  68 103 136 167 210 271 327 376
#     4  10  21  38  63  98 136 169 207 266 329 376
#     4  11  24  45  67  94 128 177 219 257 326 396
#     4  10  20  40  66  93 128 170 218 261 317 393
#     4  10  18  35  63  94 127 170 208 253 318 389
#     4  12  21  40  64  93 132 172 214 257 321 397
#     4  11  24  45  65  91 132 177 215 263 325 398
#
# _framework density 22.114084999999999
#
# number of rings (size 3 to 8) (size 9 to 14) (size 15 to 20)
#    0.000    1.000    3.750    5.250    1.750    0.500 
#    0.000    8.125    0.000    0.000    0.000    0.000 
#    0.000    0.000    0.000    0.000    0.000    0.000 
#
# Total GULP energy -198218.897304 kJ/mol
# GULP energy per Si atom -12388.681082 kJ/mol
# Density = 2.206375 g / cm^3
# Si number density = 22.114085 Si / 1000 Ang^3
#
#
#
# Elastic Constant Matrix: (Units=GPa)
#
#
# Indices 1 2 3 4 5 6 
#
# 1 136.9891 58.8961 9.9971 8.5666 9.9221 0.3286
# 2 58.8961 110.8762 3.8680 -1.5838 10.9052 13.5377
# 3 9.9971 3.8680 57.1106 8.1946 1.1247 4.2232
# 4 8.5666 -1.5838 8.1946 25.0444 3.1208 0.8518
# 5 9.9221 10.9052 1.1247 3.1208 41.6324 4.3792
# 6 0.3286 13.5377 4.2232 0.8518 4.3792 41.5776
#
#
#
# Elastic Compliance Matrix: (Units=1/GPa)
#
#
# Indices 1 2 3 4 5 6 
#
# 1 0.010001 -0.005480 -0.001021 -0.003391 -0.000874 0.001970
# 2 -0.005480 0.012633 -0.000005 0.003035 -0.001816 -0.003940
# 3 -0.001021 -0.000005 0.018638 -0.005733 0.000361 -0.001804
# 4 -0.003391 0.003035 -0.005733 0.043563 -0.002997 -0.000956
# 5 -0.000874 -0.001816 0.000361 -0.002997 0.025131 -0.002024
# 6 0.001970 -0.003940 -0.001804 -0.000956 -0.002024 0.025735
#
#
# Mechanical properties :
#
#
# Convention : Reuss Voigt Hill
#
# Bulk Modulus (GPa) = 35.38569 50.05538 42.72054
# Shear Modulus (GPa) = 31.61890 37.13186 34.37538
#
# Velocity S-wave (km/s) = 3.78538 4.10213 3.94694
# Velocity P-wave (km/s) = 5.92804 6.71721 6.33492
#
# Compressibility (1/GPa) = 0.02826001
#
# Stress axis : x y z
#
# Youngs Moduli (GPa) = 99.98996 79.15664 53.65416
#
# Poissons Ratio (x) = 0.43377 0.05480
# Poissons Ratio (y) = 0.54793 0.00025
# Poissons Ratio (z) = 0.10213 0.00037
#
# Static dielectric constant tensor:
#      x y z
#    x 3.717000 0.823810 0.561630 
#    y 0.823810 3.969390 -0.336360 
#    z 0.561630 -0.336360 2.290180 
# 
# 
# High freq. dielectric constant tensor:
#      x y z
#    x 1.881610 0.016530 -0.002860 
#    y 0.016530 1.858840 0.019610 
#    z -0.002860 0.019610 1.864050 
# 
# From -- ./inp_files/297540.got.cif
#   From: 2010.06.25/outbox.cif.g09.slc.cpg/sg2_149_cif.got.tgz:297540.got - 2010.06.27 13:26:56.
