data_PCOD8040407
_publ_section_title
;
Structure prediction by ZEFSAII (Michael W. Deem and Ramdas Pophale) SiO2 
 PCOD8040407
Probable space group: P -1
;
_chemical_formula_sum "Si O2"
_cell_formula_units_Z 14
_cell_length_a 9.058599
_cell_length_b 8.570109
_cell_length_c 10.983320
_cell_angle_alpha 74.194605
_cell_angle_beta 127.453166
_cell_angle_gamma 96.989860
_cell_volume 650.222541
_symmetry_space_group_name_H-M "P -1"
_symmetry_group_IT_number 2
_symmetry_cell_setting 'triclinic'
loop_
_space_group_symop_operation_xyz
x,y,z
-x,-y,-z
loop_
_atom_site_type_symbol
_atom_site_label
_atom_site_fract_x
_atom_site_fract_y
_atom_site_fract_z
Si Si1 0.314444 0.708806 0.670422
Si Si2 0.298758 0.475498 0.345697
Si Si3 0.009224 0.256208 0.846837
Si Si4 0.919815 0.778354 0.557821
Si Si5 0.169926 0.392819 0.667753
Si Si6 0.804082 0.043020 0.629761
Si Si7 0.310969 0.221507 0.202761
O O1 0.341573 0.510789 0.715940
O O2 0.285156 0.785466 0.502538
O O3 0.508693 0.781415 0.796417
O O4 0.144691 0.753066 0.667688
O O5 0.500000 0.500000 0.500000
O O6 0.167232 0.365868 0.381953
O O7 0.319998 0.390659 0.243349
O O8 0.185571 0.648619 0.235260
O O9 0.137476 0.356516 0.800212
O O10 0.966676 0.087595 0.794870
O O11 0.121646 0.214512 0.034748
O O12 0.820682 0.772215 0.374820
O O13 0.880920 0.950537 0.566681
O O14 0.000000 0.500000 0.500000
O O15 0.667320 0.930839 0.660004
#
# Coordination Sequence:
#
# PCOD8040407 Si02
#       7
#     2   2   2   2   2   2   2
#     4  11  20  40  63  91 118 157 210 248 291 362
#     4  11  22  41  66  91 116 158 209 248 295 365
#     4  12  22  41  62  88 129 156 196 259 304 355
#     4  10  20  37  64  93 112 154 210 252 288 347
#     4  10  18  36  65  86 115 153 208 246 298 340
#     4  11  22  39  64  84 123 167 204 244 294 363
#     4  11  26  38  60  94 125 160 197 249 314 352
#
# _framework density 21.531091
#
# number of rings (size 3 to 8) (size 9 to 14) (size 15 to 20)
#    0.000    1.143    5.714    3.429    0.000    1.714 
#    0.000    0.714    0.000    0.000    0.000    0.000 
#    0.000    0.000    0.000    0.000    0.000    0.000 
#
# Total GULP energy -173452.852795 kJ/mol
# GULP energy per Si atom -12389.489485 kJ/mol
# Density = 2.148209 g / cm^3
# Si number density = 21.531091 Si / 1000 Ang^3
#
#
#
# Elastic Constant Matrix: (Units=GPa)
#
#
# Indices 1 2 3 4 5 6 
#
# 1 108.8060 40.7077 24.3759 2.6919 13.4189 20.6323
# 2 40.7077 114.8809 28.5465 18.2094 0.4099 5.6748
# 3 24.3759 28.5465 77.4592 10.8309 9.1627 -0.5463
# 4 2.6919 18.2094 10.8309 29.4515 2.4431 -4.3421
# 5 13.4189 0.4099 9.1627 2.4431 30.6201 8.0992
# 6 20.6323 5.6748 -0.5463 -4.3421 8.0992 26.3350
#
#
#
# Elastic Compliance Matrix: (Units=1/GPa)
#
#
# Indices 1 2 3 4 5 6 
#
# 1 0.013096 -0.003723 -0.002632 0.001047 -0.002738 -0.008498
# 2 -0.003723 0.011790 -0.002662 -0.006498 0.003252 -0.001751
# 3 -0.002632 -0.002662 0.015664 -0.002963 -0.004263 0.003783
# 4 0.001047 -0.006498 -0.002963 0.040680 -0.005053 0.008780
# 5 -0.002738 0.003252 -0.004263 -0.005053 0.038486 -0.011314
# 6 -0.008498 -0.001751 0.003783 0.008780 -0.011314 0.050013
#
#
# Mechanical properties :
#
#
# Convention : Reuss Voigt Hill
#
# Bulk Modulus (GPa) = 44.40952 54.26737 49.33845
# Shear Modulus (GPa) = 25.60574 31.11572 28.36073
#
# Velocity S-wave (km/s) = 3.45228 3.80564 3.63326
# Velocity P-wave (km/s) = 6.04662 6.67603 6.36911
#
# Compressibility (1/GPa) = 0.02251769
#
# Stress axis : x y z
#
# Youngs Moduli (GPa) = 76.35694 84.81551 63.83892
#
# Poissons Ratio (x) = 0.31578 0.16801
# Poissons Ratio (y) = 0.28428 0.16993
# Poissons Ratio (z) = 0.20095 0.22577
#
# Static dielectric constant tensor:
#      x y z
#    x 4.088580 0.019430 -0.059100 
#    y 0.019430 4.539900 0.372380 
#    z -0.059100 0.372380 3.598390 
# 
# 
# High freq. dielectric constant tensor:
#      x y z
#    x 1.849170 0.019750 -0.007500 
#    y 0.019750 1.857560 0.019650 
#    z -0.007500 0.019650 1.802900 
# 
# From -- ./inp_files/237514.got.cif
#   From: 2010.06.25/outbox.cif.g09.slc.cpg/sg2_119_cif.got.tgz:237514.got - 2010.06.27 13:26:56.
