data_PCOD8040737
_publ_section_title
;
Structure prediction by ZEFSAII (Michael W. Deem and Ramdas Pophale) SiO2 
 PCOD8040737
Probable space group: P -1
;
_chemical_formula_sum "Si O2"
_cell_formula_units_Z 16
_cell_length_a 12.945304
_cell_length_b 18.897325
_cell_length_c 8.735977
_cell_angle_alpha 122.350503
_cell_angle_beta 51.939825
_cell_angle_gamma 151.827545
_cell_volume 794.234168
_symmetry_space_group_name_H-M "P -1"
_symmetry_group_IT_number 2
_symmetry_cell_setting 'triclinic'
loop_
_space_group_symop_operation_xyz
x,y,z
-x,-y,-z
loop_
_atom_site_type_symbol
_atom_site_label
_atom_site_fract_x
_atom_site_fract_y
_atom_site_fract_z
Si Si1 0.327418 0.168289 0.785845
Si Si2 0.849550 0.204173 0.204683
Si Si3 0.382122 0.041551 0.407486
Si Si4 0.838230 0.483612 0.209818
Si Si5 0.877159 0.029920 0.987328
Si Si6 0.513638 0.830452 0.847938
Si Si7 0.842528 0.492009 0.580476
Si Si8 0.143058 0.773065 0.138681
O O1 0.582598 0.338202 0.707048
O O2 0.258760 0.041228 0.632228
O O3 0.287894 0.124220 0.949333
O O4 0.145077 0.141812 0.865853
O O5 0.873568 0.123831 0.160226
O O6 0.059055 0.370113 0.276884
O O7 0.594847 0.105446 0.371703
O O8 0.861308 0.207698 0.013449
O O9 0.188428 0.879431 0.320476
O O10 0.496088 0.161447 0.314488
O O11 0.578314 0.313253 0.209118
O O12 0.864153 0.506721 0.395190
O O13 0.891805 0.601560 0.219769
O O14 0.000000 0.500000 0.000000
O O15 0.772365 0.975171 0.848366
O O16 0.346627 0.815284 0.051911
O O17 0.000000 0.500000 0.500000
#
# Coordination Sequence:
#
# PCOD8040737 Si02
#       8
#     2   2   2   2   2   2   2   2
#     4  11  27  42  61  91 130 162 214 251 306 380
#     4  11  22  39  67  93 124 164 204 256 318 360
#     4  11  19  39  63  95 119 154 215 265 291 367
#     4  10  22  35  59  96 127 155 200 260 312 362
#     4  11  25  44  62  89 125 176 201 251 317 370
#     4  10  18  38  63  85 123 160 203 250 313 354
#     4  12  23  40  63  96 128 162 205 260 309 364
#     4  10  20  35  61  99 121 151 206 266 300 361
#
# _framework density 20.145191000000001
#
# number of rings (size 3 to 8) (size 9 to 14) (size 15 to 20)
#    0.000    1.250    5.000    2.250    7.000    1.500 
#    0.000    0.000    0.000    1.500    0.000    0.000 
#    0.000    0.000    0.000    0.000    0.000    0.000 
#
# Total GULP energy -198271.598180 kJ/mol
# GULP energy per Si atom -12391.974886 kJ/mol
# Density = 2.009934 g / cm^3
# Si number density = 20.145191 Si / 1000 Ang^3
#
#
#
# Elastic Constant Matrix: (Units=GPa)
#
#
# Indices 1 2 3 4 5 6 
#
# 1 88.4752 36.2673 30.5723 -1.6835 -17.7180 0.4167
# 2 36.2673 123.4249 26.2699 10.6317 -7.8749 -7.9183
# 3 30.5723 26.2699 62.7403 5.4623 -9.3416 7.4470
# 4 -1.6835 10.6317 5.4623 35.3069 -0.8580 6.3601
# 5 -17.7180 -7.8749 -9.3416 -0.8580 25.1731 1.8514
# 6 0.4167 -7.9183 7.4470 6.3601 1.8514 27.3404
#
#
#
# Elastic Compliance Matrix: (Units=1/GPa)
#
#
# Indices 1 2 3 4 5 6 
#
# 1 0.016367 -0.003444 -0.005387 0.003054 0.008626 -0.001074
# 2 -0.003444 0.010328 -0.003009 -0.003688 -0.000787 0.004775
# 3 -0.005387 -0.003009 0.021249 -0.001380 0.003583 -0.006499
# 4 0.003054 -0.003688 -0.001380 0.031317 0.002152 -0.008169
# 5 0.008626 -0.000787 0.003583 0.002152 0.047324 -0.005041
# 6 -0.001074 0.004775 -0.006499 -0.008169 -0.005041 0.041987
#
#
# Mechanical properties :
#
#
# Convention : Reuss Voigt Hill
#
# Bulk Modulus (GPa) = 41.21496 51.20658 46.21077
# Shear Modulus (GPa) = 24.95762 29.66614 27.31188
#
# Velocity S-wave (km/s) = 3.52360 3.84163 3.68605
# Velocity P-wave (km/s) = 6.08751 6.71948 6.41129
#
# Compressibility (1/GPa) = 0.02426303
#
# Stress axis : x y z
#
# Youngs Moduli (GPa) = 61.10037 96.82051 47.06171
#
# Poissons Ratio (x) = 0.33347 0.25352
# Poissons Ratio (y) = 0.21044 0.14161
# Poissons Ratio (z) = 0.32915 0.29134
#
# Static dielectric constant tensor:
#      x y z
#    x 3.530270 -0.265240 0.086150 
#    y -0.265240 3.970770 0.016960 
#    z 0.086150 0.016960 3.517410 
# 
# 
# High freq. dielectric constant tensor:
#      x y z
#    x 1.769130 -0.016790 0.020010 
#    y -0.016790 1.800890 0.013880 
#    z 0.020010 0.013880 1.770060 
# 
# From -- ./inp_files/252390.got.cif
#   From: 2010.06.25/outbox.cif.g09.slc.cpg/sg2_127_cif.got.tgz:252390.got - 2010.06.27 13:26:56.
