data_PCOD8040057
_publ_section_title
;
Structure prediction by ZEFSAII (Michael W. Deem and Ramdas Pophale) SiO2 
 PCOD8040057
Probable space group: P -1
;
_chemical_formula_sum "Si O2"
_cell_formula_units_Z 14
_cell_length_a 10.230885
_cell_length_b 10.270434
_cell_length_c 7.869018
_cell_angle_alpha 114.407367
_cell_angle_beta 83.494753
_cell_angle_gamma 122.437240
_cell_volume 629.125853
_symmetry_space_group_name_H-M "P -1"
_symmetry_group_IT_number 2
_symmetry_cell_setting 'triclinic'
loop_
_space_group_symop_operation_xyz
x,y,z
-x,-y,-z
loop_
_atom_site_type_symbol
_atom_site_label
_atom_site_fract_x
_atom_site_fract_y
_atom_site_fract_z
Si Si1 0.513039 0.088986 0.815672
Si Si2 0.898130 0.280353 0.459045
Si Si3 0.761363 0.148442 0.055696
Si Si4 0.836776 0.935292 0.404579
Si Si5 0.201141 0.478829 0.357544
Si Si6 0.059497 0.167213 0.973289
Si Si7 0.486911 0.212973 0.529632
O O1 0.511891 0.198392 0.719792
O O2 0.368331 0.033419 0.936586
O O3 0.492222 0.914704 0.656392
O O4 0.673742 0.199368 0.960212
O O5 0.848826 0.280870 0.269054
O O6 0.840676 0.383772 0.630522
O O7 0.087817 0.377626 0.481276
O O8 0.818799 0.091258 0.439139
O O9 0.896551 0.145811 0.927095
O O10 0.831080 0.825042 0.188275
O O11 0.686632 0.820145 0.485647
O O12 0.000000 0.000000 0.500000
O O13 0.384731 0.593186 0.442277
O O14 0.173545 0.342574 0.147807
O O15 0.000000 0.000000 0.000000
#
# Coordination Sequence:
#
# PCOD8040057 Si02
#       7
#     2   2   2   2   2   2   2
#     4  10  19  33  63  93 122 155 201 260 299 358
#     4  10  19  41  62  93 121 162 206 248 303 363
#     4  10  18  35  62  91 115 163 210 240 293 369
#     4  12  24  41  64  88 127 171 202 240 307 383
#     4  10  21  36  68  88 123 158 202 264 307 343
#     4  11  21  40  62  86 121 170 202 238 309 380
#     4  11  20  38  58  95 127 155 201 256 313 344
#
# _framework density 22.253098999999999
#
# number of rings (size 3 to 8) (size 9 to 14) (size 15 to 20)
#    0.000    1.429    5.714    1.714    0.000    0.571 
#    0.000    8.571    0.000    0.000    0.000    0.000 
#    0.000    0.000    0.000    0.000    0.000    0.000 
#
# Total GULP energy -173458.897648 kJ/mol
# GULP energy per Si atom -12389.921261 kJ/mol
# Density = 2.220245 g / cm^3
# Si number density = 22.253099 Si / 1000 Ang^3
#
#
#
# Elastic Constant Matrix: (Units=GPa)
#
#
# Indices 1 2 3 4 5 6 
#
# 1 89.9408 29.6320 17.5178 16.8310 -1.0750 31.4161
# 2 29.6320 63.0699 25.8087 21.7923 -4.2874 33.4945
# 3 17.5178 25.8087 71.2823 24.4123 -7.2861 -5.6819
# 4 16.8310 21.7923 24.4123 33.0338 -3.0625 1.3128
# 5 -1.0750 -4.2874 -7.2861 -3.0625 44.4973 -0.4846
# 6 31.4161 33.4945 -5.6819 1.3128 -0.4846 44.9136
#
#
#
# Elastic Compliance Matrix: (Units=1/GPa)
#
#
# Indices 1 2 3 4 5 6 
#
# 1 0.017720 0.005504 -0.004859 -0.008454 -0.000603 -0.016874
# 2 0.005504 0.049540 -0.014757 -0.022869 0.000459 -0.041988
# 3 -0.004859 -0.014757 0.024355 -0.006286 0.002209 0.017692
# 4 -0.008454 -0.022869 -0.006286 0.053536 0.000472 0.020613
# 5 -0.000603 0.000459 0.002209 0.000472 0.022903 0.000592
# 6 -0.016874 -0.041988 0.017692 0.020613 0.000592 0.067023
#
#
# Mechanical properties :
#
#
# Convention : Reuss Voigt Hill
#
# Bulk Modulus (GPa) = 15.77519 41.13444 28.45481
# Shear Modulus (GPa) = 17.57899 34.57792 26.07846
#
# Velocity S-wave (km/s) = 2.81367 3.94616 3.42702
# Velocity P-wave (km/s) = 4.20238 6.26800 5.33610
#
# Compressibility (1/GPa) = 0.06339069
#
# Stress axis : x y z
#
# Youngs Moduli (GPa) = 56.43272 20.18583 41.06014
#
# Poissons Ratio (x) = -0.11111 0.19951
# Poissons Ratio (y) = -0.31062 0.60593
# Poissons Ratio (z) = 0.27420 0.29789
#
# Static dielectric constant tensor:
#      x y z
#    x 3.788560 0.410580 0.509360 
#    y 0.410580 3.886620 0.056290 
#    z 0.509360 0.056290 3.354650 
# 
# 
# High freq. dielectric constant tensor:
#      x y z
#    x 1.877290 0.042230 -0.009390 
#    y 0.042230 1.848830 0.006040 
#    z -0.009390 0.006040 1.863700 
# 
# From -- ./inp_files/254928.got.cif
#   From: 2010.06.25/outbox.cif.g09.slc.cpg/sg2_128_cif.got.tgz:254928.got - 2010.06.27 13:26:56.
