data_PCOD8040762
_publ_section_title
;
Structure prediction by ZEFSAII (Michael W. Deem and Ramdas Pophale) SiO2 
 PCOD8040762
Probable space group: P -1
;
_chemical_formula_sum "Si O2"
_cell_formula_units_Z 16
_cell_length_a 15.227958
_cell_length_b 14.150556
_cell_length_c 8.693829
_cell_angle_alpha 56.185070
_cell_angle_beta 147.599814
_cell_angle_gamma 123.093337
_cell_volume 821.723735
_symmetry_space_group_name_H-M "P -1"
_symmetry_group_IT_number 2
_symmetry_cell_setting 'triclinic'
loop_
_space_group_symop_operation_xyz
x,y,z
-x,-y,-z
loop_
_atom_site_type_symbol
_atom_site_label
_atom_site_fract_x
_atom_site_fract_y
_atom_site_fract_z
Si Si1 0.876589 0.079465 0.185703
Si Si2 0.383489 0.313337 0.666762
Si Si3 0.944250 0.912688 0.860045
Si Si4 0.360193 0.054019 0.829790
Si Si5 0.047224 0.539119 0.280029
Si Si6 0.022807 0.328551 0.238992
Si Si7 0.779002 0.659890 0.907720
Si Si8 0.375029 0.513066 0.937653
O O1 0.918010 0.202110 0.221758
O O2 0.901616 0.093433 0.024638
O O3 0.693126 0.019848 0.025546
O O4 0.000000 0.000000 0.500000
O O5 0.427196 0.185202 0.860484
O O6 0.358217 0.345015 0.423811
O O7 0.214786 0.320336 0.502440
O O8 0.536931 0.402265 0.877663
O O9 0.794575 0.952128 0.509610
O O10 0.885918 0.787572 0.963883
O O11 0.000000 0.000000 0.000000
O O12 0.500000 0.000000 0.000000
O O13 0.222603 0.569144 0.598088
O O14 0.009145 0.403001 0.304376
O O15 0.058881 0.614873 0.075007
O O16 0.901016 0.567262 0.146033
O O17 0.683227 0.615842 0.962250
O O18 0.500000 0.500000 0.000000
#
# Coordination Sequence:
#
# PCOD8040762 Si02
#       8
#     2   2   2   2   2   2   2   2
#     4  10  18  38  67  85 112 162 203 238 288 360
#     4  10  20  41  59  83 123 157 190 243 301 355
#     4  10  21  39  63  86 117 157 200 245 295 347
#     4  10  22  39  60  90 119 152 199 242 297 353
#     4  10  21  37  61  88 115 153 198 248 285 353
#     4  10  18  38  65  85 115 155 202 237 295 356
#     4  10  22  42  58  84 123 157 200 242 294 360
#     4  12  24  36  58  89 121 155 196 243 302 345
#
# _framework density 19.471261999999999
#
# number of rings (size 3 to 8) (size 9 to 14) (size 15 to 20)
#    0.000    1.750    6.250    0.750    0.000    5.000 
#    4.500    0.625    0.000    0.000    0.000    0.000 
#    0.000    0.000    0.000    0.000    0.000    0.000 
#
# Total GULP energy -198376.774588 kJ/mol
# GULP energy per Si atom -12398.548412 kJ/mol
# Density = 1.942694 g / cm^3
# Si number density = 19.471262 Si / 1000 Ang^3
#
#
#
# Elastic Constant Matrix: (Units=GPa)
#
#
# Indices 1 2 3 4 5 6 
#
# 1 124.7305 74.2866 31.2363 -2.1702 8.2605 13.1864
# 2 74.2866 151.6158 46.5061 -8.3559 -2.9197 -2.9864
# 3 31.2363 46.5061 74.6526 2.3197 1.6059 -0.6977
# 4 -2.1702 -8.3559 2.3197 25.4784 -10.5969 -1.9877
# 5 8.2605 -2.9197 1.6059 -10.5969 20.1766 1.8416
# 6 13.1864 -2.9864 -0.6977 -1.9877 1.8416 40.1646
#
#
#
# Elastic Compliance Matrix: (Units=1/GPa)
#
#
# Indices 1 2 3 4 5 6 
#
# 1 0.013234 -0.006668 -0.001097 -0.004820 -0.008397 -0.004713
# 2 -0.006668 0.012088 -0.005138 0.007699 0.008659 0.002983
# 3 -0.001097 -0.005138 0.017313 -0.005171 -0.004409 0.000225
# 4 -0.004820 0.007699 -0.005171 0.055559 0.032375 0.003330
# 5 -0.008397 0.008659 -0.004409 0.032375 0.071457 0.001650
# 6 -0.004713 0.002983 0.000225 0.003330 0.001650 0.026760
#
#
# Mechanical properties :
#
#
# Convention : Reuss Voigt Hill
#
# Bulk Modulus (GPa) = 59.42223 72.78411 66.10317
# Shear Modulus (GPa) = 21.94649 30.42859 26.18754
#
# Velocity S-wave (km/s) = 3.36091 3.95744 3.67131
# Velocity P-wave (km/s) = 6.75611 7.63827 7.21070
#
# Compressibility (1/GPa) = 0.01682872
#
# Stress axis : x y z
#
# Youngs Moduli (GPa) = 75.56508 82.72353 57.75952
#
# Poissons Ratio (x) = 0.55157 0.06337
# Poissons Ratio (y) = 0.50384 0.29679
# Poissons Ratio (z) = 0.08291 0.42507
#
# Static dielectric constant tensor:
#      x y z
#    x 3.632740 -0.109240 0.018840 
#    y -0.109240 3.482540 -0.020260 
#    z 0.018840 -0.020260 3.438500 
# 
# 
# High freq. dielectric constant tensor:
#      x y z
#    x 1.756900 -0.000030 -0.001180 
#    y -0.000030 1.766760 -0.009370 
#    z -0.001180 -0.009370 1.740670 
# 
# From -- ./inp_files/237167.got.cif
#   From: 2010.06.25/outbox.cif.g09.slc.cpg/sg2_119_cif.got.tgz:237167.got - 2010.06.27 13:26:56.
