data_PCOD8040479
_publ_section_title
;
Structure prediction by ZEFSAII (Michael W. Deem and Ramdas Pophale) SiO2 
 PCOD8040479
Probable space group: P -1
;
_chemical_formula_sum "Si O2"
_cell_formula_units_Z 12
_cell_length_a 7.581794
_cell_length_b 20.202984
_cell_length_c 8.937402
_cell_angle_alpha 134.285934
_cell_angle_beta 53.710569
_cell_angle_gamma 142.573843
_cell_volume 593.387425
_symmetry_space_group_name_H-M "P -1"
_symmetry_group_IT_number 2
_symmetry_cell_setting 'triclinic'
loop_
_space_group_symop_operation_xyz
x,y,z
-x,-y,-z
loop_
_atom_site_type_symbol
_atom_site_label
_atom_site_fract_x
_atom_site_fract_y
_atom_site_fract_z
Si Si1 0.337086 0.756227 0.228126
Si Si2 0.457676 0.640567 0.220819
Si Si3 0.544823 0.860522 0.988442
Si Si4 0.816566 0.882355 0.598304
Si Si5 0.057033 0.369804 0.033306
Si Si6 0.388446 0.022565 0.366208
O O1 0.384014 0.672933 0.156074
O O2 0.357658 0.845982 0.477080
O O3 0.592738 0.841253 0.106541
O O4 0.024008 0.669518 0.165045
O O5 0.570280 0.740711 0.449916
O O6 0.172449 0.506806 0.213317
O O7 0.699784 0.633824 0.041790
O O8 0.798695 0.893358 0.804191
O O9 0.235037 0.730317 0.881311
O O10 0.527061 0.966394 0.152516
O O11 0.756849 0.964288 0.678824
O O12 0.133065 0.931102 0.471933
#
# Coordination Sequence:
#
# PCOD8040479 Si02
#       6
#     2   2   2   2   2   2
#     4   9  20  34  57  80 110 144 180 225 270 326
#     4  10  18  37  59  77 109 150 177 224 277 316
#     4  10  20  34  54  86 108 140 185 225 268 324
#     4  10  20  33  58  82 108 146 182 222 274 325
#     4   9  20  34  59  79 108 143 187 222 267 327
#     4  10  19  36  54  80 114 143 180 222 274 328
#
# _framework density 20.222877
#
# number of rings (size 3 to 8) (size 9 to 14) (size 15 to 20)
#    1.000    1.333    1.667    1.500    0.000    1.333 
#    0.000    0.000    7.333    2.000    0.000    0.000 
#    0.000    0.000    0.000    0.000    0.000    0.000 
#
# Total GULP energy -148714.997595 kJ/mol
# GULP energy per Si atom -12392.916466 kJ/mol
# Density = 2.017685 g / cm^3
# Si number density = 20.222877 Si / 1000 Ang^3
#
#
#
# Elastic Constant Matrix: (Units=GPa)
#
#
# Indices 1 2 3 4 5 6 
#
# 1 49.4401 7.6269 5.0753 13.8936 -4.9176 -9.0881
# 2 7.6269 69.3906 34.6052 18.5167 -12.2334 -8.6224
# 3 5.0753 34.6052 71.3416 2.4141 -5.2159 -7.4038
# 4 13.8936 18.5167 2.4141 35.9901 -0.9144 -0.0244
# 5 -4.9176 -12.2334 -5.2159 -0.9144 18.8776 3.8034
# 6 -9.0881 -8.6224 -7.4038 -0.0244 3.8034 30.4247
#
#
#
# Elastic Compliance Matrix: (Units=1/GPa)
#
#
# Indices 1 2 3 4 5 6 
#
# 1 0.024891 0.002909 -0.001642 -0.010839 0.005959 0.007106
# 2 0.002909 0.025928 -0.010969 -0.013392 0.013095 0.003900
# 3 -0.001642 -0.010969 0.019266 0.004929 -0.002251 0.001375
# 4 -0.010839 -0.013392 0.004929 0.038341 -0.007298 -0.004891
# 5 0.005959 0.013095 -0.002251 -0.007298 0.062618 -0.002890
# 6 0.007106 0.003900 0.001375 -0.004891 -0.002890 0.036788
#
#
# Mechanical properties :
#
#
# Convention : Reuss Voigt Hill
#
# Bulk Modulus (GPa) = 19.73069 31.64301 25.68685
# Shear Modulus (GPa) = 20.48096 26.58280 23.53188
#
# Velocity S-wave (km/s) = 3.18584 3.62952 3.41490
# Velocity P-wave (km/s) = 4.82811 5.76591 5.31772
#
# Compressibility (1/GPa) = 0.05068246
#
# Stress axis : x y z
#
# Youngs Moduli (GPa) = 40.17455 38.56785 51.90593
#
# Poissons Ratio (x) = -0.11219 0.08522
# Poissons Ratio (y) = -0.11686 0.56933
# Poissons Ratio (z) = 0.06596 0.42303
#
# Static dielectric constant tensor:
#      x y z
#    x 3.493490 -0.081020 0.125670 
#    y -0.081020 3.756290 0.321260 
#    z 0.125670 0.321260 3.350040 
# 
# 
# High freq. dielectric constant tensor:
#      x y z
#    x 1.783410 -0.007390 0.007710 
#    y -0.007390 1.785380 0.029350 
#    z 0.007710 0.029350 1.766300 
# 
# From -- ./inp_files/23610.got.cif
#   From: 2010.06.25/outbox.cif.g09.slc.cpg/sg2_12_cif.got.tgz:23610.got - 2010.06.27 13:26:56.
