data_PCOD8040648
_publ_section_title
;
Structure prediction by ZEFSAII (Michael W. Deem and Ramdas Pophale) SiO2 
 PCOD8040648
Probable space group: P -1
;
_chemical_formula_sum "Si O2"
_cell_formula_units_Z 16
_cell_length_a 9.899977
_cell_length_b 13.158464
_cell_length_c 9.050254
_cell_angle_alpha 118.688179
_cell_angle_beta 72.775758
_cell_angle_gamma 69.937149
_cell_volume 805.384470
_symmetry_space_group_name_H-M "P -1"
_symmetry_group_IT_number 2
_symmetry_cell_setting 'triclinic'
loop_
_space_group_symop_operation_xyz
x,y,z
-x,-y,-z
loop_
_atom_site_type_symbol
_atom_site_label
_atom_site_fract_x
_atom_site_fract_y
_atom_site_fract_z
Si Si1 0.618982 0.793865 0.932525
Si Si2 0.224257 0.960410 0.184960
Si Si3 0.318105 0.526767 0.606841
Si Si4 0.241296 0.032904 0.900731
Si Si5 0.134614 0.520604 0.391335
Si Si6 0.605140 0.772882 0.579576
Si Si7 0.076335 0.788482 0.077807
Si Si8 0.080061 0.234646 0.600076
O O1 0.709071 0.630067 0.831327
O O2 0.624783 0.811615 0.767029
O O3 0.422881 0.885077 0.116629
O O4 0.723534 0.847289 0.012382
O O5 0.173360 0.852686 0.160432
O O6 0.106104 0.098903 0.419240
O O7 0.195493 0.998288 0.048086
O O8 0.500000 0.500000 0.500000
O O9 0.208645 0.576407 0.525347
O O10 0.350515 0.382815 0.557138
O O11 0.213263 0.649188 0.844981
O O12 0.080216 0.089835 0.885927
O O13 0.407873 0.889769 0.674021
O O14 0.000000 0.500000 0.500000
O O15 0.048037 0.628403 0.361261
O O16 0.739249 0.782948 0.445130
O O17 0.005236 0.740732 0.196381
#
# Coordination Sequence:
#
# PCOD8040648 Si02
#       8
#     2   2   2   2   2   2   2   2
#     4  10  18  37  67  92 110 158 221 252 285 369
#     4  11  21  43  63  86 123 165 207 250 303 372
#     4  11  23  43  64  94 125 157 207 260 306 361
#     4  11  20  39  67  94 115 158 217 256 295 360
#     4  11  20  39  68  90 117 168 213 242 297 373
#     4  10  20  38  65  90 122 163 203 254 302 361
#     4  12  27  38  60  97 129 159 199 262 318 352
#     4  12  23  41  62  91 130 162 206 252 306 370
#
# _framework density 19.866288000000001
#
# number of rings (size 3 to 8) (size 9 to 14) (size 15 to 20)
#    0.000    1.000    5.000    5.250    0.000    2.000 
#    0.000    2.500    0.000    0.000    0.000    0.000 
#    0.000    0.000    0.000    0.000    0.000    0.000 
#
# Total GULP energy -198490.154801 kJ/mol
# GULP energy per Si atom -12405.634675 kJ/mol
# Density = 1.982107 g / cm^3
# Si number density = 19.866288 Si / 1000 Ang^3
#
#
#
# Elastic Constant Matrix: (Units=GPa)
#
#
# Indices 1 2 3 4 5 6 
#
# 1 88.5853 19.4868 26.9181 -5.0158 -13.5578 11.1840
# 2 19.4868 77.4112 61.4481 12.0099 -7.6173 3.6452
# 3 26.9181 61.4481 96.8753 8.4219 -21.6768 -4.1259
# 4 -5.0158 12.0099 8.4219 29.5252 6.5086 -2.8748
# 5 -13.5578 -7.6173 -21.6768 6.5086 24.8803 5.9441
# 6 11.1840 3.6452 -4.1259 -2.8748 5.9441 32.3833
#
#
#
# Elastic Compliance Matrix: (Units=1/GPa)
#
#
# Indices 1 2 3 4 5 6 
#
# 1 0.014023 -0.001187 -0.002056 0.001416 0.006562 -0.006050
# 2 -0.001187 0.028756 -0.018883 -0.005719 -0.005676 -0.004699
# 3 -0.002056 -0.018883 0.027161 -0.003916 0.017116 0.002807
# 4 0.001416 -0.005719 -0.003916 0.041910 -0.016902 0.006479
# 5 0.006562 -0.005676 0.017116 -0.016902 0.064415 -0.012771
# 6 -0.006050 -0.004699 0.002807 0.006479 -0.012771 0.036775
#
#
# Mechanical properties :
#
#
# Convention : Reuss Voigt Hill
#
# Bulk Modulus (GPa) = 38.92950 53.17533 46.05242
# Shear Modulus (GPa) = 18.80723 27.69236 23.24980
#
# Velocity S-wave (km/s) = 3.08017 3.73760 3.42470
# Velocity P-wave (km/s) = 5.68228 6.74173 6.23455
#
# Compressibility (1/GPa) = 0.02568746
#
# Stress axis : x y z
#
# Youngs Moduli (GPa) = 71.31328 34.77530 36.81693
#
# Poissons Ratio (x) = 0.04128 0.07570
# Poissons Ratio (y) = 0.08465 0.69522
# Poissons Ratio (z) = 0.14662 0.65667
#
# Static dielectric constant tensor:
#      x y z
#    x 3.717310 -0.084430 -0.176000 
#    y -0.084430 4.092200 0.381840 
#    z -0.176000 0.381840 3.642410 
# 
# 
# High freq. dielectric constant tensor:
#      x y z
#    x 1.782670 0.007300 -0.012250 
#    y 0.007300 1.767460 0.028510 
#    z -0.012250 0.028510 1.768990 
# 
# From -- ./inp_files/189157.got.cif
#   From: 2010.06.25/outbox.cif.g09.slc.cpg/sg2_95_cif.got.tgz:189157.got - 2010.06.27 13:26:56.
