data_PCOD8040483
_publ_section_title
;
Structure prediction by ZEFSAII (Michael W. Deem and Ramdas Pophale) SiO2 
 PCOD8040483
Probable space group: P -1
;
_chemical_formula_sum "Si O2"
_cell_formula_units_Z 16
_cell_length_a 11.357533
_cell_length_b 17.659283
_cell_length_c 10.039147
_cell_angle_alpha 61.327287
_cell_angle_beta 73.233030
_cell_angle_gamma 31.740713
_cell_volume 897.644773
_symmetry_space_group_name_H-M "P -1"
_symmetry_group_IT_number 2
_symmetry_cell_setting 'triclinic'
loop_
_space_group_symop_operation_xyz
x,y,z
-x,-y,-z
loop_
_atom_site_type_symbol
_atom_site_label
_atom_site_fract_x
_atom_site_fract_y
_atom_site_fract_z
Si Si1 0.513427 0.093492 0.062011
Si Si2 0.694574 0.180763 0.352982
Si Si3 0.359330 0.523870 0.127027
Si Si4 0.306462 0.841971 0.108798
Si Si5 0.848679 0.005835 0.695929
Si Si6 0.341752 0.629240 0.323456
Si Si7 0.833002 0.833875 0.955425
Si Si8 0.832078 0.980517 0.242834
O O1 0.264980 0.193916 0.062349
O O2 0.629801 0.032860 0.222012
O O3 0.491346 0.203980 0.913407
O O4 0.695773 0.928442 0.057373
O O5 0.462040 0.366167 0.225767
O O6 0.660693 0.161549 0.527964
O O7 0.761540 0.061152 0.338515
O O8 0.895881 0.133563 0.331432
O O9 0.367336 0.554886 0.248132
O O10 0.500000 0.500000 0.000000
O O11 0.101420 0.665111 0.040368
O O12 0.148735 0.946746 0.203345
O O13 0.417589 0.680730 0.209230
O O14 0.151200 0.954110 0.932460
O O15 0.791895 0.938823 0.782265
O O16 0.500000 0.500000 0.500000
O O17 0.079228 0.785874 0.331843
#
# Coordination Sequence:
#
# PCOD8040483 Si02
#       8
#     2   2   2   2   2   2   2   2
#     4   8  19  34  64  78  99 147 203 223 247 321
#     4  11  22  33  52  84 118 143 169 225 294 329
#     4  12  23  34  55  89 113 141 176 237 278 320
#     4   9  18  35  59  77 102 147 192 219 260 324
#     4  10  19  33  55  79 113 147 175 219 282 334
#     4  12  22  33  55  87 117 137 178 237 277 315
#     4  10  18  37  59  82 105 142 196 229 259 318
#     4  10  20  37  59  79 103 153 193 216 263 335
#
# _framework density 17.824422999999999
#
# number of rings (size 3 to 8) (size 9 to 14) (size 15 to 20)
#    0.750    1.000    3.750    1.875    1.750    0.000 
#    0.000    1.250    2.750    3.000    0.000    0.000 
#    0.000    0.000    0.000    0.000    0.000    0.000 
#
# Total GULP energy -198297.255457 kJ/mol
# GULP energy per Si atom -12393.578466 kJ/mol
# Density = 1.778385 g / cm^3
# Si number density = 17.824423 Si / 1000 Ang^3
#
#
#
# Elastic Constant Matrix: (Units=GPa)
#
#
# Indices 1 2 3 4 5 6 
#
# 1 102.0638 36.8573 29.8384 -6.8951 11.9419 -10.4110
# 2 36.8573 77.8977 39.8908 -9.0901 8.3816 -0.7764
# 3 29.8384 39.8908 109.4081 -15.1003 12.0271 -4.9530
# 4 -6.8951 -9.0901 -15.1003 28.2610 3.1011 5.6984
# 5 11.9419 8.3816 12.0271 3.1011 21.2802 0.1886
# 6 -10.4110 -0.7764 -4.9530 5.6984 0.1886 25.4724
#
#
#
# Elastic Compliance Matrix: (Units=1/GPa)
#
#
# Indices 1 2 3 4 5 6 
#
# 1 0.012993 -0.005057 -0.000843 0.000653 -0.004961 0.004883
# 2 -0.005057 0.018201 -0.004771 0.002915 -0.002032 -0.003077
# 3 -0.000843 -0.004771 0.012492 0.005381 -0.005499 0.000776
# 4 0.000653 0.002915 0.005381 0.042124 -0.010624 -0.007943
# 5 -0.004961 -0.002032 -0.005499 -0.010624 0.055243 -0.001191
# 6 0.004883 -0.003077 0.000776 -0.007943 -0.001191 0.043097
#
#
# Mechanical properties :
#
#
# Convention : Reuss Voigt Hill
#
# Bulk Modulus (GPa) = 44.75427 55.83807 50.29617
# Shear Modulus (GPa) = 23.48071 27.18827 25.33449
#
# Velocity S-wave (km/s) = 3.63345 3.90979 3.77415
# Velocity P-wave (km/s) = 6.53953 7.19560 6.87540
#
# Compressibility (1/GPa) = 0.02234424
#
# Stress axis : x y z
#
# Youngs Moduli (GPa) = 76.96270 54.94083 80.05267
#
# Poissons Ratio (x) = 0.27786 0.06749
# Poissons Ratio (y) = 0.38923 0.38190
# Poissons Ratio (z) = 0.06489 0.26210
#
# Static dielectric constant tensor:
#      x y z
#    x 3.413990 0.080540 0.011490 
#    y 0.080540 3.119570 -0.016550 
#    z 0.011490 -0.016550 3.288270 
# 
# 
# High freq. dielectric constant tensor:
#      x y z
#    x 1.683300 0.013140 0.008830 
#    y 0.013140 1.668320 0.000890 
#    z 0.008830 0.000890 1.686110 
# 
# From -- ./inp_files/277569.got.cif
#   From: 2010.06.25/outbox.cif.g09.slc.cpg/sg2_139_cif.got.tgz:277569.got - 2010.06.27 13:26:56.
