data_PCOD8040276
_publ_section_title
;
Structure prediction by ZEFSAII (Michael W. Deem and Ramdas Pophale) SiO2 
 PCOD8040276
Probable space group: P -1
;
_chemical_formula_sum "Si O2"
_cell_formula_units_Z 16
_cell_length_a 20.045522
_cell_length_b 9.955152
_cell_length_c 11.256115
_cell_angle_alpha 52.956695
_cell_angle_beta 123.729752
_cell_angle_gamma 154.637045
_cell_volume 767.596276
_symmetry_space_group_name_H-M "P -1"
_symmetry_group_IT_number 2
_symmetry_cell_setting 'triclinic'
loop_
_space_group_symop_operation_xyz
x,y,z
-x,-y,-z
loop_
_atom_site_type_symbol
_atom_site_label
_atom_site_fract_x
_atom_site_fract_y
_atom_site_fract_z
Si Si1 0.166005 0.782123 0.075608
Si Si2 0.382852 0.329055 0.810494
Si Si3 0.091820 0.106656 0.149245
Si Si4 0.885210 0.686049 0.381477
Si Si5 0.693919 0.705528 0.895106
Si Si6 0.128823 0.061980 0.586348
Si Si7 0.586226 0.284023 0.221543
Si Si8 0.246240 0.562662 0.262746
O O1 0.182491 0.621744 0.223551
O O2 0.181750 0.940271 0.115218
O O3 0.000000 0.500000 0.000000
O O4 0.312145 0.081729 0.973392
O O5 0.530444 0.500237 0.808393
O O6 0.246140 0.116987 0.691538
O O7 0.442082 0.612718 0.770868
O O8 0.227847 0.220955 0.187105
O O9 0.171239 0.401498 0.143771
O O10 0.967196 0.796552 0.278589
O O11 0.000000 0.000000 0.000000
O O12 0.916326 0.934147 0.332780
O O13 0.699375 0.345043 0.361521
O O14 0.968196 0.712855 0.547218
O O15 0.667138 0.501067 0.067005
O O16 0.213251 0.350705 0.432089
O O17 0.430724 0.904645 0.242408
#
# Coordination Sequence:
#
# PCOD8040276 Si02
#       8
#     2   2   2   2   2   2   2   2
#     4  11  22  35  60  90 120 147 210 253 289 339
#     4  10  20  38  57  87 124 161 189 244 309 351
#     4  11  22  37  60  87 122 160 199 240 302 357
#     4   9  19  36  56  84 114 157 198 236 291 350
#     4  11  20  39  57  86 125 163 182 248 314 350
#     4   9  21  36  62  86 119 160 201 241 292 357
#     4  10  18  36  60  87 118 149 200 252 289 341
#     4  11  22  38  58  98 113 151 212 247 285 352
#
# _framework density 20.844291999999999
#
# number of rings (size 3 to 8) (size 9 to 14) (size 15 to 20)
#    0.000    1.750    3.750    1.500   10.500    2.500 
#    0.000    2.500    0.000    0.750    3.250    0.000 
#    0.000    0.000    0.000    0.000    0.000    0.000 
#
# Total GULP energy -198270.183472 kJ/mol
# GULP energy per Si atom -12391.886467 kJ/mol
# Density = 2.079685 g / cm^3
# Si number density = 20.844292 Si / 1000 Ang^3
#
#
#
# Elastic Constant Matrix: (Units=GPa)
#
#
# Indices 1 2 3 4 5 6 
#
# 1 111.5567 22.4472 31.1742 6.0659 -10.6128 21.3960
# 2 22.4472 81.1344 15.4820 13.6885 5.1266 4.1440
# 3 31.1742 15.4820 78.5035 19.8439 2.9208 -0.2679
# 4 6.0659 13.6885 19.8439 38.1179 6.6590 11.1887
# 5 -10.6128 5.1266 2.9208 6.6590 29.9922 6.2562
# 6 21.3960 4.1440 -0.2679 11.1887 6.2562 27.3959
#
#
#
# Elastic Compliance Matrix: (Units=1/GPa)
#
#
# Indices 1 2 3 4 5 6 
#
# 1 0.015210 -0.003547 -0.007151 0.005668 0.008704 -0.015715
# 2 -0.003547 0.014176 -0.000002 -0.004948 -0.003288 0.003398
# 3 -0.007151 -0.000002 0.018581 -0.011103 -0.004224 0.011266
# 4 0.005668 -0.004948 -0.011103 0.038706 -0.000602 -0.019457
# 5 0.008704 -0.003288 -0.004224 -0.000602 0.040742 -0.015400
# 6 -0.015715 0.003398 0.011266 -0.019457 -0.015400 0.059835
#
#
# Mechanical properties :
#
#
# Convention : Reuss Voigt Hill
#
# Bulk Modulus (GPa) = 37.64224 45.48903 41.56564
# Shear Modulus (GPa) = 22.98803 32.57396 27.78099
#
# Velocity S-wave (km/s) = 3.32451 3.95742 3.65470
# Velocity P-wave (km/s) = 5.73014 6.53852 6.14763
#
# Compressibility (1/GPa) = 0.02656590
#
# Stress axis : x y z
#
# Youngs Moduli (GPa) = 65.74634 70.54121 53.81976
#
# Poissons Ratio (x) = 0.25023 0.38485
# Poissons Ratio (y) = 0.23322 0.00013
# Poissons Ratio (z) = 0.47013 0.00017
#
# Static dielectric constant tensor:
#      x y z
#    x 3.679980 0.258010 0.036890 
#    y 0.258010 3.994800 0.323570 
#    z 0.036890 0.323570 3.744020 
# 
# 
# High freq. dielectric constant tensor:
#      x y z
#    x 1.789610 0.033960 0.002490 
#    y 0.033960 1.821200 0.023240 
#    z 0.002490 0.023240 1.802740 
# 
# From -- ./inp_files/260363.got.cif
#   From: 2010.06.25/outbox.cif.g09.slc.cpg/sg2_131_cif.got.tgz:260363.got - 2010.06.27 13:26:56.
