data_PCOD8040481
_publ_section_title
;
Structure prediction by ZEFSAII (Michael W. Deem and Ramdas Pophale) SiO2 
 PCOD8040481
Probable space group: P -1
;
_chemical_formula_sum "Si O2"
_cell_formula_units_Z 16
_cell_length_a 8.901850
_cell_length_b 17.041135
_cell_length_c 9.336778
_cell_angle_alpha 72.409553
_cell_angle_beta 131.041648
_cell_angle_gamma 76.052964
_cell_volume 805.945441
_symmetry_space_group_name_H-M "P -1"
_symmetry_group_IT_number 2
_symmetry_cell_setting 'triclinic'
loop_
_space_group_symop_operation_xyz
x,y,z
-x,-y,-z
loop_
_atom_site_type_symbol
_atom_site_label
_atom_site_fract_x
_atom_site_fract_y
_atom_site_fract_z
Si Si1 0.386230 0.188619 0.600998
Si Si2 0.436727 0.734757 0.879039
Si Si3 0.252558 0.519502 0.125110
Si Si4 0.730390 0.092687 0.121284
Si Si5 0.105606 0.098540 0.506856
Si Si6 0.705786 0.672168 0.782437
Si Si7 0.013902 0.406402 0.376711
Si Si8 0.329254 0.462467 0.670450
O O1 0.286990 0.122040 0.543244
O O2 0.426251 0.226188 0.456542
O O3 0.183031 0.284434 0.521870
O O4 0.649541 0.117186 0.891164
O O5 0.472597 0.805922 0.964002
O O6 0.593849 0.709027 0.848639
O O7 0.138309 0.799260 0.623108
O O8 0.528917 0.630780 0.075669
O O9 0.342694 0.404068 0.281968
O O10 0.474831 0.527563 0.292738
O O11 0.008192 0.609620 0.012726
O O12 0.189158 0.532208 0.909523
O O13 0.005633 0.065932 0.330569
O O14 0.740368 0.995414 0.231349
O O15 0.187737 0.444897 0.470631
O O16 0.872542 0.431643 0.426310
#
# Coordination Sequence:
#
# PCOD8040481 Si02
#       8
#     2   2   2   2   2   2   2   2
#     4  11  20  36  59  80 114 146 178 229 284 330
#     4  10  18  37  59  80 113 143 183 236 269 319
#     4  10  21  37  52  73 123 159 176 220 277 321
#     4   9  20  38  63  82 104 136 197 238 263 333
#     4   9  20  37  65  81 101 144 193 229 283 319
#     4  10  22  34  53  85 118 150 182 223 278 335
#     4  10  20  32  56  87 103 141 199 227 251 332
#     4  11  20  33  60  81 110 148 195 225 264 320
#
# _framework density 19.852461999999999
#
# number of rings (size 3 to 8) (size 9 to 14) (size 15 to 20)
#    0.750    1.250    2.500    2.250    1.750    0.000 
#    0.000    8.125    8.250    0.000    0.000    0.000 
#    0.000    0.000    0.000    0.000    0.000    0.000 
#
# Total GULP energy -198316.657393 kJ/mol
# GULP energy per Si atom -12394.791087 kJ/mol
# Density = 1.980728 g / cm^3
# Si number density = 19.852462 Si / 1000 Ang^3
#
#
#
# Elastic Constant Matrix: (Units=GPa)
#
#
# Indices 1 2 3 4 5 6 
#
# 1 80.4244 10.5700 14.1814 7.1630 5.6318 13.6929
# 2 10.5700 36.0627 7.9024 -0.2263 0.1387 13.6013
# 3 14.1814 7.9024 54.9630 -2.6045 -2.8975 20.4375
# 4 7.1630 -0.2263 -2.6045 25.5384 9.6475 -1.0100
# 5 5.6318 0.1387 -2.8975 9.6475 26.8451 2.0708
# 6 13.6929 13.6013 20.4375 -1.0100 2.0708 33.4571
#
#
#
# Elastic Compliance Matrix: (Units=1/GPa)
#
#
# Indices 1 2 3 4 5 6 
#
# 1 0.014186 -0.002369 -0.002298 -0.003770 -0.001590 -0.003455
# 2 -0.002369 0.033182 0.000780 -0.000018 0.001426 -0.013086
# 3 -0.002298 0.000780 0.024289 0.001119 0.003809 -0.014416
# 4 -0.003770 -0.000018 0.001119 0.046524 -0.016060 0.003265
# 5 -0.001590 0.001426 0.003809 -0.016060 0.044182 -0.005475
# 6 -0.003455 -0.013086 -0.014416 0.003265 -0.005475 0.045866
#
#
# Mechanical properties :
#
#
# Convention : Reuss Voigt Hill
#
# Bulk Modulus (GPa) = 15.65307 26.30641 20.97974
# Shear Modulus (GPa) = 21.07067 26.42122 23.74594
#
# Velocity S-wave (km/s) = 3.26139 3.65208 3.46225
# Velocity P-wave (km/s) = 4.69937 5.57345 5.15497
#
# Compressibility (1/GPa) = 0.06388521
#
# Stress axis : x y z
#
# Youngs Moduli (GPa) = 70.49285 30.13637 41.17090
#
# Poissons Ratio (x) = 0.07139 0.09459
# Poissons Ratio (y) = 0.16700 -0.03213
# Poissons Ratio (z) = 0.16196 -0.02352
#
# Static dielectric constant tensor:
#      x y z
#    x 3.363120 0.127890 0.033580 
#    y 0.127890 3.508290 -0.107480 
#    z 0.033580 -0.107480 3.594160 
# 
# 
# High freq. dielectric constant tensor:
#      x y z
#    x 1.747770 0.014930 -0.001300 
#    y 0.014930 1.763420 -0.006440 
#    z -0.001300 -0.006440 1.772830 
# 
# From -- ./inp_files/217363.got.cif
#   From: 2010.06.25/outbox.cif.g09.slc.cpg/sg2_109_cif.got.tgz:217363.got - 2010.06.27 13:26:56.
