data_PCOD8040800
_publ_section_title
;
Structure prediction by ZEFSAII (Michael W. Deem and Ramdas Pophale) SiO2 
 PCOD8040800
Probable space group: P -1
;
_chemical_formula_sum "Si O2"
_cell_formula_units_Z 14
_cell_length_a 12.037737
_cell_length_b 22.987982
_cell_length_c 14.675544
_cell_angle_alpha 160.846674
_cell_angle_beta 150.246090
_cell_angle_gamma 29.398840
_cell_volume 627.819972
_symmetry_space_group_name_H-M "P -1"
_symmetry_group_IT_number 2
_symmetry_cell_setting 'triclinic'
loop_
_space_group_symop_operation_xyz
x,y,z
-x,-y,-z
loop_
_atom_site_type_symbol
_atom_site_label
_atom_site_fract_x
_atom_site_fract_y
_atom_site_fract_z
Si Si1 0.061010 0.295756 0.126782
Si Si2 0.255187 0.932960 0.475884
Si Si3 0.275136 0.318430 0.500123
Si Si4 0.309730 0.306672 0.140141
Si Si5 0.804230 0.326723 0.479095
Si Si6 0.930872 0.193166 0.184587
Si Si7 0.736684 0.000196 0.624296
O O1 0.228445 0.241472 0.254102
O O2 0.194526 0.371491 0.254037
O O3 0.825637 0.457504 0.232637
O O4 0.990084 0.116227 0.775418
O O5 0.444959 0.755953 0.396438
O O6 0.328410 0.963472 0.471995
O O7 0.239246 0.121260 0.796664
O O8 0.164157 0.236777 0.384245
O O9 0.593318 0.270217 0.293856
O O10 0.213695 0.453042 0.203283
O O11 0.773538 0.329868 0.350670
O O12 0.051541 0.193825 0.495954
O O13 0.794613 0.177948 0.971999
O O14 0.000000 0.000000 0.000000
O O15 0.500000 0.000000 0.500000
#
# Coordination Sequence:
#
# PCOD8040800 Si02
#       7
#     2   2   2   2   2   2   2
#     4  11  25  45  67  97 131 181 225 273 331 388
#     4  12  24  42  66 102 133 175 222 270 336 397
#     4  11  23  45  69  96 131 171 231 281 322 389
#     4  11  24  43  68  94 140 180 214 272 333 409
#     4  10  22  43  67  99 134 175 222 270 340 395
#     4  10  18  38  68  93 125 168 216 279 324 376
#     4  11  22  38  68 103 133 165 223 285 330 385
#
# _framework density 22.299385999999998
#
# number of rings (size 3 to 8) (size 9 to 14) (size 15 to 20)
#    0.000    1.143    2.857    5.143    0.000    1.143 
#    2.571    0.000    0.000    0.000    0.000    0.000 
#    0.000    0.000    0.000    0.000    0.000    0.000 
#
# Total GULP energy -173473.119560 kJ/mol
# GULP energy per Si atom -12390.937111 kJ/mol
# Density = 2.224863 g / cm^3
# Si number density = 22.299386 Si / 1000 Ang^3
#
#
#
# Elastic Constant Matrix: (Units=GPa)
#
#
# Indices 1 2 3 4 5 6 
#
# 1 113.8827 27.7643 21.6547 -10.2885 9.6835 1.2006
# 2 27.7643 124.7696 30.3119 -10.3760 -3.1879 4.3409
# 3 21.6547 30.3119 77.1978 -1.6772 10.2322 -3.8733
# 4 -10.2885 -10.3760 -1.6772 22.9339 4.8238 4.5068
# 5 9.6835 -3.1879 10.2322 4.8238 35.1598 -3.7055
# 6 1.2006 4.3409 -3.8733 4.5068 -3.7055 31.0009
#
#
#
# Elastic Compliance Matrix: (Units=1/GPa)
#
#
# Indices 1 2 3 4 5 6 
#
# 1 0.010205 -0.001460 -0.001834 0.004754 -0.003219 -0.001496
# 2 -0.001460 0.009621 -0.003611 0.003495 0.001629 -0.002055
# 3 -0.001834 -0.003611 0.015503 -0.000912 -0.003980 0.002171
# 4 0.004754 0.003495 -0.000912 0.050889 -0.008681 -0.009223
# 5 -0.003219 0.001629 -0.003980 -0.008681 0.032302 0.004522
# 6 -0.001496 -0.002055 0.002171 -0.009223 0.004522 0.034755
#
#
# Mechanical properties :
#
#
# Convention : Reuss Voigt Hill
#
# Bulk Modulus (GPa) = 46.47442 52.81242 49.64342
# Shear Modulus (GPa) = 28.69309 33.56021 31.12665
#
# Velocity S-wave (km/s) = 3.59098 3.88362 3.74016
# Velocity P-wave (km/s) = 6.17089 6.62154 6.40018
#
# Compressibility (1/GPa) = 0.02151721
#
# Stress axis : x y z
#
# Youngs Moduli (GPa) = 97.99391 103.94219 64.50437
#
# Poissons Ratio (x) = 0.15175 0.11832
# Poissons Ratio (y) = 0.14307 0.23294
# Poissons Ratio (z) = 0.17975 0.37536
#
# Static dielectric constant tensor:
#      x y z
#    x 4.297240 0.079200 -0.516290 
#    y 0.079200 3.718730 0.078140 
#    z -0.516290 0.078140 4.761070 
# 
# 
# High freq. dielectric constant tensor:
#      x y z
#    x 1.889740 0.004460 0.003790 
#    y 0.004460 1.862280 0.010690 
#    z 0.003790 0.010690 1.880820 
# 
# From -- ./inp_files/524441.got.cif
#   From: 2010.06.25/outbox.cif.g09.slc.cpg/sg2_263_cif.got.tgz:524441.got - 2010.06.27 13:26:56.
