data_PCOD8040199
_publ_section_title
;
Structure prediction by ZEFSAII (Michael W. Deem and Ramdas Pophale) SiO2 
 PCOD8040199
Probable space group: P -1
;
_chemical_formula_sum "Si O2"
_cell_formula_units_Z 16
_cell_length_a 15.373183
_cell_length_b 12.970077
_cell_length_c 9.744808
_cell_angle_alpha 128.934443
_cell_angle_beta 73.992696
_cell_angle_gamma 141.160781
_cell_volume 852.048928
_symmetry_space_group_name_H-M "P -1"
_symmetry_group_IT_number 2
_symmetry_cell_setting 'triclinic'
loop_
_space_group_symop_operation_xyz
x,y,z
-x,-y,-z
loop_
_atom_site_type_symbol
_atom_site_label
_atom_site_fract_x
_atom_site_fract_y
_atom_site_fract_z
Si Si1 0.731214 0.648563 0.766365
Si Si2 0.335236 0.149960 0.166922
Si Si3 0.653051 0.523091 0.221224
Si Si4 0.608790 0.767670 0.473556
Si Si5 0.918834 0.255204 0.683595
Si Si6 0.852791 0.717685 0.057061
Si Si7 0.912035 0.787301 0.554809
Si Si8 0.975727 0.335223 0.041514
O O1 0.727988 0.794061 0.832623
O O2 0.560292 0.381831 0.621210
O O3 0.841778 0.691351 0.657804
O O4 0.800091 0.734777 0.960514
O O5 0.483667 0.266286 0.120583
O O6 0.387082 0.250300 0.380569
O O7 0.200047 0.880181 0.006679
O O8 0.642349 0.665193 0.306738
O O9 0.709246 0.517658 0.053563
O O10 0.771822 0.639665 0.388955
O O11 0.733776 0.019987 0.573965
O O12 0.993691 0.233336 0.536334
O O13 0.955895 0.442085 0.758699
O O14 0.987973 0.326697 0.865706
O O15 0.976618 0.952329 0.284644
O O16 0.924437 0.663055 0.932287
#
# Coordination Sequence:
#
# PCOD8040199 Si02
#       8
#     2   2   2   2   2   2   2   2
#     4  11  22  35  58  87 118 147 182 239 289 325
#     4  10  19  35  58  83 117 146 185 232 286 329
#     4  11  19  34  59  86 110 146 189 236 274 331
#     4  10  18  36  57  86 115 148 185 231 284 333
#     4  10  21  37  61  83 112 150 192 230 278 337
#     4  12  23  35  57  90 117 143 191 238 280 327
#     4  12  19  37  59  87 108 149 195 229 272 340
#     4  10  21  38  58  86 115 146 185 240 283 325
#
# _framework density 18.778265999999999
#
# number of rings (size 3 to 8) (size 9 to 14) (size 15 to 20)
#    0.000    1.250    6.250    2.250    0.000    2.000 
#    0.000    3.125    0.000    0.000    0.000    0.000 
#    0.000    0.000    0.000    0.000    0.000    0.000 
#
# Total GULP energy -198425.616781 kJ/mol
# GULP energy per Si atom -12401.601049 kJ/mol
# Density = 1.873553 g / cm^3
# Si number density = 18.778266 Si / 1000 Ang^3
#
#
#
# Elastic Constant Matrix: (Units=GPa)
#
#
# Indices 1 2 3 4 5 6 
#
# 1 80.5036 53.4759 32.9077 9.0152 -7.2991 5.6125
# 2 53.4759 137.6819 51.7189 12.4451 -6.2226 20.1028
# 3 32.9077 51.7189 42.4482 1.7407 -3.2399 -2.9137
# 4 9.0152 12.4451 1.7407 34.6309 -6.8876 -5.7830
# 5 -7.2991 -6.2226 -3.2399 -6.8876 28.0336 -3.3098
# 6 5.6125 20.1028 -2.9137 -5.7830 -3.3098 29.2190
#
#
#
# Elastic Compliance Matrix: (Units=1/GPa)
#
#
# Indices 1 2 3 4 5 6 
#
# 1 0.020000 -0.001300 -0.013960 -0.004568 0.001585 -0.005064
# 2 -0.001300 0.020868 -0.025571 -0.009692 -0.003280 -0.018947
# 3 -0.013960 -0.025571 0.067461 0.015769 0.005997 0.030802
# 4 -0.004568 -0.009692 0.015769 0.037662 0.009823 0.017685
# 5 0.001585 -0.003280 0.005997 0.009823 0.039522 0.008971
# 6 -0.005064 -0.018947 0.030802 0.017685 0.008971 0.055820
#
#
# Mechanical properties :
#
#
# Convention : Reuss Voigt Hill
#
# Bulk Modulus (GPa) = 37.49927 59.64874 48.57401
# Shear Modulus (GPa) = 15.06546 26.54545 20.80545
#
# Velocity S-wave (km/s) = 2.83553 3.76390 3.33221
# Velocity P-wave (km/s) = 5.54375 7.12201 6.38186
#
# Compressibility (1/GPa) = 0.02666718
#
# Stress axis : x y z
#
# Youngs Moduli (GPa) = 49.99899 47.92094 14.82331
#
# Poissons Ratio (x) = 0.06231 0.20694
# Poissons Ratio (y) = 0.06501 0.37904
# Poissons Ratio (z) = 0.69800 1.22537
#
# Static dielectric constant tensor:
#      x y z
#    x 3.334550 0.311180 0.031600 
#    y 0.311180 3.730220 0.042120 
#    z 0.031600 0.042120 3.197390 
# 
# 
# High freq. dielectric constant tensor:
#      x y z
#    x 1.711160 0.023490 0.009340 
#    y 0.023490 1.742990 -0.000860 
#    z 0.009340 -0.000860 1.698930 
# 
# From -- ./inp_files/187813.got.cif
#   From: 2010.06.25/outbox.cif.g09.slc.cpg/sg2_94_cif.got.tgz:187813.got - 2010.06.27 13:26:56.
