data_PCOD8040532
_publ_section_title
;
Structure prediction by ZEFSAII (Michael W. Deem and Ramdas Pophale) SiO2 
 PCOD8040532
Probable space group: P -1
;
_chemical_formula_sum "Si O2"
_cell_formula_units_Z 16
_cell_length_a 9.491826
_cell_length_b 9.169637
_cell_length_c 13.307935
_cell_angle_alpha 95.348309
_cell_angle_beta 52.546065
_cell_angle_gamma 65.430064
_cell_volume 733.901009
_symmetry_space_group_name_H-M "P -1"
_symmetry_group_IT_number 2
_symmetry_cell_setting 'triclinic'
loop_
_space_group_symop_operation_xyz
x,y,z
-x,-y,-z
loop_
_atom_site_type_symbol
_atom_site_label
_atom_site_fract_x
_atom_site_fract_y
_atom_site_fract_z
Si Si1 0.472214 0.656183 0.253614
Si Si2 0.439704 0.989059 0.282000
Si Si3 0.954402 0.466986 0.363077
Si Si4 0.587822 0.821453 0.889720
Si Si5 0.731603 0.247099 0.055855
Si Si6 0.228714 0.961755 0.774638
Si Si7 0.500822 0.665520 0.477857
Si Si8 0.034026 0.715332 0.464066
O O1 0.513244 0.794634 0.192039
O O2 0.653141 0.452225 0.122299
O O3 0.486053 0.688444 0.367172
O O4 0.228332 0.720028 0.336113
O O5 0.396927 0.135471 0.228940
O O6 0.627670 0.960298 0.272424
O O7 0.198530 0.088009 0.444795
O O8 0.735990 0.617746 0.406743
O O9 0.912454 0.345896 0.445323
O O10 0.162562 0.333357 0.189407
O O11 0.041570 0.558596 0.395126
O O12 0.427862 0.758126 0.955054
O O13 0.500000 0.000000 0.000000
O O14 0.732672 0.167979 0.158095
O O15 0.971882 0.133206 0.892819
O O16 0.300329 0.848176 0.632682
O O17 0.500000 0.500000 0.500000
#
# Coordination Sequence:
#
# PCOD8040532 Si02
#       8
#     2   2   2   2   2   2   2   2
#     4  12  23  38  63  92 124 160 195 249 306 360
#     4  10  23  39  61  88 123 158 196 243 314 356
#     4  10  19  35  63  88 115 151 206 251 285 342
#     4  10  22  39  65  88 114 158 209 248 288 362
#     4  10  21  38  62  86 119 161 202 243 301 353
#     4  10  21  39  57  86 123 160 200 249 290 357
#     4  12  22  35  63  96 118 153 213 249 287 352
#     4  10  18  37  61  86 117 157 197 245 300 347
#
# _framework density 21.801306
#
# number of rings (size 3 to 8) (size 9 to 14) (size 15 to 20)
#    0.000    1.500    5.000    0.375    1.750    2.000 
#    0.000    0.625    0.000    0.000    0.000    0.000 
#    0.000    0.000    0.000    0.000    0.000    0.000 
#
# Total GULP energy -198341.511195 kJ/mol
# GULP energy per Si atom -12396.344450 kJ/mol
# Density = 2.175169 g / cm^3
# Si number density = 21.801306 Si / 1000 Ang^3
#
#
#
# Elastic Constant Matrix: (Units=GPa)
#
#
# Indices 1 2 3 4 5 6 
#
# 1 80.0523 17.8826 51.9190 9.9634 -14.7825 15.6272
# 2 17.8826 75.4634 28.8655 26.0393 -12.9622 27.8263
# 3 51.9190 28.8655 143.0046 50.5120 -18.3020 7.0730
# 4 9.9634 26.0393 50.5120 33.0086 3.3093 7.3119
# 5 -14.7825 -12.9622 -18.3020 3.3093 37.5103 5.6363
# 6 15.6272 27.8263 7.0730 7.3119 5.6363 30.8671
#
#
#
# Elastic Compliance Matrix: (Units=1/GPa)
#
#
# Indices 1 2 3 4 5 6 
#
# 1 0.021159 -0.001046 -0.011744 0.014586 0.002615 -0.011011
# 2 -0.001046 0.049296 0.019798 -0.063752 0.037959 -0.040276
# 3 -0.011744 0.019798 0.033631 -0.064091 0.025646 -0.009109
# 4 0.014586 -0.063752 -0.064091 0.173078 -0.068268 0.036239
# 5 0.002615 0.037959 0.025646 -0.068268 0.064918 -0.037102
# 6 -0.011011 -0.040276 -0.009109 0.036239 -0.037102 0.074558
#
#
# Mechanical properties :
#
#
# Convention : Reuss Voigt Hill
#
# Bulk Modulus (GPa) = 8.46717 55.09493 31.78105
# Shear Modulus (GPa) = 11.31246 33.60077 22.45661
#
# Velocity S-wave (km/s) = 2.28039 3.93011 3.21293
# Velocity P-wave (km/s) = 3.29025 6.77647 5.32665
#
# Compressibility (1/GPa) = 0.11810319
#
# Stress axis : x y z
#
# Youngs Moduli (GPa) = 47.26126 20.28556 29.73423
#
# Poissons Ratio (x) = 0.02121 0.34919
# Poissons Ratio (y) = 0.04942 -0.58867
# Poissons Ratio (z) = 0.55503 -0.40161
#
# Static dielectric constant tensor:
#      x y z
#    x 4.015130 0.046970 -0.271970 
#    y 0.046970 3.947560 0.077420 
#    z -0.271970 0.077420 4.115420 
# 
# 
# High freq. dielectric constant tensor:
#      x y z
#    x 1.858040 0.020140 -0.016650 
#    y 0.020140 1.837520 0.023770 
#    z -0.016650 0.023770 1.853610 
# 
# From -- ./inp_files/205942.got.cif
#   From: 2010.06.25/outbox.cif.g09.slc.cpg/sg2_103_cif.got.tgz:205942.got - 2010.06.27 13:26:56.
