data_PCOD8040697
_publ_section_title
;
Structure prediction by ZEFSAII (Michael W. Deem and Ramdas Pophale) SiO2 
 PCOD8040697
Probable space group: P -1
;
_chemical_formula_sum "Si O2"
_cell_formula_units_Z 16
_cell_length_a 12.261074
_cell_length_b 20.552966
_cell_length_c 7.847418
_cell_angle_alpha 138.437445
_cell_angle_beta 32.563336
_cell_angle_gamma 135.465528
_cell_volume 687.178606
_symmetry_space_group_name_H-M "P -1"
_symmetry_group_IT_number 2
_symmetry_cell_setting 'triclinic'
loop_
_space_group_symop_operation_xyz
x,y,z
-x,-y,-z
loop_
_atom_site_type_symbol
_atom_site_label
_atom_site_fract_x
_atom_site_fract_y
_atom_site_fract_z
Si Si1 0.027698 0.281139 0.728769
Si Si2 0.371175 0.425728 0.160630
Si Si3 0.295077 0.072669 0.251118
Si Si4 0.661139 0.934320 0.200362
Si Si5 0.474936 0.296740 0.032621
Si Si6 0.320235 0.618232 0.747832
Si Si7 0.231938 0.935206 0.373334
Si Si8 0.232153 0.280727 0.796215
O O1 0.251723 0.317513 0.419279
O O2 0.877761 0.351779 0.013469
O O3 0.055596 0.291201 0.915028
O O4 0.941326 0.165390 0.559722
O O5 0.190345 0.341751 0.139508
O O6 0.500000 0.500000 0.000000
O O7 0.522170 0.360601 0.921221
O O8 0.279419 0.496221 0.550505
O O9 0.220403 0.163700 0.619253
O O10 0.200971 0.975299 0.300604
O O11 0.213200 0.065530 0.145431
O O12 0.544718 0.092817 0.962284
O O13 0.500000 0.000000 0.500000
O O14 0.795788 0.985123 0.285883
O O15 0.539189 0.822232 0.197369
O O16 0.659977 0.346812 0.013941
O O17 0.533461 0.673336 0.485167
#
# Coordination Sequence:
#
# PCOD8040697 Si02
#       8
#     2   2   2   2   2   2   2   2
#     4  11  22  39  63  88 129 165 203 260 313 375
#     4  10  23  41  67  92 120 163 211 262 320 378
#     4  10  18  38  60  86 126 164 211 257 304 377
#     4  10  19  37  61  89 125 161 208 255 301 378
#     4  11  22  42  64  91 126 163 206 264 316 372
#     4  10  20  41  65  88 118 162 211 252 321 372
#     4  10  21  34  60  90 122 172 206 252 314 368
#     4  10  20  40  61  87 126 159 204 265 305 374
#
# _framework density 23.283612000000002
#
# number of rings (size 3 to 8) (size 9 to 14) (size 15 to 20)
#    0.000    1.750    3.750    1.875    0.000    2.000 
#    2.250    2.500    0.000    0.000    0.000    0.000 
#    0.000    0.000    0.000    0.000    0.000    0.000 
#
# Total GULP energy -198286.596781 kJ/mol
# GULP energy per Si atom -12392.912299 kJ/mol
# Density = 2.323062 g / cm^3
# Si number density = 23.283612 Si / 1000 Ang^3
#
#
#
# Elastic Constant Matrix: (Units=GPa)
#
#
# Indices 1 2 3 4 5 6 
#
# 1 125.1019 38.3944 42.9438 25.5683 6.9704 -19.3083
# 2 38.3944 74.1564 40.8257 29.2176 -1.3786 -18.6646
# 3 42.9438 40.8257 65.3529 39.6768 3.1343 5.0121
# 4 25.5683 29.2176 39.6768 47.9976 7.7746 -0.4591
# 5 6.9704 -1.3786 3.1343 7.7746 44.1474 7.9357
# 6 -19.3083 -18.6646 5.0121 -0.4591 7.9357 41.7988
#
#
#
# Elastic Compliance Matrix: (Units=1/GPa)
#
#
# Indices 1 2 3 4 5 6 
#
# 1 0.012202 0.000021 -0.009704 0.002054 -0.002927 0.007387
# 2 0.000021 0.027102 -0.016217 -0.002968 -0.000004 0.014024
# 3 -0.009704 -0.016217 0.049243 -0.026763 0.005658 -0.018997
# 4 0.002054 -0.002968 -0.026763 0.044893 -0.007269 0.004706
# 5 -0.002927 -0.000004 0.005658 -0.007269 0.025232 -0.006902
# 6 0.007387 0.014024 -0.018997 0.004706 -0.006902 0.037239
#
#
# Mechanical properties :
#
#
# Convention : Reuss Voigt Hill
#
# Bulk Modulus (GPa) = 27.21467 56.54878 41.88173
# Shear Modulus (GPa) = 19.23381 36.28524 27.75953
#
# Velocity S-wave (km/s) = 2.87726 3.95194 3.45662
# Velocity P-wave (km/s) = 4.76989 6.72038 5.82732
#
# Compressibility (1/GPa) = 0.03674488
#
# Stress axis : x y z
#
# Youngs Moduli (GPa) = 81.95624 36.89827 20.30762
#
# Poissons Ratio (x) = -0.00076 0.19706
# Poissons Ratio (y) = -0.00169 0.32933
# Poissons Ratio (z) = 0.79529 0.59839
#
# Static dielectric constant tensor:
#      x y z
#    x 4.724040 -0.001170 0.511010 
#    y -0.001170 4.194060 0.570010 
#    z 0.511010 0.570010 4.560450 
# 
# 
# High freq. dielectric constant tensor:
#      x y z
#    x 1.938550 -0.009410 0.006680 
#    y -0.009410 1.912800 0.029350 
#    z 0.006680 0.029350 1.901870 
# 
# From -- ./inp_files/245042.got.cif
#   From: 2010.06.25/outbox.cif.g09.slc.cpg/sg2_123_cif.got.tgz:245042.got - 2010.06.27 13:26:56.
