data_PCOD8040740
_publ_section_title
;
Structure prediction by ZEFSAII (Michael W. Deem and Ramdas Pophale) SiO2 
 PCOD8040740
Probable space group: P -1
;
_chemical_formula_sum "Si O2"
_cell_formula_units_Z 12
_cell_length_a 16.331777
_cell_length_b 9.365705
_cell_length_c 11.851376
_cell_angle_alpha 39.808303
_cell_angle_beta 151.074345
_cell_angle_gamma 133.423483
_cell_volume 560.678170
_symmetry_space_group_name_H-M "P -1"
_symmetry_group_IT_number 2
_symmetry_cell_setting 'triclinic'
loop_
_space_group_symop_operation_xyz
x,y,z
-x,-y,-z
loop_
_atom_site_type_symbol
_atom_site_label
_atom_site_fract_x
_atom_site_fract_y
_atom_site_fract_z
Si Si1 0.547461 0.591216 0.379617
Si Si2 0.736863 0.454554 0.123357
Si Si3 0.925563 0.775105 0.997541
Si Si4 0.442397 0.196177 0.176749
Si Si5 0.270927 0.757445 0.323027
Si Si6 0.671423 0.001881 0.397664
O O1 0.500000 0.500000 0.500000
O O2 0.689201 0.433945 0.600431
O O3 0.615997 0.848907 0.317124
O O4 0.394964 0.581747 0.114580
O O5 0.890445 0.601036 0.163280
O O6 0.796890 0.210210 0.382033
O O7 0.657811 0.575920 0.065262
O O8 0.073427 0.690486 0.147778
O O9 0.754795 0.834819 0.688855
O O10 0.000000 0.000000 0.000000
O O11 0.614277 0.233480 0.432663
O O12 0.304849 0.003957 0.164291
O O13 0.506036 0.124192 0.173382
#
# Coordination Sequence:
#
# PCOD8040740 Si02
#       6
#     2   2   2   2   2   2
#     4  11  21  42  66  87 119 164 204 250 296 355
#     4  11  24  40  63  94 122 155 207 253 296 358
#     4  12  22  40  62  89 129 161 192 249 309 361
#     4  10  18  38  63  89 118 157 206 253 289 347
#     4  10  20  37  64  89 119 160 204 242 300 362
#     4  12  23  40  65  92 121 162 202 248 305 353
#
# _framework density 21.402653999999998
#
# number of rings (size 3 to 8) (size 9 to 14) (size 15 to 20)
#    0.000    1.000    6.667    2.000    0.000    1.333 
#    0.000    0.833    0.000    0.000    0.000    0.000 
#    0.000    0.000    0.000    0.000    0.000    0.000 
#
# Total GULP energy -148675.774110 kJ/mol
# GULP energy per Si atom -12389.647843 kJ/mol
# Density = 2.135394 g / cm^3
# Si number density = 21.402654 Si / 1000 Ang^3
#
#
#
# Elastic Constant Matrix: (Units=GPa)
#
#
# Indices 1 2 3 4 5 6 
#
# 1 88.7684 35.9424 24.0843 -10.2569 25.0420 -9.9153
# 2 35.9424 120.1764 18.1902 -25.8258 16.4757 -9.9139
# 3 24.0843 18.1902 35.5631 -14.5106 17.1260 1.0598
# 4 -10.2569 -25.8258 -14.5106 34.4408 3.1898 0.0537
# 5 25.0420 16.4757 17.1260 3.1898 33.4792 -7.5900
# 6 -9.9153 -9.9139 1.0598 0.0537 -7.5900 46.4008
#
#
#
# Elastic Compliance Matrix: (Units=1/GPa)
#
#
# Indices 1 2 3 4 5 6 
#
# 1 0.016371 -0.002531 -0.005437 0.001420 -0.007950 0.001780
# 2 -0.002531 0.011622 0.002375 0.009491 -0.005732 0.000939
# 3 -0.005437 0.002375 0.055959 0.026509 -0.029803 -0.006838
# 4 0.001420 0.009491 0.026509 0.050025 -0.024593 -0.002355
# 5 -0.007950 -0.005732 -0.029803 -0.024593 0.057869 0.007252
# 6 0.001780 0.000939 -0.006838 -0.002355 0.007252 0.023477
#
#
# Mechanical properties :
#
#
# Convention : Reuss Voigt Hill
#
# Bulk Modulus (GPa) = 13.74320 44.54906 29.14613
# Shear Modulus (GPa) = 19.93892 33.95022 26.94457
#
# Velocity S-wave (km/s) = 3.05554 3.98711 3.55200
# Velocity P-wave (km/s) = 4.34553 6.48506 5.51995
#
# Compressibility (1/GPa) = 0.07276328
#
# Stress axis : x y z
#
# Youngs Moduli (GPa) = 61.08342 86.04701 17.87024
#
# Poissons Ratio (x) = 0.21782 0.09717
# Poissons Ratio (y) = 0.15462 -0.04243
# Poissons Ratio (z) = 0.33213 -0.20432
#
# Static dielectric constant tensor:
#      x y z
#    x 3.809680 -0.353910 -0.362500 
#    y -0.353910 4.239020 -0.806060 
#    z -0.362500 -0.806060 3.367560 
# 
# 
# High freq. dielectric constant tensor:
#      x y z
#    x 1.840110 0.000160 0.006560 
#    y 0.000160 1.855340 -0.020240 
#    z 0.006560 -0.020240 1.808330 
# 
# From -- ./inp_files/153933.got.cif
#   From: 2010.06.25/outbox.cif.g09.slc.cpg/sg2_77_cif.got.tgz:153933.got - 2010.06.27 13:26:56.
