data_PCOD8040775
_publ_section_title
;
Structure prediction by ZEFSAII (Michael W. Deem and Ramdas Pophale) SiO2 
 PCOD8040775
Probable space group: P -1
;
_chemical_formula_sum "Si O2"
_cell_formula_units_Z 14
_cell_length_a 13.924736
_cell_length_b 17.855965
_cell_length_c 8.998192
_cell_angle_alpha 129.848184
_cell_angle_beta 31.046842
_cell_angle_gamma 150.256693
_cell_volume 523.900462
_symmetry_space_group_name_H-M "P -1"
_symmetry_group_IT_number 2
_symmetry_cell_setting 'triclinic'
loop_
_space_group_symop_operation_xyz
x,y,z
-x,-y,-z
loop_
_atom_site_type_symbol
_atom_site_label
_atom_site_fract_x
_atom_site_fract_y
_atom_site_fract_z
Si Si1 0.390265 0.140254 0.390233
Si Si2 0.018950 0.621417 0.886740
Si Si3 0.176999 0.676647 0.207563
Si Si4 0.207551 0.207914 0.177026
Si Si5 0.113268 0.215730 0.981050
Si Si6 0.454506 0.858299 0.356972
Si Si7 0.356994 0.453190 0.454501
O O1 0.718057 0.265743 0.194313
O O2 0.194427 0.146675 0.718007
O O3 0.489206 0.195024 0.157501
O O4 0.157505 0.951687 0.489188
O O5 0.165009 0.741329 0.707414
O O6 0.929894 0.472792 0.774999
O O7 0.721628 0.552079 0.273390
O O8 0.265104 0.789266 0.365288
O O9 0.896191 0.600310 0.383306
O O10 0.365274 0.341121 0.265131
O O11 0.224965 0.267895 0.070161
O O12 0.383299 0.179191 0.896220
O O13 0.292556 0.368900 0.835028
O O14 0.726621 0.057053 0.278333
#
# Coordination Sequence:
#
# PCOD8040775 Si02
#       7
#     2   2   2   2   2   2   2
#     4  10  18  38  66  88 120 162 220 240 300 372
#     4  11  19  40  65  94 118 172 208 255 295 393
#     4  11  22  38  67  96 120 166 209 264 298 378
#     4  11  22  38  67  96 120 166 209 264 298 378
#     4  11  19  40  65  94 118 172 208 255 295 393
#     4  11  23  40  70  89 128 158 220 249 317 359
#     4  11  23  40  70  89 128 158 220 249 317 359
#
# _framework density 26.722632999999998
#
# number of rings (size 3 to 8) (size 9 to 14) (size 15 to 20)
#    0.000    1.143    5.714    2.571    0.000    4.571 
#    0.000    1.429    6.286    0.000    0.000    0.000 
#    0.000    0.000    0.000    0.000    0.000    0.000 
#
# Total GULP energy -173605.129852 kJ/mol
# GULP energy per Si atom -12400.366418 kJ/mol
# Density = 2.666181 g / cm^3
# Si number density = 26.722633 Si / 1000 Ang^3
#
#
#
# Elastic Constant Matrix: (Units=GPa)
#
#
# Indices 1 2 3 4 5 6 
#
# 1 63.6798 37.6491 65.7659 -12.6488 15.1733 8.3518
# 2 37.6491 170.7900 72.1222 -9.7474 30.1538 -9.7784
# 3 65.7659 72.1222 170.5505 -27.7679 17.1311 -0.1861
# 4 -12.6488 -9.7474 -27.7679 46.9735 1.6764 11.3971
# 5 15.1733 30.1538 17.1311 1.6764 66.7738 -6.2727
# 6 8.3518 -9.7784 -0.1861 11.3971 -6.2727 34.2428
#
#
#
# Elastic Compliance Matrix: (Units=1/GPa)
#
#
# Indices 1 2 3 4 5 6 
#
# 1 0.030209 -0.002166 -0.009512 0.004761 -0.004548 -0.010456
# 2 -0.002166 0.007830 -0.002413 -0.000958 -0.002149 0.002676
# 3 -0.009512 -0.002413 0.011049 0.003293 0.000396 0.000668
# 4 0.004761 -0.000958 0.003293 0.027109 -0.003211 -0.011028
# 5 -0.004548 -0.002149 0.000396 -0.003211 0.017405 0.004755
# 6 -0.010456 0.002676 0.000668 -0.011028 0.004755 0.037063
#
#
# Mechanical properties :
#
#
# Convention : Reuss Voigt Hill
#
# Bulk Modulus (GPa) = 47.83648 84.01053 65.92351
# Shear Modulus (GPa) = 30.15421 44.89688 37.52555
#
# Velocity S-wave (km/s) = 3.36283 4.10336 3.75141
# Velocity P-wave (km/s) = 5.74614 7.34549 6.59448
#
# Compressibility (1/GPa) = 0.02090455
#
# Stress axis : x y z
#
# Youngs Moduli (GPa) = 33.10298 127.72161 90.50877
#
# Poissons Ratio (x) = 0.27670 0.86093
# Poissons Ratio (y) = 0.07172 0.21837
# Poissons Ratio (z) = 0.31488 0.30815
#
# Static dielectric constant tensor:
#      x y z
#    x 4.621150 0.242020 -0.188440 
#    y 0.242020 5.040210 -0.181860 
#    z -0.188440 -0.181860 5.509600 
# 
# 
# High freq. dielectric constant tensor:
#      x y z
#    x 2.096650 0.003250 -0.019580 
#    y 0.003250 2.081690 -0.011050 
#    z -0.019580 -0.011050 2.111820 
# 
# From -- ./inp_files/185289.got.cif
#   From: 2010.06.25/outbox.cif.g09.slc.cpg/sg2_93_cif.got.tgz:185289.got - 2010.06.27 13:26:56.
