data_PCOD8040121
_publ_section_title
;
Structure prediction by ZEFSAII (Michael W. Deem and Ramdas Pophale) SiO2 
 PCOD8040121
Probable space group: P -1
;
_chemical_formula_sum "Si O2"
_cell_formula_units_Z 16
_cell_length_a 10.682893
_cell_length_b 21.942247
_cell_length_c 16.353001
_cell_angle_alpha 158.346864
_cell_angle_beta 133.287538
_cell_angle_gamma 34.932109
_cell_volume 755.220536
_symmetry_space_group_name_H-M "P -1"
_symmetry_group_IT_number 2
_symmetry_cell_setting 'triclinic'
loop_
_space_group_symop_operation_xyz
x,y,z
-x,-y,-z
loop_
_atom_site_type_symbol
_atom_site_label
_atom_site_fract_x
_atom_site_fract_y
_atom_site_fract_z
Si Si1 0.317267 0.362409 0.417745
Si Si2 0.805954 0.723770 0.078828
Si Si3 0.162798 0.963047 0.772844
Si Si4 0.306190 0.136858 0.380938
Si Si5 0.860400 0.839823 0.829424
Si Si6 0.724986 0.637616 0.097439
Si Si7 0.229799 0.040501 0.402007
Si Si8 0.907519 0.642189 0.839232
O O1 0.579211 0.259032 0.418117
O O2 0.277353 0.236766 0.304248
O O3 0.283236 0.317917 0.254896
O O4 0.139968 0.626177 0.686939
O O5 0.746013 0.611787 0.975423
O O6 0.587163 0.994047 0.328051
O O7 0.816481 0.658130 0.908554
O O8 0.072904 0.610169 0.079769
O O9 0.992450 0.923389 0.629262
O O10 0.178182 0.990602 0.911134
O O11 0.074731 0.175743 0.945211
O O12 0.238343 0.054619 0.173746
O O13 0.166315 0.399671 0.635935
O O14 0.221079 0.105267 0.385552
O O15 0.464826 0.771597 0.182438
O O16 0.771719 0.802223 0.342762
#
# Coordination Sequence:
#
# PCOD8040121 Si02
#       8
#     2   2   2   2   2   2   2   2
#     4   9  18  34  55  82 117 150 175 214 264 331
#     4  10  18  35  65  79  95 143 196 221 268 333
#     4  11  21  35  56  84 116 147 173 226 274 319
#     4  10  19  34  60  82 108 146 184 221 258 334
#     4   9  18  34  55  83 114 147 183 211 262 326
#     4   9  20  39  60  77 102 147 187 230 276 329
#     4  10  21  39  57  79 113 141 183 231 279 317
#     4  10  19  34  59  85 109 141 184 217 268 328
#
# _framework density 21.185865
#
# number of rings (size 3 to 8) (size 9 to 14) (size 15 to 20)
#    0.000    2.250    1.250    3.750    0.000    0.500 
#    6.750    3.750    0.000    0.000    0.000    0.000 
#    0.000    0.000    0.000    0.000    0.000    0.000 
#
# Total GULP energy -198234.492092 kJ/mol
# GULP energy per Si atom -12389.655756 kJ/mol
# Density = 2.113764 g / cm^3
# Si number density = 21.185865 Si / 1000 Ang^3
#
#
#
# Elastic Constant Matrix: (Units=GPa)
#
#
# Indices 1 2 3 4 5 6 
#
# 1 80.4067 51.6517 29.1471 5.6675 -19.6837 -21.2608
# 2 51.6517 106.9487 29.0366 31.5902 -3.1458 -24.3342
# 3 29.1471 29.0366 40.7540 13.9415 -10.3041 -11.4662
# 4 5.6675 31.5902 13.9415 33.4626 -4.4768 -11.2014
# 5 -19.6837 -3.1458 -10.3041 -4.4768 22.3806 -3.4914
# 6 -21.2608 -24.3342 -11.4662 -11.2014 -3.4914 41.9639
#
#
#
# Elastic Compliance Matrix: (Units=1/GPa)
#
#
# Indices 1 2 3 4 5 6 
#
# 1 0.039258 -0.019209 -0.009882 0.025542 0.034846 0.015768
# 2 -0.019209 0.024472 -0.001837 -0.022960 -0.019484 -0.003793
# 3 -0.009882 -0.001837 0.039203 -0.011209 0.007209 0.002248
# 4 0.025542 -0.022960 -0.011209 0.060811 0.028608 0.015176
# 5 0.034846 -0.019484 0.007209 0.028608 0.085228 0.023053
# 6 0.015768 -0.003793 0.002248 0.015176 0.023053 0.036202
#
#
# Mechanical properties :
#
#
# Convention : Reuss Voigt Hill
#
# Bulk Modulus (GPa) = 24.34425 49.75335 37.04880
# Shear Modulus (GPa) = 13.86113 27.44637 20.65375
#
# Velocity S-wave (km/s) = 2.56063 3.60322 3.12570
# Velocity P-wave (km/s) = 4.50091 6.39109 5.52740
#
# Compressibility (1/GPa) = 0.04107747
#
# Stress axis : x y z
#
# Youngs Moduli (GPa) = 25.47275 40.86336 25.50823
#
# Poissons Ratio (x) = 0.78493 0.25207
# Poissons Ratio (y) = 0.48930 0.04685
# Poissons Ratio (z) = 0.25172 0.07506
#
# Static dielectric constant tensor:
#      x y z
#    x 3.732470 0.132160 -0.535560 
#    y 0.132160 4.194930 0.370240 
#    z -0.535560 0.370240 3.610650 
# 
# 
# High freq. dielectric constant tensor:
#      x y z
#    x 1.815710 0.012050 -0.055830 
#    y 0.012050 1.843850 0.028660 
#    z -0.055830 0.028660 1.793170 
# 
# From -- ./inp_files/570986.got.cif
#   From: 2010.06.25/outbox.cif.g09.slc.cpg/sg2_286_cif.got.tgz:570986.got - 2010.06.27 13:26:56.
