data_PCOD8040834
_publ_section_title
;
Structure prediction by ZEFSAII (Michael W. Deem and Ramdas Pophale) SiO2 
 PCOD8040834
Probable space group: P -1
;
_chemical_formula_sum "Si O2"
_cell_formula_units_Z 16
_cell_length_a 14.734480
_cell_length_b 8.975891
_cell_length_c 16.295344
_cell_angle_alpha 139.374878
_cell_angle_beta 38.457028
_cell_angle_gamma 142.254430
_cell_volume 763.196854
_symmetry_space_group_name_H-M "P -1"
_symmetry_group_IT_number 2
_symmetry_cell_setting 'triclinic'
loop_
_space_group_symop_operation_xyz
x,y,z
-x,-y,-z
loop_
_atom_site_type_symbol
_atom_site_label
_atom_site_fract_x
_atom_site_fract_y
_atom_site_fract_z
Si Si1 0.207383 0.701368 0.527780
Si Si2 0.359657 0.187650 0.372171
Si Si3 0.908760 0.262024 0.028782
Si Si4 0.790701 0.799955 0.213846
Si Si5 0.164021 0.651148 0.353678
Si Si6 0.277689 0.474291 0.679537
Si Si7 0.434407 0.459733 0.267183
Si Si8 0.664254 0.685297 0.907800
O O1 0.227726 0.784133 0.452837
O O2 0.360300 0.652802 0.423309
O O3 0.031046 0.439569 0.555703
O O4 0.206645 0.924511 0.677932
O O5 0.257896 0.309945 0.542601
O O6 0.535134 0.300547 0.341477
O O7 0.369351 0.239240 0.290448
O O8 0.265937 0.874944 0.309533
O O9 0.831181 0.378873 0.198751
O O10 0.000000 0.500000 0.000000
O O11 0.045828 0.192045 0.940006
O O12 0.751739 0.994045 0.994311
O O13 0.784425 0.718337 0.278940
O O14 0.633899 0.606547 0.190060
O O15 0.198785 0.408584 0.214574
O O16 0.380846 0.332754 0.163374
O O17 0.500000 0.500000 0.000000
#
# Coordination Sequence:
#
# PCOD8040834 Si02
#       8
#     2   2   2   2   2   2   2   2
#     4  10  19  35  58  90 126 160 204 255 310 363
#     4  10  19  38  60  94 125 156 211 259 310 364
#     4  10  21  39  67  92 124 172 211 248 307 383
#     4  10  18  39  60  91 124 160 207 253 311 369
#     4  10  20  35  64  89 120 166 209 255 304 371
#     4   9  19  34  62  91 122 166 204 249 305 376
#     4  10  24  38  64  93 123 161 205 267 317 359
#     4  11  23  44  65  92 125 166 212 255 316 385
#
# _framework density 20.964447
#
# number of rings (size 3 to 8) (size 9 to 14) (size 15 to 20)
#    0.000    2.000    2.500    1.125    0.000    0.500 
#    2.250   11.875    0.000    0.000    0.000    0.000 
#    0.000    0.000    0.000    0.000    0.000    0.000 
#
# Total GULP energy -198333.559846 kJ/mol
# GULP energy per Si atom -12395.847490 kJ/mol
# Density = 2.091673 g / cm^3
# Si number density = 20.964447 Si / 1000 Ang^3
#
#
#
# Elastic Constant Matrix: (Units=GPa)
#
#
# Indices 1 2 3 4 5 6 
#
# 1 76.7334 32.0830 24.1029 -6.2542 -7.9993 4.7545
# 2 32.0830 116.5039 21.2378 3.3006 2.5303 -6.2104
# 3 24.1029 21.2378 80.9559 -0.0810 -15.8043 0.2740
# 4 -6.2542 3.3006 -0.0810 29.6305 1.1782 -5.0876
# 5 -7.9993 2.5303 -15.8043 1.1782 29.2879 -5.7186
# 6 4.7545 -6.2104 0.2740 -5.0876 -5.7186 13.0686
#
#
#
# Elastic Compliance Matrix: (Units=1/GPa)
#
#
# Indices 1 2 3 4 5 6 
#
# 1 0.016784 -0.004444 -0.003463 0.002885 0.001763 -0.006251
# 2 -0.004444 0.010504 -0.001849 -0.001119 -0.002035 0.005321
# 3 -0.003463 -0.001849 0.015471 -0.000193 0.008274 0.003602
# 4 0.002885 -0.001119 -0.000193 0.036736 0.001954 0.013579
# 5 0.001763 -0.002035 0.008274 0.001954 0.042630 0.017633
# 6 -0.006251 0.005321 0.003602 0.013579 0.017633 0.094249
#
#
# Mechanical properties :
#
#
# Convention : Reuss Voigt Hill
#
# Bulk Modulus (GPa) = 43.01562 47.67118 45.34340
# Shear Modulus (GPa) = 20.52252 27.51539 24.01896
#
# Velocity S-wave (km/s) = 3.13216 3.62675 3.38849
# Velocity P-wave (km/s) = 5.80030 6.35029 6.08151
#
# Compressibility (1/GPa) = 0.02324737
#
# Stress axis : x y z
#
# Youngs Moduli (GPa) = 59.57969 95.20400 64.63588
#
# Poissons Ratio (x) = 0.42309 0.22384
# Poissons Ratio (y) = 0.26477 0.11950
# Poissons Ratio (z) = 0.20633 0.17601
#
# Static dielectric constant tensor:
#      x y z
#    x 3.572230 0.060190 -0.378670 
#    y 0.060190 3.726160 -0.129600 
#    z -0.378670 -0.129600 4.040960 
# 
# 
# High freq. dielectric constant tensor:
#      x y z
#    x 1.796260 0.005580 -0.024620 
#    y 0.005580 1.825570 -0.001950 
#    z -0.024620 -0.001950 1.823850 
# 
# From -- ./inp_files/177972.got.cif
#   From: 2010.06.25/outbox.cif.g09.slc.cpg/sg2_89_cif.got.tgz:177972.got - 2010.06.27 13:26:56.
