data_PCOD8040685
_publ_section_title
;
Structure prediction by ZEFSAII (Michael W. Deem and Ramdas Pophale) SiO2 
 PCOD8040685
Probable space group: P -1
;
_chemical_formula_sum "Si O2"
_cell_formula_units_Z 12
_cell_length_a 6.581443
_cell_length_b 15.057036
_cell_length_c 9.020921
_cell_angle_alpha 93.803195
_cell_angle_beta 57.286879
_cell_angle_gamma 61.448705
_cell_volume 593.539561
_symmetry_space_group_name_H-M "P -1"
_symmetry_group_IT_number 2
_symmetry_cell_setting 'triclinic'
loop_
_space_group_symop_operation_xyz
x,y,z
-x,-y,-z
loop_
_atom_site_type_symbol
_atom_site_label
_atom_site_fract_x
_atom_site_fract_y
_atom_site_fract_z
Si Si1 0.737718 0.846998 0.756044
Si Si2 0.713647 0.904402 0.111489
Si Si3 0.361873 0.590530 0.761556
Si Si4 0.636319 0.238603 0.038749
Si Si5 0.610624 0.353780 0.573396
Si Si6 0.328798 0.279983 0.869851
O O1 0.574379 0.788844 0.808409
O O2 0.058298 0.762631 0.537273
O O3 0.542298 0.962769 0.753516
O O4 0.792385 0.869402 0.903874
O O5 0.595396 0.838495 0.222288
O O6 0.016413 0.867158 0.073746
O O7 0.447136 0.644574 0.855776
O O8 0.567786 0.456446 0.690122
O O9 0.436441 0.617871 0.577796
O O10 0.008194 0.640992 0.916682
O O11 0.579673 0.255245 0.887610
O O12 0.357882 0.338977 0.724680
#
# Coordination Sequence:
#
# PCOD8040685 Si02
#       6
#     2   2   2   2   2   2
#     4  10  19  36  59  85 111 149 189 229 278 333
#     4   9  19  37  59  81 116 149 182 231 285 329
#     4  10  22  41  57  82 116 151 187 230 280 332
#     4  10  18  38  58  82 116 149 184 230 284 328
#     4  11  21  39  60  83 114 150 190 230 278 334
#     4  10  21  39  58  85 116 146 185 235 280 330
#
# _framework density 20.217690999999999
#
# number of rings (size 3 to 8) (size 9 to 14) (size 15 to 20)
#    0.000    2.000    5.000    1.000    0.000    2.000 
#    6.000    0.833    0.000    0.000    0.000    0.000 
#    0.000    0.000    0.000    0.000    0.000    0.000 
#
# Total GULP energy -148788.060034 kJ/mol
# GULP energy per Si atom -12399.005003 kJ/mol
# Density = 2.017167 g / cm^3
# Si number density = 20.217691 Si / 1000 Ang^3
#
#
#
# Elastic Constant Matrix: (Units=GPa)
#
#
# Indices 1 2 3 4 5 6 
#
# 1 93.5711 12.1219 26.3085 1.2479 -8.0688 -1.3583
# 2 12.1219 110.8312 57.5175 13.3357 -12.2335 15.1983
# 3 26.3085 57.5175 73.7519 -10.5096 -14.7144 5.2715
# 4 1.2479 13.3357 -10.5096 44.6825 7.9123 -5.5101
# 5 -8.0688 -12.2335 -14.7144 7.9123 7.1233 -1.8837
# 6 -1.3583 15.1983 5.2715 -5.5101 -1.8837 26.6359
#
#
#
# Elastic Compliance Matrix: (Units=1/GPa)
#
#
# Indices 1 2 3 4 5 6 
#
# 1 0.013191 0.003901 -0.005022 -0.005912 0.017694 -0.000531
# 2 0.003901 0.023636 -0.015732 -0.017400 0.028737 -0.011741
# 3 -0.005022 -0.015732 0.034601 0.008154 0.031237 0.005768
# 4 -0.005912 -0.017400 0.008154 0.042439 -0.063626 0.012293
# 5 0.017694 0.028737 0.031237 -0.063626 0.342164 -0.010641
# 6 -0.000531 -0.011741 0.005768 0.012293 -0.010641 0.044865
#
#
# Mechanical properties :
#
#
# Convention : Reuss Voigt Hill
#
# Bulk Modulus (GPa) = 26.50968 52.22780 39.36874
# Shear Modulus (GPa) = 9.13786 27.83540 18.48663
#
# Velocity S-wave (km/s) = 2.12827 3.71453 3.02715
# Velocity P-wave (km/s) = 4.37950 6.65476 5.63319
#
# Compressibility (1/GPa) = 0.03772207
#
# Stress axis : x y z
#
# Youngs Moduli (GPa) = 75.81148 42.30857 28.90116
#
# Poissons Ratio (x) = -0.16504 0.14514
# Poissons Ratio (y) = -0.29572 0.45466
# Poissons Ratio (z) = 0.38071 0.66558
#
# Static dielectric constant tensor:
#      x y z
#    x 3.529730 0.148910 -0.091370 
#    y 0.148910 4.012240 0.132340 
#    z -0.091370 0.132340 3.420320 
# 
# 
# High freq. dielectric constant tensor:
#      x y z
#    x 1.779410 0.011010 -0.011060 
#    y 0.011010 1.806220 0.005630 
#    z -0.011060 0.005630 1.764940 
# 
# From -- ./inp_files/24940.got.cif
#   From: 2010.06.25/outbox.cif.g09.slc.cpg/sg2_13_cif.got.tgz:24940.got - 2010.06.27 13:26:56.
