data_PCOD8040332
_publ_section_title
;
Structure prediction by ZEFSAII (Michael W. Deem and Ramdas Pophale) SiO2 
 PCOD8040332
Probable space group: P -1
;
_chemical_formula_sum "Si O2"
_cell_formula_units_Z 16
_cell_length_a 15.867092
_cell_length_b 8.960033
_cell_length_c 12.304273
_cell_angle_alpha 39.949713
_cell_angle_beta 53.362623
_cell_angle_gamma 56.289172
_cell_volume 885.032231
_symmetry_space_group_name_H-M "P -1"
_symmetry_group_IT_number 2
_symmetry_cell_setting 'triclinic'
loop_
_space_group_symop_operation_xyz
x,y,z
-x,-y,-z
loop_
_atom_site_type_symbol
_atom_site_label
_atom_site_fract_x
_atom_site_fract_y
_atom_site_fract_z
Si Si1 0.006935 0.312324 0.188916
Si Si2 0.801228 0.256446 0.487895
Si Si3 0.422393 0.412055 0.523760
Si Si4 0.928141 0.204580 0.627561
Si Si5 0.135577 0.266843 0.321860
Si Si6 0.238304 0.606569 0.183200
Si Si7 0.556806 0.525958 0.779910
Si Si8 0.584433 0.138371 0.139859
O O1 0.885608 0.293218 0.312470
O O2 0.065159 0.388323 0.207966
O O3 0.073493 0.070923 0.225888
O O4 0.000000 0.500000 0.000000
O O5 0.691398 0.429157 0.452478
O O6 0.845767 0.323414 0.532137
O O7 0.792478 0.981105 0.634337
O O8 0.500000 0.500000 0.500000
O O9 0.458628 0.459647 0.346182
O O10 0.418634 0.138423 0.704393
O O11 0.878348 0.294663 0.731213
O O12 0.049324 0.247319 0.495207
O O13 0.219321 0.427339 0.203350
O O14 0.320133 0.462458 0.289927
O O15 0.292512 0.817352 0.972743
O O16 0.478412 0.749522 0.767608
O O17 0.532156 0.279933 0.991281
#
# Coordination Sequence:
#
# PCOD8040332 Si02
#       8
#     2   2   2   2   2   2   2   2
#     4   9  19  34  54  79 121 145 179 236 284 333
#     4   9  19  37  53  81 112 149 186 230 287 335
#     4  12  24  38  62  89 113 151 203 243 283 354
#     4   9  17  35  58  82 111 153 185 226 288 336
#     4   9  19  34  59  84 111 152 192 222 284 355
#     4  10  18  36  62  79 113 150 192 233 286 345
#     4   9  21  42  58  80 119 157 184 249 300 329
#     4   9  22  40  59  83 114 155 193 236 303 335
#
# _framework density 18.078437999999998
#
# number of rings (size 3 to 8) (size 9 to 14) (size 15 to 20)
#    0.750    1.750    1.250    2.250    3.500    0.500 
#    2.250    1.875    0.000    0.000    0.000    0.000 
#    0.000    0.000    0.000    0.000    0.000    0.000 
#
# Total GULP energy -198210.298004 kJ/mol
# GULP energy per Si atom -12388.143625 kJ/mol
# Density = 1.803729 g / cm^3
# Si number density = 18.078438 Si / 1000 Ang^3
#
#
#
# Elastic Constant Matrix: (Units=GPa)
#
#
# Indices 1 2 3 4 5 6 
#
# 1 90.0728 44.8282 42.4307 -14.2083 0.8745 9.3707
# 2 44.8282 111.8926 46.6725 -1.9983 -0.1892 -3.7795
# 3 42.4307 46.6725 103.1607 -13.9805 7.0725 13.7000
# 4 -14.2083 -1.9983 -13.9805 21.6896 4.3707 1.9331
# 5 0.8745 -0.1892 7.0725 4.3707 22.7340 -4.4398
# 6 9.3707 -3.7795 13.7000 1.9331 -4.4398 31.4641
#
#
#
# Elastic Compliance Matrix: (Units=1/GPa)
#
#
# Indices 1 2 3 4 5 6 
#
# 1 0.017509 -0.006304 -0.001763 0.011036 -0.003545 -0.006382
# 2 -0.006304 0.014273 -0.006466 -0.008795 0.005574 0.007734
# 3 -0.001763 -0.006466 0.016884 0.011889 -0.009411 -0.009661
# 4 0.011036 -0.008795 0.011889 0.065683 -0.020023 -0.016381
# 5 -0.003545 0.005574 -0.009411 -0.020023 0.053807 0.014646
# 6 -0.006382 0.007734 -0.009661 -0.016381 0.014646 0.041892
#
#
# Mechanical properties :
#
#
# Convention : Reuss Voigt Hill
#
# Bulk Modulus (GPa) = 51.02014 63.66542 57.34278
# Shear Modulus (GPa) = 20.35429 26.59053 23.47241
#
# Velocity S-wave (km/s) = 3.35907 3.83932 3.60719
# Velocity P-wave (km/s) = 6.58234 7.41259 7.00977
#
# Compressibility (1/GPa) = 0.01960010
#
# Stress axis : x y z
#
# Youngs Moduli (GPa) = 57.11208 70.06057 59.22806
#
# Poissons Ratio (x) = 0.44165 0.10445
# Poissons Ratio (y) = 0.36002 0.38297
# Poissons Ratio (z) = 0.10072 0.45301
#
# Static dielectric constant tensor:
#      x y z
#    x 3.088310 -0.082740 0.026910 
#    y -0.082740 3.328770 0.060700 
#    z 0.026910 0.060700 3.148880 
# 
# 
# High freq. dielectric constant tensor:
#      x y z
#    x 1.682580 -0.006500 -0.003620 
#    y -0.006500 1.709170 0.005940 
#    z -0.003620 0.005940 1.686250 
# 
# From -- ./inp_files/446611.got.cif
#   From: 2010.06.25/outbox.cif.g09.slc.cpg/sg2_224_cif.got.tgz:446611.got - 2010.06.27 13:26:56.
