data_PCOD8040417
_publ_section_title
;
Structure prediction by ZEFSAII (Michael W. Deem and Ramdas Pophale) SiO2 
 PCOD8040417
Probable space group: P -1
;
_chemical_formula_sum "Si O2"
_cell_formula_units_Z 16
_cell_length_a 7.685505
_cell_length_b 17.368566
_cell_length_c 20.326331
_cell_angle_alpha 20.198338
_cell_angle_beta 57.705502
_cell_angle_gamma 66.851611
_cell_volume 735.366766
_symmetry_space_group_name_H-M "P -1"
_symmetry_group_IT_number 2
_symmetry_cell_setting 'triclinic'
loop_
_space_group_symop_operation_xyz
x,y,z
-x,-y,-z
loop_
_atom_site_type_symbol
_atom_site_label
_atom_site_fract_x
_atom_site_fract_y
_atom_site_fract_z
Si Si1 0.173448 0.223666 0.587510
Si Si2 0.331595 0.410433 0.788467
Si Si3 0.177170 0.747663 0.467046
Si Si4 0.992342 0.953457 0.644529
Si Si5 0.209302 0.935689 0.117737
Si Si6 0.938611 0.251310 0.078957
Si Si7 0.506799 0.236410 0.718930
Si Si8 0.246898 0.357494 0.176740
O O1 0.419170 0.411656 0.393797
O O2 0.035005 0.313043 0.490102
O O3 0.187892 0.971737 0.764686
O O4 0.052332 0.185091 0.714947
O O5 0.183762 0.510966 0.690685
O O6 0.328985 0.164876 0.956386
O O7 0.203603 0.349751 0.932758
O O8 0.404146 0.849711 0.296006
O O9 0.167347 0.935151 0.374352
O O10 0.849612 0.746781 0.790424
O O11 0.107445 0.833906 0.768338
O O12 0.195755 0.146680 0.409394
O O13 0.326419 0.749853 0.264317
O O14 0.265821 0.033451 0.952345
O O15 0.854823 0.464227 0.913263
O O16 0.500000 0.500000 0.500000
O O17 0.500000 0.500000 0.000000
#
# Coordination Sequence:
#
# PCOD8040417 Si02
#       8
#     2   2   2   2   2   2   2   2
#     4   9  22  38  63  94 124 166 211 255 304 370
#     4  11  20  40  67  88 128 168 203 261 305 358
#     4  10  20  39  63  87 123 162 205 255 308 364
#     4  10  23  42  59  88 127 154 204 260 296 373
#     4   9  20  38  59  92 127 163 210 254 310 366
#     4  10  22  41  62  91 125 162 205 252 307 365
#     4  10  18  36  66  85 127 169 196 265 313 349
#     4  11  24  39  64  93 120 160 202 249 312 372
#
# _framework density 21.757849
#
# number of rings (size 3 to 8) (size 9 to 14) (size 15 to 20)
#    0.000    2.000    2.500    1.125    1.750    2.500 
#    0.000   12.500    0.000    0.000    0.000    0.000 
#    0.000    0.000    0.000    0.000    0.000    0.000 
#
# Total GULP energy -198266.886752 kJ/mol
# GULP energy per Si atom -12391.680422 kJ/mol
# Density = 2.170833 g / cm^3
# Si number density = 21.757849 Si / 1000 Ang^3
#
#
#
# Elastic Constant Matrix: (Units=GPa)
#
#
# Indices 1 2 3 4 5 6 
#
# 1 54.0198 18.4312 42.2256 -5.3865 -12.2523 -12.0365
# 2 18.4312 93.1858 27.2965 13.1289 -17.2918 -13.2202
# 3 42.2256 27.2965 106.8478 3.5574 -17.6149 -7.9595
# 4 -5.3865 13.1289 3.5574 31.9199 -7.8970 7.3708
# 5 -12.2523 -17.2918 -17.6149 -7.8970 47.1055 7.4824
# 6 -12.0365 -13.2202 -7.9595 7.3708 7.4824 19.1838
#
#
#
# Elastic Compliance Matrix: (Units=1/GPa)
#
#
# Indices 1 2 3 4 5 6 
#
# 1 0.031035 -0.001721 -0.010772 0.005299 0.002590 0.010771
# 2 -0.001721 0.014518 -0.001755 -0.008332 0.001085 0.010975
# 3 -0.010772 -0.001755 0.014283 -0.001710 0.001949 -0.002145
# 4 0.005299 -0.008332 -0.001710 0.043312 0.008615 -0.023128
# 5 0.002590 0.001085 0.001949 0.008615 0.026112 -0.010313
# 6 0.010771 0.010975 -0.002145 -0.023128 -0.010313 0.078467
#
#
# Mechanical properties :
#
#
# Convention : Reuss Voigt Hill
#
# Bulk Modulus (GPa) = 31.90841 47.77332 39.84086
# Shear Modulus (GPa) = 20.26998 30.71519 25.49259
#
# Velocity S-wave (km/s) = 3.05555 3.76131 3.42665
# Velocity P-wave (km/s) = 5.21014 6.39279 5.83153
#
# Compressibility (1/GPa) = 0.03133970
#
# Stress axis : x y z
#
# Youngs Moduli (GPa) = 32.22173 68.88014 70.01316
#
# Poissons Ratio (x) = 0.11854 0.75420
# Poissons Ratio (y) = 0.05545 0.12287
# Poissons Ratio (z) = 0.34710 0.12088
#
# Static dielectric constant tensor:
#      x y z
#    x 3.555450 -0.132970 0.365570 
#    y -0.132970 4.050440 0.222100 
#    z 0.365570 0.222100 4.206330 
# 
# 
# High freq. dielectric constant tensor:
#      x y z
#    x 1.815480 -0.016280 0.023680 
#    y -0.016280 1.871450 0.015670 
#    z 0.023680 0.015670 1.869610 
# 
# From -- ./inp_files/553837.got.cif
#   From: 2010.06.25/outbox.cif.g09.slc.cpg/sg2_277_cif.got.tgz:553837.got - 2010.06.27 13:26:56.
