data_PCOD8040989
_publ_section_title
;
Structure prediction by ZEFSAII (Michael W. Deem and Ramdas Pophale) SiO2 
 PCOD8040989
Probable space group: P -1
;
_chemical_formula_sum "Si O2"
_cell_formula_units_Z 16
_cell_length_a 12.561129
_cell_length_b 8.203227
_cell_length_c 9.146048
_cell_angle_alpha 62.180060
_cell_angle_beta 58.684848
_cell_angle_gamma 78.237610
_cell_volume 711.140443
_symmetry_space_group_name_H-M "P -1"
_symmetry_group_IT_number 2
_symmetry_cell_setting 'triclinic'
loop_
_space_group_symop_operation_xyz
x,y,z
-x,-y,-z
loop_
_atom_site_type_symbol
_atom_site_label
_atom_site_fract_x
_atom_site_fract_y
_atom_site_fract_z
Si Si1 0.132290 0.920938 0.776084
Si Si2 0.320763 0.481155 0.912613
Si Si3 0.813868 0.447767 0.738535
Si Si4 0.538837 0.865157 0.157299
Si Si5 0.401914 0.859541 0.547195
Si Si6 0.896907 0.707890 0.999570
Si Si7 0.076780 0.322450 0.676721
Si Si8 0.220996 0.942170 0.027203
O O1 0.265881 0.944314 0.593805
O O2 0.046818 0.741406 0.852678
O O3 0.056522 0.107630 0.730424
O O4 0.151095 0.882421 0.951456
O O5 0.409480 0.318258 0.875565
O O6 0.387086 0.671218 0.729991
O O7 0.294307 0.488083 0.101815
O O8 0.178078 0.455989 0.962551
O O9 0.816348 0.583698 0.542527
O O10 0.774630 0.240253 0.799358
O O11 0.953378 0.439768 0.710428
O O12 0.434133 0.813059 0.374980
O O13 0.500000 0.000000 0.000000
O O14 0.640222 0.977043 0.138672
O O15 0.500000 0.000000 0.500000
O O16 0.844675 0.900578 0.901852
O O17 0.864432 0.675353 0.205948
#
# Coordination Sequence:
#
# PCOD8040989 Si02
#       8
#     2   2   2   2   2   2   2   2
#     4  11  19  39  69  94 122 168 222 252 304 394
#     4  11  25  43  67  95 133 164 212 276 320 375
#     4  11  20  38  60  97 130 162 206 261 325 376
#     4  11  26  45  63  94 132 168 214 274 323 365
#     4  12  24  45  70  90 125 179 226 253 308 387
#     4  10  20  39  67  96 126 166 208 263 325 371
#     4  10  21  34  64  95 131 162 211 253 315 394
#     4  10  18  41  65  88 125 171 208 261 305 388
#
# _framework density 22.49907
#
# number of rings (size 3 to 8) (size 9 to 14) (size 15 to 20)
#    0.000    1.250    5.000    1.125    1.750    3.000 
#    2.250    3.125    0.000    0.000    0.000    0.000 
#    0.000    0.000    0.000    0.000    0.000    0.000 
#
# Total GULP energy -198230.572297 kJ/mol
# GULP energy per Si atom -12389.410769 kJ/mol
# Density = 2.244786 g / cm^3
# Si number density = 22.499070 Si / 1000 Ang^3
#
#
#
# Elastic Constant Matrix: (Units=GPa)
#
#
# Indices 1 2 3 4 5 6 
#
# 1 70.1386 32.1178 24.3153 -4.8861 -22.1235 1.7870
# 2 32.1178 94.4018 58.0814 -5.6547 -4.2423 -10.7894
# 3 24.3153 58.0814 160.4220 -3.5660 -12.7511 -4.3882
# 4 -4.8861 -5.6547 -3.5660 39.5214 -2.4785 -11.9114
# 5 -22.1235 -4.2423 -12.7511 -2.4785 31.1378 -5.8335
# 6 1.7870 -10.7894 -4.3882 -11.9114 -5.8335 30.5580
#
#
#
# Elastic Compliance Matrix: (Units=1/GPa)
#
#
# Indices 1 2 3 4 5 6 
#
# 1 0.022345 -0.006962 0.000432 0.002880 0.015401 0.000360
# 2 -0.006962 0.016769 -0.005063 0.002675 -0.003399 0.005995
# 3 0.000432 -0.005063 0.008250 0.000281 0.003029 0.000060
# 4 0.002880 0.002675 0.000281 0.030860 0.007663 0.014309
# 5 0.015401 -0.003399 0.003029 0.007663 0.046350 0.010169
# 6 0.000360 0.005995 0.000060 0.014309 0.010169 0.042348
#
#
# Mechanical properties :
#
#
# Convention : Reuss Voigt Hill
#
# Bulk Modulus (GPa) = 41.36034 61.55457 51.45746
# Shear Modulus (GPa) = 25.23102 34.27330 29.75216
#
# Velocity S-wave (km/s) = 3.35240 3.90721 3.64039
# Velocity P-wave (km/s) = 5.77995 6.91181 6.37107
#
# Compressibility (1/GPa) = 0.02417775
#
# Stress axis : x y z
#
# Youngs Moduli (GPa) = 44.75193 59.63221 121.21544
#
# Poissons Ratio (x) = 0.41519 -0.05235
# Poissons Ratio (y) = 0.31158 0.61370
# Poissons Ratio (z) = -0.01933 0.30191
#
# Static dielectric constant tensor:
#      x y z
#    x 3.946340 -0.112790 -0.302200 
#    y -0.112790 4.132280 -0.160360 
#    z -0.302200 -0.160360 4.140090 
# 
# 
# High freq. dielectric constant tensor:
#      x y z
#    x 1.867050 -0.009570 -0.023320 
#    y -0.009570 1.891830 -0.014480 
#    z -0.023320 -0.014480 1.887030 
# 
# From -- ./inp_files/218803.got.cif
#   From: 2010.06.25/outbox.cif.g09.slc.cpg/sg2_110_cif.got.tgz:218803.got - 2010.06.27 13:26:56.
