data_PCOD8040335
_publ_section_title
;
Structure prediction by ZEFSAII (Michael W. Deem and Ramdas Pophale) SiO2 
 PCOD8040335
Probable space group: P -1
;
_chemical_formula_sum "Si O2"
_cell_formula_units_Z 14
_cell_length_a 11.845746
_cell_length_b 11.959930
_cell_length_c 11.979467
_cell_angle_alpha 92.608761
_cell_angle_beta 46.927778
_cell_angle_gamma 128.455953
_cell_volume 726.893644
_symmetry_space_group_name_H-M "P -1"
_symmetry_group_IT_number 2
_symmetry_cell_setting 'triclinic'
loop_
_space_group_symop_operation_xyz
x,y,z
-x,-y,-z
loop_
_atom_site_type_symbol
_atom_site_label
_atom_site_fract_x
_atom_site_fract_y
_atom_site_fract_z
Si Si1 0.256465 0.376931 0.444311
Si Si2 0.065274 0.829229 0.565642
Si Si3 0.461864 0.798681 0.867210
Si Si4 0.786933 0.218165 0.329739
Si Si5 0.920402 0.977977 0.679712
Si Si6 0.760185 0.540278 0.128157
Si Si7 0.104208 0.462104 0.725433
O O1 0.153682 0.331446 0.385389
O O2 0.565723 0.530277 0.238238
O O3 0.216255 0.468993 0.540116
O O4 0.103175 0.187510 0.607541
O O5 0.977945 0.892335 0.695851
O O6 0.082817 0.740849 0.639084
O O7 0.346382 0.006894 0.322218
O O8 0.613244 0.834784 0.875135
O O9 0.368255 0.648331 0.839304
O O10 0.212875 0.720557 0.077636
O O11 0.769463 0.341357 0.343630
O O12 0.500000 0.000000 0.500000
O O13 0.965017 0.275689 0.111391
O O14 0.000000 0.000000 0.500000
O O15 0.812670 0.560168 0.224442
#
# Coordination Sequence:
#
# PCOD8040335 Si02
#       7
#     2   2   2   2   2   2   2
#     4  10  20  36  59  86 110 143 183 228 278 316
#     4  10  18  36  62  82 116 138 182 228 269 337
#     4   9  16  35  58  84 103 144 193 218 263 322
#     4  11  24  38  58  81 109 150 184 229 276 323
#     4   8  15  31  59  81 105 138 183 223 259 323
#     4  11  19  38  58  79 110 149 191 220 262 336
#     4  11  23  34  57  85 113 144 185 229 271 323
#
# _framework density 19.260038999999999
#
# number of rings (size 3 to 8) (size 9 to 14) (size 15 to 20)
#    0.000    2.286    4.286    3.857    0.000    3.429 
#    0.000    0.714    3.143    0.000    0.000    0.000 
#    0.000    0.000    0.000    0.000    0.000    0.000 
#
# Total GULP energy -173548.319354 kJ/mol
# GULP energy per Si atom -12396.308525 kJ/mol
# Density = 1.921620 g / cm^3
# Si number density = 19.260039 Si / 1000 Ang^3
#
#
#
# Elastic Constant Matrix: (Units=GPa)
#
#
# Indices 1 2 3 4 5 6 
#
# 1 110.7383 28.9022 50.8579 3.0273 -7.3156 6.2210
# 2 28.9022 62.3135 38.5059 6.9920 -12.5407 -1.0787
# 3 50.8579 38.5059 75.1979 -5.2677 -19.0019 0.5972
# 4 3.0273 6.9920 -5.2677 27.4277 -0.8199 -7.1751
# 5 -7.3156 -12.5407 -19.0019 -0.8199 35.0211 -0.3585
# 6 6.2210 -1.0787 0.5972 -7.1751 -0.3585 16.7566
#
#
#
# Elastic Compliance Matrix: (Units=1/GPa)
#
#
# Indices 1 2 3 4 5 6 
#
# 1 0.014387 -0.000123 -0.010789 -0.005673 -0.003102 -0.007460
# 2 -0.000123 0.025705 -0.013298 -0.009531 0.001722 -0.001870
# 3 -0.010789 -0.013298 0.030785 0.012824 0.010068 0.007759
# 4 -0.005673 -0.009531 0.012824 0.047727 0.003698 0.021551
# 5 -0.003102 0.001722 0.010068 0.003698 0.034105 0.003217
# 6 -0.007460 -0.001870 0.007759 0.021551 0.003217 0.071348
#
#
# Mechanical properties :
#
#
# Convention : Reuss Voigt Hill
#
# Bulk Modulus (GPa) = 44.52651 53.86464 49.19557
# Shear Modulus (GPa) = 17.85963 24.50666 21.18314
#
# Velocity S-wave (km/s) = 3.04845 3.57095 3.32000
# Velocity P-wave (km/s) = 5.96318 6.71044 6.34782
#
# Compressibility (1/GPa) = 0.02245853
#
# Stress axis : x y z
#
# Youngs Moduli (GPa) = 69.50907 38.90229 32.48327
#
# Poissons Ratio (x) = 0.00477 0.35047
# Poissons Ratio (y) = 0.00852 0.43195
# Poissons Ratio (z) = 0.74995 0.51730
#
# Static dielectric constant tensor:
#      x y z
#    x 4.043000 -0.223530 -0.398630 
#    y -0.223530 3.385200 -0.074660 
#    z -0.398630 -0.074660 3.535250 
# 
# 
# High freq. dielectric constant tensor:
#      x y z
#    x 1.753700 -0.000690 -0.028720 
#    y -0.000690 1.725850 -0.008390 
#    z -0.028720 -0.008390 1.733100 
# 
# From -- ./inp_files/278030.got.cif
#   From: 2010.06.25/outbox.cif.g09.slc.cpg/sg2_140_cif.got.tgz:278030.got - 2010.06.27 13:26:56.
