data_PCOD8040605
_publ_section_title
;
Structure prediction by ZEFSAII (Michael W. Deem and Ramdas Pophale) SiO2 
 PCOD8040605
Probable space group: P -1
;
_chemical_formula_sum "Si O2"
_cell_formula_units_Z 12
_cell_length_a 11.679480
_cell_length_b 7.460344
_cell_length_c 9.389598
_cell_angle_alpha 70.196170
_cell_angle_beta 51.228103
_cell_angle_gamma 60.342775
_cell_volume 553.796450
_symmetry_space_group_name_H-M "P -1"
_symmetry_group_IT_number 2
_symmetry_cell_setting 'triclinic'
loop_
_space_group_symop_operation_xyz
x,y,z
-x,-y,-z
loop_
_atom_site_type_symbol
_atom_site_label
_atom_site_fract_x
_atom_site_fract_y
_atom_site_fract_z
Si Si1 0.366675 0.010543 0.432475
Si Si2 0.315699 0.640234 0.959720
Si Si3 0.958940 0.210304 0.063364
Si Si4 0.708162 0.932300 0.205594
Si Si5 0.329292 0.475276 0.295815
Si Si6 0.134727 0.841797 0.533726
O O1 0.308148 0.981639 0.643023
O O2 0.331398 0.248766 0.371553
O O3 0.556870 0.873505 0.304409
O O4 0.274612 0.928266 0.413427
O O5 0.197737 0.619074 0.933438
O O6 0.499532 0.513457 0.808139
O O7 0.294294 0.876985 0.942014
O O8 0.271085 0.552019 0.161774
O O9 0.934723 0.183585 0.254429
O O10 0.121232 0.258334 0.904374
O O11 0.000000 0.000000 0.000000
O O12 0.203153 0.618659 0.467548
O O13 0.000000 0.000000 0.500000
#
# Coordination Sequence:
#
# PCOD8040605 Si02
#       6
#     2   2   2   2   2   2
#     4  10  21  41  65  91 123 162 208 257 304 363
#     4   9  18  40  62  90 128 167 198 253 317 364
#     4  10  18  37  64  87 124 170 198 247 315 366
#     4   9  18  38  65  88 119 172 201 243 316 365
#     4  10  23  39  65  94 123 163 211 252 308 369
#     4  12  24  40  65  95 124 163 208 258 309 364
#
# _framework density 21.668610999999999
#
# number of rings (size 3 to 8) (size 9 to 14) (size 15 to 20)
#    0.000    2.000    3.333    2.000    0.000    1.333 
#    0.000   14.167    0.000    0.000    0.000    0.000 
#    0.000    0.000    0.000    0.000    0.000    0.000 
#
# Total GULP energy -148753.411438 kJ/mol
# GULP energy per Si atom -12396.117620 kJ/mol
# Density = 2.161929 g / cm^3
# Si number density = 21.668611 Si / 1000 Ang^3
#
#
#
# Elastic Constant Matrix: (Units=GPa)
#
#
# Indices 1 2 3 4 5 6 
#
# 1 148.2058 24.7665 55.8985 0.6972 -9.4403 -35.8030
# 2 24.7665 45.0844 36.8470 -3.3558 5.0582 -14.0346
# 3 55.8985 36.8470 129.8324 9.2343 0.2517 -19.7255
# 4 0.6972 -3.3558 9.2343 27.4533 -8.6875 -3.2410
# 5 -9.4403 5.0582 0.2517 -8.6875 35.9288 -2.2095
# 6 -35.8030 -14.0346 -19.7255 -3.2410 -2.2095 37.6735
#
#
#
# Elastic Compliance Matrix: (Units=1/GPa)
#
#
# Indices 1 2 3 4 5 6 
#
# 1 0.010345 -0.000681 -0.003207 0.003016 0.004082 0.008398
# 2 -0.000681 0.032446 -0.008248 0.006836 -0.002571 0.007559
# 3 -0.003207 -0.008248 0.011725 -0.005267 -0.001068 -0.000497
# 4 0.003016 0.006836 -0.005267 0.043181 0.010738 0.007000
# 5 0.004082 -0.002571 -0.001068 0.010738 0.032190 0.005174
# 6 0.008398 0.007559 -0.000497 0.007000 0.005174 0.037985
#
#
# Mechanical properties :
#
#
# Convention : Reuss Voigt Hill
#
# Bulk Modulus (GPa) = 33.06482 62.01626 47.54054
# Shear Modulus (GPa) = 24.72470 33.91848 29.32159
#
# Velocity S-wave (km/s) = 3.38159 3.96071 3.68255
# Velocity P-wave (km/s) = 5.52624 7.04264 6.33001
#
# Compressibility (1/GPa) = 0.03024362
#
# Stress axis : x y z
#
# Youngs Moduli (GPa) = 96.66096 30.82036 85.28693
#
# Poissons Ratio (x) = 0.02099 0.27355
# Poissons Ratio (y) = 0.06584 0.70344
# Poissons Ratio (z) = 0.31004 0.25421
#
# Static dielectric constant tensor:
#      x y z
#    x 4.331270 -0.541790 -0.399250 
#    y -0.541790 3.673110 0.131140 
#    z -0.399250 0.131140 4.122510 
# 
# 
# High freq. dielectric constant tensor:
#      x y z
#    x 1.854780 -0.032670 -0.013780 
#    y -0.032670 1.822210 -0.002430 
#    z -0.013780 -0.002430 1.860830 
# 
# From -- ./inp_files/156003.got.cif
#   From: 2010.06.25/outbox.cif.g09.slc.cpg/sg2_79_cif.got.tgz:156003.got - 2010.06.27 13:26:56.
