data_PCOD8040204
_publ_section_title
;
Structure prediction by ZEFSAII (Michael W. Deem and Ramdas Pophale) SiO2 
 PCOD8040204
Probable space group: P -1
;
_chemical_formula_sum "Si O2"
_cell_formula_units_Z 14
_cell_length_a 27.277369
_cell_length_b 12.152886
_cell_length_c 11.916075
_cell_angle_alpha 38.071432
_cell_angle_beta 21.718442
_cell_angle_gamma 28.072127
_cell_volume 675.800551
_symmetry_space_group_name_H-M "P -1"
_symmetry_group_IT_number 2
_symmetry_cell_setting 'triclinic'
loop_
_space_group_symop_operation_xyz
x,y,z
-x,-y,-z
loop_
_atom_site_type_symbol
_atom_site_label
_atom_site_fract_x
_atom_site_fract_y
_atom_site_fract_z
Si Si1 0.927644 0.693701 0.652827
Si Si2 0.352504 0.264732 0.639438
Si Si3 0.786240 0.373697 0.785012
Si Si4 0.757843 0.833359 0.672734
Si Si5 0.502475 0.239652 0.740322
Si Si6 0.611982 0.179976 0.317729
Si Si7 0.200320 0.368576 0.655527
O O1 0.825450 0.852817 0.631613
O O2 0.019247 0.781854 0.447660
O O3 0.082144 0.415220 0.523494
O O4 0.794992 0.715434 0.999293
O O5 0.440944 0.335881 0.473578
O O6 0.270177 0.415583 0.578369
O O7 0.500000 0.000000 0.500000
O O8 0.769618 0.529939 0.594963
O O9 0.635372 0.540543 0.063547
O O10 0.755251 0.196740 0.953150
O O11 0.689894 0.048121 0.560956
O O12 0.584517 0.866979 0.034047
O O13 0.546540 0.305528 0.479062
O O14 0.696814 0.908383 0.362255
O O15 0.000000 0.500000 0.000000
#
# Coordination Sequence:
#
# PCOD8040204 Si02
#       7
#     2   2   2   2   2   2   2
#     4  10  18  36  57  92 119 158 204 243 302 358
#     4  10  22  38  61  85 121 163 200 248 297 354
#     4  11  24  39  65  93 121 160 201 250 304 362
#     4   9  18  31  63  86 119 164 197 242 303 360
#     4  10  19  36  61  92 122 155 200 247 307 364
#     4  11  23  42  63  90 125 159 198 254 307 352
#     4  11  23  42  63  87 121 161 210 247 292 357
#
# _framework density 20.716170999999999
#
# number of rings (size 3 to 8) (size 9 to 14) (size 15 to 20)
#    0.000    1.714    2.857    3.000    2.000    1.143 
#    0.000    2.143    0.000    0.000    0.000    0.000 
#    0.000    0.000    0.000    0.000    0.000    0.000 
#
# Total GULP energy -173504.307155 kJ/mol
# GULP energy per Si atom -12393.164797 kJ/mol
# Density = 2.066902 g / cm^3
# Si number density = 20.716171 Si / 1000 Ang^3
#
#
#
# Elastic Constant Matrix: (Units=GPa)
#
#
# Indices 1 2 3 4 5 6 
#
# 1 175.8490 40.5326 74.8152 -10.9974 -17.7682 -28.2956
# 2 40.5326 41.3208 38.9404 -12.9757 -7.0140 -10.9646
# 3 74.8152 38.9404 128.6615 -12.6651 -11.4216 -5.1509
# 4 -10.9974 -12.9757 -12.6651 36.6508 -0.1816 -2.1468
# 5 -17.7682 -7.0140 -11.4216 -0.1816 36.9105 11.0999
# 6 -28.2956 -10.9646 -5.1509 -2.1468 11.0999 20.1989
#
#
#
# Elastic Compliance Matrix: (Units=1/GPa)
#
#
# Indices 1 2 3 4 5 6 
#
# 1 0.010195 -0.001764 -0.004802 0.001513 -0.000710 0.012650
# 2 -0.001764 0.045848 -0.010845 0.013246 -0.002109 0.022218
# 3 -0.004802 -0.010845 0.013564 -0.001222 0.003128 -0.011003
# 4 0.001513 0.013246 -0.001222 0.032760 -0.000868 0.012957
# 5 -0.000710 -0.002109 0.003128 -0.000868 0.033238 -0.019699
# 6 0.012650 0.022218 -0.011003 0.012957 -0.019699 0.088686
#
#
# Mechanical properties :
#
#
# Convention : Reuss Voigt Hill
#
# Bulk Modulus (GPa) = 28.74712 72.71197 50.72954
# Shear Modulus (GPa) = 18.47025 31.52158 24.99592
#
# Velocity S-wave (km/s) = 2.98918 3.90499 3.47737
# Velocity P-wave (km/s) = 5.08138 7.45032 6.37682
#
# Compressibility (1/GPa) = 0.03478610
#
# Stress axis : x y z
#
# Youngs Moduli (GPa) = 98.09157 21.81122 73.72653
#
# Poissons Ratio (x) = 0.03846 0.35403
# Poissons Ratio (y) = 0.17299 0.79953
# Poissons Ratio (z) = 0.47103 0.23653
#
# Static dielectric constant tensor:
#      x y z
#    x 4.743660 -0.188290 -0.321840 
#    y -0.188290 3.387450 0.079350 
#    z -0.321840 0.079350 3.947490 
# 
# 
# High freq. dielectric constant tensor:
#      x y z
#    x 1.833920 -0.010550 -0.000500 
#    y -0.010550 1.769360 0.014660 
#    z -0.000500 0.014660 1.819670 
# 
# From -- ./inp_files/168013.got.cif
#   From: 2010.06.25/outbox.cif.g09.slc.cpg/sg2_85_cif.got.tgz:168013.got - 2010.06.27 13:26:56.
