data_PCOD8040040
_publ_section_title
;
Structure prediction by ZEFSAII (Michael W. Deem and Ramdas Pophale) SiO2 
 PCOD8040040
Probable space group: P -1
;
_chemical_formula_sum "Si O2"
_cell_formula_units_Z 14
_cell_length_a 7.011605
_cell_length_b 11.727494
_cell_length_c 14.522093
_cell_angle_alpha 58.034252
_cell_angle_beta 99.758436
_cell_angle_gamma 53.636563
_cell_volume 576.472193
_symmetry_space_group_name_H-M "P -1"
_symmetry_group_IT_number 2
_symmetry_cell_setting 'triclinic'
loop_
_space_group_symop_operation_xyz
x,y,z
-x,-y,-z
loop_
_atom_site_type_symbol
_atom_site_label
_atom_site_fract_x
_atom_site_fract_y
_atom_site_fract_z
Si Si1 0.303197 0.254771 0.079999
Si Si2 0.572692 0.048706 0.898681
Si Si3 0.204743 0.854766 0.312823
Si Si4 0.563595 0.394915 0.305937
Si Si5 0.798572 0.028755 0.363194
Si Si6 0.292404 0.808531 0.013569
Si Si7 0.140005 0.590232 0.367049
O O1 0.558543 0.073626 0.261436
O O2 0.202130 0.170241 0.059775
O O3 0.475269 0.253277 0.017996
O O4 0.000000 0.500000 0.000000
O O5 0.758741 0.073382 0.947622
O O6 0.212771 0.288299 0.720232
O O7 0.500000 0.000000 0.000000
O O8 0.090321 0.763625 0.334398
O O9 0.605061 0.641980 0.449253
O O10 0.016207 0.008483 0.324738
O O11 0.076375 0.007499 0.145917
O O12 0.569781 0.250228 0.314958
O O13 0.459326 0.573711 0.153467
O O14 0.287522 0.534624 0.301964
O O15 0.936702 0.213343 0.454872
#
# Coordination Sequence:
#
# PCOD8040040 Si02
#       7
#     2   2   2   2   2   2   2
#     4  10  21  37  62  80 115 159 192 227 292 349
#     4  10  19  37  59  86 115 152 191 237 284 348
#     4   9  18  34  58  84 111 153 190 237 273 349
#     4  10  22  35  62  88 114 150 190 248 284 341
#     4   9  19  39  58  81 116 154 195 227 295 347
#     4  10  21  39  58  90 119 143 199 246 279 337
#     4  10  18  35  62  82 113 156 193 223 296 347
#
# _framework density 24.285646
#
# number of rings (size 3 to 8) (size 9 to 14) (size 15 to 20)
#    0.000    2.286    4.286    0.000    4.000    2.857 
#    0.000    2.857    3.143    0.000    0.000    0.000 
#    0.000    0.000    0.000    0.000    0.000    0.000 
#
# Total GULP energy -173471.776916 kJ/mol
# GULP energy per Si atom -12390.841208 kJ/mol
# Density = 2.423037 g / cm^3
# Si number density = 24.285646 Si / 1000 Ang^3
#
#
#
# Elastic Constant Matrix: (Units=GPa)
#
#
# Indices 1 2 3 4 5 6 
#
# 1 60.8355 25.5542 49.0122 3.1136 8.7199 7.6561
# 2 25.5542 135.1865 45.7933 -7.0776 17.6193 -8.6337
# 3 49.0122 45.7933 209.4002 -1.1172 9.2958 4.7935
# 4 3.1136 -7.0776 -1.1172 38.6975 -0.2873 1.0600
# 5 8.7199 17.6193 9.2958 -0.2873 33.9341 8.6187
# 6 7.6561 -8.6337 4.7935 1.0600 8.6187 24.1694
#
#
#
# Elastic Compliance Matrix: (Units=1/GPa)
#
#
# Indices 1 2 3 4 5 6 
#
# 1 0.022434 -0.003164 -0.004361 -0.002331 -0.001210 -0.006838
# 2 -0.003164 0.009657 -0.001268 0.001763 -0.005513 0.006592
# 3 -0.004361 -0.001268 0.006074 0.000306 0.000210 -0.000365
# 4 -0.002331 0.001763 0.000306 0.026352 -0.000237 0.000236
# 5 -0.001210 -0.005513 0.000210 -0.000237 0.036279 -0.014554
# 6 -0.006838 0.006592 -0.000365 0.000236 -0.014554 0.051147
#
#
# Mechanical properties :
#
#
# Convention : Reuss Voigt Hill
#
# Bulk Modulus (GPa) = 48.59575 71.79349 60.19462
# Shear Modulus (GPa) = 28.34643 38.36436 33.35540
#
# Velocity S-wave (km/s) = 3.42015 3.97887 3.71004
# Velocity P-wave (km/s) = 5.97077 7.12284 6.57210
#
# Compressibility (1/GPa) = 0.02057793
#
# Stress axis : x y z
#
# Youngs Moduli (GPa) = 44.57558 103.55594 164.63070
#
# Poissons Ratio (x) = 0.32770 0.71796
# Poissons Ratio (y) = 0.14106 0.20873
# Poissons Ratio (z) = 0.19439 0.13130
#
# Static dielectric constant tensor:
#      x y z
#    x 5.288330 0.545040 1.280160 
#    y 0.545040 4.965640 0.670120 
#    z 1.280160 0.670120 5.718280 
# 
# 
# High freq. dielectric constant tensor:
#      x y z
#    x 1.925180 -0.018300 0.016870 
#    y -0.018300 1.987110 0.014260 
#    z 0.016870 0.014260 1.989690 
# 
# From -- ./inp_files/332806.got.cif
#   From: 2010.06.25/outbox.cif.g09.slc.cpg/sg2_167_cif.got.tgz:332806.got - 2010.06.27 13:26:56.
