data_PCOD8040150
_publ_section_title
;
Structure prediction by ZEFSAII (Michael W. Deem and Ramdas Pophale) SiO2 
 PCOD8040150
Probable space group: P -1
;
_chemical_formula_sum "Si O2"
_cell_formula_units_Z 16
_cell_length_a 8.962722
_cell_length_b 14.007500
_cell_length_c 14.455545
_cell_angle_alpha 119.852840
_cell_angle_beta 39.502219
_cell_angle_gamma 90.736914
_cell_volume 740.681802
_symmetry_space_group_name_H-M "P -1"
_symmetry_group_IT_number 2
_symmetry_cell_setting 'triclinic'
loop_
_space_group_symop_operation_xyz
x,y,z
-x,-y,-z
loop_
_atom_site_type_symbol
_atom_site_label
_atom_site_fract_x
_atom_site_fract_y
_atom_site_fract_z
Si Si1 0.590829 0.853905 0.844276
Si Si2 0.421216 0.632437 0.162367
Si Si3 0.691827 0.846541 0.384421
Si Si4 0.366600 0.371494 0.749811
Si Si5 0.239473 0.588435 0.500310
Si Si6 0.597595 0.310332 0.076973
Si Si7 0.244472 0.214471 0.469773
Si Si8 0.092648 0.451638 0.230381
O O1 0.360985 0.832241 0.986580
O O2 0.539669 0.874837 0.767190
O O3 0.951860 0.707109 0.624824
O O4 0.500000 0.000000 0.000000
O O5 0.468846 0.609297 0.238186
O O6 0.054621 0.775064 0.389645
O O7 0.500000 0.500000 0.000000
O O8 0.670961 0.648675 0.017645
O O9 0.563225 0.779050 0.361178
O O10 0.591485 0.868601 0.551339
O O11 0.500000 0.000000 0.500000
O O12 0.069390 0.744230 0.143197
O O13 0.522466 0.381921 0.589919
O O14 0.000000 0.500000 0.000000
O O15 0.457198 0.416220 0.284277
O O16 0.095419 0.599349 0.674601
O O17 0.329606 0.416727 0.180435
O O18 0.142760 0.374556 0.598669
#
# Coordination Sequence:
#
# PCOD8040150 Si02
#       8
#     2   2   2   2   2   2   2   2
#     4  11  23  39  71 105 134 172 231 289 340 398
#     4  10  19  35  66 102 129 162 230 284 324 388
#     4  12  29  46  65  95 145 191 223 276 350 411
#     4  12  23  41  68 100 137 182 224 275 340 410
#     4  11  20  39  66 103 135 167 222 283 341 398
#     4  11  20  42  68  98 138 174 220 283 343 398
#     4  11  20  43  69  94 132 183 227 278 336 400
#     4  10  18  35  69 106 121 164 228 285 332 386
#
# _framework density 21.601718000000002
#
# number of rings (size 3 to 8) (size 9 to 14) (size 15 to 20)
#    0.000    1.000    6.250    3.000    1.750    0.000 
#    4.500    5.625    0.000    0.000    0.000    0.000 
#    0.000    0.000    0.000    0.000    0.000    0.000 
#
# Total GULP energy -198225.096545 kJ/mol
# GULP energy per Si atom -12389.068534 kJ/mol
# Density = 2.155255 g / cm^3
# Si number density = 21.601718 Si / 1000 Ang^3
#
#
#
# Elastic Constant Matrix: (Units=GPa)
#
#
# Indices 1 2 3 4 5 6 
#
# 1 74.7840 45.4074 16.5302 4.5421 7.0135 -2.1126
# 2 45.4074 153.3406 45.2465 -12.6061 1.5097 6.5673
# 3 16.5302 45.2465 58.4885 -15.7215 2.0058 4.0854
# 4 4.5421 -12.6061 -15.7215 46.4116 4.6356 -3.1449
# 5 7.0135 1.5097 2.0058 4.6356 29.0879 -4.4852
# 6 -2.1126 6.5673 4.0854 -3.1449 -4.4852 44.0318
#
#
#
# Elastic Compliance Matrix: (Units=1/GPa)
#
#
# Indices 1 2 3 4 5 6 
#
# 1 0.017257 -0.004804 -0.002023 -0.003293 -0.003065 0.001185
# 2 -0.004804 0.009807 -0.005920 0.000987 0.000747 -0.000998
# 3 -0.002023 -0.005920 0.024274 0.006949 -0.002170 -0.001191
# 4 -0.003293 0.000987 0.006949 0.024884 -0.003632 0.000458
# 5 -0.003065 0.000747 -0.002170 -0.003632 0.036329 0.003384
# 6 0.001185 -0.000998 -0.001191 0.000458 0.003384 0.023404
#
#
# Mechanical properties :
#
#
# Convention : Reuss Voigt Hill
#
# Bulk Modulus (GPa) = 38.69455 55.66460 47.17957
# Shear Modulus (GPa) = 29.40037 35.86819 32.63428
#
# Velocity S-wave (km/s) = 3.69320 4.07926 3.89102
# Velocity P-wave (km/s) = 6.01148 6.92905 6.48651
#
# Compressibility (1/GPa) = 0.02584344
#
# Stress axis : x y z
#
# Youngs Moduli (GPa) = 57.94706 101.96391 41.19599
#
# Poissons Ratio (x) = 0.48988 0.08335
# Poissons Ratio (y) = 0.27840 0.24387
# Poissons Ratio (z) = 0.11725 0.60361
#
# Static dielectric constant tensor:
#      x y z
#    x 17.572300 2.334350 0.992010 
#    y 2.334350 4.653730 -0.525930 
#    z 0.992010 -0.525930 4.217800 
# 
# 
# High freq. dielectric constant tensor:
#      x y z
#    x 1.822610 -0.001610 -0.000570 
#    y -0.001610 1.854860 -0.037790 
#    z -0.000570 -0.037790 1.836780 
# 
# From -- ./inp_files/504169.got.cif
#   From: 2010.06.25/outbox.cif.g09.slc.cpg/sg2_253_cif.got.tgz:504169.got - 2010.06.27 13:26:56.
