data_PCOD8040810
_publ_section_title
;
Structure prediction by ZEFSAII (Michael W. Deem and Ramdas Pophale) SiO2 
 PCOD8040810
Probable space group: P -1
;
_chemical_formula_sum "Si O2"
_cell_formula_units_Z 14
_cell_length_a 8.473775
_cell_length_b 11.582484
_cell_length_c 7.249797
_cell_angle_alpha 109.127682
_cell_angle_beta 124.736015
_cell_angle_gamma 71.657606
_cell_volume 544.899698
_symmetry_space_group_name_H-M "P -1"
_symmetry_group_IT_number 2
_symmetry_cell_setting 'triclinic'
loop_
_space_group_symop_operation_xyz
x,y,z
-x,-y,-z
loop_
_atom_site_type_symbol
_atom_site_label
_atom_site_fract_x
_atom_site_fract_y
_atom_site_fract_z
Si Si1 0.890930 0.319085 0.340644
Si Si2 0.502578 0.761253 0.361829
Si Si3 0.215716 0.071082 0.866166
Si Si4 0.824369 0.909348 0.735152
Si Si5 0.195781 0.877925 0.464992
Si Si6 0.490548 0.754742 0.942388
Si Si7 0.765760 0.570919 0.234402
O O1 0.787020 0.422219 0.177809
O O2 0.009611 0.208711 0.247940
O O3 0.022035 0.385921 0.601523
O O4 0.710770 0.271023 0.310464
O O5 0.615272 0.869724 0.556304
O O6 0.339100 0.760336 0.410944
O O7 0.415754 0.801549 0.121410
O O8 0.647244 0.629308 0.370242
O O9 0.393520 0.147887 0.026831
O O10 0.027431 0.148134 0.668261
O O11 0.278666 0.937388 0.736643
O O12 0.155006 0.042402 0.018082
O O13 0.837431 0.014997 0.653946
O O14 0.644744 0.625217 0.000563
#
# Coordination Sequence:
#
# PCOD8040810 Si02
#       7
#     2   2   2   2   2   2   2
#     4  10  18  38  69  90 122 163 209 246 320 365
#     4   9  20  39  63  83 127 158 206 252 310 355
#     4  11  24  38  60  91 125 161 216 244 318 361
#     4  11  22  40  60  92 123 166 207 253 303 383
#     4  11  22  44  58  86 130 167 201 265 296 373
#     4  10  20  39  61  94 124 158 204 263 302 371
#     4   8  19  37  68  93 116 165 206 255 303 379
#
# _framework density 25.692799999999998
#
# number of rings (size 3 to 8) (size 9 to 14) (size 15 to 20)
#    0.857    1.143    1.429    2.143    0.000    0.571 
#    7.714    0.714    0.000    2.571    0.000    0.000 
#    0.000    0.000    0.000    0.000    0.000    0.000 
#
# Total GULP energy -173465.776692 kJ/mol
# GULP energy per Si atom -12390.412621 kJ/mol
# Density = 2.563432 g / cm^3
# Si number density = 25.692800 Si / 1000 Ang^3
#
#
#
# Elastic Constant Matrix: (Units=GPa)
#
#
# Indices 1 2 3 4 5 6 
#
# 1 126.4899 45.8494 44.8592 3.2967 11.4909 -2.1065
# 2 45.8494 108.0250 4.8142 13.7636 0.5606 -3.7352
# 3 44.8592 4.8142 83.8928 0.9760 12.4713 -1.1941
# 4 3.2967 13.7636 0.9760 13.0960 -3.3756 7.8980
# 5 11.4909 0.5606 12.4713 -3.3756 65.2389 -4.4634
# 6 -2.1065 -3.7352 -1.1941 7.8980 -4.4634 32.5863
#
#
#
# Elastic Compliance Matrix: (Units=1/GPa)
#
#
# Indices 1 2 3 4 5 6 
#
# 1 0.011901 -0.005238 -0.005997 0.003334 -0.000798 -0.000968
# 2 -0.005238 0.013652 0.002302 -0.016411 -0.000123 0.005271
# 3 -0.005997 0.002302 0.015340 -0.003123 -0.001995 0.000922
# 4 0.003334 -0.016411 -0.003123 0.110994 0.003969 -0.028138
# 5 -0.000798 -0.000123 -0.001995 0.003969 0.016132 0.001109
# 6 -0.000968 0.005271 0.000922 -0.028138 0.001109 0.038235
#
#
# Mechanical properties :
#
#
# Convention : Reuss Voigt Hill
#
# Bulk Modulus (GPa) = 43.42797 56.60593 50.01695
# Shear Modulus (GPa) = 21.57077 37.04324 29.30700
#
# Velocity S-wave (km/s) = 2.90067 3.80119 3.38104
# Velocity P-wave (km/s) = 5.30641 6.43001 5.89504
#
# Compressibility (1/GPa) = 0.02302663
#
# Stress axis : x y z
#
# Youngs Moduli (GPa) = 84.02896 73.25151 65.18700
#
# Poissons Ratio (x) = 0.38369 0.39092
# Poissons Ratio (y) = 0.44014 -0.15004
# Poissons Ratio (z) = 0.50391 -0.16861
#
# Static dielectric constant tensor:
#      x y z
#    x 4.889200 -0.102460 0.436490 
#    y -0.102460 4.631450 -0.211560 
#    z 0.436490 -0.211560 4.719790 
# 
# 
# High freq. dielectric constant tensor:
#      x y z
#    x 2.028140 -0.007280 0.036850 
#    y -0.007280 2.022410 -0.018020 
#    z 0.036850 -0.018020 2.024520 
# 
# From -- ./inp_files/165759.got.cif
#   From: 2010.06.25/outbox.cif.g09.slc.cpg/sg2_83_cif.got.tgz:165759.got - 2010.06.27 13:26:56.
