data_PCOD8040523
_publ_section_title
;
Structure prediction by ZEFSAII (Michael W. Deem and Ramdas Pophale) SiO2 
 PCOD8040523
Probable space group: P -1
;
_chemical_formula_sum "Si O2"
_cell_formula_units_Z 14
_cell_length_a 12.535942
_cell_length_b 12.275634
_cell_length_c 8.261992
_cell_angle_alpha 69.222794
_cell_angle_beta 127.444843
_cell_angle_gamma 140.288850
_cell_volume 628.736785
_symmetry_space_group_name_H-M "P -1"
_symmetry_group_IT_number 2
_symmetry_cell_setting 'triclinic'
loop_
_space_group_symop_operation_xyz
x,y,z
-x,-y,-z
loop_
_atom_site_type_symbol
_atom_site_label
_atom_site_fract_x
_atom_site_fract_y
_atom_site_fract_z
Si Si1 0.216447 0.152655 0.543481
Si Si2 0.236063 0.652792 0.146781
Si Si3 0.753498 0.099143 0.871826
Si Si4 0.688839 0.565417 0.051649
Si Si5 0.459812 0.763519 0.986838
Si Si6 0.078979 0.945973 0.214779
Si Si7 0.206773 0.376682 0.250017
O O1 0.374852 0.208580 0.786847
O O2 0.273475 0.323936 0.469548
O O3 0.218865 0.083171 0.414550
O O4 0.000000 0.000000 0.500000
O O5 0.298762 0.796320 0.253946
O O6 0.325783 0.745150 0.004526
O O7 0.301474 0.562278 0.299338
O O8 0.000000 0.500000 0.000000
O O9 0.776330 0.050011 0.748265
O O10 0.962270 0.220807 0.100019
O O11 0.564127 0.922296 0.882706
O O12 0.889583 0.751782 0.216922
O O13 0.500000 0.500000 0.000000
O O14 0.679467 0.418765 0.145580
O O15 0.703102 0.599093 0.854339
O O16 0.000000 0.000000 0.000000
#
# Coordination Sequence:
#
# PCOD8040523 Si02
#       7
#     2   2   2   2   2   2   2
#     4  12  21  36  60  92 126 149 187 248 306 355
#     4   9  20  37  58  85 114 157 202 246 279 347
#     4  10  18  37  61  82 113 157 204 240 281 353
#     4  10  19  32  52  84 119 148 194 233 283 353
#     4  11  22  34  60  94 115 152 201 243 300 343
#     4  11  20  37  58  83 120 160 192 238 299 349
#     4   9  19  34  56  85 118 152 192 237 299 337
#
# _framework density 22.266870000000001
#
# number of rings (size 3 to 8) (size 9 to 14) (size 15 to 20)
#    0.000    1.714    4.286    3.000    0.000    2.286 
#    0.000    0.714    0.000    0.857    3.714    0.000 
#    0.000    0.000    0.000    0.000    0.000    0.000 
#
# Total GULP energy -173513.539318 kJ/mol
# GULP energy per Si atom -12393.824237 kJ/mol
# Density = 2.221619 g / cm^3
# Si number density = 22.266870 Si / 1000 Ang^3
#
#
#
# Elastic Constant Matrix: (Units=GPa)
#
#
# Indices 1 2 3 4 5 6 
#
# 1 150.8807 58.0720 -3.8289 -15.6819 -6.9088 -5.4361
# 2 58.0720 163.0026 14.0351 -17.3676 -4.7570 -7.3766
# 3 -3.8289 14.0351 27.1637 -6.7609 2.9700 -11.3792
# 4 -15.6819 -17.3676 -6.7609 24.5338 1.2743 0.7838
# 5 -6.9088 -4.7570 2.9700 1.2743 14.1919 1.6617
# 6 -5.4361 -7.3766 -11.3792 0.7838 1.6617 61.4934
#
#
#
# Elastic Compliance Matrix: (Units=1/GPa)
#
#
# Indices 1 2 3 4 5 6 
#
# 1 0.008358 -0.002752 0.003914 0.004346 0.001817 0.001029
# 2 -0.002752 0.007784 -0.004045 0.002542 0.001904 -0.000142
# 3 0.003914 -0.004045 0.047690 0.013103 -0.011641 0.008833
# 4 0.004346 0.002542 0.013103 0.049098 -0.004489 0.002609
# 5 0.001817 0.001904 -0.011641 -0.004489 0.075262 -0.003742
# 6 0.001029 -0.000142 0.008833 0.002609 -0.003742 0.018038
#
#
# Mechanical properties :
#
#
# Convention : Reuss Voigt Hill
#
# Bulk Modulus (GPa) = 17.22174 53.06705 35.14439
# Shear Modulus (GPa) = 21.61218 38.22842 29.92030
#
# Velocity S-wave (km/s) = 3.11882 4.14796 3.66965
# Velocity P-wave (km/s) = 4.55197 6.84286 5.81142
#
# Compressibility (1/GPa) = 0.05806614
#
# Stress axis : x y z
#
# Youngs Moduli (GPa) = 119.64204 128.47511 20.96889
#
# Poissons Ratio (x) = 0.35359 -0.08207
# Poissons Ratio (y) = 0.32928 0.08481
# Poissons Ratio (z) = -0.46828 0.51962
#
# Static dielectric constant tensor:
#      x y z
#    x 4.510920 -0.370470 -0.075660 
#    y -0.370470 4.933650 0.122590 
#    z -0.075660 0.122590 3.382150 
# 
# 
# High freq. dielectric constant tensor:
#      x y z
#    x 1.897460 0.001450 -0.005500 
#    y 0.001450 1.913250 0.002910 
#    z -0.005500 0.002910 1.801090 
# 
# From -- ./inp_files/169906.got.cif
#   From: 2010.06.25/outbox.cif.g09.slc.cpg/sg2_85_cif.got.tgz:169906.got - 2010.06.27 13:26:56.
