data_PCOD8040563
_publ_section_title
;
Structure prediction by ZEFSAII (Michael W. Deem and Ramdas Pophale) SiO2 
 PCOD8040563
Probable space group: P -1
;
_chemical_formula_sum "Si O2"
_cell_formula_units_Z 16
_cell_length_a 9.151364
_cell_length_b 18.170935
_cell_length_c 13.193778
_cell_angle_alpha 157.385277
_cell_angle_beta 95.291544
_cell_angle_gamma 97.823068
_cell_volume 685.622023
_symmetry_space_group_name_H-M "P -1"
_symmetry_group_IT_number 2
_symmetry_cell_setting 'triclinic'
loop_
_space_group_symop_operation_xyz
x,y,z
-x,-y,-z
loop_
_atom_site_type_symbol
_atom_site_label
_atom_site_fract_x
_atom_site_fract_y
_atom_site_fract_z
Si Si1 0.193761 0.751473 0.634534
Si Si2 0.148092 0.709912 0.906369
Si Si3 0.288917 0.832376 0.286904
Si Si4 0.890789 0.979677 0.370007
Si Si5 0.925246 0.699559 0.398526
Si Si6 0.120108 0.984224 0.078006
Si Si7 0.373156 0.515989 0.372246
Si Si8 0.282573 0.426955 0.487192
O O1 0.362020 0.731634 0.610198
O O2 0.050970 0.530604 0.415918
O O3 0.107877 0.737394 0.501916
O O4 0.243141 0.983527 0.994784
O O5 0.289284 0.651276 0.809947
O O6 0.193487 0.823330 0.164794
O O7 0.153787 0.889461 0.060290
O O8 0.500000 0.000000 0.500000
O O9 0.234318 0.934024 0.502281
O O10 0.223303 0.570729 0.982091
O O11 0.771653 0.709920 0.988417
O O12 0.000000 0.000000 0.500000
O O13 0.025636 0.140037 0.492395
O O14 0.837798 0.765692 0.566498
O O15 0.910147 0.820429 0.819428
O O16 0.327566 0.452859 0.405852
O O17 0.572376 0.584023 0.451807
#
# Coordination Sequence:
#
# PCOD8040563 Si02
#       8
#     2   2   2   2   2   2   2   2
#     4  10  19  35  61  95 129 166 213 265 325 404
#     4  10  18  37  62  91 123 171 224 262 322 401
#     4  11  25  43  65  94 128 177 229 284 331 381
#     4  12  24  44  69  94 133 184 230 269 323 403
#     4  11  23  40  66  97 132 174 228 276 330 395
#     4  11  18  37  62  95 128 175 213 269 328 406
#     4  11  20  36  61  97 126 173 218 266 333 387
#     4  10  19  33  64  92 131 163 217 272 331 386
#
# _framework density 23.336473999999999
#
# number of rings (size 3 to 8) (size 9 to 14) (size 15 to 20)
#    0.000    1.250    3.750    4.500    0.000    0.000 
#    0.000    3.125    0.000   12.000    0.000    0.000 
#    0.000    0.000    0.000    0.000    0.000    0.000 
#
# Total GULP energy -198418.139143 kJ/mol
# GULP energy per Si atom -12401.133696 kJ/mol
# Density = 2.328336 g / cm^3
# Si number density = 23.336474 Si / 1000 Ang^3
#
#
#
# Elastic Constant Matrix: (Units=GPa)
#
#
# Indices 1 2 3 4 5 6 
#
# 1 133.9071 25.1632 40.2265 1.6190 -21.4027 -18.1631
# 2 25.1632 89.7278 30.0869 -2.3184 -2.6812 -17.2406
# 3 40.2265 30.0869 90.0049 2.9349 -24.6913 -4.8035
# 4 1.6190 -2.3184 2.9349 27.6231 1.6316 -5.9163
# 5 -21.4027 -2.6812 -24.6913 1.6316 40.5344 -2.3959
# 6 -18.1631 -17.2406 -4.8035 -5.9163 -2.3959 37.4544
#
#
#
# Elastic Compliance Matrix: (Units=1/GPa)
#
#
# Indices 1 2 3 4 5 6 
#
# 1 0.009603 -0.000820 -0.002840 0.000361 0.003520 0.004197
# 2 -0.000820 0.014098 -0.004729 0.003112 -0.002161 0.005839
# 3 -0.002840 -0.004729 0.016191 -0.002726 0.008078 -0.001391
# 4 0.000361 0.003112 -0.002726 0.038408 -0.002386 0.007172
# 5 0.003520 -0.002161 0.008078 -0.002386 0.031603 0.003393
# 6 0.004197 0.005839 -0.001391 0.007172 0.003393 0.032594
#
#
# Mechanical properties :
#
#
# Convention : Reuss Voigt Hill
#
# Bulk Modulus (GPa) = 43.26279 56.06591 49.66435
# Shear Modulus (GPa) = 29.94376 35.66659 32.80518
#
# Velocity S-wave (km/s) = 3.58597 3.91367 3.75340
# Velocity P-wave (km/s) = 5.97700 6.67080 6.33341
#
# Compressibility (1/GPa) = 0.02311455
#
# Stress axis : x y z
#
# Youngs Moduli (GPa) = 104.13912 70.93126 61.76143
#
# Poissons Ratio (x) = 0.05814 0.17540
# Poissons Ratio (y) = 0.08536 0.29208
# Poissons Ratio (z) = 0.29575 0.33544
#
# Static dielectric constant tensor:
#      x y z
#    x 4.584930 -0.095220 -0.406500 
#    y -0.095220 4.183720 -0.093600 
#    z -0.406500 -0.093600 4.367980 
# 
# 
# High freq. dielectric constant tensor:
#      x y z
#    x 1.927700 -0.012060 -0.028900 
#    y -0.012060 1.929970 -0.001590 
#    z -0.028900 -0.001590 1.919440 
# 
# From -- ./inp_files/508201.got.cif
#   From: 2010.06.25/outbox.cif.g09.slc.cpg/sg2_255_cif.got.tgz:508201.got - 2010.06.27 13:26:56.
