data_PCOD8040842
_publ_section_title
;
Structure prediction by ZEFSAII (Michael W. Deem and Ramdas Pophale) SiO2 
 PCOD8040842
Probable space group: P -1
;
_chemical_formula_sum "Si O2"
_cell_formula_units_Z 16
_cell_length_a 12.258013
_cell_length_b 18.830792
_cell_length_c 12.144136
_cell_angle_alpha 159.870746
_cell_angle_beta 122.826219
_cell_angle_gamma 57.639389
_cell_volume 807.299428
_symmetry_space_group_name_H-M "P -1"
_symmetry_group_IT_number 2
_symmetry_cell_setting 'triclinic'
loop_
_space_group_symop_operation_xyz
x,y,z
-x,-y,-z
loop_
_atom_site_type_symbol
_atom_site_label
_atom_site_fract_x
_atom_site_fract_y
_atom_site_fract_z
Si Si1 0.045854 0.865152 0.639027
Si Si2 0.465283 0.387399 0.654327
Si Si3 0.819657 0.563209 0.940982
Si Si4 0.694291 0.334693 0.866925
Si Si5 0.904046 0.969681 0.502225
Si Si6 0.695930 0.962984 0.880520
Si Si7 0.191174 0.281419 0.602374
Si Si8 0.569011 0.390534 0.478776
O O1 0.081583 0.639769 0.272134
O O2 0.951817 0.806622 0.603462
O O3 0.970392 0.010768 0.717055
O O4 0.165041 0.985058 0.920029
O O5 0.603060 0.302599 0.663411
O O6 0.358279 0.222818 0.352463
O O7 0.489993 0.442084 0.621758
O O8 0.403753 0.592794 0.981976
O O9 0.708366 0.473646 0.680280
O O10 0.766196 0.681760 0.194999
O O11 0.874915 0.730043 0.133290
O O12 0.772302 0.120361 0.633462
O O13 0.798910 0.502580 0.143408
O O14 0.000000 0.000000 0.500000
O O15 0.712129 0.894580 0.661460
O O16 0.585428 0.148847 0.106112
O O17 0.500000 0.500000 0.500000
#
# Coordination Sequence:
#
# PCOD8040842 Si02
#       8
#     2   2   2   2   2   2   2   2
#     4  10  21  38  59  89 124 157 195 251 311 358
#     4  10  22  42  61  85 125 163 201 245 302 363
#     4  10  21  38  59  85 122 159 200 247 301 360
#     4  10  21  38  65  92 115 159 209 252 293 349
#     4  11  22  34  61  94 118 153 206 253 295 356
#     4  10  23  38  62  87 119 161 196 245 315 361
#     4  10  18  39  62  84 114 161 199 241 302 360
#     4  11  24  39  58  88 121 158 200 249 300 358
#
# _framework density 19.819163
#
# number of rings (size 3 to 8) (size 9 to 14) (size 15 to 20)
#    0.000    1.750    1.250    3.750    3.500    3.000 
#    0.000    3.750    0.000    0.000    0.000    0.000 
#    0.000    0.000    0.000    0.000    0.000    0.000 
#
# Total GULP energy -198308.409255 kJ/mol
# GULP energy per Si atom -12394.275578 kJ/mol
# Density = 1.977405 g / cm^3
# Si number density = 19.819163 Si / 1000 Ang^3
#
#
#
# Elastic Constant Matrix: (Units=GPa)
#
#
# Indices 1 2 3 4 5 6 
#
# 1 103.7476 45.7733 31.5976 7.5441 -1.0940 16.2491
# 2 45.7733 109.8070 34.2248 16.7625 -11.4356 6.7372
# 3 31.5976 34.2248 84.0622 1.5319 2.2865 4.6601
# 4 7.5441 16.7625 1.5319 18.1800 3.1481 -5.3124
# 5 -1.0940 -11.4356 2.2865 3.1481 37.1400 -1.1501
# 6 16.2491 6.7372 4.6601 -5.3124 -1.1501 32.7970
#
#
#
# Elastic Compliance Matrix: (Units=1/GPa)
#
#
# Indices 1 2 3 4 5 6 
#
# 1 0.013447 -0.003780 -0.003105 -0.003515 -0.000465 -0.006030
# 2 -0.003780 0.014884 -0.004410 -0.013534 0.005811 -0.002547
# 3 -0.003105 -0.004410 0.014786 0.004886 -0.002741 0.001038
# 4 -0.003515 -0.013534 0.004886 0.074896 -0.010437 0.015593
# 5 -0.000465 0.005811 -0.002741 -0.010437 0.029716 -0.001222
# 6 -0.006030 -0.002547 0.001038 0.015593 -0.001222 0.036337
#
#
# Mechanical properties :
#
#
# Convention : Reuss Voigt Hill
#
# Bulk Modulus (GPa) = 48.70926 57.86760 53.28843
# Shear Modulus (GPa) = 23.41948 30.02480 26.72214
#
# Velocity S-wave (km/s) = 3.44125 3.89644 3.67590
# Velocity P-wave (km/s) = 6.35766 7.03592 6.70537
#
# Compressibility (1/GPa) = 0.02052998
#
# Stress axis : x y z
#
# Youngs Moduli (GPa) = 74.36534 67.18461 67.63064
#
# Poissons Ratio (x) = 0.25393 0.20997
# Poissons Ratio (y) = 0.28107 0.29822
# Poissons Ratio (z) = 0.23088 0.29625
#
# Static dielectric constant tensor:
#      x y z
#    x 3.783990 0.088770 -0.046950 
#    y 0.088770 3.316220 -0.006990 
#    z -0.046950 -0.006990 3.883820 
# 
# 
# High freq. dielectric constant tensor:
#      x y z
#    x 1.790320 0.003170 0.008300 
#    y 0.003170 1.746530 -0.007210 
#    z 0.008300 -0.007210 1.779600 
# 
# From -- ./inp_files/186652.got.cif
#   From: 2010.06.25/outbox.cif.g09.slc.cpg/sg2_94_cif.got.tgz:186652.got - 2010.06.27 13:26:56.
