data_PCOD8040032
_publ_section_title
;
Structure prediction by ZEFSAII (Michael W. Deem and Ramdas Pophale) SiO2 
 PCOD8040032
Probable space group: P -1
;
_chemical_formula_sum "Si O2"
_cell_formula_units_Z 16
_cell_length_a 12.702399
_cell_length_b 18.997682
_cell_length_c 8.194159
_cell_angle_alpha 32.478670
_cell_angle_beta 57.451642
_cell_angle_gamma 46.714226
_cell_volume 768.812285
_symmetry_space_group_name_H-M "P -1"
_symmetry_group_IT_number 2
_symmetry_cell_setting 'triclinic'
loop_
_space_group_symop_operation_xyz
x,y,z
-x,-y,-z
loop_
_atom_site_type_symbol
_atom_site_label
_atom_site_fract_x
_atom_site_fract_y
_atom_site_fract_z
Si Si1 0.472108 0.865775 0.239393
Si Si2 0.658395 0.966480 0.270218
Si Si3 0.564727 0.767202 0.863743
Si Si4 0.680882 0.175451 0.262760
Si Si5 0.089014 0.180733 0.230974
Si Si6 0.901016 0.289386 0.852091
Si Si7 0.744670 0.636163 0.261159
Si Si8 0.031383 0.135442 0.701619
O O1 0.420716 0.792243 0.560956
O O2 0.614827 0.722180 0.328406
O O3 0.500000 0.000000 0.000000
O O4 0.333664 0.959419 0.051315
O O5 0.644926 0.813758 0.566436
O O6 0.796426 0.933704 0.323281
O O7 0.504404 0.093190 0.224945
O O8 0.435153 0.747155 0.940660
O O9 0.684505 0.626901 0.148211
O O10 0.788860 0.996044 0.506181
O O11 0.765323 0.265555 0.027680
O O12 0.978057 0.221876 0.400076
O O13 0.160116 0.284304 0.981541
O O14 0.010679 0.201504 0.081543
O O15 0.847813 0.465735 0.572196
O O16 0.972490 0.237264 0.714303
O O17 0.000000 0.000000 0.000000
#
# Coordination Sequence:
#
# PCOD8040032 Si02
#       8
#     2   2   2   2   2   2   2   2
#     4  11  21  36  70  96 122 168 220 278 332 384
#     4  10  18  35  61  97 120 156 223 277 315 379
#     4  10  18  38  66  90 131 162 213 283 323 382
#     4  12  22  42  68 101 125 169 231 278 330 385
#     4  12  23  46  71  96 136 175 230 273 321 410
#     4  12  29  44  63 100 145 179 215 275 335 399
#     4  11  25  46  63  98 137 175 220 276 341 395
#     4  12  24  41  69  99 130 180 223 270 334 390
#
# _framework density 20.811322000000001
#
# number of rings (size 3 to 8) (size 9 to 14) (size 15 to 20)
#    0.000    0.750    6.250    2.250    1.750    1.500 
#    2.250    0.000    0.000    0.000    0.000    0.000 
#    0.000    0.000    0.000    0.000    0.000    0.000 
#
# Total GULP energy -198228.741898 kJ/mol
# GULP energy per Si atom -12389.296369 kJ/mol
# Density = 2.076395 g / cm^3
# Si number density = 20.811322 Si / 1000 Ang^3
#
#
#
# Elastic Constant Matrix: (Units=GPa)
#
#
# Indices 1 2 3 4 5 6 
#
# 1 120.1893 19.6288 35.2921 9.6976 -0.3617 -1.1847
# 2 19.6288 92.5606 40.8495 19.2092 4.3676 12.4374
# 3 35.2921 40.8495 85.4566 14.4715 -7.9413 3.9148
# 4 9.6976 19.2092 14.4715 35.3275 3.6101 1.0454
# 5 -0.3617 4.3676 -7.9413 3.6101 40.0479 9.8891
# 6 -1.1847 12.4374 3.9148 1.0454 9.8891 27.2495
#
#
#
# Elastic Compliance Matrix: (Units=1/GPa)
#
#
# Indices 1 2 3 4 5 6 
#
# 1 0.009571 -0.000332 -0.003806 -0.000838 -0.000922 0.001481
# 2 -0.000332 0.015573 -0.006203 -0.005563 -0.001037 -0.005641
# 3 -0.003806 -0.006203 0.017262 -0.003091 0.004689 -0.001397
# 4 -0.000838 -0.005563 -0.003091 0.033121 -0.003749 0.003037
# 5 -0.000922 -0.001037 0.004689 -0.003749 0.028962 -0.010607
# 6 0.001481 -0.005641 -0.001397 0.003037 -0.010607 0.043271
#
#
# Mechanical properties :
#
#
# Convention : Reuss Voigt Hill
#
# Bulk Modulus (GPa) = 46.03004 54.41637 50.22320
# Shear Modulus (GPa) = 28.46031 34.02073 31.24052
#
# Velocity S-wave (km/s) = 3.70204 4.04756 3.87865
# Velocity P-wave (km/s) = 6.35919 6.93166 6.65158
#
# Compressibility (1/GPa) = 0.02172494
#
# Stress axis : x y z
#
# Youngs Moduli (GPa) = 104.47830 64.21330 57.93063
#
# Poissons Ratio (x) = 0.02130 0.22048
# Poissons Ratio (y) = 0.03466 0.35935
# Poissons Ratio (z) = 0.39764 0.39832
#
# Static dielectric constant tensor:
#      x y z
#    x 3.919510 0.211800 0.409570 
#    y 0.211800 3.449900 0.423790 
#    z 0.409570 0.423790 4.117000 
# 
# 
# High freq. dielectric constant tensor:
#      x y z
#    x 1.826470 0.001430 0.011720 
#    y 0.001430 1.796850 0.028870 
#    z 0.011720 0.028870 1.811960 
# 
# From -- ./inp_files/262981.got.cif
#   From: 2010.06.25/outbox.cif.g09.slc.cpg/sg2_132_cif.got.tgz:262981.got - 2010.06.27 13:26:56.
