data_PCOD8040849
_publ_section_title
;
Structure prediction by ZEFSAII (Michael W. Deem and Ramdas Pophale) SiO2 
 PCOD8040849
Probable space group: P -1
;
_chemical_formula_sum "Si O2"
_cell_formula_units_Z 14
_cell_length_a 23.785801
_cell_length_b 16.075225
_cell_length_c 9.784867
_cell_angle_alpha 151.968429
_cell_angle_beta 154.126457
_cell_angle_gamma 27.811738
_cell_volume 688.949758
_symmetry_space_group_name_H-M "P -1"
_symmetry_group_IT_number 2
_symmetry_cell_setting 'triclinic'
loop_
_space_group_symop_operation_xyz
x,y,z
-x,-y,-z
loop_
_atom_site_type_symbol
_atom_site_label
_atom_site_fract_x
_atom_site_fract_y
_atom_site_fract_z
Si Si1 0.627524 0.931823 0.516474
Si Si2 0.876871 0.734041 0.307328
Si Si3 0.106225 0.575183 0.913701
Si Si4 0.686546 0.787429 0.726492
Si Si5 0.819990 0.367852 0.298675
Si Si6 0.362183 0.472001 0.119833
Si Si7 0.138460 0.044902 0.130161
O O1 0.705567 0.883737 0.765527
O O2 0.727785 0.955039 0.656132
O O3 0.481794 0.132947 0.493716
O O4 0.587388 0.756193 0.134552
O O5 0.846747 0.550179 0.025561
O O6 0.856759 0.891152 0.610076
O O7 0.037937 0.639945 0.469494
O O8 0.765934 0.846618 0.106701
O O9 0.000000 0.500000 0.500000
O O10 0.010060 0.810106 0.060509
O O11 0.248296 0.538290 0.089096
O O12 0.756287 0.550885 0.528226
O O13 0.707210 0.394628 0.970973
O O14 0.852966 0.171236 0.169986
O O15 0.500000 0.500000 0.500000
#
# Coordination Sequence:
#
# PCOD8040849 Si02
#       7
#     2   2   2   2   2   2   2
#     4  10  22  45  62  88 130 177 203 257 325 383
#     4  11  21  40  69  92 121 169 221 258 313 377
#     4  10  18  39  62  92 123 163 205 266 315 363
#     4  10  24  41  64  86 133 173 208 253 326 384
#     4  11  23  40  60  98 129 164 208 271 310 376
#     4  11  22  37  63  95 127 159 211 264 314 367
#     4  11  22  38  71  90 125 163 218 265 311 363
#
# _framework density 20.320785999999998
#
# number of rings (size 3 to 8) (size 9 to 14) (size 15 to 20)
#    0.000    1.429    5.714    1.714    2.000    2.286 
#    0.000    5.714    0.000    0.000    0.000    0.000 
#    0.000    0.000    0.000    0.000    0.000    0.000 
#
# Total GULP energy -173603.383778 kJ/mol
# GULP energy per Si atom -12400.241698 kJ/mol
# Density = 2.027454 g / cm^3
# Si number density = 20.320786 Si / 1000 Ang^3
#
#
#
# Elastic Constant Matrix: (Units=GPa)
#
#
# Indices 1 2 3 4 5 6 
#
# 1 88.9032 42.5434 36.9268 -2.4403 11.0989 -18.3682
# 2 42.5434 101.9865 20.2908 12.9793 4.8163 -18.4317
# 3 36.9268 20.2908 47.3763 -10.0094 8.0646 -5.0042
# 4 -2.4403 12.9793 -10.0094 36.7171 3.0684 2.3386
# 5 11.0989 4.8163 8.0646 3.0684 32.2242 -3.8288
# 6 -18.3682 -18.4317 -5.0042 2.3386 -3.8288 32.8672
#
#
#
# Elastic Compliance Matrix: (Units=1/GPa)
#
#
# Indices 1 2 3 4 5 6 
#
# 1 0.020513 -0.004506 -0.013154 -0.000874 -0.002216 0.006738
# 2 -0.004506 0.014223 -0.003719 -0.006836 0.001670 0.005573
# 3 -0.013154 -0.003719 0.035635 0.010963 -0.005521 -0.005435
# 4 -0.000874 -0.006836 0.010963 0.033382 -0.005270 -0.005642
# 5 -0.002216 0.001670 -0.005521 -0.005270 0.033806 0.003171
# 6 0.006738 0.005573 -0.005435 -0.005642 0.003171 0.037260
#
#
# Mechanical properties :
#
#
# Convention : Reuss Voigt Hill
#
# Bulk Modulus (GPa) = 36.21600 48.64310 42.42955
# Shear Modulus (GPa) = 22.04748 29.59536 25.82142
#
# Velocity S-wave (km/s) = 3.29746 3.82043 3.56854
# Velocity P-wave (km/s) = 5.68846 6.59170 6.15666
#
# Compressibility (1/GPa) = 0.02761210
#
# Stress axis : x y z
#
# Youngs Moduli (GPa) = 48.74898 70.30806 28.06198
#
# Poissons Ratio (x) = 0.31683 0.36914
# Poissons Ratio (y) = 0.21968 0.10437
# Poissons Ratio (z) = 0.64126 0.26148
#
# Static dielectric constant tensor:
#      x y z
#    x 3.858890 0.088520 -0.067800 
#    y 0.088520 4.150800 0.064520 
#    z -0.067800 0.064520 3.334670 
# 
# 
# High freq. dielectric constant tensor:
#      x y z
#    x 1.800420 -0.003780 0.000820 
#    y -0.003780 1.811980 -0.001010 
#    z 0.000820 -0.001010 1.761840 
# 
# From -- ./inp_files/183932.got.cif
#   From: 2010.06.25/outbox.cif.g09.slc.cpg/sg2_92_cif.got.tgz:183932.got - 2010.06.27 13:26:56.
