data_PCOD8040494
_publ_section_title
;
Structure prediction by ZEFSAII (Michael W. Deem and Ramdas Pophale) SiO2 
 PCOD8040494
Probable space group: P -1
;
_chemical_formula_sum "Si O2"
_cell_formula_units_Z 16
_cell_length_a 29.996070
_cell_length_b 23.778779
_cell_length_c 8.322868
_cell_angle_alpha 125.752153
_cell_angle_beta 53.772465
_cell_angle_gamma 171.446393
_cell_volume 712.259471
_symmetry_space_group_name_H-M "P -1"
_symmetry_group_IT_number 2
_symmetry_cell_setting 'triclinic'
loop_
_space_group_symop_operation_xyz
x,y,z
-x,-y,-z
loop_
_atom_site_type_symbol
_atom_site_label
_atom_site_fract_x
_atom_site_fract_y
_atom_site_fract_z
Si Si1 0.751987 0.701446 0.667232
Si Si2 0.202078 0.524260 0.159962
Si Si3 0.634455 0.448205 0.760881
Si Si4 0.190800 0.838796 0.467928
Si Si5 0.948300 0.808908 0.009280
Si Si6 0.619650 0.835420 0.661652
Si Si7 0.924581 0.227609 0.965078
Si Si8 0.876215 0.327421 0.147718
O O1 0.792680 0.695591 0.712202
O O2 0.438962 0.299032 0.566274
O O3 0.000000 0.000000 0.500000
O O4 0.761171 0.788309 0.876763
O O5 0.996337 0.201846 0.076669
O O6 0.053887 0.405769 0.367762
O O7 0.219250 0.563973 0.996922
O O8 0.519625 0.900373 0.192952
O O9 0.896160 0.746734 0.823799
O O10 0.479882 0.194257 0.565616
O O11 0.358138 0.142067 0.936428
O O12 0.034112 0.570903 0.350970
O O13 0.296531 0.990169 0.316454
O O14 0.663851 0.493691 0.174950
O O15 0.886988 0.143542 0.731147
O O16 0.944380 0.334009 0.069560
O O17 0.000000 0.500000 0.000000
#
# Coordination Sequence:
#
# PCOD8040494 Si02
#       8
#     2   2   2   2   2   2   2   2
#     4   9  18  31  63  91 118 157 205 243 290 363
#     4  11  23  38  59  91 122 155 202 249 297 356
#     4   9  18  35  58  85 120 160 192 246 297 345
#     4  10  21  37  58  88 119 154 202 250 297 349
#     4  10  18  37  59  88 122 160 203 241 298 360
#     4   9  17  39  58  84 123 159 194 251 296 344
#     4  10  21  39  63  84 124 161 198 246 302 351
#     4  12  22  42  65  85 119 164 201 244 302 357
#
# _framework density 22.463723999999999
#
# number of rings (size 3 to 8) (size 9 to 14) (size 15 to 20)
#    0.000    2.000    3.750    0.750    0.000    2.500 
#    2.250   10.000    0.000    0.000    0.000    0.000 
#    0.000    0.000    0.000    0.000    0.000    0.000 
#
# Total GULP energy -198230.056401 kJ/mol
# GULP energy per Si atom -12389.378525 kJ/mol
# Density = 2.241260 g / cm^3
# Si number density = 22.463724 Si / 1000 Ang^3
#
#
#
# Elastic Constant Matrix: (Units=GPa)
#
#
# Indices 1 2 3 4 5 6 
#
# 1 141.4906 44.8095 66.1723 31.9153 14.8788 -6.5580
# 2 44.8095 47.6268 42.2980 35.3206 -6.7314 -12.6346
# 3 66.1723 42.2980 108.0025 52.6714 10.3276 -0.9866
# 4 31.9153 35.3206 52.6714 47.1792 -2.0856 3.4965
# 5 14.8788 -6.7314 10.3276 -2.0856 39.8099 5.8513
# 6 -6.5580 -12.6346 -0.9866 3.4965 5.8513 30.3602
#
#
#
# Elastic Compliance Matrix: (Units=1/GPa)
#
#
# Indices 1 2 3 4 5 6 
#
# 1 0.013201 -0.016662 -0.006439 0.010861 -0.004834 -0.004611
# 2 -0.016662 0.096171 0.006161 -0.070278 0.010946 0.042607
# 3 -0.006439 0.006161 0.026138 -0.030189 -0.005889 0.006634
# 4 0.010861 -0.070278 -0.030189 0.103304 0.003240 -0.040404
# 5 -0.004834 0.010946 -0.005889 0.003240 0.030917 -0.003012
# 6 -0.004611 0.042607 0.006634 -0.040404 -0.003012 0.055123
#
#
# Mechanical properties :
#
#
# Convention : Reuss Voigt Hill
#
# Bulk Modulus (GPa) = 9.83971 67.07553 38.45762
# Shear Modulus (GPa) = 12.73530 33.05920 22.89725
#
# Velocity S-wave (km/s) = 2.38361 3.84040 3.19611
# Velocity P-wave (km/s) = 3.45908 7.04196 5.54772
#
# Compressibility (1/GPa) = 0.10162901
#
# Stress axis : x y z
#
# Youngs Moduli (GPa) = 75.75426 10.39814 38.25863
#
# Poissons Ratio (x) = 0.17326 0.24634
# Poissons Ratio (y) = 1.26223 -0.23570
# Poissons Ratio (z) = 0.48777 -0.06406
#
# Static dielectric constant tensor:
#      x y z
#    x 4.117690 -0.186960 0.391020 
#    y -0.186960 4.266190 0.726740 
#    z 0.391020 0.726740 4.461090 
# 
# 
# High freq. dielectric constant tensor:
#      x y z
#    x 1.880260 -0.017010 0.027220 
#    y -0.017010 1.870180 0.030020 
#    z 0.027220 0.030020 1.889230 
# 
# From -- ./inp_files/202886.got.cif
#   From: 2010.06.25/outbox.cif.g09.slc.cpg/sg2_102_cif.got.tgz:202886.got - 2010.06.27 13:26:56.
