data_PCOD8040651
_publ_section_title
;
Structure prediction by ZEFSAII (Michael W. Deem and Ramdas Pophale) SiO2 
 PCOD8040651
Probable space group: P -1
;
_chemical_formula_sum "Si O2"
_cell_formula_units_Z 14
_cell_length_a 16.613293
_cell_length_b 9.466408
_cell_length_c 8.006657
_cell_angle_alpha 104.762532
_cell_angle_beta 36.848802
_cell_angle_gamma 88.211568
_cell_volume 667.508950
_symmetry_space_group_name_H-M "P -1"
_symmetry_group_IT_number 2
_symmetry_cell_setting 'triclinic'
loop_
_space_group_symop_operation_xyz
x,y,z
-x,-y,-z
loop_
_atom_site_type_symbol
_atom_site_label
_atom_site_fract_x
_atom_site_fract_y
_atom_site_fract_z
Si Si1 0.956867 0.685176 0.656298
Si Si2 0.423729 0.685584 0.211797
Si Si3 0.154306 0.068467 0.339902
Si Si4 0.346629 0.169700 0.631658
Si Si5 0.372170 0.163755 0.218819
Si Si6 0.898348 0.125344 0.343670
Si Si7 0.616922 0.141878 0.355505
O O1 0.971508 0.775419 0.489890
O O2 0.000000 0.500000 0.500000
O O3 0.044159 0.734925 0.672159
O O4 0.786966 0.745526 0.998687
O O5 0.273798 0.785252 0.388605
O O6 0.381024 0.715501 0.488284
O O7 0.500000 0.500000 0.000000
O O8 0.560156 0.726127 0.946725
O O9 0.259513 0.136050 0.275989
O O10 0.082565 0.984265 0.558114
O O11 0.235763 0.940617 0.020708
O O12 0.297025 0.230136 0.543565
O O13 0.480379 0.215123 0.477764
O O14 0.402416 0.978659 0.509574
O O15 0.500000 0.000000 0.000000
O O16 0.000000 0.000000 0.000000
#
# Coordination Sequence:
#
# PCOD8040651 Si02
#       7
#     2   2   2   2   2   2   2
#     4  11  26  42  63  97 136 169 217 279 331 384
#     4  12  26  40  63 100 136 163 214 286 335 368
#     4  11  22  42  73  92 124 178 226 263 321 403
#     4  10  19  37  66  93 120 169 215 259 313 399
#     4  12  19  40  68  96 122 165 222 265 322 396
#     4  12  25  46  68  94 136 182 226 261 323 416
#     4  10  18  37  67  93 121 163 219 262 321 386
#
# _framework density 20.973502
#
# number of rings (size 3 to 8) (size 9 to 14) (size 15 to 20)
#    0.000    0.857    4.286    4.714    4.000    0.000 
#    5.143    2.857    0.000    0.000    0.000    0.000 
#    0.000    0.000    0.000    0.000    0.000    0.000 
#
# Total GULP energy -173513.799680 kJ/mol
# GULP energy per Si atom -12393.842834 kJ/mol
# Density = 2.092577 g / cm^3
# Si number density = 20.973502 Si / 1000 Ang^3
#
#
#
# Elastic Constant Matrix: (Units=GPa)
#
#
# Indices 1 2 3 4 5 6 
#
# 1 92.8261 38.4731 34.8673 15.3462 19.2663 11.3628
# 2 38.4731 120.6346 55.9484 15.7396 13.8448 15.2987
# 3 34.8673 55.9484 84.0436 8.8141 18.0090 -4.2138
# 4 15.3462 15.7396 8.8141 33.7575 0.8000 4.3007
# 5 19.2663 13.8448 18.0090 0.8000 41.5119 -4.1127
# 6 11.3628 15.2987 -4.2138 4.3007 -4.1127 31.8660
#
#
#
# Elastic Compliance Matrix: (Units=1/GPa)
#
#
# Indices 1 2 3 4 5 6 
#
# 1 0.015387 -0.000916 -0.004427 -0.004556 -0.005394 -0.005714
# 2 -0.000916 0.014130 -0.008852 -0.002893 -0.001122 -0.007382
# 3 -0.004427 -0.008852 0.020745 -0.000246 -0.003176 0.008195
# 4 -0.004556 -0.002893 -0.000246 0.033201 0.002429 -0.001186
# 5 -0.005394 -0.001122 -0.003176 0.002429 0.028837 0.005436
# 6 -0.005714 -0.007382 0.008195 -0.001186 0.005436 0.038908
#
#
# Mechanical properties :
#
#
# Convention : Reuss Voigt Hill
#
# Bulk Modulus (GPa) = 45.72036 61.78689 53.75362
# Shear Modulus (GPa) = 26.75371 32.64145 29.69758
#
# Velocity S-wave (km/s) = 3.57542 3.94930 3.76700
# Velocity P-wave (km/s) = 6.23629 7.09362 6.67872
#
# Compressibility (1/GPa) = 0.02187210
#
# Stress axis : x y z
#
# Youngs Moduli (GPa) = 64.98782 70.77273 48.20339
#
# Poissons Ratio (x) = 0.06485 0.21338
# Poissons Ratio (y) = 0.05955 0.42671
# Poissons Ratio (z) = 0.28768 0.62650
#
# Static dielectric constant tensor:
#      x y z
#    x 3.801510 0.215700 -0.131690 
#    y 0.215700 3.520740 0.245140 
#    z -0.131690 0.245140 3.520610 
# 
# 
# High freq. dielectric constant tensor:
#      x y z
#    x 1.837810 0.013780 0.009660 
#    y 0.013780 1.798810 -0.009100 
#    z 0.009660 -0.009100 1.821370 
# 
# From -- ./inp_files/329369.got.cif
#   From: 2010.06.25/outbox.cif.g09.slc.cpg/sg2_165_cif.got.tgz:329369.got - 2010.06.27 13:26:56.
