data_PCOD8040377
_publ_section_title
;
Structure prediction by ZEFSAII (Michael W. Deem and Ramdas Pophale) SiO2 
 PCOD8040377
Probable space group: P -1
;
_chemical_formula_sum "Si O2"
_cell_formula_units_Z 16
_cell_length_a 13.719949
_cell_length_b 9.208138
_cell_length_c 8.667360
_cell_angle_alpha 83.778608
_cell_angle_beta 104.403613
_cell_angle_gamma 50.838886
_cell_volume 769.254863
_symmetry_space_group_name_H-M "P -1"
_symmetry_group_IT_number 2
_symmetry_cell_setting 'triclinic'
loop_
_space_group_symop_operation_xyz
x,y,z
-x,-y,-z
loop_
_atom_site_type_symbol
_atom_site_label
_atom_site_fract_x
_atom_site_fract_y
_atom_site_fract_z
Si Si1 0.731083 0.186640 0.484055
Si Si2 0.235253 0.066566 0.220323
Si Si3 0.188525 0.624260 0.328195
Si Si4 0.088029 0.987126 0.707090
Si Si5 0.654926 0.207981 0.981529
Si Si6 0.526457 0.627624 0.833867
Si Si7 0.043566 0.809436 0.953942
Si Si8 0.372577 0.211295 0.350468
O O1 0.726144 0.314815 0.600922
O O2 0.872233 0.067948 0.452035
O O3 0.598441 0.330222 0.308269
O O4 0.732939 0.029227 0.586791
O O5 0.266403 0.207243 0.224894
O O6 0.076891 0.191836 0.098404
O O7 0.340192 0.893571 0.157959
O O8 0.286019 0.386894 0.428378
O O9 0.166085 0.628711 0.132030
O O10 0.045218 0.775441 0.348320
O O11 0.076770 0.832663 0.791118
O O12 0.208423 0.955438 0.845496
O O13 0.648666 0.386776 0.914523
O O14 0.521994 0.290539 0.019566
O O15 0.569886 0.733747 0.759653
O O16 0.000000 0.000000 0.000000
O O17 0.500000 0.000000 0.500000
#
# Coordination Sequence:
#
# PCOD8040377 Si02
#       8
#     2   2   2   2   2   2   2   2
#     4  11  21  36  68  93 120 157 209 255 310 355
#     4  12  22  38  63  88 123 171 197 249 311 367
#     4  11  22  39  63  91 120 162 206 255 305 358
#     4  10  19  37  65  96 121 146 203 277 302 347
#     4  10  21  41  69  93 116 155 217 262 300 353
#     4  10  23  41  64  94 123 159 207 263 300 356
#     4  10  18  36  63  92 117 149 205 264 301 348
#     4  12  27  41  58  88 137 166 203 242 307 378
#
# _framework density 20.799347000000001
#
# number of rings (size 3 to 8) (size 9 to 14) (size 15 to 20)
#    0.000    1.250    6.250    1.875    1.750    2.000 
#    0.000    0.625    2.750    0.000    0.000    0.000 
#    0.000    0.000    0.000    0.000    0.000    0.000 
#
# Total GULP energy -198305.478075 kJ/mol
# GULP energy per Si atom -12394.092380 kJ/mol
# Density = 2.075201 g / cm^3
# Si number density = 20.799347 Si / 1000 Ang^3
#
#
#
# Elastic Constant Matrix: (Units=GPa)
#
#
# Indices 1 2 3 4 5 6 
#
# 1 115.5127 55.8205 31.0851 12.1270 -5.3696 16.3135
# 2 55.8205 119.3049 39.4393 -2.8382 -11.2515 -1.1409
# 3 31.0851 39.4393 91.2395 6.2725 -11.8125 -0.9816
# 4 12.1270 -2.8382 6.2725 30.1305 -5.0005 -0.5745
# 5 -5.3696 -11.2515 -11.8125 -5.0005 31.8378 -0.1054
# 6 16.3135 -1.1409 -0.9816 -0.5745 -0.1054 30.2364
#
#
#
# Elastic Compliance Matrix: (Units=1/GPa)
#
#
# Indices 1 2 3 4 5 6 
#
# 1 0.013873 -0.006235 -0.001893 -0.006187 -0.001564 -0.007905
# 2 -0.006235 0.012845 -0.003335 0.004993 0.003047 0.003846
# 3 -0.001893 -0.003335 0.013609 -0.001817 0.003270 0.001314
# 4 -0.006187 0.004993 -0.001817 0.037598 0.005966 0.004203
# 5 -0.001564 0.003047 0.003270 0.005966 0.034377 0.001298
# 6 -0.007905 0.003846 0.001314 0.004203 0.001298 0.037610
#
#
# Mechanical properties :
#
#
# Convention : Reuss Voigt Hill
#
# Bulk Modulus (GPa) = 57.47412 64.30522 60.88967
# Shear Modulus (GPa) = 27.98935 31.75508 29.87221
#
# Velocity S-wave (km/s) = 3.67234 3.91158 3.79385
# Velocity P-wave (km/s) = 6.75826 7.16831 6.96630
#
# Compressibility (1/GPa) = 0.01739913
#
# Stress axis : x y z
#
# Youngs Moduli (GPa) = 72.08298 77.85289 73.47831
#
# Poissons Ratio (x) = 0.48543 0.13913
# Poissons Ratio (y) = 0.44946 0.24507
# Poissons Ratio (z) = 0.13648 0.25966
#
# Static dielectric constant tensor:
#      x y z
#    x 3.898620 -0.234580 -0.124110 
#    y -0.234580 3.698830 -0.077530 
#    z -0.124110 -0.077530 4.335750 
# 
# 
# High freq. dielectric constant tensor:
#      x y z
#    x 1.815230 -0.024700 0.009890 
#    y -0.024700 1.789820 0.002170 
#    z 0.009890 0.002170 1.819050 
# 
# From -- ./inp_files/298278.got.cif
#   From: 2010.06.25/outbox.cif.g09.slc.cpg/sg2_150_cif.got.tgz:298278.got - 2010.06.27 13:26:56.
