data_PCOD8040554
_publ_section_title
;
Structure prediction by ZEFSAII (Michael W. Deem and Ramdas Pophale) SiO2 
 PCOD8040554
Probable space group: P -1
;
_chemical_formula_sum "Si O2"
_cell_formula_units_Z 16
_cell_length_a 9.945807
_cell_length_b 11.642426
_cell_length_c 20.158791
_cell_angle_alpha 152.918315
_cell_angle_beta 65.266963
_cell_angle_gamma 125.090034
_cell_volume 841.746828
_symmetry_space_group_name_H-M "P -1"
_symmetry_group_IT_number 2
_symmetry_cell_setting 'triclinic'
loop_
_space_group_symop_operation_xyz
x,y,z
-x,-y,-z
loop_
_atom_site_type_symbol
_atom_site_label
_atom_site_fract_x
_atom_site_fract_y
_atom_site_fract_z
Si Si1 0.176437 0.747699 0.173382
Si Si2 0.258997 0.034799 0.665761
Si Si3 0.411849 0.168111 0.570757
Si Si4 0.767122 0.540493 0.668460
Si Si5 0.024185 0.887712 0.160472
Si Si6 0.126980 0.337516 0.142525
Si Si7 0.429635 0.645742 0.139314
Si Si8 0.896139 0.148392 0.622380
O O1 0.171376 0.895742 0.181645
O O2 0.364582 0.818424 0.193601
O O3 0.109369 0.881735 0.312719
O O4 0.057808 0.401089 0.014633
O O5 0.309564 0.210542 0.675101
O O6 0.421149 0.135842 0.731662
O O7 0.119314 0.096501 0.758526
O O8 0.186325 0.693139 0.492639
O O9 0.569199 0.458157 0.656545
O O10 0.500000 0.000000 0.500000
O O11 0.291236 0.004063 0.449576
O O12 0.786713 0.543087 0.744053
O O13 0.891799 0.848873 0.771353
O O14 0.271924 0.408414 0.093480
O O15 0.023263 0.509377 0.235010
O O16 0.000000 0.000000 0.000000
O O17 0.500000 0.500000 0.000000
O O18 0.000000 0.000000 0.500000
#
# Coordination Sequence:
#
# PCOD8040554 Si02
#       8
#     2   2   2   2   2   2   2   2
#     4  10  22  39  57  84 122 164 196 239 313 362
#     4  11  20  37  61  88 114 159 205 242 297 363
#     4  10  18  37  62  86 115 158 201 250 298 357
#     4  11  20  37  61  91 116 155 208 250 293 353
#     4  11  23  38  59  84 125 161 196 247 301 363
#     4  11  22  38  64  93 123 155 202 262 302 351
#     4  11  21  40  62  89 117 159 204 246 298 370
#     4  11  21  39  64  91 120 159 206 250 306 370
#
# _framework density 19.008088999999998
#
# number of rings (size 3 to 8) (size 9 to 14) (size 15 to 20)
#    0.000    1.250    5.000    4.875    0.000    0.000 
#    0.000    3.750    0.000    5.250    0.000    0.000 
#    0.000    0.000    0.000    0.000    0.000    0.000 
#
# Total GULP energy -198277.757254 kJ/mol
# GULP energy per Si atom -12392.359828 kJ/mol
# Density = 1.896483 g / cm^3
# Si number density = 19.008089 Si / 1000 Ang^3
#
#
#
# Elastic Constant Matrix: (Units=GPa)
#
#
# Indices 1 2 3 4 5 6 
#
# 1 80.6749 22.2053 30.6340 -7.9379 0.4943 -1.7120
# 2 22.2053 81.7728 29.0919 -16.4280 -11.8207 10.8448
# 3 30.6340 29.0919 95.1973 -18.0096 -5.7378 0.7841
# 4 -7.9379 -16.4280 -18.0096 32.2021 0.5833 4.0272
# 5 0.4943 -11.8207 -5.7378 0.5833 35.5042 -11.0902
# 6 -1.7120 10.8448 0.7841 4.0272 -11.0902 23.8810
#
#
#
# Elastic Compliance Matrix: (Units=1/GPa)
#
#
# Indices 1 2 3 4 5 6 
#
# 1 0.014778 -0.003145 -0.003965 -0.000423 -0.001224 0.002121
# 2 -0.003145 0.016884 -0.002530 0.007349 0.002701 -0.007795
# 3 -0.003965 -0.002530 0.013641 0.005316 0.001380 0.000162
# 4 -0.000423 0.007349 0.005316 0.038980 -0.000571 -0.010381
# 5 -0.001224 0.002701 0.001380 -0.000571 0.033827 0.014446
# 6 0.002121 -0.007795 0.000162 -0.010381 0.014446 0.054020
#
#
# Mechanical properties :
#
#
# Convention : Reuss Voigt Hill
#
# Bulk Modulus (GPa) = 38.43053 46.83415 42.63234
# Shear Modulus (GPa) = 24.98935 30.03171 27.51053
#
# Velocity S-wave (km/s) = 3.62977 3.97916 3.80848
# Velocity P-wave (km/s) = 6.15052 6.76788 6.46657
#
# Compressibility (1/GPa) = 0.02602098
#
# Stress axis : x y z
#
# Youngs Moduli (GPa) = 67.66886 59.22849 73.30679
#
# Poissons Ratio (x) = 0.18629 0.29070
# Poissons Ratio (y) = 0.21284 0.18548
# Poissons Ratio (z) = 0.26834 0.14986
#
# Static dielectric constant tensor:
#      x y z
#    x 3.881560 0.173260 0.355110 
#    y 0.173260 3.810180 -0.128810 
#    z 0.355110 -0.128810 3.795290 
# 
# 
# High freq. dielectric constant tensor:
#      x y z
#    x 1.739130 -0.004640 0.016380 
#    y -0.004640 1.727380 -0.027340 
#    z 0.016380 -0.027340 1.747440 
# 
# From -- ./inp_files/588763.got.cif
#   From: 2010.06.25/outbox.cif.g09.slc.cpg/sg2_295_cif.got.tgz:588763.got - 2010.06.27 13:26:56.
