data_PCOD8040907
_publ_section_title
;
Structure prediction by ZEFSAII (Michael W. Deem and Ramdas Pophale) SiO2 
 PCOD8040907
Probable space group: P -1
;
_chemical_formula_sum "Si O2"
_cell_formula_units_Z 14
_cell_length_a 9.501981
_cell_length_b 16.695083
_cell_length_c 9.305731
_cell_angle_alpha 35.745451
_cell_angle_beta 61.713840
_cell_angle_gamma 78.562844
_cell_volume 707.856804
_symmetry_space_group_name_H-M "P -1"
_symmetry_group_IT_number 2
_symmetry_cell_setting 'triclinic'
loop_
_space_group_symop_operation_xyz
x,y,z
-x,-y,-z
loop_
_atom_site_type_symbol
_atom_site_label
_atom_site_fract_x
_atom_site_fract_y
_atom_site_fract_z
Si Si1 0.148385 0.215533 0.383985
Si Si2 0.348793 0.372936 0.326343
Si Si3 0.097099 0.388379 0.634895
Si Si4 0.898597 0.071268 0.052606
Si Si5 0.557716 0.812461 0.222623
Si Si6 0.677587 0.636610 0.202375
Si Si7 0.238730 0.868857 0.245703
O O1 0.206474 0.290786 0.399253
O O2 0.949617 0.201793 0.488250
O O3 0.173521 0.056530 0.605204
O O4 0.267541 0.315955 0.056464
O O5 0.268170 0.452616 0.363846
O O6 0.420331 0.259930 0.533118
O O7 0.500000 0.500000 0.000000
O O8 0.160468 0.393337 0.761501
O O9 0.000000 0.500000 0.500000
O O10 0.000638 0.220682 0.871395
O O11 0.762889 0.103148 0.966874
O O12 0.000000 0.000000 0.000000
O O13 0.648322 0.767530 0.110691
O O14 0.352996 0.767261 0.359660
O O15 0.660140 0.984686 0.929957
O O16 0.500000 0.500000 0.500000
#
# Coordination Sequence:
#
# PCOD8040907 Si02
#       7
#     2   2   2   2   2   2   2
#     4  11  20  39  69  90 115 173 219 248 308 385
#     4  11  21  40  60  86 123 171 209 248 309 383
#     4  11  24  41  63  92 127 164 205 264 314 367
#     4  10  18  39  69  90 119 162 216 256 302 375
#     4  10  22  40  61  91 126 157 202 266 320 354
#     4  11  25  41  58  91 135 164 199 264 324 365
#     4  10  20  38  69  91 117 156 216 266 297 373
#
# _framework density 19.778009999999998
#
# number of rings (size 3 to 8) (size 9 to 14) (size 15 to 20)
#    0.000    1.429    4.286    4.286    2.000    3.429 
#    0.000    4.286    0.000    0.000    0.000    0.000 
#    0.000    0.000    0.000    0.000    0.000    0.000 
#
# Total GULP energy -173476.587840 kJ/mol
# GULP energy per Si atom -12391.184846 kJ/mol
# Density = 1.973299 g / cm^3
# Si number density = 19.778010 Si / 1000 Ang^3
#
#
#
# Elastic Constant Matrix: (Units=GPa)
#
#
# Indices 1 2 3 4 5 6 
#
# 1 151.5852 43.2456 43.7812 5.4606 5.2385 -4.5914
# 2 43.2456 50.8720 25.5405 -1.8212 12.6132 2.0579
# 3 43.7812 25.5405 106.4833 15.1139 3.0447 -6.8888
# 4 5.4606 -1.8212 15.1139 32.3326 6.8438 1.0664
# 5 5.2385 12.6132 3.0447 6.8438 30.3292 -1.0949
# 6 -4.5914 2.0579 -6.8888 1.0664 -1.0949 32.4179
#
#
#
# Elastic Compliance Matrix: (Units=1/GPa)
#
#
# Indices 1 2 3 4 5 6 
#
# 1 0.009335 -0.007772 -0.001686 -0.001753 0.002242 0.001591
# 2 -0.007772 0.033362 -0.006048 0.009197 -0.014191 -0.005286
# 3 -0.001686 -0.006048 0.012603 -0.006722 0.003172 0.003151
# 4 -0.001753 0.009197 -0.006722 0.037433 -0.011434 -0.003878
# 5 0.002242 -0.014191 0.003172 -0.011434 0.040879 0.003649
# 6 0.001591 -0.005286 0.003151 -0.003878 0.003649 0.032328
#
#
# Mechanical properties :
#
#
# Convention : Reuss Voigt Hill
#
# Bulk Modulus (GPa) = 41.17487 59.34169 50.25828
# Shear Modulus (GPa) = 24.38432 32.10747 28.24590
#
# Velocity S-wave (km/s) = 3.51508 4.03351 3.78318
# Velocity P-wave (km/s) = 6.11049 7.19453 6.67455
#
# Compressibility (1/GPa) = 0.02428666
#
# Stress axis : x y z
#
# Youngs Moduli (GPa) = 107.12198 29.97402 79.34926
#
# Poissons Ratio (x) = 0.23296 0.13382
# Poissons Ratio (y) = 0.83256 0.47992
# Poissons Ratio (z) = 0.18065 0.18129
#
# Static dielectric constant tensor:
#      x y z
#    x 6.701480 6.897290 -8.373500 
#    y 6.897290 20.875220 -21.811380 
#    z -8.373500 -21.811380 30.905000 
# 
# 
# High freq. dielectric constant tensor:
#      x y z
#    x 1.787320 0.014260 0.000730 
#    y 0.014260 1.759460 -0.012280 
#    z 0.000730 -0.012280 1.764220 
# 
# From -- ./inp_files/204989.got.cif
#   From: 2010.06.25/outbox.cif.g09.slc.cpg/sg2_103_cif.got.tgz:204989.got - 2010.06.27 13:26:56.
