data_PCOD8040863
_publ_section_title
;
Structure prediction by ZEFSAII (Michael W. Deem and Ramdas Pophale) SiO2 
 PCOD8040863
Probable space group: P -1
;
_chemical_formula_sum "Si O2"
_cell_formula_units_Z 16
_cell_length_a 12.368674
_cell_length_b 18.923853
_cell_length_c 9.022280
_cell_angle_alpha 65.313344
_cell_angle_beta 97.214470
_cell_angle_gamma 39.513222
_cell_volume 772.131227
_symmetry_space_group_name_H-M "P -1"
_symmetry_group_IT_number 2
_symmetry_cell_setting 'triclinic'
loop_
_space_group_symop_operation_xyz
x,y,z
-x,-y,-z
loop_
_atom_site_type_symbol
_atom_site_label
_atom_site_fract_x
_atom_site_fract_y
_atom_site_fract_z
Si Si1 0.367940 0.195653 0.763291
Si Si2 0.889630 0.777475 0.143974
Si Si3 0.070778 0.146434 0.520835
Si Si4 0.474188 0.258207 0.922553
Si Si5 0.565956 0.411288 0.355480
Si Si6 0.487630 0.613083 0.326324
Si Si7 0.015253 0.356498 0.332392
Si Si8 0.028687 0.700377 0.904534
O O1 0.319163 0.314289 0.713210
O O2 0.244864 0.263714 0.517703
O O3 0.690076 0.972726 0.006148
O O4 0.218487 0.236066 0.816370
O O5 0.869943 0.795682 0.946108
O O6 0.190735 0.594533 0.410889
O O7 0.057771 0.241424 0.512027
O O8 0.071638 0.159165 0.331405
O O9 0.814489 0.262273 0.420278
O O10 0.334435 0.927806 0.801573
O O11 0.624974 0.233251 0.895835
O O12 0.272238 0.422875 0.865058
O O13 0.423667 0.585338 0.225468
O O14 0.662815 0.304673 0.616129
O O15 0.348826 0.499867 0.157074
O O16 0.024866 0.342601 0.167233
#
# Coordination Sequence:
#
# PCOD8040863 Si02
#       8
#     2   2   2   2   2   2   2   2
#     4  11  21  36  66  89 120 163 201 252 297 354
#     4  10  20  40  63  94 118 161 209 238 307 354
#     4  10  21  38  62  87 121 163 195 243 302 364
#     4  12  22  38  61  95 122 154 208 251 297 357
#     4  10  18  39  64  85 118 166 199 241 315 344
#     4  10  20  34  63  92 121 152 204 259 285 364
#     4  10  22  41  60  90 122 163 199 244 300 360
#     4   9  22  40  63  87 125 161 200 251 292 369
#
# _framework density 20.721865000000001
#
# number of rings (size 3 to 8) (size 9 to 14) (size 15 to 20)
#    0.750    1.000    2.500    3.000    0.000    1.000 
#    0.000    5.625    0.000    0.000    0.000    0.000 
#    0.000    0.000    0.000    0.000    0.000    0.000 
#
# Total GULP energy -198309.217702 kJ/mol
# GULP energy per Si atom -12394.326106 kJ/mol
# Density = 2.067470 g / cm^3
# Si number density = 20.721865 Si / 1000 Ang^3
#
#
#
# Elastic Constant Matrix: (Units=GPa)
#
#
# Indices 1 2 3 4 5 6 
#
# 1 36.7346 21.1343 -0.0612 -0.8161 -0.6595 6.1955
# 2 21.1343 83.1626 28.3974 10.0520 -8.9023 0.5527
# 3 -0.0612 28.3974 68.2146 2.8199 -0.8004 11.5000
# 4 -0.8161 10.0520 2.8199 32.4714 4.1539 -1.7140
# 5 -0.6595 -8.9023 -0.8004 4.1539 26.3413 -5.3555
# 6 6.1955 0.5527 11.5000 -1.7140 -5.3555 25.7987
#
#
#
# Elastic Compliance Matrix: (Units=1/GPa)
#
#
# Indices 1 2 3 4 5 6 
#
# 1 0.036923 -0.013074 0.007397 0.004495 -0.006613 -0.012958
# 2 -0.013074 0.020275 -0.009489 -0.006486 0.008960 0.008364
# 3 0.007397 -0.009489 0.020463 0.001369 -0.004982 -0.011638
# 4 0.004495 -0.006486 0.001369 0.033715 -0.007532 -0.000875
# 5 -0.006613 0.008960 -0.004982 -0.007532 0.044368 0.012327
# 6 -0.012958 0.008364 -0.011638 -0.000875 0.012327 0.049383
#
#
# Mechanical properties :
#
#
# Convention : Reuss Voigt Hill
#
# Bulk Modulus (GPa) = 21.12863 31.89478 26.51171
# Shear Modulus (GPa) = 19.90153 26.16503 23.03328
#
# Velocity S-wave (km/s) = 3.10241 3.55727 3.33760
# Velocity P-wave (km/s) = 4.80122 5.68309 5.26067
#
# Compressibility (1/GPa) = 0.04732914
#
# Stress axis : x y z
#
# Youngs Moduli (GPa) = 27.08325 49.32212 48.86772
#
# Poissons Ratio (x) = 0.64485 -0.36148
# Poissons Ratio (y) = 0.35410 0.46370
# Poissons Ratio (z) = -0.20034 0.46801
#
# Static dielectric constant tensor:
#      x y z
#    x 3.828900 -0.034820 0.043530 
#    y -0.034820 3.678900 0.182510 
#    z 0.043530 0.182510 3.614580 
# 
# 
# High freq. dielectric constant tensor:
#      x y z
#    x 1.800460 -0.003500 0.008200 
#    y -0.003500 1.804590 0.013520 
#    z 0.008200 0.013520 1.799780 
# 
# From -- ./inp_files/277730.got.cif
#   From: 2010.06.25/outbox.cif.g09.slc.cpg/sg2_139_cif.got.tgz:277730.got - 2010.06.27 13:26:56.
