data_PCOD8040390
_publ_section_title
;
Structure prediction by ZEFSAII (Michael W. Deem and Ramdas Pophale) SiO2 
 PCOD8040390
Probable space group: P -1
;
_chemical_formula_sum "Si O2"
_cell_formula_units_Z 16
_cell_length_a 9.115907
_cell_length_b 14.078980
_cell_length_c 17.932826
_cell_angle_alpha 151.550860
_cell_angle_beta 89.906038
_cell_angle_gamma 70.819310
_cell_volume 790.748870
_symmetry_space_group_name_H-M "P -1"
_symmetry_group_IT_number 2
_symmetry_cell_setting 'triclinic'
loop_
_space_group_symop_operation_xyz
x,y,z
-x,-y,-z
loop_
_atom_site_type_symbol
_atom_site_label
_atom_site_fract_x
_atom_site_fract_y
_atom_site_fract_z
Si Si1 0.922120 0.753372 0.972503
Si Si2 0.597223 0.891342 0.164173
Si Si3 0.033029 0.968061 0.716638
Si Si4 0.759680 0.007721 0.836860
Si Si5 0.813444 0.028214 0.013299
Si Si6 0.359507 0.452936 0.941375
Si Si7 0.440723 0.674418 0.452209
Si Si8 0.368673 0.413470 0.754078
O O1 0.164982 0.481539 0.778101
O O2 0.799526 0.696729 0.977797
O O3 0.893521 0.987239 0.178018
O O4 0.822371 0.862301 0.965903
O O5 0.407585 0.992512 0.187110
O O6 0.645723 0.713439 0.112658
O O7 0.542057 0.168174 0.378137
O O8 0.942751 0.840635 0.659157
O O9 0.869107 0.254343 0.869163
O O10 0.225008 0.761762 0.519069
O O11 0.828796 0.892156 0.841373
O O12 0.676601 0.310169 0.044013
O O13 0.610006 0.349230 0.240392
O O14 0.000000 0.000000 0.000000
O O15 0.445566 0.272925 0.739296
O O16 0.500000 0.500000 0.000000
O O17 0.461831 0.761555 0.431156
#
# Coordination Sequence:
#
# PCOD8040390 Si02
#       8
#     2   2   2   2   2   2   2   2
#     4   9  19  34  59  82 108 147 194 218 275 335
#     4  11  21  35  56  89 114 137 188 245 268 313
#     4   9  18  34  56  86 108 148 189 218 272 341
#     4   9  18  35  59  78 112 148 187 219 275 343
#     4  11  18  39  65  73 108 163 186 212 285 347
#     4  10  18  36  64  76 111 160 181 211 288 341
#     4  10  22  34  57  87 116 133 192 244 265 314
#     4   9  18  37  59  81 108 155 186 216 274 350
#
# _framework density 20.233984
#
# number of rings (size 3 to 8) (size 9 to 14) (size 15 to 20)
#    0.000    2.500    6.250    0.000    0.000    7.500 
#    0.000    3.750    0.000    0.000    0.000    0.000 
#    0.000    0.000    0.000    0.000    0.000    0.000 
#
# Total GULP energy -198258.360147 kJ/mol
# GULP energy per Si atom -12391.147509 kJ/mol
# Density = 2.018793 g / cm^3
# Si number density = 20.233984 Si / 1000 Ang^3
#
#
#
# Elastic Constant Matrix: (Units=GPa)
#
#
# Indices 1 2 3 4 5 6 
#
# 1 128.4119 50.8199 35.3934 -19.5565 -31.3536 1.3396
# 2 50.8199 162.1902 24.4771 -16.1503 -15.6326 6.4370
# 3 35.3934 24.4771 50.7442 -8.9666 -30.4089 -1.3909
# 4 -19.5565 -16.1503 -8.9666 19.9203 9.5185 -4.7055
# 5 -31.3536 -15.6326 -30.4089 9.5185 34.5050 -3.8982
# 6 1.3396 6.4370 -1.3909 -4.7055 -3.8982 33.7156
#
#
#
# Elastic Compliance Matrix: (Units=1/GPa)
#
#
# Indices 1 2 3 4 5 6 
#
# 1 0.011685 -0.002170 -0.002389 0.006097 0.006005 0.001397
# 2 -0.002170 0.007447 -0.002790 0.003378 -0.002127 -0.001225
# 3 -0.002389 -0.002790 0.045127 -0.000497 0.037232 0.006725
# 4 0.006097 0.003378 -0.000497 0.065431 -0.010626 0.006996
# 5 0.006005 -0.002127 0.037232 -0.010626 0.070158 0.008332
# 6 0.001397 -0.001225 0.006725 0.006996 0.008332 0.032055
#
#
# Mechanical properties :
#
#
# Convention : Reuss Voigt Hill
#
# Bulk Modulus (GPa) = 20.17745 62.52523 41.35134
# Shear Modulus (GPa) = 19.00264 33.00525 26.00395
#
# Velocity S-wave (km/s) = 3.06787 4.04317 3.58880
# Velocity P-wave (km/s) = 4.74793 7.26391 6.13626
#
# Compressibility (1/GPa) = 0.04956026
#
# Stress axis : x y z
#
# Youngs Moduli (GPa) = 85.57957 134.28966 22.15988
#
# Poissons Ratio (x) = 0.29145 0.05294
# Poissons Ratio (y) = 0.18573 0.06182
# Poissons Ratio (z) = 0.20447 0.37460
#
# Static dielectric constant tensor:
#      x y z
#    x 3.902020 0.177890 -0.457460 
#    y 0.177890 4.328370 -0.338820 
#    z -0.457460 -0.338820 3.451600 
# 
# 
# High freq. dielectric constant tensor:
#      x y z
#    x 1.793690 0.007090 -0.026770 
#    y 0.007090 1.801300 -0.017870 
#    z -0.026770 -0.017870 1.745400 
# 
# From -- ./inp_files/561203.got.cif
#   From: 2010.06.25/outbox.cif.g09.slc.cpg/sg2_281_cif.got.tgz:561203.got - 2010.06.27 13:26:56.
