data_PCOD8040373
_publ_section_title
;
Structure prediction by ZEFSAII (Michael W. Deem and Ramdas Pophale) SiO2 
 PCOD8040373
Probable space group: P -1
;
_chemical_formula_sum "Si O2"
_cell_formula_units_Z 16
_cell_length_a 19.687070
_cell_length_b 22.810081
_cell_length_c 12.131442
_cell_angle_alpha 151.362288
_cell_angle_beta 38.142641
_cell_angle_gamma 161.736830
_cell_volume 777.167583
_symmetry_space_group_name_H-M "P -1"
_symmetry_group_IT_number 2
_symmetry_cell_setting 'triclinic'
loop_
_space_group_symop_operation_xyz
x,y,z
-x,-y,-z
loop_
_atom_site_type_symbol
_atom_site_label
_atom_site_fract_x
_atom_site_fract_y
_atom_site_fract_z
Si Si1 0.102185 0.013311 0.986293
Si Si2 0.359550 0.892055 0.655624
Si Si3 0.771870 0.468183 0.020432
Si Si4 0.469408 0.726750 0.201923
Si Si5 0.755136 0.497806 0.517955
Si Si6 0.071527 0.565183 0.695209
Si Si7 0.088090 0.239996 0.473594
Si Si8 0.557051 0.697316 0.255755
O O1 0.305710 0.125007 0.875646
O O2 0.171052 0.177711 0.265085
O O3 0.900507 0.722575 0.790557
O O4 0.000000 0.000000 0.000000
O O5 0.493703 0.897820 0.463034
O O6 0.145239 0.703553 0.536062
O O7 0.262589 0.798322 0.749439
O O8 0.541698 0.177432 0.877832
O O9 0.721343 0.486538 0.998963
O O10 0.985577 0.587868 0.923779
O O11 0.844586 0.641284 0.299387
O O12 0.401207 0.609338 0.214656
O O13 0.798112 0.566913 0.448932
O O14 0.499619 0.291331 0.536537
O O15 0.807515 0.409010 0.331811
O O16 0.819714 0.980708 0.365340
O O17 0.500000 0.500000 0.000000
#
# Coordination Sequence:
#
# PCOD8040373 Si02
#       8
#     2   2   2   2   2   2   2   2
#     4  10  18  36  63  88 116 151 211 252 292 360
#     4  10  21  39  64  92 126 160 210 254 302 362
#     4  11  25  41  60  90 138 161 197 256 314 368
#     4  11  20  41  67  93 115 165 211 249 306 367
#     4  11  20  37  67  89 117 162 214 256 302 354
#     4  10  21  38  64  94 119 164 213 251 297 374
#     4  11  25  41  58  94 130 162 201 258 312 364
#     4  12  22  40  67  91 118 158 214 260 298 366
#
# _framework density 20.587579999999999
#
# number of rings (size 3 to 8) (size 9 to 14) (size 15 to 20)
#    0.000    1.250    5.000    3.750    0.000    2.000 
#    0.000    1.875    0.000    0.000    0.000    0.000 
#    0.000    0.000    0.000    0.000    0.000    0.000 
#
# Total GULP energy -198251.876296 kJ/mol
# GULP energy per Si atom -12390.742269 kJ/mol
# Density = 2.054072 g / cm^3
# Si number density = 20.587580 Si / 1000 Ang^3
#
#
#
# Elastic Constant Matrix: (Units=GPa)
#
#
# Indices 1 2 3 4 5 6 
#
# 1 62.8763 13.3103 13.2150 5.5062 1.4201 -3.1242
# 2 13.3103 105.7244 17.0497 -22.2602 0.5184 -3.1701
# 3 13.2150 17.0497 85.1467 -9.5482 18.0187 -1.1445
# 4 5.5062 -22.2602 -9.5482 22.5341 -1.6241 -5.5420
# 5 1.4201 0.5184 18.0187 -1.6241 25.9140 -11.6222
# 6 -3.1242 -3.1701 -1.1445 -5.5420 -11.6222 30.5865
#
#
#
# Elastic Compliance Matrix: (Units=1/GPa)
#
#
# Indices 1 2 3 4 5 6 
#
# 1 0.018212 -0.003781 -0.003295 -0.009557 0.000719 -0.000113
# 2 -0.003781 0.013499 -0.001193 0.015357 0.004112 0.005313
# 3 -0.003295 -0.001193 0.015457 0.004437 -0.011875 -0.003590
# 4 -0.009557 0.015357 0.004437 0.068470 0.008844 0.016548
# 5 0.000719 0.004112 -0.011875 0.008844 0.057888 0.023654
# 6 -0.000113 0.005313 -0.003590 0.016548 0.023654 0.045085
#
#
# Mechanical properties :
#
#
# Convention : Reuss Voigt Hill
#
# Bulk Modulus (GPa) = 32.64613 37.87751 35.26182
# Shear Modulus (GPa) = 20.37828 29.81842 25.09835
#
# Velocity S-wave (km/s) = 3.14958 3.80987 3.49535
# Velocity P-wave (km/s) = 5.39611 6.14749 5.78402
#
# Compressibility (1/GPa) = 0.03063150
#
# Stress axis : x y z
#
# Youngs Moduli (GPa) = 54.90847 74.07710 64.69520
#
# Poissons Ratio (x) = 0.28006 0.21316
# Poissons Ratio (y) = 0.20759 0.07718
# Poissons Ratio (z) = 0.18092 0.08838
#
# Static dielectric constant tensor:
#      x y z
#    x 4.113310 -0.359460 -0.124320 
#    y -0.359460 4.410610 -0.345970 
#    z -0.124320 -0.345970 3.912480 
# 
# 
# High freq. dielectric constant tensor:
#      x y z
#    x 1.795170 -0.006510 -0.015940 
#    y -0.006510 1.823880 -0.024710 
#    z -0.015940 -0.024710 1.782790 
# 
# From -- ./inp_files/467182.got.cif
#   From: 2010.06.25/outbox.cif.g09.slc.cpg/sg2_234_cif.got.tgz:467182.got - 2010.06.27 13:26:56.
