data_PCOD8040480
_publ_section_title
;
Structure prediction by ZEFSAII (Michael W. Deem and Ramdas Pophale) SiO2 
 PCOD8040480
Probable space group: P -1
;
_chemical_formula_sum "Si O2"
_cell_formula_units_Z 16
_cell_length_a 14.791213
_cell_length_b 11.054566
_cell_length_c 11.820109
_cell_angle_alpha 101.202228
_cell_angle_beta 58.077578
_cell_angle_gamma 53.606241
_cell_volume 882.970767
_symmetry_space_group_name_H-M "P -1"
_symmetry_group_IT_number 2
_symmetry_cell_setting 'triclinic'
loop_
_space_group_symop_operation_xyz
x,y,z
-x,-y,-z
loop_
_atom_site_type_symbol
_atom_site_label
_atom_site_fract_x
_atom_site_fract_y
_atom_site_fract_z
Si Si1 0.287259 0.810310 0.397221
Si Si2 0.661616 0.772076 0.119001
Si Si3 0.908893 0.629186 0.292481
Si Si4 0.295026 0.518866 0.338972
Si Si5 0.583806 0.118337 0.512283
Si Si6 0.593065 0.753464 0.582576
Si Si7 0.478895 0.762758 0.078631
Si Si8 0.072761 0.211762 0.489452
O O1 0.240721 0.713449 0.430279
O O2 0.363068 0.797528 0.461481
O O3 0.452910 0.672650 0.166446
O O4 0.091237 0.071789 0.532836
O O5 0.590798 0.773186 0.280183
O O6 0.633589 0.709554 0.018129
O O7 0.533300 0.018529 0.231326
O O8 0.888134 0.587328 0.946285
O O9 0.802154 0.602048 0.376695
O O10 0.949320 0.647001 0.392616
O O11 0.771905 0.848799 0.347298
O O12 0.378871 0.385270 0.374893
O O13 0.104707 0.627570 0.449529
O O14 0.456044 0.351333 0.105156
O O15 0.522226 0.190743 0.437055
O O16 0.271323 0.033426 0.252965
#
# Coordination Sequence:
#
# PCOD8040480 Si02
#       8
#     2   2   2   2   2   2   2   2
#     4   8  19  38  58  76 102 139 188 227 250 302
#     4  10  18  37  59  79 104 141 180 221 264 308
#     4  10  18  37  59  79 104 141 180 221 264 308
#     4  12  21  34  54  82 113 148 162 216 281 315
#     4   9  20  39  55  81 103 137 190 227 246 311
#     4  11  24  33  51  83 117 140 175 210 269 328
#     4   9  19  35  56  82 105 134 184 219 260 317
#     4   9  19  35  56  82 105 134 184 219 260 317
#
# _framework density 18.120643999999999
#
# number of rings (size 3 to 8) (size 9 to 14) (size 15 to 20)
#    0.750    1.500    3.750    2.250    0.000    4.500 
#    0.000    0.000    0.000    0.000    0.000    7.000 
#    0.000    0.000    0.000    0.000    0.000    0.000 
#
# Total GULP energy -198330.041729 kJ/mol
# GULP energy per Si atom -12395.627608 kJ/mol
# Density = 1.807940 g / cm^3
# Si number density = 18.120644 Si / 1000 Ang^3
#
#
#
# Elastic Constant Matrix: (Units=GPa)
#
#
# Indices 1 2 3 4 5 6 
#
# 1 61.3766 26.0732 6.1424 -5.8689 -2.2555 -17.3025
# 2 26.0732 68.8369 8.0996 -8.3409 2.4258 -16.4575
# 3 6.1424 8.0996 65.3068 11.9835 -15.8324 -9.3408
# 4 -5.8689 -8.3409 11.9835 14.0325 -5.2490 1.2133
# 5 -2.2555 2.4258 -15.8324 -5.2490 23.1363 2.8672
# 6 -17.3025 -16.4575 -9.3408 1.2133 2.8672 19.0560
#
#
#
# Elastic Compliance Matrix: (Units=1/GPa)
#
#
# Indices 1 2 3 4 5 6 
#
# 1 0.023585 -0.004101 0.000029 0.006725 0.002151 0.017135
# 2 -0.004101 0.020983 -0.003412 0.011091 -0.003983 0.012619
# 3 0.000029 -0.003412 0.022805 -0.018086 0.010900 0.007769
# 4 0.006725 0.011091 -0.018086 0.099910 0.009911 -0.001033
# 5 0.002151 -0.003983 0.010900 0.009911 0.054167 -0.004925
# 6 0.017135 0.012619 0.007769 -0.001033 -0.004925 0.083548
#
#
# Mechanical properties :
#
#
# Convention : Reuss Voigt Hill
#
# Bulk Modulus (GPa) = 19.08260 30.68340 24.88300
# Shear Modulus (GPa) = 14.81766 21.59198 18.20482
#
# Velocity S-wave (km/s) = 2.86269 3.45565 3.17305
# Velocity P-wave (km/s) = 4.63469 5.73513 5.21402
#
# Compressibility (1/GPa) = 0.05240375
#
# Stress axis : x y z
#
# Youngs Moduli (GPa) = 42.40065 47.65788 43.84925
#
# Poissons Ratio (x) = 0.19543 -0.00125
# Poissons Ratio (y) = 0.17387 0.14963
# Poissons Ratio (z) = -0.00121 0.16263
#
# Static dielectric constant tensor:
#      x y z
#    x 3.288450 -0.070790 -0.027260 
#    y -0.070790 2.973710 0.079410 
#    z -0.027260 0.079410 3.208630 
# 
# 
# High freq. dielectric constant tensor:
#      x y z
#    x 1.704670 -0.010130 -0.000910 
#    y -0.010130 1.668770 0.007840 
#    z -0.000910 0.007840 1.694130 
# 
# From -- ./inp_files/433507.got.cif
#   From: 2010.06.25/outbox.cif.g09.slc.cpg/sg2_217_cif.got.tgz:433507.got - 2010.06.27 13:26:56.
