data_PCOD8040497
_publ_section_title
;
Structure prediction by ZEFSAII (Michael W. Deem and Ramdas Pophale) SiO2 
 PCOD8040497
Probable space group: P -1
;
_chemical_formula_sum "Si O2"
_cell_formula_units_Z 16
_cell_length_a 11.646197
_cell_length_b 13.609155
_cell_length_c 10.701582
_cell_angle_alpha 53.831632
_cell_angle_beta 70.881134
_cell_angle_gamma 114.126698
_cell_volume 794.358010
_symmetry_space_group_name_H-M "P -1"
_symmetry_group_IT_number 2
_symmetry_cell_setting 'triclinic'
loop_
_space_group_symop_operation_xyz
x,y,z
-x,-y,-z
loop_
_atom_site_type_symbol
_atom_site_label
_atom_site_fract_x
_atom_site_fract_y
_atom_site_fract_z
Si Si1 0.247672 0.544891 0.585482
Si Si2 0.988524 0.561543 0.748338
Si Si3 0.411637 0.059649 0.952744
Si Si4 0.235168 0.366131 0.949536
Si Si5 0.167466 0.906789 0.575985
Si Si6 0.993488 0.638044 0.418787
Si Si7 0.639414 0.798771 0.912007
Si Si8 0.582737 0.316436 0.151155
O O1 0.080800 0.502896 0.733136
O O2 0.458601 0.779973 0.325638
O O3 0.183769 0.451240 0.538314
O O4 0.267965 0.444215 0.740908
O O5 0.125162 0.736699 0.670641
O O6 0.970862 0.636167 0.577038
O O7 0.767591 0.370431 0.026431
O O8 0.423722 0.154518 0.997167
O O9 0.500000 0.000000 0.000000
O O10 0.188708 0.862998 0.132734
O O11 0.311099 0.288898 0.975033
O O12 0.366192 0.544943 0.866158
O O13 0.003078 0.184532 0.201175
O O14 0.171130 0.000789 0.384100
O O15 0.384166 0.082955 0.433980
O O16 0.000000 0.500000 0.500000
O O17 0.456894 0.642816 0.995849
#
# Coordination Sequence:
#
# PCOD8040497 Si02
#       8
#     2   2   2   2   2   2   2   2
#     4  11  25  35  59  88 131 159 185 246 301 360
#     4  10  18  37  59  91 114 145 205 250 298 338
#     4  12  21  40  65  91 117 148 206 253 292 343
#     4  11  23  42  54  89 129 159 195 235 302 359
#     4   9  20  37  65  86 111 155 204 254 286 338
#     4  10  19  34  61  86 115 153 194 244 290 347
#     4  10  21  40  66  86 114 159 203 251 284 348
#     4   9  21  35  65  90 109 157 204 246 289 341
#
# _framework density 20.142052
#
# number of rings (size 3 to 8) (size 9 to 14) (size 15 to 20)
#    0.750    1.000    3.750    1.500    1.750    3.500 
#    0.000    1.875    0.000    0.000    0.000    0.000 
#    0.000    0.000    0.000    0.000    0.000    0.000 
#
# Total GULP energy -198287.724318 kJ/mol
# GULP energy per Si atom -12392.982770 kJ/mol
# Density = 2.009621 g / cm^3
# Si number density = 20.142052 Si / 1000 Ang^3
#
#
#
# Elastic Constant Matrix: (Units=GPa)
#
#
# Indices 1 2 3 4 5 6 
#
# 1 44.8354 19.2402 30.8667 -2.9558 7.8687 5.8653
# 2 19.2402 78.0394 26.6054 -8.6261 -9.8046 4.6963
# 3 30.8667 26.6054 108.0143 -13.6227 -10.3281 10.4714
# 4 -2.9558 -8.6261 -13.6227 29.9948 11.9189 -9.6031
# 5 7.8687 -9.8046 -10.3281 11.9189 31.9474 0.9560
# 6 5.8653 4.6963 10.4714 -9.6031 0.9560 21.0093
#
#
#
# Elastic Compliance Matrix: (Units=1/GPa)
#
#
# Indices 1 2 3 4 5 6 
#
# 1 0.034353 -0.006814 -0.009026 0.002444 -0.014328 -0.001800
# 2 -0.006814 0.015777 -0.001194 0.000650 0.005922 -0.001002
# 3 -0.009026 -0.001194 0.013183 0.001401 0.005698 -0.003403
# 4 0.002444 0.000650 0.001401 0.048802 -0.018804 0.021637
# 5 -0.014328 0.005922 0.005698 -0.018804 0.045830 -0.010844
# 6 -0.001800 -0.001002 -0.003403 0.021637 -0.010844 0.060404
#
#
# Mechanical properties :
#
#
# Convention : Reuss Voigt Hill
#
# Bulk Modulus (GPa) = 34.19310 42.70153 38.44732
# Shear Modulus (GPa) = 19.07205 26.86877 22.97041
#
# Velocity S-wave (km/s) = 3.08047 3.65631 3.38067
# Velocity P-wave (km/s) = 5.44658 6.25068 5.86243
#
# Compressibility (1/GPa) = 0.02924566
#
# Stress axis : x y z
#
# Youngs Moduli (GPa) = 29.10961 63.38309 75.85731
#
# Poissons Ratio (x) = 0.43190 0.68467
# Poissons Ratio (y) = 0.19836 0.09054
# Poissons Ratio (z) = 0.26274 0.07565
#
# Static dielectric constant tensor:
#      x y z
#    x 3.381490 0.273750 -0.111310 
#    y 0.273750 3.772610 -0.098110 
#    z -0.111310 -0.098110 3.741220 
# 
# 
# High freq. dielectric constant tensor:
#      x y z
#    x 1.751700 0.007870 -0.011980 
#    y 0.007870 1.782780 -0.005190 
#    z -0.011980 -0.005190 1.792250 
# 
# From -- ./inp_files/431046.got.cif
#   From: 2010.06.25/outbox.cif.g09.slc.cpg/sg2_216_cif.got.tgz:431046.got - 2010.06.27 13:26:56.
