data_PCOD8040547
_publ_section_title
;
Structure prediction by ZEFSAII (Michael W. Deem and Ramdas Pophale) SiO2 
 PCOD8040547
Probable space group: P -1
;
_chemical_formula_sum "Si O2"
_cell_formula_units_Z 16
_cell_length_a 14.882864
_cell_length_b 8.774476
_cell_length_c 19.795143
_cell_angle_alpha 125.466319
_cell_angle_beta 19.002625
_cell_angle_gamma 123.512680
_cell_volume 685.481701
_symmetry_space_group_name_H-M "P -1"
_symmetry_group_IT_number 2
_symmetry_cell_setting 'triclinic'
loop_
_space_group_symop_operation_xyz
x,y,z
-x,-y,-z
loop_
_atom_site_type_symbol
_atom_site_label
_atom_site_fract_x
_atom_site_fract_y
_atom_site_fract_z
Si Si1 0.559774 0.315065 0.450727
Si Si2 0.019486 0.192524 0.747384
Si Si3 0.216042 0.092953 0.246448
Si Si4 0.461620 0.541125 0.348462
Si Si5 0.860418 0.610776 0.968198
Si Si6 0.511687 0.870531 0.803634
Si Si7 0.888158 0.590176 0.701535
Si Si8 0.513449 0.730573 0.123060
O O1 0.500000 0.500000 0.500000
O O2 0.550114 0.343575 0.545114
O O3 0.869045 0.251899 0.193336
O O4 0.319688 0.167640 0.562799
O O5 0.955566 0.403865 0.823938
O O6 0.019299 0.059713 0.646770
O O7 0.787982 0.119059 0.945231
O O8 0.237387 0.131089 0.320810
O O9 0.161386 0.289638 0.299576
O O10 0.500000 0.000000 0.000000
O O11 0.470036 0.319232 0.302118
O O12 0.208413 0.584751 0.490521
O O13 0.741931 0.603527 0.126376
O O14 0.625028 0.679099 0.103639
O O15 0.553742 0.049746 0.772064
O O16 0.770573 0.382255 0.717483
O O17 0.734195 0.685232 0.897520
#
# Coordination Sequence:
#
# PCOD8040547 Si02
#       8
#     2   2   2   2   2   2   2   2
#     4  10  22  41  69  96 123 173 226 262 316 385
#     4   9  19  37  65  93 125 175 216 261 318 389
#     4  10  18  37  61  99 127 173 213 257 329 386
#     4  11  24  44  66  98 130 172 214 267 327 380
#     4  10  22  40  64  92 133 166 215 270 316 381
#     4  10  22  37  66  97 137 166 211 271 325 382
#     4  11  22  36  66  93 131 174 215 260 321 393
#     4  11  21  37  63  98 130 173 214 261 324 388
#
# _framework density 23.341249999999999
#
# number of rings (size 3 to 8) (size 9 to 14) (size 15 to 20)
#    0.000    1.750    3.750    2.250    1.750    7.000 
#    0.000    5.000    0.000    6.000    0.000    0.000 
#    0.000    0.000    0.000    0.000    0.000    0.000 
#
# Total GULP energy -198381.499475 kJ/mol
# GULP energy per Si atom -12398.843717 kJ/mol
# Density = 2.328812 g / cm^3
# Si number density = 23.341250 Si / 1000 Ang^3
#
#
#
# Elastic Constant Matrix: (Units=GPa)
#
#
# Indices 1 2 3 4 5 6 
#
# 1 98.5615 40.7060 40.6250 -14.4356 -15.4000 -0.3157
# 2 40.7060 105.7774 42.0308 -13.8621 -17.0897 -5.6032
# 3 40.6250 42.0308 105.0712 -18.9373 -12.5688 14.7909
# 4 -14.4356 -13.8621 -18.9373 19.9363 4.3684 -16.1260
# 5 -15.4000 -17.0897 -12.5688 4.3684 26.5962 -7.1923
# 6 -0.3157 -5.6032 14.7909 -16.1260 -7.1923 37.6965
#
#
#
# Elastic Compliance Matrix: (Units=1/GPa)
#
#
# Indices 1 2 3 4 5 6 
#
# 1 0.014715 -0.001588 -0.003397 0.010582 0.006021 0.006896
# 2 -0.001588 0.014980 -0.003661 0.012598 0.007751 0.010518
# 3 -0.003397 -0.003661 0.013757 0.004909 0.000346 -0.003805
# 4 0.010582 0.012598 0.004909 0.107802 0.011931 0.048427
# 5 0.006021 0.007751 0.000346 0.011931 0.048438 0.015412
# 6 0.006896 0.010518 -0.003805 0.048427 0.015412 0.053299
#
#
# Mechanical properties :
#
#
# Convention : Reuss Voigt Hill
#
# Bulk Modulus (GPa) = 38.22774 61.79263 50.01019
# Shear Modulus (GPa) = 17.92091 29.24902 23.58496
#
# Velocity S-wave (km/s) = 2.77389 3.54376 3.18219
# Velocity P-wave (km/s) = 5.16455 6.57840 5.91388
#
# Compressibility (1/GPa) = 0.02615902
#
# Stress axis : x y z
#
# Youngs Moduli (GPa) = 67.95844 66.75560 72.68863
#
# Poissons Ratio (x) = 0.10599 0.24696
# Poissons Ratio (y) = 0.10790 0.26614
# Poissons Ratio (z) = 0.23089 0.24442
#
# Static dielectric constant tensor:
#      x y z
#    x 4.253580 0.268730 -0.266990 
#    y 0.268730 4.454150 -0.401690 
#    z -0.266990 -0.401690 4.577920 
# 
# 
# High freq. dielectric constant tensor:
#      x y z
#    x 1.916620 -0.000870 -0.007560 
#    y -0.000870 1.907540 -0.012450 
#    z -0.007560 -0.012450 1.929940 
# 
# From -- ./inp_files/537644.got.cif
#   From: 2010.06.25/outbox.cif.g09.slc.cpg/sg2_269_cif.got.tgz:537644.got - 2010.06.27 13:26:56.
