data_PCOD8040177
_publ_section_title
;
Structure prediction by ZEFSAII (Michael W. Deem and Ramdas Pophale) SiO2 
 PCOD8040177
Probable space group: P -1
;
_chemical_formula_sum "Si O2"
_cell_formula_units_Z 16
_cell_length_a 16.354045
_cell_length_b 21.431446
_cell_length_c 10.759226
_cell_angle_alpha 145.938939
_cell_angle_beta 145.937537
_cell_angle_gamma 24.379715
_cell_volume 826.130327
_symmetry_space_group_name_H-M "P -1"
_symmetry_group_IT_number 2
_symmetry_cell_setting 'triclinic'
loop_
_space_group_symop_operation_xyz
x,y,z
-x,-y,-z
loop_
_atom_site_type_symbol
_atom_site_label
_atom_site_fract_x
_atom_site_fract_y
_atom_site_fract_z
Si Si1 0.240267 0.936856 0.774528
Si Si2 0.318707 0.302403 0.142152
Si Si3 0.865186 0.253104 0.702972
Si Si4 0.868469 0.219677 0.249587
Si Si5 0.069616 0.628181 0.248313
Si Si6 0.050290 0.923441 0.136134
Si Si7 0.564624 0.537855 0.967845
Si Si8 0.513227 0.653706 0.348139
O O1 0.472206 0.859764 0.927436
O O2 0.268003 0.789013 0.535269
O O3 0.101167 0.083072 0.742986
O O4 0.138477 0.009332 0.900844
O O5 0.221951 0.439814 0.145592
O O6 0.365499 0.326823 0.378312
O O7 0.161681 0.285579 0.937856
O O8 0.846017 0.329663 0.676555
O O9 0.777915 0.387068 0.918132
O O10 0.924609 0.313957 0.516158
O O11 0.622952 0.316596 0.118534
O O12 0.931796 0.178584 0.116742
O O13 0.009962 0.064377 0.257142
O O14 0.264913 0.816413 0.307654
O O15 0.448588 0.491827 0.798242
O O16 0.604236 0.605890 0.241221
#
# Coordination Sequence:
#
# PCOD8040177 Si02
#       8
#     2   2   2   2   2   2   2   2
#     4  11  20  35  57  85 113 140 186 238 275 320
#     4  11  24  39  56  80 116 154 183 225 278 334
#     4  11  21  35  57  87 111 141 190 233 276 325
#     4  10  20  35  56  85 114 145 180 228 281 324
#     4  11  24  39  55  81 117 152 185 221 279 341
#     4  10  20  34  58  87 112 137 185 238 275 321
#     4  10  19  32  60  84 105 142 187 234 275 315
#     4  10  18  36  56  82 111 141 186 230 274 323
#
# _framework density 19.367404000000001
#
# number of rings (size 3 to 8) (size 9 to 14) (size 15 to 20)
#    0.000    1.500    5.000    0.750    1.750    1.500 
#    0.000    1.250    0.000    0.000    0.000    0.000 
#    0.000    0.000    0.000    0.000    0.000    0.000 
#
# Total GULP energy -198308.206774 kJ/mol
# GULP energy per Si atom -12394.262923 kJ/mol
# Density = 1.932332 g / cm^3
# Si number density = 19.367404 Si / 1000 Ang^3
#
#
#
# Elastic Constant Matrix: (Units=GPa)
#
#
# Indices 1 2 3 4 5 6 
#
# 1 57.7993 28.0335 33.2638 0.5384 -16.3021 -3.6798
# 2 28.0335 92.9797 27.4775 -3.4228 -6.6711 -13.4608
# 3 33.2638 27.4775 72.8127 -12.8109 -12.6192 -11.4456
# 4 0.5384 -3.4228 -12.8109 29.4736 -1.8393 -5.0838
# 5 -16.3021 -6.6711 -12.6192 -1.8393 19.0790 6.2825
# 6 -3.6798 -13.4608 -11.4456 -5.0838 6.2825 34.3357
#
#
#
# Elastic Compliance Matrix: (Units=1/GPa)
#
#
# Indices 1 2 3 4 5 6 
#
# 1 0.031694 -0.006176 -0.010974 -0.006085 0.019427 -0.007138
# 2 -0.006176 0.013705 -0.001860 0.001543 -0.003181 0.004901
# 3 -0.010974 -0.001860 0.023283 0.011541 0.004250 0.006787
# 4 -0.006085 0.001543 0.011541 0.041060 0.003914 0.009163
# 5 0.019427 -0.003181 0.004250 0.003914 0.074655 -0.010828
# 6 -0.007138 0.004901 0.006787 0.009163 -0.010828 0.035881
#
#
# Mechanical properties :
#
#
# Convention : Reuss Voigt Hill
#
# Bulk Modulus (GPa) = 32.61370 44.57126 38.59248
# Shear Modulus (GPa) = 18.62063 25.56546 22.09304
#
# Velocity S-wave (km/s) = 3.10408 3.63716 3.38114
# Velocity P-wave (km/s) = 5.45189 6.37982 5.93402
#
# Compressibility (1/GPa) = 0.03066196
#
# Stress axis : x y z
#
# Youngs Moduli (GPa) = 31.55165 72.96647 42.94956
#
# Poissons Ratio (x) = 0.45066 0.47134
# Poissons Ratio (y) = 0.19487 0.07987
# Poissons Ratio (z) = 0.34626 0.13568
#
# Static dielectric constant tensor:
#      x y z
#    x 3.365940 0.111520 -0.346910 
#    y 0.111520 3.761000 0.086630 
#    z -0.346910 0.086630 3.406370 
# 
# 
# High freq. dielectric constant tensor:
#      x y z
#    x 1.732170 0.011350 -0.037000 
#    y 0.011350 1.778390 0.009680 
#    z -0.037000 0.009680 1.722880 
# 
# From -- ./inp_files/262296.got.cif
#   From: 2010.06.25/outbox.cif.g09.slc.cpg/sg2_132_cif.got.tgz:262296.got - 2010.06.27 13:26:56.
