data_PCOD8040316
_publ_section_title
;
Structure prediction by ZEFSAII (Michael W. Deem and Ramdas Pophale) SiO2 
 PCOD8040316
Probable space group: P -1
;
_chemical_formula_sum "Si O2"
_cell_formula_units_Z 16
_cell_length_a 6.424527
_cell_length_b 9.119959
_cell_length_c 18.606742
_cell_angle_alpha 125.856759
_cell_angle_beta 114.148500
_cell_angle_gamma 51.851203
_cell_volume 692.946122
_symmetry_space_group_name_H-M "P -1"
_symmetry_group_IT_number 2
_symmetry_cell_setting 'triclinic'
loop_
_space_group_symop_operation_xyz
x,y,z
-x,-y,-z
loop_
_atom_site_type_symbol
_atom_site_label
_atom_site_fract_x
_atom_site_fract_y
_atom_site_fract_z
Si Si1 0.270422 0.501346 0.885633
Si Si2 0.051470 0.445979 0.697650
Si Si3 0.126941 0.026576 0.322211
Si Si4 0.678442 0.908387 0.770440
Si Si5 0.854704 0.189416 0.931047
Si Si6 0.129637 0.200684 0.844862
Si Si7 0.190880 0.833035 0.421059
Si Si8 0.785525 0.505460 0.416551
O O1 0.580727 0.365344 0.905839
O O2 0.099635 0.421832 0.883053
O O3 0.234501 0.476732 0.789601
O O4 0.153746 0.742444 0.966971
O O5 0.777642 0.664859 0.715680
O O6 0.972236 0.276136 0.661230
O O7 0.201578 0.392160 0.627430
O O8 0.348810 0.020400 0.297433
O O9 0.863220 0.261789 0.348556
O O10 0.231230 0.963857 0.400415
O O11 0.081510 0.841747 0.235951
O O12 0.878671 0.963407 0.857846
O O13 0.410011 0.014498 0.805588
O O14 0.094804 0.191629 0.923415
O O15 0.479961 0.657098 0.443748
O O16 0.000000 0.000000 0.500000
O O17 0.000000 0.500000 0.500000
#
# Coordination Sequence:
#
# PCOD8040316 Si02
#       8
#     2   2   2   2   2   2   2   2
#     4  10  20  36  61  94 130 166 217 261 313 384
#     4  11  24  42  67  94 126 171 219 268 321 392
#     4  10  22  41  65  93 130 171 215 267 325 398
#     4   9  21  38  61  91 130 171 209 263 321 377
#     4   9  20  36  59  95 130 173 207 261 319 377
#     4  10  18  36  61  88 127 170 210 259 321 374
#     4  12  27  44  70 100 126 171 227 275 333 404
#     4  11  27  47  66  96 136 171 215 281 342 393
#
# _framework density 23.089817
#
# number of rings (size 3 to 8) (size 9 to 14) (size 15 to 20)
#    0.000    1.750    1.250    1.875    5.250    6.500 
#    0.000    0.625    0.000    0.000    0.000    0.000 
#    0.000    0.000    0.000    0.000    0.000    0.000 
#
# Total GULP energy -198256.487447 kJ/mol
# GULP energy per Si atom -12391.030465 kJ/mol
# Density = 2.303726 g / cm^3
# Si number density = 23.089817 Si / 1000 Ang^3
#
#
#
# Elastic Constant Matrix: (Units=GPa)
#
#
# Indices 1 2 3 4 5 6 
#
# 1 97.8660 30.8442 39.7810 -2.5727 -19.0650 -11.4301
# 2 30.8442 59.3861 25.6472 3.3125 -11.8706 0.4829
# 3 39.7810 25.6472 132.5310 -1.7722 -20.4149 -6.8587
# 4 -2.5727 3.3125 -1.7722 39.0980 0.8484 -0.6909
# 5 -19.0650 -11.8706 -20.4149 0.8484 27.9903 4.7014
# 6 -11.4301 0.4829 -6.8587 -0.6909 4.7014 31.7637
#
#
#
# Elastic Compliance Matrix: (Units=1/GPa)
#
#
# Indices 1 2 3 4 5 6 
#
# 1 0.014384 -0.005599 -0.002224 0.001282 0.005080 0.004057
# 2 -0.005599 0.021704 -0.002029 -0.002461 0.004575 -0.003514
# 3 -0.002224 -0.002029 0.009304 0.000365 0.004297 0.000611
# 4 0.001282 -0.002461 0.000365 0.025928 -0.000905 0.001275
# 5 0.005080 0.004575 0.004297 -0.000905 0.044958 -0.003988
# 6 0.004057 -0.003514 0.000611 0.001275 -0.003988 0.033746
#
#
# Mechanical properties :
#
#
# Convention : Reuss Voigt Hill
#
# Bulk Modulus (GPa) = 38.93140 53.59198 46.26169
# Shear Modulus (GPa) = 28.04381 32.67113 30.35747
#
# Velocity S-wave (km/s) = 3.48882 3.76567 3.62989
# Velocity P-wave (km/s) = 5.75558 6.49366 6.13573
#
# Compressibility (1/GPa) = 0.02568621
#
# Stress axis : x y z
#
# Youngs Moduli (GPa) = 69.52132 46.07461 107.47870
#
# Poissons Ratio (x) = 0.25798 0.23908
# Poissons Ratio (y) = 0.38926 0.21812
# Poissons Ratio (z) = 0.15464 0.09350
#
# Static dielectric constant tensor:
#      x y z
#    x 4.194410 0.217320 -0.155060 
#    y 0.217320 4.084970 0.317400 
#    z -0.155060 0.317400 4.387630 
# 
# 
# High freq. dielectric constant tensor:
#      x y z
#    x 1.905960 0.006730 -0.014200 
#    y 0.006730 1.895040 0.023850 
#    z -0.014200 0.023850 1.921320 
# 
# From -- ./inp_files/548341.got.cif
#   From: 2010.06.25/outbox.cif.g09.slc.cpg/sg2_275_cif.got.tgz:548341.got - 2010.06.27 13:26:56.
