data_PCOD8040814
_publ_section_title
;
Structure prediction by ZEFSAII (Michael W. Deem and Ramdas Pophale) SiO2 
 PCOD8040814
Probable space group: P -1
;
_chemical_formula_sum "Si O2"
_cell_formula_units_Z 16
_cell_length_a 13.992326
_cell_length_b 9.467236
_cell_length_c 8.787582
_cell_angle_alpha 125.635912
_cell_angle_beta 72.728706
_cell_angle_gamma 123.217942
_cell_volume 791.065808
_symmetry_space_group_name_H-M "P -1"
_symmetry_group_IT_number 2
_symmetry_cell_setting 'triclinic'
loop_
_space_group_symop_operation_xyz
x,y,z
-x,-y,-z
loop_
_atom_site_type_symbol
_atom_site_label
_atom_site_fract_x
_atom_site_fract_y
_atom_site_fract_z
Si Si1 0.541322 0.034759 0.832350
Si Si2 0.787742 0.726502 0.823943
Si Si3 0.068657 0.886153 0.427599
Si Si4 0.256562 0.991563 0.169277
Si Si5 0.608764 0.474933 0.969310
Si Si6 0.229946 0.114808 0.773144
Si Si7 0.914694 0.553923 0.488561
Si Si8 0.298750 0.846645 0.743069
O O1 0.429307 0.884160 0.694506
O O2 0.643774 0.979295 0.738061
O O3 0.581707 0.262921 0.913408
O O4 0.500000 0.000000 0.000000
O O5 0.684294 0.518829 0.806445
O O6 0.893593 0.705515 0.697180
O O7 0.732829 0.801618 0.764345
O O8 0.838612 0.884377 0.039617
O O9 0.137018 0.873864 0.241438
O O10 0.977965 0.660443 0.370211
O O11 0.150036 0.997359 0.599852
O O12 0.000000 0.000000 0.500000
O O13 0.262143 0.868728 0.945352
O O14 0.500000 0.500000 0.000000
O O15 0.683940 0.653887 0.166858
O O16 0.300724 0.004846 0.721212
O O17 0.790392 0.373168 0.402832
O O18 0.000000 0.500000 0.500000
#
# Coordination Sequence:
#
# PCOD8040814 Si02
#       8
#     2   2   2   2   2   2   2   2
#     4  10  20  38  67  97 131 157 205 270 315 375
#     4   9  22  43  63  91 127 167 214 250 312 387
#     4  12  25  41  63  94 131 164 212 272 305 371
#     4  10  22  43  64  93 131 165 205 264 328 362
#     4  10  18  38  69  94 122 166 212 254 313 387
#     4   9  21  40  66  90 122 168 212 248 319 370
#     4  12  25  41  65  93 128 166 224 260 305 374
#     4  10  21  43  65  93 125 171 207 259 317 376
#
# _framework density 20.225877000000001
#
# number of rings (size 3 to 8) (size 9 to 14) (size 15 to 20)
#    0.750    1.000    3.750    0.750    1.750    4.000 
#    2.250    1.875    0.000    0.000    0.000    0.000 
#    0.000    0.000    0.000    0.000    0.000    0.000 
#
# Total GULP energy -198209.357922 kJ/mol
# GULP energy per Si atom -12388.084870 kJ/mol
# Density = 2.017984 g / cm^3
# Si number density = 20.225877 Si / 1000 Ang^3
#
#
#
# Elastic Constant Matrix: (Units=GPa)
#
#
# Indices 1 2 3 4 5 6 
#
# 1 99.9709 21.0544 16.9560 -3.0213 -2.5011 -18.9803
# 2 21.0544 136.3005 8.3959 -8.6671 4.0259 -5.4003
# 3 16.9560 8.3959 39.6720 -2.9938 3.3061 -3.2532
# 4 -3.0213 -8.6671 -2.9938 32.6996 9.8812 2.5582
# 5 -2.5011 4.0259 3.3061 9.8812 34.5066 1.0342
# 6 -18.9803 -5.4003 -3.2532 2.5582 1.0342 36.7611
#
#
#
# Elastic Compliance Matrix: (Units=1/GPa)
#
#
# Indices 1 2 3 4 5 6 
#
# 1 0.012186 -0.001455 -0.004603 -0.000574 0.001489 0.005669
# 2 -0.001455 0.007811 -0.000701 0.002347 -0.001628 0.000217
# 3 -0.004603 -0.000701 0.027863 0.003099 -0.003805 -0.000122
# 4 -0.000574 0.002347 0.003099 0.034751 -0.010510 -0.001800
# 5 0.001489 -0.001628 -0.003805 -0.010510 0.032652 0.000005
# 6 0.005669 0.000217 -0.000122 -0.001800 0.000005 0.030276
#
#
# Mechanical properties :
#
#
# Convention : Reuss Voigt Hill
#
# Bulk Modulus (GPa) = 29.11799 40.97289 35.04544
# Shear Modulus (GPa) = 29.32503 36.09594 32.71049
#
# Velocity S-wave (km/s) = 3.81186 4.22909 4.02588
# Velocity P-wave (km/s) = 5.81389 6.64443 6.24299
#
# Compressibility (1/GPa) = 0.03434303
#
# Stress axis : x y z
#
# Youngs Moduli (GPa) = 82.06014 128.03274 35.88948
#
# Poissons Ratio (x) = 0.18626 0.16520
# Poissons Ratio (y) = 0.11938 0.02515
# Poissons Ratio (z) = 0.37773 0.08971
#
# Static dielectric constant tensor:
#      x y z
#    x 4.219090 -0.039340 0.084960 
#    y -0.039340 3.900350 -0.167710 
#    z 0.084960 -0.167710 3.470750 
# 
# 
# High freq. dielectric constant tensor:
#      x y z
#    x 1.802710 -0.004490 -0.004130 
#    y -0.004490 1.795810 -0.011690 
#    z -0.004130 -0.011690 1.761690 
# 
# From -- ./inp_files/292964.got.cif
#   From: 2010.06.25/outbox.cif.g09.slc.cpg/sg2_147_cif.got.tgz:292964.got - 2010.06.27 13:26:56.
