data_PCOD8040722
_publ_section_title
;
Structure prediction by ZEFSAII (Michael W. Deem and Ramdas Pophale) SiO2 
 PCOD8040722
Probable space group: P -1
;
_chemical_formula_sum "Si O2"
_cell_formula_units_Z 12
_cell_length_a 11.574113
_cell_length_b 9.389691
_cell_length_c 8.892531
_cell_angle_alpha 77.006515
_cell_angle_beta 111.082045
_cell_angle_gamma 55.270016
_cell_volume 613.761114
_symmetry_space_group_name_H-M "P -1"
_symmetry_group_IT_number 2
_symmetry_cell_setting 'triclinic'
loop_
_space_group_symop_operation_xyz
x,y,z
-x,-y,-z
loop_
_atom_site_type_symbol
_atom_site_label
_atom_site_fract_x
_atom_site_fract_y
_atom_site_fract_z
Si Si1 0.517978 0.431648 0.858114
Si Si2 0.319353 0.708069 0.443692
Si Si3 0.813948 0.873130 0.807091
Si Si4 0.192570 0.640005 0.159837
Si Si5 0.480792 0.903526 0.149718
Si Si6 0.667646 0.775579 0.566115
O O1 0.342050 0.645580 0.642842
O O2 0.702724 0.340139 0.905872
O O3 0.520408 0.255484 0.885794
O O4 0.500000 0.500000 0.000000
O O5 0.500000 0.500000 0.500000
O O6 0.158952 0.756742 0.273477
O O7 0.296029 0.899767 0.368131
O O8 0.831424 0.736352 0.714524
O O9 0.703498 0.910063 0.891915
O O10 0.009425 0.750927 0.974265
O O11 0.314802 0.397796 0.310498
O O12 0.646800 0.781386 0.373688
O O13 0.500000 0.000000 0.000000
O O14 0.500000 0.000000 0.500000
#
# Coordination Sequence:
#
# PCOD8040722 Si02
#       6
#     2   2   2   2   2   2
#     4  11  23  38  61  88 117 157 199 241 290 349
#     4  10  18  38  62  85 113 156 203 235 281 353
#     4  11  22  38  65  91 115 154 197 249 292 341
#     4  11  21  40  64  88 118 150 203 249 288 339
#     4  11  23  39  59  88 120 157 195 240 294 352
#     4  10  21  39  62  87 117 160 199 234 286 363
#
# _framework density 19.551580000000001
#
# number of rings (size 3 to 8) (size 9 to 14) (size 15 to 20)
#    0.000    1.333    5.000    4.000    7.000    0.000 
#    0.000    3.333    0.000    0.000    0.000    0.000 
#    0.000    0.000    0.000    0.000    0.000    0.000 
#
# Total GULP energy -148705.298728 kJ/mol
# GULP energy per Si atom -12392.108227 kJ/mol
# Density = 1.950708 g / cm^3
# Si number density = 19.551580 Si / 1000 Ang^3
#
#
#
# Elastic Constant Matrix: (Units=GPa)
#
#
# Indices 1 2 3 4 5 6 
#
# 1 123.3590 50.3479 82.2593 13.0175 -5.7509 24.4627
# 2 50.3479 96.1962 51.8886 26.5380 -13.6504 24.4762
# 3 82.2593 51.8886 143.1531 33.0597 -5.6093 4.0910
# 4 13.0175 26.5380 33.0597 44.7346 13.8941 4.9194
# 5 -5.7509 -13.6504 -5.6093 13.8941 42.9615 -4.1354
# 6 24.4627 24.4762 4.0910 4.9194 -4.1354 28.9732
#
#
#
# Elastic Compliance Matrix: (Units=1/GPa)
#
#
# Indices 1 2 3 4 5 6 
#
# 1 0.018086 -0.002645 -0.010731 0.006687 -0.003246 -0.013119
# 2 -0.002645 0.020195 -0.002765 -0.010364 0.007942 -0.011543
# 3 -0.010731 -0.002765 0.016238 -0.009740 0.004046 0.011335
# 4 0.006687 -0.010364 -0.009740 0.039512 -0.016894 -0.004635
# 5 -0.003246 0.007942 0.004046 -0.016894 0.031631 0.002843
# 6 -0.013119 -0.011543 0.011335 -0.004635 0.002843 0.054935
#
#
# Mechanical properties :
#
#
# Convention : Reuss Voigt Hill
#
# Bulk Modulus (GPa) = 44.97117 81.30000 63.13558
# Shear Modulus (GPa) = 22.69717 35.21470 28.95593
#
# Velocity S-wave (km/s) = 3.41088 4.24856 3.85255
# Velocity P-wave (km/s) = 6.20994 8.10800 7.22160
#
# Compressibility (1/GPa) = 0.02223647
#
# Stress axis : x y z
#
# Youngs Moduli (GPa) = 55.29104 49.51763 61.58419
#
# Poissons Ratio (x) = 0.13099 0.66083
# Poissons Ratio (y) = 0.14627 0.17030
# Poissons Ratio (z) = 0.59330 0.13693
#
# Static dielectric constant tensor:
#      x y z
#    x 3.624780 0.630810 0.348490 
#    y 0.630810 3.728840 0.296160 
#    z 0.348490 0.296160 4.058290 
# 
# 
# High freq. dielectric constant tensor:
#      x y z
#    x 1.741410 0.047580 0.007820 
#    y 0.047580 1.755300 0.010970 
#    z 0.007820 0.010970 1.781660 
# 
# From -- ./inp_files/146472.got.cif
#   From: 2010.06.25/outbox.cif.g09.slc.cpg/sg2_74_cif.got.tgz:146472.got - 2010.06.27 13:26:56.
