data_PCOD8040056
_publ_section_title
;
Structure prediction by ZEFSAII (Michael W. Deem and Ramdas Pophale) SiO2 
 PCOD8040056
Probable space group: P -1
;
_chemical_formula_sum "Si O2"
_cell_formula_units_Z 16
_cell_length_a 14.521921
_cell_length_b 9.502622
_cell_length_c 11.454396
_cell_angle_alpha 45.802694
_cell_angle_beta 44.518855
_cell_angle_gamma 71.222261
_cell_volume 744.764737
_symmetry_space_group_name_H-M "P -1"
_symmetry_group_IT_number 2
_symmetry_cell_setting 'triclinic'
loop_
_space_group_symop_operation_xyz
x,y,z
-x,-y,-z
loop_
_atom_site_type_symbol
_atom_site_label
_atom_site_fract_x
_atom_site_fract_y
_atom_site_fract_z
Si Si1 0.701690 0.609274 0.147447
Si Si2 0.386773 0.510576 0.455563
Si Si3 0.227391 0.066334 0.784155
Si Si4 0.464340 0.131041 0.274751
Si Si5 0.643347 0.248145 0.251367
Si Si6 0.290774 0.681606 0.222331
Si Si7 0.893826 0.041933 0.797868
Si Si8 0.194827 0.229240 0.479941
O O1 0.552291 0.635364 0.243799
O O2 0.692608 0.495188 0.346660
O O3 0.736140 0.471720 0.092607
O O4 0.824631 0.833956 0.903526
O O5 0.362883 0.271797 0.574616
O O6 0.320551 0.628844 0.356957
O O7 0.153342 0.122074 0.706379
O O8 0.266910 0.862283 0.839231
O O9 0.123700 0.010946 0.018586
O O10 0.533307 0.280626 0.237687
O O11 0.325382 0.177905 0.336549
O O12 0.431224 0.895534 0.487775
O O13 0.566009 0.161914 0.054606
O O14 0.233653 0.477870 0.309944
O O15 0.174452 0.788068 0.273966
O O16 0.060854 0.135938 0.569853
#
# Coordination Sequence:
#
# PCOD8040056 Si02
#       8
#     2   2   2   2   2   2   2   2
#     4  10  21  36  58  87 122 155 188 238 293 349
#     4   9  20  36  58  87 118 148 198 246 285 335
#     4   9  18  37  61  87 109 153 204 240 280 338
#     4  10  20  35  64  91 113 144 203 248 287 331
#     4  10  18  35  62  91 114 146 196 252 282 335
#     4  11  21  37  62  89 113 150 201 246 288 334
#     4  11  22  37  57  87 122 156 189 233 296 355
#     4  10  21  36  57  87 121 149 191 247 289 340
#
# _framework density 21.483294000000001
#
# number of rings (size 3 to 8) (size 9 to 14) (size 15 to 20)
#    0.000    2.000    1.250    4.125    3.500    0.500 
#    0.000    2.500    0.000    3.000    0.000    0.000 
#    0.000    0.000    0.000    0.000    0.000    0.000 
#
# Total GULP energy -198359.393374 kJ/mol
# GULP energy per Si atom -12397.462086 kJ/mol
# Density = 2.143440 g / cm^3
# Si number density = 21.483294 Si / 1000 Ang^3
#
#
#
# Elastic Constant Matrix: (Units=GPa)
#
#
# Indices 1 2 3 4 5 6 
#
# 1 107.8777 40.3810 44.2849 -4.0043 -28.3882 -12.7656
# 2 40.3810 94.5166 20.0884 -4.7750 -19.9255 -1.9611
# 3 44.2849 20.0884 53.4282 -5.3034 -22.2357 -11.2114
# 4 -4.0043 -4.7750 -5.3034 20.9473 2.6254 -2.7700
# 5 -28.3882 -19.9255 -22.2357 2.6254 32.4851 -4.0724
# 6 -12.7656 -1.9611 -11.2114 -2.7700 -4.0724 27.9898
#
#
#
# Elastic Compliance Matrix: (Units=1/GPa)
#
#
# Indices 1 2 3 4 5 6 
#
# 1 0.016521 -0.003691 -0.008298 -0.000017 0.007120 0.004987
# 2 -0.003691 0.013235 0.000465 0.001836 0.005107 0.000355
# 3 -0.008298 0.000465 0.037682 0.007526 0.020101 0.015011
# 4 -0.000017 0.001836 0.007526 0.050795 0.003240 0.008634
# 5 0.007120 0.005107 0.020101 0.003240 0.056161 0.020148
# 6 0.004987 0.000355 0.015011 0.008634 0.020148 0.047825
#
#
# Mechanical properties :
#
#
# Convention : Reuss Voigt Hill
#
# Bulk Modulus (GPa) = 22.52714 51.70347 37.11531
# Shear Modulus (GPa) = 19.22611 26.35565 22.79088
#
# Velocity S-wave (km/s) = 2.99479 3.50637 3.26063
# Velocity P-wave (km/s) = 4.73994 6.36489 5.61155
#
# Compressibility (1/GPa) = 0.04439089
#
# Stress axis : x y z
#
# Youngs Moduli (GPa) = 60.52933 75.55726 26.53783
#
# Poissons Ratio (x) = 0.27889 0.22021
# Poissons Ratio (y) = 0.22342 -0.01235
# Poissons Ratio (z) = 0.50227 -0.03517
#
# Static dielectric constant tensor:
#      x y z
#    x 3.885650 0.107410 0.063240 
#    y 0.107410 3.623760 -0.183250 
#    z 0.063240 -0.183250 3.667930 
# 
# 
# High freq. dielectric constant tensor:
#      x y z
#    x 1.840610 -0.000540 0.005590 
#    y -0.000540 1.826960 -0.010500 
#    z 0.005590 -0.010500 1.824050 
# 
# From -- ./inp_files/446761.got.cif
#   From: 2010.06.25/outbox.cif.g09.slc.cpg/sg2_224_cif.got.tgz:446761.got - 2010.06.27 13:26:56.
