data_PCOD8040256
_publ_section_title
;
Structure prediction by ZEFSAII (Michael W. Deem and Ramdas Pophale) SiO2 
 PCOD8040256
Probable space group: P -1
;
_chemical_formula_sum "Si O2"
_cell_formula_units_Z 14
_cell_length_a 8.618756
_cell_length_b 11.839230
_cell_length_c 18.866123
_cell_angle_alpha 27.319121
_cell_angle_beta 121.866459
_cell_angle_gamma 129.013251
_cell_volume 683.831558
_symmetry_space_group_name_H-M "P -1"
_symmetry_group_IT_number 2
_symmetry_cell_setting 'triclinic'
loop_
_space_group_symop_operation_xyz
x,y,z
-x,-y,-z
loop_
_atom_site_type_symbol
_atom_site_label
_atom_site_fract_x
_atom_site_fract_y
_atom_site_fract_z
Si Si1 0.077382 0.769892 0.164959
Si Si2 0.755377 0.604411 0.935393
Si Si3 0.927924 0.044758 0.288797
Si Si4 0.876792 0.358309 0.228867
Si Si5 0.447451 0.992287 0.343023
Si Si6 0.491318 0.999617 0.803051
Si Si7 0.915746 0.396950 0.460060
O O1 0.031478 0.536344 0.225507
O O2 0.965170 0.646768 0.280153
O O3 0.317965 0.874985 0.169725
O O4 0.000000 0.000000 0.000000
O O5 0.673730 0.828231 0.800589
O O6 0.925709 0.700371 0.863166
O O7 0.845909 0.571307 0.050534
O O8 0.574177 0.321633 0.029980
O O9 0.942962 0.157175 0.310557
O O10 0.705122 0.946717 0.254685
O O11 0.988154 0.794821 0.443128
O O12 0.671268 0.171096 0.324972
O O13 0.451604 0.871020 0.333931
O O14 0.326099 0.763615 0.499108
O O15 0.000000 0.500000 0.500000
#
# Coordination Sequence:
#
# PCOD8040256 Si02
#       7
#     2   2   2   2   2   2   2
#     4  12  25  38  60  93 131 154 192 253 311 349
#     4   9  16  34  62  86 118 157 209 236 282 366
#     4   9  21  39  66  86 116 162 210 243 285 362
#     4  10  20  36  59  91 122 156 196 248 302 349
#     4   9  17  35  62  84 111 163 208 237 281 362
#     4  10  18  36  59  93 116 160 199 242 297 352
#     4  11  23  41  65  89 117 159 207 249 293 359
#
# _framework density 20.472877
#
# number of rings (size 3 to 8) (size 9 to 14) (size 15 to 20)
#    0.000    2.286    1.429    5.143    2.000    1.714 
#    0.000    2.857    6.286    0.000    0.000    0.000 
#    0.000    0.000    0.000    0.000    0.000    0.000 
#
# Total GULP energy -173488.041212 kJ/mol
# GULP energy per Si atom -12392.002944 kJ/mol
# Density = 2.042628 g / cm^3
# Si number density = 20.472877 Si / 1000 Ang^3
#
#
#
# Elastic Constant Matrix: (Units=GPa)
#
#
# Indices 1 2 3 4 5 6 
#
# 1 106.0446 45.3441 32.9337 -2.9624 -21.9650 4.1170
# 2 45.3441 147.3865 27.8576 2.0150 -8.7169 10.1085
# 3 32.9337 27.8576 99.5320 -3.6028 -27.0074 -0.0022
# 4 -2.9624 2.0150 -3.6028 13.4375 0.2744 -0.6365
# 5 -21.9650 -8.7169 -27.0074 0.2744 30.2327 -8.2026
# 6 4.1170 10.1085 -0.0022 -0.6365 -8.2026 28.7724
#
#
#
# Elastic Compliance Matrix: (Units=1/GPa)
#
#
# Indices 1 2 3 4 5 6 
#
# 1 0.012879 -0.003454 -0.001058 0.002992 0.007842 0.001672
# 2 -0.003454 0.008330 -0.002046 -0.002658 -0.002804 -0.003291
# 3 -0.001058 -0.002046 0.014620 0.003949 0.012926 0.004644
# 4 0.002992 -0.002658 0.003949 0.076604 0.005243 0.003695
# 5 0.007842 -0.002804 0.012926 0.005243 0.053606 0.015262
# 6 0.001672 -0.003291 0.004644 0.003695 0.015262 0.040106
#
#
# Mechanical properties :
#
#
# Convention : Reuss Voigt Hill
#
# Bulk Modulus (GPa) = 44.02777 62.80376 53.41577
# Shear Modulus (GPa) = 22.04284 30.94369 26.49327
#
# Velocity S-wave (km/s) = 3.28485 3.89195 3.60122
# Velocity P-wave (km/s) = 5.99492 7.13720 6.59085
#
# Compressibility (1/GPa) = 0.02271294
#
# Stress axis : x y z
#
# Youngs Moduli (GPa) = 77.64873 120.04288 68.39856
#
# Poissons Ratio (x) = 0.41461 0.07239
# Poissons Ratio (y) = 0.26819 0.13993
# Poissons Ratio (z) = 0.08219 0.24558
#
# Static dielectric constant tensor:
#      x y z
#    x 4.151310 0.176680 -0.441880 
#    y 0.176680 3.593220 -0.241210 
#    z -0.441880 -0.241210 3.781180 
# 
# 
# High freq. dielectric constant tensor:
#      x y z
#    x 1.809800 0.005370 -0.014060 
#    y 0.005370 1.783330 -0.018110 
#    z -0.014060 -0.018110 1.794090 
# 
# From -- ./inp_files/182449.got.cif
#   From: 2010.06.25/outbox.cif.g09.slc.cpg/sg2_92_cif.got.tgz:182449.got - 2010.06.27 13:26:56.
