data_PCOD8040871
_publ_section_title
;
Structure prediction by ZEFSAII (Michael W. Deem and Ramdas Pophale) SiO2 
 PCOD8040871
Probable space group: P -1
;
_chemical_formula_sum "Si O2"
_cell_formula_units_Z 16
_cell_length_a 14.894181
_cell_length_b 13.444679
_cell_length_c 10.551833
_cell_angle_alpha 124.734350
_cell_angle_beta 106.077147
_cell_angle_gamma 29.892369
_cell_volume 733.893962
_symmetry_space_group_name_H-M "P -1"
_symmetry_group_IT_number 2
_symmetry_cell_setting 'triclinic'
loop_
_space_group_symop_operation_xyz
x,y,z
-x,-y,-z
loop_
_atom_site_type_symbol
_atom_site_label
_atom_site_fract_x
_atom_site_fract_y
_atom_site_fract_z
Si Si1 0.743146 0.443927 0.411267
Si Si2 0.551747 0.175496 0.210312
Si Si3 0.639099 0.183513 0.617925
Si Si4 0.179022 0.043760 0.211773
Si Si5 0.336763 0.090500 0.182632
Si Si6 0.979425 0.410837 0.747381
Si Si7 0.260483 0.249118 0.867134
Si Si8 0.663329 0.280920 0.201896
O O1 0.674035 0.554158 0.609073
O O2 0.542701 0.698720 0.420337
O O3 0.806038 0.227504 0.269885
O O4 0.938440 0.302041 0.349523
O O5 0.642858 0.205178 0.249249
O O6 0.712649 0.910808 0.165394
O O7 0.530337 0.136577 0.037638
O O8 0.649582 0.176553 0.769530
O O9 0.572178 0.394409 0.692888
O O10 0.872287 0.875204 0.436280
O O11 0.198251 0.161977 0.265689
O O12 0.224719 0.902282 0.011193
O O13 0.191606 0.365348 0.267390
O O14 0.517849 0.948277 0.232577
O O15 0.117373 0.376975 0.784085
O O16 0.864083 0.518654 0.914690
#
# Coordination Sequence:
#
# PCOD8040871 Si02
#       8
#     2   2   2   2   2   2   2   2
#     4  10  22  37  65  89 118 157 195 252 295 348
#     4  10  18  39  65  89 116 155 197 251 298 342
#     4  10  23  37  64  87 125 150 202 248 292 354
#     4  11  23  42  61  87 121 167 198 236 303 358
#     4  10  24  38  63  88 124 160 198 242 293 359
#     4  10  20  37  61  92 117 159 198 243 303 349
#     4  10  20  38  64  86 128 153 192 251 300 349
#     4   9  21  41  65  84 121 157 199 248 301 349
#
# _framework density 21.801514999999998
#
# number of rings (size 3 to 8) (size 9 to 14) (size 15 to 20)
#    0.750    1.250    1.250    2.625    3.500    1.500 
#    0.000    1.875   13.750    0.000    0.000    0.000 
#    0.000    0.000    0.000    0.000    0.000    0.000 
#
# Total GULP energy -198249.993969 kJ/mol
# GULP energy per Si atom -12390.624623 kJ/mol
# Density = 2.175189 g / cm^3
# Si number density = 21.801515 Si / 1000 Ang^3
#
#
#
# Elastic Constant Matrix: (Units=GPa)
#
#
# Indices 1 2 3 4 5 6 
#
# 1 98.3286 19.6065 37.1208 6.3420 -18.7382 -9.7525
# 2 19.6065 54.3220 8.7689 8.2416 -12.4351 -17.7535
# 3 37.1208 8.7689 92.6509 13.6717 -15.9905 5.8693
# 4 6.3420 8.2416 13.6717 27.0264 0.6463 -4.5866
# 5 -18.7382 -12.4351 -15.9905 0.6463 26.2106 9.4068
# 6 -9.7525 -17.7535 5.8693 -4.5866 9.4068 31.7095
#
#
#
# Elastic Compliance Matrix: (Units=1/GPa)
#
#
# Indices 1 2 3 4 5 6 
#
# 1 0.013487 -0.002277 -0.004463 0.000042 0.005045 0.002209
# 2 -0.002277 0.025036 -0.000248 -0.005312 0.006390 0.010699
# 3 -0.004463 -0.000248 0.016156 -0.008763 0.009887 -0.008703
# 4 0.000042 -0.005312 -0.008763 0.044813 -0.012072 0.008724
# 5 0.005045 0.006390 0.009887 -0.012072 0.056587 -0.015234
# 6 0.002209 0.010699 -0.008703 0.008724 -0.015234 0.045598
#
#
# Mechanical properties :
#
#
# Convention : Reuss Voigt Hill
#
# Bulk Modulus (GPa) = 24.56953 41.81046 33.18999
# Shear Modulus (GPa) = 21.81301 28.97630 25.39465
#
# Velocity S-wave (km/s) = 3.16654 3.64963 3.41664
# Velocity P-wave (km/s) = 4.96623 6.08105 5.55169
#
# Compressibility (1/GPa) = 0.04070082
#
# Stress axis : x y z
#
# Youngs Moduli (GPa) = 74.14673 39.94272 61.89765
#
# Poissons Ratio (x) = 0.09095 0.27627
# Poissons Ratio (y) = 0.16882 0.01538
# Poissons Ratio (z) = 0.33095 0.00992
#
# Static dielectric constant tensor:
#      x y z
#    x 3.727010 -0.052650 0.121500 
#    y -0.052650 3.797670 -0.107960 
#    z 0.121500 -0.107960 4.044900 
# 
# 
# High freq. dielectric constant tensor:
#      x y z
#    x 1.830710 -0.015890 0.012370 
#    y -0.015890 1.840280 -0.001560 
#    z 0.012370 -0.001560 1.869450 
# 
# From -- ./inp_files/455884.got.cif
#   From: 2010.06.25/outbox.cif.g09.slc.cpg/sg2_228_cif.got.tgz:455884.got - 2010.06.27 13:26:56.
