data_PCOD8040679
_publ_section_title
;
Structure prediction by ZEFSAII (Michael W. Deem and Ramdas Pophale) SiO2 
 PCOD8040679
Probable space group: P -1
;
_chemical_formula_sum "Si O2"
_cell_formula_units_Z 16
_cell_length_a 21.152662
_cell_length_b 8.947093
_cell_length_c 27.488863
_cell_angle_alpha 150.868208
_cell_angle_beta 19.328015
_cell_angle_gamma 147.845970
_cell_volume 830.137346
_symmetry_space_group_name_H-M "P -1"
_symmetry_group_IT_number 2
_symmetry_cell_setting 'triclinic'
loop_
_space_group_symop_operation_xyz
x,y,z
-x,-y,-z
loop_
_atom_site_type_symbol
_atom_site_label
_atom_site_fract_x
_atom_site_fract_y
_atom_site_fract_z
Si Si1 0.018939 0.589324 0.327928
Si Si2 0.339479 0.386681 0.545740
Si Si3 0.991144 0.708686 0.491285
Si Si4 0.268026 0.309930 0.988159
Si Si5 0.041308 0.369939 0.078761
Si Si6 0.015125 0.265182 0.965581
Si Si7 0.691887 0.206749 0.404686
Si Si8 0.700503 0.307233 0.654272
O O1 0.045297 0.558177 0.357926
O O2 0.801591 0.419967 0.427616
O O3 0.038984 0.940380 0.395565
O O4 0.180101 0.437633 0.137562
O O5 0.500000 0.500000 0.500000
O O6 0.384062 0.569749 0.515814
O O7 0.135278 0.454407 0.731194
O O8 0.334039 0.024752 0.439808
O O9 0.793837 0.540770 0.611041
O O10 0.166687 0.681206 0.391737
O O11 0.497613 0.393473 0.845466
O O12 0.199408 0.470333 0.034133
O O13 0.197203 0.937046 0.930862
O O14 0.093610 0.473987 0.014771
O O15 0.000000 0.000000 0.000000
O O16 0.159264 0.012613 0.784453
O O17 0.000000 0.500000 0.000000
O O18 0.500000 0.000000 0.500000
#
# Coordination Sequence:
#
# PCOD8040679 Si02
#       8
#     2   2   2   2   2   2   2   2
#     4  10  21  45  63  87 125 168 202 262 316 362
#     4  12  23  37  63  92 127 162 201 254 310 373
#     4  10  23  42  66  87 124 163 214 261 307 369
#     4  10  21  39  63  85 125 161 210 260 309 366
#     4  10  18  38  57  80 122 168 197 244 307 369
#     4  10  22  36  56  87 126 166 202 249 308 375
#     4  11  24  38  60  93 129 158 205 251 313 382
#     4  11  24  40  63  96 119 164 217 258 307 372
#
# _framework density 19.27392
#
# number of rings (size 3 to 8) (size 9 to 14) (size 15 to 20)
#    0.000    1.500    5.000    1.500    5.250    2.000 
#    0.000    1.250    0.000    0.000    0.000    0.000 
#    0.000    0.000    0.000    0.000    0.000    0.000 
#
# Total GULP energy -198289.671482 kJ/mol
# GULP energy per Si atom -12393.104468 kJ/mol
# Density = 1.923005 g / cm^3
# Si number density = 19.273920 Si / 1000 Ang^3
#
#
#
# Elastic Constant Matrix: (Units=GPa)
#
#
# Indices 1 2 3 4 5 6 
#
# 1 142.3434 54.5837 45.6964 -11.2931 14.4424 4.0114
# 2 54.5837 109.7374 43.8917 -16.3441 3.5607 3.1118
# 3 45.6964 43.8917 93.2616 -15.6309 1.4228 10.5289
# 4 -11.2931 -16.3441 -15.6309 29.9261 4.1225 1.1223
# 5 14.4424 3.5607 1.4228 4.1225 34.2061 -0.0521
# 6 4.0114 3.1118 10.5289 1.1223 -0.0521 29.9645
#
#
#
# Elastic Compliance Matrix: (Units=1/GPa)
#
#
# Indices 1 2 3 4 5 6 
#
# 1 0.009728 -0.003414 -0.002983 0.000758 -0.003719 0.000066
# 2 -0.003414 0.012888 -0.003790 0.003787 -0.000199 0.000308
# 3 -0.002983 -0.003790 0.015328 0.004932 0.000415 -0.004777
# 4 0.000758 0.003787 0.004932 0.039264 -0.005657 -0.003708
# 5 -0.003719 -0.000199 0.000415 -0.005657 0.031491 0.000639
# 6 0.000066 0.000308 -0.004777 -0.003708 0.000639 0.035151
#
#
# Mechanical properties :
#
#
# Convention : Reuss Voigt Hill
#
# Bulk Modulus (GPa) = 56.91712 70.40954 63.66333
# Shear Modulus (GPa) = 29.39792 32.23073 30.81433
#
# Velocity S-wave (km/s) = 3.90971 4.09375 4.00278
# Velocity P-wave (km/s) = 7.06936 7.67824 7.38008
#
# Compressibility (1/GPa) = 0.01756940
#
# Stress axis : x y z
#
# Youngs Moduli (GPa) = 102.79980 77.59030 65.24144
#
# Poissons Ratio (x) = 0.26486 0.19465
# Poissons Ratio (y) = 0.35091 0.24727
# Poissons Ratio (z) = 0.30670 0.29407
#
# Static dielectric constant tensor:
#      x y z
#    x 3.617090 0.364020 -0.082100 
#    y 0.364020 3.167990 0.304820 
#    z -0.082100 0.304820 3.242370 
# 
# 
# High freq. dielectric constant tensor:
#      x y z
#    x 1.768170 -0.001110 0.005050 
#    y -0.001110 1.739940 0.004550 
#    z 0.005050 0.004550 1.748410 
# 
# From -- ./inp_files/190779.got.cif
#   From: 2010.06.25/outbox.cif.g09.slc.cpg/sg2_96_cif.got.tgz:190779.got - 2010.06.27 13:26:56.
