data_PCOD8040578
_publ_section_title
;
Structure prediction by ZEFSAII (Michael W. Deem and Ramdas Pophale) SiO2 
 PCOD8040578
Probable space group: P -1
;
_chemical_formula_sum "Si O2"
_cell_formula_units_Z 16
_cell_length_a 19.454902
_cell_length_b 18.401896
_cell_length_c 8.916564
_cell_angle_alpha 133.318771
_cell_angle_beta 44.486385
_cell_angle_gamma 158.693875
_cell_volume 809.902307
_symmetry_space_group_name_H-M "P -1"
_symmetry_group_IT_number 2
_symmetry_cell_setting 'triclinic'
loop_
_space_group_symop_operation_xyz
x,y,z
-x,-y,-z
loop_
_atom_site_type_symbol
_atom_site_label
_atom_site_fract_x
_atom_site_fract_y
_atom_site_fract_z
Si Si1 0.023362 0.558914 0.711055
Si Si2 0.494653 0.606637 0.603816
Si Si3 0.107146 0.369958 0.579215
Si Si4 0.332861 0.771352 0.757678
Si Si5 0.758333 0.181062 0.755511
Si Si6 0.628931 0.574444 0.766136
Si Si7 0.166530 0.084627 0.280360
Si Si8 0.928543 0.692637 0.115381
O O1 0.234566 0.712209 0.667702
O O2 0.000000 0.500000 0.500000
O O3 0.843118 0.356181 0.799226
O O4 0.999385 0.655336 0.874502
O O5 0.500000 0.500000 0.500000
O O6 0.496283 0.600733 0.410534
O O7 0.683735 0.824299 0.694724
O O8 0.304337 0.494965 0.807541
O O9 0.252225 0.593596 0.688980
O O10 0.212144 0.365993 0.334347
O O11 0.025897 0.266411 0.720810
O O12 0.920324 0.235808 0.578463
O O13 0.569733 0.973392 0.664096
O O14 0.287132 0.824910 0.012758
O O15 0.731301 0.760529 0.791098
O O16 0.500000 0.500000 0.000000
O O17 0.000000 0.000000 0.500000
O O18 0.056959 0.890757 0.110799
#
# Coordination Sequence:
#
# PCOD8040578 Si02
#       8
#     2   2   2   2   2   2   2   2
#     4  11  23  41  58  88 129 159 195 259 309 365
#     4   9  19  37  62  86 118 157 202 252 294 361
#     4  10  18  37  63  86 120 157 202 251 301 362
#     4  10  20  38  64  90 115 153 207 250 301 367
#     4  10  20  38  65  89 118 153 205 254 298 368
#     4  10  22  41  61  89 131 159 198 261 311 357
#     4  11  20  39  66  89 118 163 214 250 291 382
#     4  11  20  37  65  89 116 163 212 243 307 364
#
# _framework density 19.755468
#
# number of rings (size 3 to 8) (size 9 to 14) (size 15 to 20)
#    0.000    1.750    6.250    0.750    0.000    3.500 
#   11.250    0.625    0.000    0.000    0.000    0.000 
#    0.000    0.000    0.000    0.000    0.000    0.000 
#
# Total GULP energy -198288.895197 kJ/mol
# GULP energy per Si atom -12393.055950 kJ/mol
# Density = 1.971050 g / cm^3
# Si number density = 19.755468 Si / 1000 Ang^3
#
#
#
# Elastic Constant Matrix: (Units=GPa)
#
#
# Indices 1 2 3 4 5 6 
#
# 1 103.8566 61.7276 55.0287 -0.6983 -17.3807 13.7392
# 2 61.7276 140.7536 43.7289 0.2542 -7.5866 21.0750
# 3 55.0287 43.7289 114.1770 -10.2649 -11.5223 5.5583
# 4 -0.6983 0.2542 -10.2649 19.0888 2.1046 -1.9771
# 5 -17.3807 -7.5866 -11.5223 2.1046 32.1789 4.7898
# 6 13.7392 21.0750 5.5583 -1.9771 4.7898 35.5190
#
#
#
# Elastic Compliance Matrix: (Units=1/GPa)
#
#
# Indices 1 2 3 4 5 6 
#
# 1 0.017266 -0.004735 -0.005941 -0.003687 0.006930 -0.004079
# 2 -0.004735 0.010300 -0.001605 -0.001602 0.000014 -0.004120
# 3 -0.005941 -0.001605 0.012804 0.006819 0.000316 0.001584
# 4 -0.003687 -0.001602 0.006819 0.056951 -0.004407 0.005074
# 5 0.006930 0.000014 0.000316 -0.004407 0.036399 -0.007892
# 6 -0.004079 -0.004120 0.001584 0.005074 -0.007892 0.033275
#
#
# Mechanical properties :
#
#
# Convention : Reuss Voigt Hill
#
# Bulk Modulus (GPa) = 63.26035 75.52863 69.39449
# Shear Modulus (GPa) = 25.40295 30.57747 27.99021
#
# Velocity S-wave (km/s) = 3.58979 3.93847 3.76817
# Velocity P-wave (km/s) = 7.01950 7.68094 7.35766
#
# Compressibility (1/GPa) = 0.01580769
#
# Stress axis : x y z
#
# Youngs Moduli (GPa) = 57.91851 97.08449 78.09904
#
# Poissons Ratio (x) = 0.45970 0.46402
# Poissons Ratio (y) = 0.27425 0.12533
# Poissons Ratio (z) = 0.34412 0.15580
#
# Static dielectric constant tensor:
#      x y z
#    x 5.631610 0.699410 -0.458870 
#    y 0.699410 3.506150 -0.210590 
#    z -0.458870 -0.210590 3.301510 
# 
# 
# High freq. dielectric constant tensor:
#      x y z
#    x 1.776360 0.008590 -0.023100 
#    y 0.008590 1.769850 0.002750 
#    z -0.023100 0.002750 1.742230 
# 
# From -- ./inp_files/349722.got.cif
#   From: 2010.06.25/outbox.cif.g09.slc.cpg/sg2_175_cif.got.tgz:349722.got - 2010.06.27 13:26:56.
