data_PCOD8040789
_publ_section_title
;
Structure prediction by ZEFSAII (Michael W. Deem and Ramdas Pophale) SiO2 
 PCOD8040789
Probable space group: P -1
;
_chemical_formula_sum "Si O2"
_cell_formula_units_Z 16
_cell_length_a 9.526117
_cell_length_b 16.731965
_cell_length_c 9.568503
_cell_angle_alpha 62.064010
_cell_angle_beta 45.076638
_cell_angle_gamma 97.629972
_cell_volume 640.517801
_symmetry_space_group_name_H-M "P -1"
_symmetry_group_IT_number 2
_symmetry_cell_setting 'triclinic'
loop_
_space_group_symop_operation_xyz
x,y,z
-x,-y,-z
loop_
_atom_site_type_symbol
_atom_site_label
_atom_site_fract_x
_atom_site_fract_y
_atom_site_fract_z
Si Si1 0.793480 0.742106 0.250405
Si Si2 0.250716 0.545218 0.618192
Si Si3 0.322104 0.031171 0.628857
Si Si4 0.636866 0.518463 0.678377
Si Si5 0.799405 0.885877 0.618355
Si Si6 0.138934 0.740855 0.783596
Si Si7 0.168529 0.659514 0.365724
Si Si8 0.021500 0.248095 0.411625
O O1 0.494924 0.674033 0.440353
O O2 0.708821 0.650189 0.517280
O O3 0.987442 0.749754 0.000466
O O4 0.996292 0.895625 0.030854
O O5 0.414937 0.533144 0.402367
O O6 0.089452 0.571345 0.627723
O O7 0.013256 0.409983 0.989552
O O8 0.274026 0.070198 0.488639
O O9 0.514190 0.154377 0.503692
O O10 0.500000 0.000000 0.500000
O O11 0.918773 0.558736 0.506268
O O12 0.347041 0.402998 0.067780
O O13 0.974292 0.856278 0.467107
O O14 0.492841 0.744191 0.013541
O O15 0.000000 0.000000 0.500000
O O16 0.119963 0.784966 0.613726
O O17 0.171445 0.765600 0.324998
#
# Coordination Sequence:
#
# PCOD8040789 Si02
#       8
#     2   2   2   2   2   2   2   2
#     4  10  18  38  67  92 125 175 220 269 337 387
#     4  11  19  37  68  92 130 175 220 273 335 386
#     4  10  21  37  67  98 124 173 226 270 325 398
#     4  11  21  41  66  99 137 168 220 281 332 394
#     4  12  25  46  71  95 136 179 217 273 338 400
#     4  10  19  37  61  96 131 170 223 273 323 396
#     4  12  26  40  66 102 133 173 223 275 332 402
#     4  12  25  43  66 100 137 175 217 276 338 393
#
# _framework density 24.979787000000002
#
# number of rings (size 3 to 8) (size 9 to 14) (size 15 to 20)
#    0.000    1.000    3.750    6.000    1.750    1.000 
#    0.000    0.000    0.000    4.500    0.000    0.000 
#    0.000    0.000    0.000    0.000    0.000    0.000 
#
# Total GULP energy -198444.788629 kJ/mol
# GULP energy per Si atom -12402.799289 kJ/mol
# Density = 2.492293 g / cm^3
# Si number density = 24.979787 Si / 1000 Ang^3
#
#
#
# Elastic Constant Matrix: (Units=GPa)
#
#
# Indices 1 2 3 4 5 6 
#
# 1 162.0987 10.2838 37.7978 -29.0158 -20.4604 -27.5262
# 2 10.2838 51.4881 10.6750 -14.6932 -3.1640 -15.5722
# 3 37.7978 10.6750 96.9433 -40.7373 -27.3894 7.0394
# 4 -29.0158 -14.6932 -40.7373 43.2693 9.4246 -5.4092
# 5 -20.4604 -3.1640 -27.3894 9.4246 40.8170 -15.8662
# 6 -27.5262 -15.5722 7.0394 -5.4092 -15.8662 30.3123
#
#
#
# Elastic Compliance Matrix: (Units=1/GPa)
#
#
# Indices 1 2 3 4 5 6 
#
# 1 0.016532 0.013283 0.003203 0.018470 0.020942 0.035350
# 2 0.013283 0.040997 0.006812 0.029662 0.027465 0.051210
# 3 0.003203 0.006812 0.021756 0.023038 0.016996 0.014363
# 4 0.018470 0.029662 0.023038 0.067006 0.033340 0.056068
# 5 0.020942 0.027465 0.016996 0.033340 0.068407 0.070935
# 6 0.035350 0.051210 0.014363 0.056068 0.070935 0.135198
#
#
# Mechanical properties :
#
#
# Convention : Reuss Voigt Hill
#
# Bulk Modulus (GPa) = 7.94396 47.56036 27.75216
# Shear Modulus (GPa) = 14.48182 39.66461 27.07321
#
# Velocity S-wave (km/s) = 2.41039 3.98913 3.29569
# Velocity P-wave (km/s) = 3.30662 6.34810 5.06123
#
# Compressibility (1/GPa) = 0.12588179
#
# Stress axis : x y z
#
# Youngs Moduli (GPa) = 60.48939 24.39187 45.96358
#
# Poissons Ratio (x) = -0.32400 -0.14721
# Poissons Ratio (y) = -0.80348 -0.31312
# Poissons Ratio (z) = -0.19374 -0.16617
#
# Static dielectric constant tensor:
#      x y z
#    x 4.572340 -0.047170 -0.266370 
#    y -0.047170 4.457410 -0.540520 
#    z -0.266370 -0.540520 4.789930 
# 
# 
# High freq. dielectric constant tensor:
#      x y z
#    x 2.008600 -0.009100 -0.016120 
#    y -0.009100 1.984920 -0.018600 
#    z -0.016120 -0.018600 1.984280 
# 
# From -- ./inp_files/226771.got.cif
#   From: 2010.06.25/outbox.cif.g09.slc.cpg/sg2_114_cif.got.tgz:226771.got - 2010.06.27 13:26:56.
