data_PCOD8040843
_publ_section_title
;
Structure prediction by ZEFSAII (Michael W. Deem and Ramdas Pophale) SiO2 
 PCOD8040843
Probable space group: P -1
;
_chemical_formula_sum "Si O2"
_cell_formula_units_Z 14
_cell_length_a 12.715827
_cell_length_b 10.233567
_cell_length_c 15.522264
_cell_angle_alpha 45.184872
_cell_angle_beta 45.344508
_cell_angle_gamma 81.288261
_cell_volume 745.886119
_symmetry_space_group_name_H-M "P -1"
_symmetry_group_IT_number 2
_symmetry_cell_setting 'triclinic'
loop_
_space_group_symop_operation_xyz
x,y,z
-x,-y,-z
loop_
_atom_site_type_symbol
_atom_site_label
_atom_site_fract_x
_atom_site_fract_y
_atom_site_fract_z
Si Si1 0.006572 0.308878 0.716689
Si Si2 0.590950 0.850203 0.240382
Si Si3 0.677391 0.688914 0.420425
Si Si4 0.768889 0.188832 0.560087
Si Si5 0.573325 0.646797 0.978783
Si Si6 0.018958 0.142466 0.337988
Si Si7 0.214060 0.268858 0.479997
O O1 0.121983 0.264544 0.735930
O O2 0.093083 0.586790 0.554232
O O3 0.063075 0.298851 0.590350
O O4 0.767572 0.096964 0.968977
O O5 0.672332 0.864034 0.281796
O O6 0.520486 0.606375 0.344355
O O7 0.408924 0.837838 0.363964
O O8 0.685263 0.755891 0.485555
O O9 0.918935 0.254755 0.365404
O O10 0.670843 0.930165 0.782486
O O11 0.390190 0.516328 0.210208
O O12 0.500000 0.500000 0.000000
O O13 0.742019 0.646869 0.918815
O O14 0.000000 0.000000 0.500000
O O15 0.904992 0.971273 0.399910
#
# Coordination Sequence:
#
# PCOD8040843 Si02
#       7
#     2   2   2   2   2   2   2
#     4   9  21  34  58  90 117 144 189 242 280 337
#     4  10  18  39  62  84 123 149 183 240 295 332
#     4   8  20  36  60  91 112 152 192 229 287 351
#     4  10  22  36  57  91 112 155 196 226 292 346
#     4  11  22  39  62  78 114 163 190 234 288 343
#     4  10  21  38  56  77 115 156 194 227 283 346
#     4  10  21  37  58  91 110 152 201 228 283 343
#
# _framework density 18.769621999999998
#
# number of rings (size 3 to 8) (size 9 to 14) (size 15 to 20)
#    0.857    1.429    2.857    0.429    4.000    0.571 
#    0.000    4.286    0.000    1.714    0.000    0.000 
#    0.000    0.000    0.000    0.000    0.000    0.000 
#
# Total GULP energy -173471.396438 kJ/mol
# GULP energy per Si atom -12390.814031 kJ/mol
# Density = 1.872690 g / cm^3
# Si number density = 18.769622 Si / 1000 Ang^3
#
#
#
# Elastic Constant Matrix: (Units=GPa)
#
#
# Indices 1 2 3 4 5 6 
#
# 1 77.1441 39.4494 29.8719 13.3995 -8.9444 9.0279
# 2 39.4494 124.3149 48.3230 19.1058 -3.6075 6.9918
# 3 29.8719 48.3230 95.4870 5.2196 -12.9226 -3.0327
# 4 13.3995 19.1058 5.2196 13.2148 4.0114 -0.9132
# 5 -8.9444 -3.6075 -12.9226 4.0114 24.0707 6.2518
# 6 9.0279 6.9918 -3.0327 -0.9132 6.2518 35.6520
#
#
#
# Elastic Compliance Matrix: (Units=1/GPa)
#
#
# Indices 1 2 3 4 5 6 
#
# 1 0.021065 -0.001077 -0.003496 -0.022505 0.011627 -0.008035
# 2 -0.001077 0.013347 -0.005243 -0.017180 0.002606 -0.003688
# 3 -0.003496 -0.005243 0.014675 0.004148 0.004456 0.002487
# 4 -0.022505 -0.017180 0.004148 0.133950 -0.036012 0.019167
# 5 0.011627 0.002606 0.004456 -0.036012 0.058345 -0.014230
# 6 -0.008035 -0.003688 0.002487 0.019167 -0.014230 0.034005
#
#
# Mechanical properties :
#
#
# Convention : Reuss Voigt Hill
#
# Bulk Modulus (GPa) = 33.95097 59.13718 46.54407
# Shear Modulus (GPa) = 16.40216 26.54094 21.47155
#
# Velocity S-wave (km/s) = 2.95933 3.76445 3.38591
# Velocity P-wave (km/s) = 5.45934 7.10423 6.33539
#
# Compressibility (1/GPa) = 0.02945424
#
# Stress axis : x y z
#
# Youngs Moduli (GPa) = 47.47209 74.92054 68.14321
#
# Poissons Ratio (x) = 0.08073 0.23824
# Poissons Ratio (y) = 0.05115 0.35727
# Poissons Ratio (z) = 0.16597 0.39280
#
# Static dielectric constant tensor:
#      x y z
#    x 3.523290 -0.062550 -0.358680 
#    y -0.062550 3.480940 0.157380 
#    z -0.358680 0.157380 3.476770 
# 
# 
# High freq. dielectric constant tensor:
#      x y z
#    x 1.720440 0.008090 -0.029450 
#    y 0.008090 1.721600 0.004160 
#    z -0.029450 0.004160 1.718010 
# 
# From -- ./inp_files/529381.got.cif
#   From: 2010.06.25/outbox.cif.g09.slc.cpg/sg2_265_cif.got.tgz:529381.got - 2010.06.27 13:26:56.
