data_PCOD8040284
_publ_section_title
;
Structure prediction by ZEFSAII (Michael W. Deem and Ramdas Pophale) SiO2 
 PCOD8040284
Probable space group: P -1
;
_chemical_formula_sum "Si O2"
_cell_formula_units_Z 16
_cell_length_a 6.846871
_cell_length_b 13.639321
_cell_length_c 14.333007
_cell_angle_alpha 40.486019
_cell_angle_beta 72.721954
_cell_angle_gamma 62.979171
_cell_volume 771.452169
_symmetry_space_group_name_H-M "P -1"
_symmetry_group_IT_number 2
_symmetry_cell_setting 'triclinic'
loop_
_space_group_symop_operation_xyz
x,y,z
-x,-y,-z
loop_
_atom_site_type_symbol
_atom_site_label
_atom_site_fract_x
_atom_site_fract_y
_atom_site_fract_z
Si Si1 0.727282 0.386045 0.511957
Si Si2 0.213700 0.883190 0.438652
Si Si3 0.407885 0.104800 0.345398
Si Si4 0.080715 0.682115 0.748173
Si Si5 0.786574 0.224221 0.801005
Si Si6 0.168707 0.834619 0.797023
Si Si7 0.289297 0.393171 0.799244
Si Si8 0.923532 0.861714 0.000430
O O1 0.500000 0.500000 0.500000
O O2 0.670737 0.255422 0.552072
O O3 0.869868 0.301120 0.644279
O O4 0.832443 0.488641 0.357015
O O5 0.178512 0.805863 0.596612
O O6 0.367183 0.986857 0.358436
O O7 0.977467 0.993104 0.351442
O O8 0.578994 0.180345 0.227032
O O9 0.178791 0.256714 0.284056
O O10 0.500000 0.000000 0.500000
O O11 0.131989 0.691661 0.844187
O O12 0.204366 0.497679 0.829809
O O13 0.550067 0.341020 0.787992
O O14 0.960500 0.204860 0.870589
O O15 0.779468 0.052166 0.892568
O O16 0.103218 0.822581 0.921697
O O17 0.239442 0.230881 0.930801
#
# Coordination Sequence:
#
# PCOD8040284 Si02
#       8
#     2   2   2   2   2   2   2   2
#     4   9  19  40  63  92 119 157 202 257 304 354
#     4  10  18  36  60  89 124 153 200 255 301 359
#     4  11  19  34  60  92 121 160 201 248 307 355
#     4  10  21  37  61  92 124 157 201 254 308 365
#     4  10  22  44  65  88 123 161 214 254 295 362
#     4  11  21  37  60  89 125 160 201 251 297 367
#     4  10  23  42  65  89 126 163 198 254 320 356
#     4  11  24  41  63  92 125 164 207 249 300 376
#
# _framework density 20.740107999999999
#
# number of rings (size 3 to 8) (size 9 to 14) (size 15 to 20)
#    0.000    1.750    3.750    1.125    0.000    4.000 
#   11.250    1.250    0.000    0.000    0.000    0.000 
#    0.000    0.000    0.000    0.000    0.000    0.000 
#
# Total GULP energy -198344.405612 kJ/mol
# GULP energy per Si atom -12396.525351 kJ/mol
# Density = 2.069290 g / cm^3
# Si number density = 20.740108 Si / 1000 Ang^3
#
#
#
# Elastic Constant Matrix: (Units=GPa)
#
#
# Indices 1 2 3 4 5 6 
#
# 1 70.6789 26.0368 3.7802 -1.1929 -3.6225 -7.8921
# 2 26.0368 140.6669 17.8055 -4.1198 2.7885 3.8663
# 3 3.7802 17.8055 50.8736 3.7193 10.4278 5.5073
# 4 -1.1929 -4.1198 3.7193 33.0769 3.6914 1.1255
# 5 -3.6225 2.7885 10.4278 3.6914 23.7742 2.0986
# 6 -7.8921 3.8663 5.5073 1.1255 2.0986 24.6688
#
#
#
# Elastic Compliance Matrix: (Units=1/GPa)
#
#
# Indices 1 2 3 4 5 6 
#
# 1 0.016120 -0.003033 -0.001339 -0.000166 0.002923 0.005690
# 2 -0.003033 0.008070 -0.002426 0.001270 -0.000390 -0.001718
# 3 -0.001339 -0.002426 0.023131 -0.001754 -0.009411 -0.004332
# 4 -0.000166 0.001270 -0.001754 0.031076 -0.004149 -0.000926
# 5 0.002923 -0.000390 -0.009411 -0.004149 0.047391 -0.000745
# 6 0.005690 -0.001718 -0.004332 -0.000926 -0.000745 0.043700
#
#
# Mechanical properties :
#
#
# Convention : Reuss Voigt Hill
#
# Bulk Modulus (GPa) = 29.65236 39.71825 34.68531
# Shear Modulus (GPa) = 25.72996 30.61045 28.17021
#
# Velocity S-wave (km/s) = 3.52602 3.84592 3.68944
# Velocity P-wave (km/s) = 5.55925 6.23807 5.90842
#
# Compressibility (1/GPa) = 0.03372412
#
# Stress axis : x y z
#
# Youngs Moduli (GPa) = 62.03483 123.92038 43.23173
#
# Poissons Ratio (x) = 0.37590 0.05789
# Poissons Ratio (y) = 0.18818 0.10487
# Poissons Ratio (z) = 0.08307 0.30061
#
# Static dielectric constant tensor:
#      x y z
#    x 3.474830 0.145220 0.108940 
#    y 0.145220 4.020900 0.099710 
#    z 0.108940 0.099710 4.186600 
# 
# 
# High freq. dielectric constant tensor:
#      x y z
#    x 1.782440 0.008080 0.005710 
#    y 0.008080 1.829400 0.003270 
#    z 0.005710 0.003270 1.810360 
# 
# From -- ./inp_files/76515.got.cif
#   From: 2010.06.25/outbox.cif.g09.slc.cpg/sg2_39_cif.got.tgz:76515.got - 2010.06.27 13:26:56.
