data_PCOD8040028
_publ_section_title
;
Structure prediction by ZEFSAII (Michael W. Deem and Ramdas Pophale) SiO2 
 PCOD8040028
Probable space group: P -1
;
_chemical_formula_sum "Si O2"
_cell_formula_units_Z 12
_cell_length_a 18.485541
_cell_length_b 5.174072
_cell_length_c 9.087814
_cell_angle_alpha 54.045811
_cell_angle_beta 59.806277
_cell_angle_gamma 49.900981
_cell_volume 527.181338
_symmetry_space_group_name_H-M "P -1"
_symmetry_group_IT_number 2
_symmetry_cell_setting 'triclinic'
loop_
_space_group_symop_operation_xyz
x,y,z
-x,-y,-z
loop_
_atom_site_type_symbol
_atom_site_label
_atom_site_fract_x
_atom_site_fract_y
_atom_site_fract_z
Si Si1 0.622980 0.089056 0.468922
Si Si2 0.226112 0.094639 0.395751
Si Si3 0.212731 0.145594 0.814038
Si Si4 0.275058 0.307854 0.979461
Si Si5 0.522169 0.868476 0.190016
Si Si6 0.109260 0.726895 0.518571
O O1 0.547515 0.445673 0.332436
O O2 0.567990 0.909503 0.678036
O O3 0.688902 0.172246 0.488759
O O4 0.701232 0.802825 0.368284
O O5 0.165984 0.507264 0.387844
O O6 0.153351 0.952028 0.477739
O O7 0.280193 0.108791 0.191163
O O8 0.206227 0.249508 0.956846
O O9 0.114592 0.430257 0.734226
O O10 0.233356 0.736135 0.908363
O O11 0.384063 0.104803 0.870540
O O12 0.500000 0.000000 0.000000
O O13 0.000000 0.000000 0.500000
#
# Coordination Sequence:
#
# PCOD8040028 Si02
#       6
#     2   2   2   2   2   2
#     4   9  20  36  60  90 126 173 206 252 306 365
#     4  11  22  41  64  92 126 163 206 254 320 372
#     4  10  22  41  63  87 127 164 208 252 319 368
#     4  11  22  40  62  93 126 167 203 261 306 366
#     4  10  18  35  61  91 128 163 218 252 297 361
#     4  11  23  42  66  90 119 163 209 257 317 383
#
# _framework density 22.762564999999999
#
# number of rings (size 3 to 8) (size 9 to 14) (size 15 to 20)
#    0.000    1.667    1.667    4.500    0.000    0.667 
#    0.000   13.333    0.000    0.000    0.000    0.000 
#    0.000    0.000    0.000    0.000    0.000    0.000 
#
# Total GULP energy -148661.476858 kJ/mol
# GULP energy per Si atom -12388.456405 kJ/mol
# Density = 2.271076 g / cm^3
# Si number density = 22.762565 Si / 1000 Ang^3
#
#
#
# Elastic Constant Matrix: (Units=GPa)
#
#
# Indices 1 2 3 4 5 6 
#
# 1 117.5370 46.1036 29.5269 -12.7670 17.6403 1.9517
# 2 46.1036 74.9493 21.9182 -5.8180 14.7890 -0.6607
# 3 29.5269 21.9182 116.2818 -6.6960 27.6432 -5.2356
# 4 -12.7670 -5.8180 -6.6960 25.4039 -1.2005 11.8896
# 5 17.6403 14.7890 27.6432 -1.2005 33.3505 -1.2255
# 6 1.9517 -0.6607 -5.2356 11.8896 -1.2255 41.6194
#
#
#
# Elastic Compliance Matrix: (Units=1/GPa)
#
#
# Indices 1 2 3 4 5 6 
#
# 1 0.012296 -0.006311 -0.001087 0.005469 -0.002698 -0.002455
# 2 -0.006311 0.018313 -0.000847 0.000507 -0.004055 0.000216
# 3 -0.001087 -0.000847 0.011094 0.001431 -0.008165 0.000784
# 4 0.005469 0.000507 0.001431 0.049100 -0.003058 -0.014185
# 5 -0.002698 -0.004055 -0.008165 -0.003058 0.039907 0.001084
# 6 -0.002455 0.000216 0.000784 -0.014185 0.001084 0.028329
#
#
# Mechanical properties :
#
#
# Convention : Reuss Voigt Hill
#
# Bulk Modulus (GPa) = 39.65898 55.98505 47.82202
# Shear Modulus (GPa) = 27.18382 34.15605 30.66993
#
# Velocity S-wave (km/s) = 3.45952 3.87788 3.67466
# Velocity P-wave (km/s) = 5.78087 6.68575 6.24970
#
# Compressibility (1/GPa) = 0.02521497
#
# Stress axis : x y z
#
# Youngs Moduli (GPa) = 81.32652 54.60571 90.13784
#
# Poissons Ratio (x) = 0.34459 0.09799
# Poissons Ratio (y) = 0.51321 0.07631
# Poissons Ratio (z) = 0.08841 0.04623
#
# Static dielectric constant tensor:
#      x y z
#    x 3.984890 -0.214130 0.248880 
#    y -0.214130 4.056430 -0.042250 
#    z 0.248880 -0.042250 4.464470 
# 
# 
# High freq. dielectric constant tensor:
#      x y z
#    x 1.885140 -0.004620 0.026000 
#    y -0.004620 1.878310 -0.002720 
#    z 0.026000 -0.002720 1.910070 
# 
# From -- ./inp_files/34004.got.cif
#   From: 2010.06.25/outbox.cif.g09.slc.cpg/sg2_18_cif.got.tgz:34004.got - 2010.06.27 13:26:56.
