data_PCOD8040463
_publ_section_title
;
Structure prediction by ZEFSAII (Michael W. Deem and Ramdas Pophale) SiO2 
 PCOD8040463
Probable space group: P -1
;
_chemical_formula_sum "Si O2"
_cell_formula_units_Z 16
_cell_length_a 15.017410
_cell_length_b 12.083046
_cell_length_c 8.792010
_cell_angle_alpha 48.812714
_cell_angle_beta 72.316140
_cell_angle_gamma 50.628059
_cell_volume 910.139123
_symmetry_space_group_name_H-M "P -1"
_symmetry_group_IT_number 2
_symmetry_cell_setting 'triclinic'
loop_
_space_group_symop_operation_xyz
x,y,z
-x,-y,-z
loop_
_atom_site_type_symbol
_atom_site_label
_atom_site_fract_x
_atom_site_fract_y
_atom_site_fract_z
Si Si1 0.500561 0.782083 0.752319
Si Si2 0.650380 0.504739 0.167689
Si Si3 0.884254 0.444628 0.022052
Si Si4 0.352263 0.173835 0.579478
Si Si5 0.095880 0.403452 0.409290
Si Si6 0.645819 0.171363 0.507237
Si Si7 0.886452 0.769983 0.734138
Si Si8 0.537154 0.806428 0.213632
O O1 0.605952 0.783722 0.633870
O O2 0.418828 0.799683 0.644436
O O3 0.423700 0.952687 0.754928
O O4 0.561794 0.595209 0.987398
O O5 0.780430 0.430299 0.120132
O O6 0.656623 0.334124 0.379267
O O7 0.603210 0.652940 0.190452
O O8 0.004110 0.267338 0.195114
O O9 0.903516 0.446635 0.827678
O O10 0.855001 0.635102 0.935855
O O11 0.216851 0.265738 0.558491
O O12 0.372244 0.258872 0.636207
O O13 0.076653 0.282398 0.415708
O O14 0.000000 0.500000 0.500000
O O15 0.576424 0.172222 0.685856
O O16 0.775377 0.980816 0.615028
O O17 0.500000 0.000000 0.000000
#
# Coordination Sequence:
#
# PCOD8040463 Si02
#       8
#     2   2   2   2   2   2   2   2
#     4  10  18  37  57  84 111 147 190 231 275 347
#     4  12  22  37  57  84 121 153 183 228 290 345
#     4   9  20  37  58  80 108 148 194 234 280 324
#     4  10  19  33  60  85 109 143 193 237 284 317
#     4  10  19  33  58  85 108 133 190 249 274 314
#     4  11  23  37  57  85 119 152 184 227 289 351
#     4   9  19  38  57  82 111 143 198 233 278 327
#     4  11  23  35  58  86 116 146 189 236 277 331
#
# _framework density 17.579730000000001
#
# number of rings (size 3 to 8) (size 9 to 14) (size 15 to 20)
#    0.750    1.000    3.750    1.500    3.500    1.500 
#    0.000    0.000    0.000    0.750    0.000    0.000 
#    0.000    0.000    0.000    0.000    0.000    0.000 
#
# Total GULP energy -198341.744454 kJ/mol
# GULP energy per Si atom -12396.359028 kJ/mol
# Density = 1.753972 g / cm^3
# Si number density = 17.579730 Si / 1000 Ang^3
#
#
#
# Elastic Constant Matrix: (Units=GPa)
#
#
# Indices 1 2 3 4 5 6 
#
# 1 90.5085 46.9986 53.0280 -3.6303 1.9963 -18.4913
# 2 46.9986 87.4211 44.9642 5.9347 -5.9280 -20.1043
# 3 53.0280 44.9642 95.1410 -4.3226 -6.9186 -17.1945
# 4 -3.6303 5.9347 -4.3226 29.6609 -1.4762 -0.3429
# 5 1.9963 -5.9280 -6.9186 -1.4762 32.5842 -6.4197
# 6 -18.4913 -20.1043 -17.1945 -0.3429 -6.4197 26.8618
#
#
#
# Elastic Compliance Matrix: (Units=1/GPa)
#
#
# Indices 1 2 3 4 5 6 
#
# 1 0.019500 -0.006303 -0.007426 0.002445 -0.003172 0.003226
# 2 -0.006303 0.019566 -0.004044 -0.004946 0.004587 0.008750
# 3 -0.007426 -0.004044 0.017801 0.002768 0.004484 0.004363
# 4 0.002445 -0.004946 0.002768 0.035474 0.001244 0.000503
# 5 -0.003172 0.004587 0.004484 0.001244 0.035199 0.012548
# 6 0.003226 0.008750 0.004363 0.000503 0.012548 0.051795
#
#
# Mechanical properties :
#
#
# Convention : Reuss Voigt Hill
#
# Bulk Modulus (GPa) = 46.90176 62.56135 54.73155
# Shear Modulus (GPa) = 22.52361 26.36002 24.44182
#
# Velocity S-wave (km/s) = 3.58331 3.87648 3.73277
# Velocity P-wave (km/s) = 6.62250 7.46328 7.05543
#
# Compressibility (1/GPa) = 0.02132116
#
# Stress axis : x y z
#
# Youngs Moduli (GPa) = 51.28334 51.10784 56.17542
#
# Poissons Ratio (x) = 0.32213 0.41717
# Poissons Ratio (y) = 0.32323 0.22718
# Poissons Ratio (z) = 0.38084 0.20668
#
# Static dielectric constant tensor:
#      x y z
#    x 3.249180 -0.051500 0.153190 
#    y -0.051500 3.142020 0.033880 
#    z 0.153190 0.033880 3.266300 
# 
# 
# High freq. dielectric constant tensor:
#      x y z
#    x 1.676440 -0.008740 0.017760 
#    y -0.008740 1.667430 0.004120 
#    z 0.017760 0.004120 1.673820 
# 
# From -- ./inp_files/239317.got.cif
#   From: 2010.06.25/outbox.cif.g09.slc.cpg/sg2_120_cif.got.tgz:239317.got - 2010.06.27 13:26:56.
