data_PCOD8040623
_publ_section_title
;
Structure prediction by ZEFSAII (Michael W. Deem and Ramdas Pophale) SiO2 
 PCOD8040623
Probable space group: P -1
;
_chemical_formula_sum "Si O2"
_cell_formula_units_Z 14
_cell_length_a 7.753901
_cell_length_b 14.132960
_cell_length_c 9.136721
_cell_angle_alpha 64.294191
_cell_angle_beta 73.949294
_cell_angle_gamma 43.715956
_cell_volume 622.366816
_symmetry_space_group_name_H-M "P -1"
_symmetry_group_IT_number 2
_symmetry_cell_setting 'triclinic'
loop_
_space_group_symop_operation_xyz
x,y,z
-x,-y,-z
loop_
_atom_site_type_symbol
_atom_site_label
_atom_site_fract_x
_atom_site_fract_y
_atom_site_fract_z
Si Si1 0.026461 0.254731 0.183884
Si Si2 0.989424 0.436406 0.831216
Si Si3 0.390111 0.234794 0.308360
Si Si4 0.841047 0.201777 0.809484
Si Si5 0.304461 0.495348 0.704352
Si Si6 0.084849 0.910901 0.814616
Si Si7 0.067607 0.309971 0.591846
O O1 0.775556 0.376319 0.256666
O O2 0.042452 0.123488 0.238269
O O3 0.272182 0.197349 0.248333
O O4 0.996295 0.324296 0.988754
O O5 0.722180 0.602825 0.799525
O O6 0.057766 0.391551 0.676185
O O7 0.197494 0.432306 0.847778
O O8 0.686951 0.121893 0.296049
O O9 0.320317 0.224818 0.495647
O O10 0.598754 0.365222 0.704927
O O11 0.067770 0.189243 0.730371
O O12 0.817008 0.184103 0.997249
O O13 0.873461 0.082635 0.787528
O O14 0.176196 0.565165 0.531563
#
# Coordination Sequence:
#
# PCOD8040623 Si02
#       7
#     2   2   2   2   2   2   2
#     4  10  20  39  66  93 120 161 207 254 302 355
#     4  10  18  37  65  94 120 158 207 255 305 357
#     4  10  22  40  61  92 126 158 205 254 303 366
#     4  11  23  41  60  94 124 161 207 250 301 369
#     4  10  21  38  63  94 122 153 206 263 299 360
#     4  11  24  41  63  90 129 164 204 247 304 371
#     4  10  21  40  64  90 125 158 202 256 313 350
#
# _framework density 22.494772999999999
#
# number of rings (size 3 to 8) (size 9 to 14) (size 15 to 20)
#    0.000    2.000    1.429    5.571    2.000    1.714 
#    7.714    5.000    0.000    0.000    0.000    0.000 
#    0.000    0.000    0.000    0.000    0.000    0.000 
#
# Total GULP energy -173574.655266 kJ/mol
# GULP energy per Si atom -12398.189662 kJ/mol
# Density = 2.244357 g / cm^3
# Si number density = 22.494773 Si / 1000 Ang^3
#
#
#
# Elastic Constant Matrix: (Units=GPa)
#
#
# Indices 1 2 3 4 5 6 
#
# 1 73.9640 32.7415 10.2171 11.5629 -5.4610 25.8218
# 2 32.7415 65.0448 12.7328 17.4003 0.9080 26.4551
# 3 10.2171 12.7328 69.3217 21.3977 -2.7625 -4.5896
# 4 11.5629 17.4003 21.3977 24.5063 7.8820 1.4995
# 5 -5.4610 0.9080 -2.7625 7.8820 32.4750 9.5517
# 6 25.8218 26.4551 -4.5896 1.4995 9.5517 36.4974
#
#
#
# Elastic Compliance Matrix: (Units=1/GPa)
#
#
# Indices 1 2 3 4 5 6 
#
# 1 0.023503 -0.000663 0.000161 -0.013747 0.012891 -0.018937
# 2 -0.000663 0.032757 0.001103 -0.026529 0.012990 -0.025446
# 3 0.000161 0.001103 0.021194 -0.021601 0.006788 0.000863
# 4 -0.013747 -0.026529 -0.021601 0.094523 -0.035670 0.031691
# 5 0.012891 0.012990 0.006788 -0.035670 0.050489 -0.029430
# 6 -0.018937 -0.025446 0.000863 0.031691 -0.029430 0.065750
#
#
# Mechanical properties :
#
#
# Convention : Reuss Voigt Hill
#
# Bulk Modulus (GPa) = 12.71356 35.52371 24.11864
# Shear Modulus (GPa) = 15.96260 28.87169 22.41715
#
# Velocity S-wave (km/s) = 2.66675 3.58646 3.16024
# Velocity P-wave (km/s) = 3.89180 5.74252 4.90523
#
# Compressibility (1/GPa) = 0.07865617
#
# Stress axis : x y z
#
# Youngs Moduli (GPa) = 42.54756 30.52820 47.18210
#
# Poissons Ratio (x) = 0.02023 -0.00759
# Poissons Ratio (y) = 0.02820 -0.05204
# Poissons Ratio (z) = -0.00685 -0.03367
#
# Static dielectric constant tensor:
#      x y z
#    x 3.896170 0.245830 -0.192350 
#    y 0.245830 3.789060 0.187320 
#    z -0.192350 0.187320 4.043440 
# 
# 
# High freq. dielectric constant tensor:
#      x y z
#    x 1.874450 0.024400 -0.013390 
#    y 0.024400 1.869690 0.016380 
#    z -0.013390 0.016380 1.894030 
# 
# From -- ./inp_files/206231.got.cif
#   From: 2010.06.25/outbox.cif.g09.slc.cpg/sg2_104_cif.got.tgz:206231.got - 2010.06.27 13:26:56.
