data_PCOD8040537
_publ_section_title
;
Structure prediction by ZEFSAII (Michael W. Deem and Ramdas Pophale) SiO2 
 PCOD8040537
Probable space group: P -1
;
_chemical_formula_sum "Si O2"
_cell_formula_units_Z 16
_cell_length_a 17.741779
_cell_length_b 10.484487
_cell_length_c 13.327912
_cell_angle_alpha 61.815777
_cell_angle_beta 38.653984
_cell_angle_gamma 34.815699
_cell_volume 778.758225
_symmetry_space_group_name_H-M "P -1"
_symmetry_group_IT_number 2
_symmetry_cell_setting 'triclinic'
loop_
_space_group_symop_operation_xyz
x,y,z
-x,-y,-z
loop_
_atom_site_type_symbol
_atom_site_label
_atom_site_fract_x
_atom_site_fract_y
_atom_site_fract_z
Si Si1 0.356223 0.009200 0.176785
Si Si2 0.128544 0.179460 0.846374
Si Si3 0.421502 0.364005 0.441017
Si Si4 0.973592 0.902474 0.207765
Si Si5 0.418102 0.485443 0.822900
Si Si6 0.152997 0.247739 0.495072
Si Si7 0.913656 0.506332 0.347577
Si Si8 0.759167 0.405590 0.247590
O O1 0.343916 0.025937 0.304680
O O2 0.135456 0.235433 0.263390
O O3 0.464473 0.747901 0.141742
O O4 0.500000 0.000000 0.000000
O O5 0.103522 0.081238 0.824557
O O6 0.050858 0.416629 0.809241
O O7 0.381289 0.926086 0.697416
O O8 0.977735 0.282977 0.057654
O O9 0.439494 0.512808 0.334832
O O10 0.212207 0.510262 0.550431
O O11 0.390974 0.382502 0.587188
O O12 0.968710 0.780684 0.340391
O O13 0.817140 0.183942 0.299929
O O14 0.208148 0.734060 0.010842
O O15 0.364786 0.469712 0.775225
O O16 0.224350 0.265181 0.513246
O O17 0.000000 0.500000 0.500000
#
# Coordination Sequence:
#
# PCOD8040537 Si02
#       8
#     2   2   2   2   2   2   2   2
#     4  11  22  41  64  89 114 153 207 250 295 358
#     4  10  20  40  58  85 125 158 199 252 292 355
#     4  12  23  37  61  91 125 161 197 242 307 359
#     4  10  18  37  61  88 119 148 204 257 291 345
#     4  11  21  36  63  90 121 157 202 251 292 356
#     4   9  19  37  61  80 111 155 195 243 293 345
#     4  10  24  41  56  87 124 159 198 245 300 357
#     4  11  21  36  61  92 119 155 206 248 298 349
#
# _framework density 20.545529999999999
#
# number of rings (size 3 to 8) (size 9 to 14) (size 15 to 20)
#    0.000    1.500    2.500    5.250    3.500    1.000 
#    2.250    0.000    0.000    4.500    0.000    0.000 
#    0.000    0.000    0.000    0.000    0.000    0.000 
#
# Total GULP energy -198344.279846 kJ/mol
# GULP energy per Si atom -12396.517490 kJ/mol
# Density = 2.049877 g / cm^3
# Si number density = 20.545530 Si / 1000 Ang^3
#
#
#
# Elastic Constant Matrix: (Units=GPa)
#
#
# Indices 1 2 3 4 5 6 
#
# 1 61.9848 19.7373 39.5161 -6.0285 -23.8322 0.1298
# 2 19.7373 119.1461 32.3237 -9.0621 -11.7878 -6.5672
# 3 39.5161 32.3237 128.9892 -18.2673 -11.1114 0.7685
# 4 -6.0285 -9.0621 -18.2673 35.9114 -2.6410 -1.1899
# 5 -23.8322 -11.7878 -11.1114 -2.6410 27.8425 1.6897
# 6 0.1298 -6.5672 0.7685 -1.1899 1.6897 17.7048
#
#
#
# Elastic Compliance Matrix: (Units=1/GPa)
#
#
# Indices 1 2 3 4 5 6 
#
# 1 0.029580 -0.000776 -0.006448 0.003097 0.022845 -0.002197
# 2 -0.000776 0.009572 -0.001708 0.001728 0.002658 0.003493
# 3 -0.006448 -0.001708 0.010543 0.003708 -0.001644 -0.000638
# 4 0.003097 0.001728 0.003708 0.031316 0.007722 0.001825
# 5 0.022845 0.002658 -0.001644 0.007722 0.056917 -0.004023
# 6 -0.002197 0.003493 -0.000638 0.001825 -0.004023 0.058328
#
#
# Mechanical properties :
#
#
# Convention : Reuss Voigt Hill
#
# Bulk Modulus (GPa) = 31.41588 54.80826 43.11207
# Shear Modulus (GPa) = 22.24889 30.86127 26.55508
#
# Velocity S-wave (km/s) = 3.29432 3.87989 3.59903
# Velocity P-wave (km/s) = 5.45840 6.84147 6.18870
#
# Compressibility (1/GPa) = 0.03183104
#
# Stress axis : x y z
#
# Youngs Moduli (GPa) = 33.80661 104.47200 94.84864
#
# Poissons Ratio (x) = 0.08109 0.61156
# Poissons Ratio (y) = 0.02624 0.16200
# Poissons Ratio (z) = 0.21798 0.17844
#
# Static dielectric constant tensor:
#      x y z
#    x 3.286080 -0.280260 -0.097630 
#    y -0.280260 3.133710 -0.542720 
#    z -0.097630 -0.542720 3.672230 
# 
# 
# High freq. dielectric constant tensor:
#      x y z
#    x 1.754990 0.009050 -0.001030 
#    y 0.009050 1.815450 -0.006740 
#    z -0.001030 -0.006740 1.819110 
# 
# From -- ./inp_files/387076.got.cif
#   From: 2010.06.25/outbox.cif.g09.slc.cpg/sg2_194_cif.got.tgz:387076.got - 2010.06.27 13:26:56.
