data_PCOD8040665
_publ_section_title
;
Structure prediction by ZEFSAII (Michael W. Deem and Ramdas Pophale) SiO2 
 PCOD8040665
Probable space group: P -1
;
_chemical_formula_sum "Si O2"
_cell_formula_units_Z 16
_cell_length_a 24.496407
_cell_length_b 14.410058
_cell_length_c 9.954437
_cell_angle_alpha 51.613791
_cell_angle_beta 28.572385
_cell_angle_gamma 31.716788
_cell_volume 764.367304
_symmetry_space_group_name_H-M "P -1"
_symmetry_group_IT_number 2
_symmetry_cell_setting 'triclinic'
loop_
_space_group_symop_operation_xyz
x,y,z
-x,-y,-z
loop_
_atom_site_type_symbol
_atom_site_label
_atom_site_fract_x
_atom_site_fract_y
_atom_site_fract_z
Si Si1 0.148705 0.580352 0.274621
Si Si2 0.416074 0.332282 0.162343
Si Si3 0.259338 0.482288 0.661155
Si Si4 0.153864 0.094922 0.761971
Si Si5 0.250168 0.116620 0.253147
Si Si6 0.408456 0.234597 0.811585
Si Si7 0.218339 0.782607 0.897050
Si Si8 0.418003 0.568575 0.394487
O O1 0.237798 0.458216 0.331114
O O2 0.938780 0.695915 0.600951
O O3 0.308437 0.417677 0.959070
O O4 0.109639 0.755199 0.204880
O O5 0.332203 0.390896 0.438689
O O6 0.501477 0.390139 0.901963
O O7 0.584244 0.092225 0.999325
O O8 0.340551 0.311804 0.736515
O O9 0.336857 0.543973 0.485676
O O10 0.021877 0.680171 0.997276
O O11 0.174209 0.102466 0.553291
O O12 0.356744 0.957434 0.518944
O O13 0.096136 0.005345 0.989785
O O14 0.337433 0.165775 0.075188
O O15 0.250772 0.753580 0.692302
O O16 0.417784 0.630728 0.687727
#
# Coordination Sequence:
#
# PCOD8040665 Si02
#       8
#     2   2   2   2   2   2   2   2
#     4  11  23  43  68  99 131 163 217 277 313 381
#     4  11  26  43  63  98 137 168 212 267 330 379
#     4  12  26  41  65  98 134 175 207 267 331 382
#     4  12  23  40  70 100 125 169 220 264 320 383
#     4  12  25  41  73  95 123 179 221 262 316 386
#     4  12  24  44  68  97 131 164 228 269 308 378
#     4  10  18  37  70 100 122 160 216 275 314 371
#     4  10  18  40  64  93 134 166 206 270 324 378
#
# _framework density 20.932345000000002
#
# number of rings (size 3 to 8) (size 9 to 14) (size 15 to 20)
#    0.000    0.750    6.250    1.875    1.750    2.500 
#    0.000    2.500    0.000    0.000    0.000    0.000 
#    0.000    0.000    0.000    0.000    0.000    0.000 
#
# Total GULP energy -198457.386127 kJ/mol
# GULP energy per Si atom -12403.586633 kJ/mol
# Density = 2.088470 g / cm^3
# Si number density = 20.932345 Si / 1000 Ang^3
#
#
#
# Elastic Constant Matrix: (Units=GPa)
#
#
# Indices 1 2 3 4 5 6 
#
# 1 86.9176 40.4802 50.7611 5.5624 10.4678 -13.9632
# 2 40.4802 83.5001 41.1757 13.0459 1.4174 -7.3327
# 3 50.7611 41.1757 67.4146 16.3708 8.2180 0.7405
# 4 5.5624 13.0459 16.3708 32.0883 -0.2250 -3.3429
# 5 10.4678 1.4174 8.2180 -0.2250 45.6906 -7.0767
# 6 -13.9632 -7.3327 0.7405 -3.3429 -7.0767 26.5408
#
#
#
# Elastic Compliance Matrix: (Units=1/GPa)
#
#
# Indices 1 2 3 4 5 6 
#
# 1 0.026735 -0.002792 -0.020687 0.008614 0.000043 0.014968
# 2 -0.002792 0.018403 -0.008996 -0.001950 0.002334 0.004243
# 3 -0.020687 -0.008996 0.040427 -0.015269 -0.005081 -0.017775
# 4 0.008614 -0.001950 -0.015269 0.039320 0.002585 0.010061
# 5 0.000043 0.002334 -0.005081 0.002585 0.023893 0.007506
# 6 0.014968 0.004243 -0.017775 0.010061 0.007506 0.050489
#
#
# Mechanical properties :
#
#
# Convention : Reuss Voigt Hill
#
# Bulk Modulus (GPa) = 48.50535 55.85180 52.17857
# Shear Modulus (GPa) = 18.44418 27.89164 23.16791
#
# Velocity S-wave (km/s) = 2.97161 3.65426 3.33047
# Velocity P-wave (km/s) = 5.91580 6.67419 6.30640
#
# Compressibility (1/GPa) = 0.02061628
#
# Stress axis : x y z
#
# Youngs Moduli (GPa) = 37.40425 54.33829 24.73593
#
# Poissons Ratio (x) = 0.15171 0.51171
# Poissons Ratio (y) = 0.10443 0.22252
# Poissons Ratio (z) = 0.77377 0.48881
#
# Static dielectric constant tensor:
#      x y z
#    x 3.685930 -0.127700 -0.212990 
#    y -0.127700 3.961180 0.052000 
#    z -0.212990 0.052000 3.577390 
# 
# 
# High freq. dielectric constant tensor:
#      x y z
#    x 1.810790 -0.007290 -0.021390 
#    y -0.007290 1.832570 -0.000540 
#    z -0.021390 -0.000540 1.801030 
# 
# From -- ./inp_files/208049.got.cif
#   From: 2010.06.25/outbox.cif.g09.slc.cpg/sg2_105_cif.got.tgz:208049.got - 2010.06.27 13:26:56.
