data_PCOD8040403
_publ_section_title
;
Structure prediction by ZEFSAII (Michael W. Deem and Ramdas Pophale) SiO2 
 PCOD8040403
Probable space group: P -1
;
_chemical_formula_sum "Si O2"
_cell_formula_units_Z 16
_cell_length_a 8.861020
_cell_length_b 8.404369
_cell_length_c 21.925684
_cell_angle_alpha 147.890262
_cell_angle_beta 121.911905
_cell_angle_gamma 55.267009
_cell_volume 709.302644
_symmetry_space_group_name_H-M "P -1"
_symmetry_group_IT_number 2
_symmetry_cell_setting 'triclinic'
loop_
_space_group_symop_operation_xyz
x,y,z
-x,-y,-z
loop_
_atom_site_type_symbol
_atom_site_label
_atom_site_fract_x
_atom_site_fract_y
_atom_site_fract_z
Si Si1 0.511233 0.614545 0.939861
Si Si2 0.712074 0.173769 0.328439
Si Si3 0.134441 0.329204 0.025105
Si Si4 0.430469 0.108362 0.453812
Si Si5 0.617208 0.047717 0.864856
Si Si6 0.910198 0.058558 0.730101
Si Si7 0.034434 0.190204 0.204776
Si Si8 0.714248 0.751305 0.302233
O O1 0.653998 0.759812 0.981430
O O2 0.404600 0.466054 0.820153
O O3 0.620285 0.356320 0.927621
O O4 0.373032 0.886886 0.039072
O O5 0.624331 0.522693 0.444291
O O6 0.567059 0.058079 0.219324
O O7 0.769649 0.963046 0.331586
O O8 0.893683 0.147464 0.318623
O O9 0.103611 0.571019 0.153936
O O10 0.000000 0.500000 0.000000
O O11 0.080788 0.009722 0.922579
O O12 0.500000 0.000000 0.500000
O O13 0.253523 0.988385 0.361763
O O14 0.599811 0.971345 0.400684
O O15 0.796453 0.784579 0.794611
O O16 0.883522 0.956591 0.760701
O O17 0.903608 0.535025 0.300363
#
# Coordination Sequence:
#
# PCOD8040403 Si02
#       8
#     2   2   2   2   2   2   2   2
#     4  10  19  37  61  92 139 177 217 275 328 390
#     4  11  25  44  70  97 136 179 221 278 339 389
#     4  10  18  36  64  95 132 179 211 262 332 391
#     4  12  26  49  72  96 127 176 233 285 329 394
#     4  10  20  37  63  97 138 177 221 265 331 398
#     4  11  22  45  69  99 134 172 228 276 332 397
#     4  11  23  39  68 103 140 178 219 269 333 410
#     4  11  25  44  63 101 136 176 223 276 335 400
#
# _framework density 22.557366999999999
#
# number of rings (size 3 to 8) (size 9 to 14) (size 15 to 20)
#    0.000    1.250    3.750    3.750    3.500    2.000 
#    2.250    1.875    0.000    0.000    0.000    0.000 
#    0.000    0.000    0.000    0.000    0.000    0.000 
#
# Total GULP energy -198444.040150 kJ/mol
# GULP energy per Si atom -12402.752509 kJ/mol
# Density = 2.250603 g / cm^3
# Si number density = 22.557367 Si / 1000 Ang^3
#
#
#
# Elastic Constant Matrix: (Units=GPa)
#
#
# Indices 1 2 3 4 5 6 
#
# 1 109.6501 25.3033 33.7625 -3.0648 -31.7330 -20.9340
# 2 25.3033 67.1065 39.4806 -4.8418 -1.5164 -11.0751
# 3 33.7625 39.4806 122.2443 -1.9744 -20.3066 -8.7194
# 4 -3.0648 -4.8418 -1.9744 37.5089 -4.4694 -10.7164
# 5 -31.7330 -1.5164 -20.3066 -4.4694 48.5011 5.4205
# 6 -20.9340 -11.0751 -8.7194 -10.7164 5.4205 23.5075
#
#
#
# Elastic Compliance Matrix: (Units=1/GPa)
#
#
# Indices 1 2 3 4 5 6 
#
# 1 0.014903 -0.002449 -0.000970 0.005354 0.008391 0.012264
# 2 -0.002449 0.020984 -0.006123 0.004051 -0.004054 0.008216
# 3 -0.000970 -0.006123 0.011027 0.000016 0.003853 -0.000539
# 4 0.005354 0.004051 0.000016 0.034223 0.004413 0.021266
# 5 0.008391 -0.004054 0.003853 0.004413 0.027709 0.002614
# 6 0.012264 0.008216 -0.000539 0.021266 0.002614 0.066224
#
#
# Mechanical properties :
#
#
# Convention : Reuss Voigt Hill
#
# Bulk Modulus (GPa) = 35.93092 55.12150 45.52621
# Shear Modulus (GPa) = 24.57839 35.26712 29.92276
#
# Velocity S-wave (km/s) = 3.30448 3.95833 3.64609
# Velocity P-wave (km/s) = 5.52474 6.73649 6.16048
#
# Compressibility (1/GPa) = 0.02783119
#
# Stress axis : x y z
#
# Youngs Moduli (GPa) = 67.10015 47.65592 90.68251
#
# Poissons Ratio (x) = 0.11669 0.08798
# Poissons Ratio (y) = 0.16430 0.55523
# Poissons Ratio (z) = 0.06510 0.29179
#
# Static dielectric constant tensor:
#      x y z
#    x 4.156080 -0.142910 -0.167700 
#    y -0.142910 3.917770 0.178250 
#    z -0.167700 0.178250 4.651560 
# 
# 
# High freq. dielectric constant tensor:
#      x y z
#    x 1.892730 -0.012600 -0.012500 
#    y -0.012600 1.880220 0.002060 
#    z -0.012500 0.002060 1.893360 
# 
# From -- ./inp_files/333434.got.cif
#   From: 2010.06.25/outbox.cif.g09.slc.cpg/sg2_167_cif.got.tgz:333434.got - 2010.06.27 13:26:56.
