data_PCOD8040964
_publ_section_title
;
Structure prediction by ZEFSAII (Michael W. Deem and Ramdas Pophale) SiO2 
 PCOD8040964
Probable space group: P -1
;
_chemical_formula_sum "Si O2"
_cell_formula_units_Z 14
_cell_length_a 24.946087
_cell_length_b 9.609338
_cell_length_c 11.061111
_cell_angle_alpha 54.887870
_cell_angle_beta 29.954146
_cell_angle_gamma 34.592772
_cell_volume 656.461511
_symmetry_space_group_name_H-M "P -1"
_symmetry_group_IT_number 2
_symmetry_cell_setting 'triclinic'
loop_
_space_group_symop_operation_xyz
x,y,z
-x,-y,-z
loop_
_atom_site_type_symbol
_atom_site_label
_atom_site_fract_x
_atom_site_fract_y
_atom_site_fract_z
Si Si1 0.191817 0.118490 0.031076
Si Si2 0.092640 0.732018 0.621506
Si Si3 0.688104 0.121326 0.538146
Si Si4 0.019327 0.599837 0.298097
Si Si5 0.117005 0.840767 0.968939
Si Si6 0.610179 0.392744 0.959248
Si Si7 0.211397 0.243413 0.691225
O O1 0.105377 0.391867 0.123887
O O2 0.034200 0.182308 0.278687
O O3 0.296385 0.052741 0.739897
O O4 0.340971 0.852112 0.959004
O O5 0.242989 0.405122 0.531902
O O6 0.200768 0.758914 0.355024
O O7 0.966934 0.937696 0.874577
O O8 0.704513 0.284592 0.357057
O O9 0.497669 0.359363 0.856153
O O10 0.708269 0.946573 0.488891
O O11 0.829446 0.913544 0.473440
O O12 0.000000 0.500000 0.500000
O O13 0.141849 0.613547 0.078718
O O14 0.000000 0.000000 0.000000
O O15 0.500000 0.500000 0.000000
O O16 0.000000 0.500000 0.000000
#
# Coordination Sequence:
#
# PCOD8040964 Si02
#       7
#     2   2   2   2   2   2   2
#     4  11  22  43  69  92 128 172 225 261 314 397
#     4  11  21  43  70  93 127 176 220 261 322 391
#     4  11  21  41  63  92 131 166 214 270 323 372
#     4  11  21  37  64  97 128 170 220 264 314 393
#     4  10  19  36  66  93 123 173 215 253 319 392
#     4  12  27  42  61  98 143 167 204 278 339 373
#     4  10  18  40  68  94 120 166 225 272 302 380
#
# _framework density 21.326457999999999
#
# number of rings (size 3 to 8) (size 9 to 14) (size 15 to 20)
#    0.000    1.143    5.714    4.714    0.000    1.143 
#    0.000    4.286    0.000    0.000    0.000    0.000 
#    0.000    0.000    0.000    0.000    0.000    0.000 
#
# Total GULP energy -173503.856733 kJ/mol
# GULP energy per Si atom -12393.132624 kJ/mol
# Density = 2.127792 g / cm^3
# Si number density = 21.326458 Si / 1000 Ang^3
#
#
#
# Elastic Constant Matrix: (Units=GPa)
#
#
# Indices 1 2 3 4 5 6 
#
# 1 97.5356 43.0878 24.6191 -5.6718 12.2964 5.5222
# 2 43.0878 111.7244 14.0098 -17.5154 -0.5029 -13.0978
# 3 24.6191 14.0098 51.0807 1.1482 19.2428 -4.9155
# 4 -5.6718 -17.5154 1.1482 34.5530 0.2214 7.3231
# 5 12.2964 -0.5029 19.2428 0.2214 26.2610 -1.3092
# 6 5.5222 -13.0978 -4.9155 7.3231 -1.3092 43.9462
#
#
#
# Elastic Compliance Matrix: (Units=1/GPa)
#
#
# Indices 1 2 3 4 5 6 
#
# 1 0.014555 -0.005451 -0.004490 0.000687 -0.003844 -0.004185
# 2 -0.005451 0.012521 -0.002320 0.004757 0.004626 0.003502
# 3 -0.004490 -0.002320 0.030279 -0.003479 -0.019937 0.003245
# 4 0.000687 0.004757 -0.003479 0.032506 0.001825 -0.004420
# 5 -0.003844 0.004626 -0.019937 0.001825 0.054609 0.000955
# 6 -0.004185 0.003502 0.003245 -0.004420 0.000955 0.025453
#
#
# Mechanical properties :
#
#
# Convention : Reuss Voigt Hill
#
# Bulk Modulus (GPa) = 30.45691 47.08602 38.77147
# Shear Modulus (GPa) = 24.34409 32.86030 28.60220
#
# Velocity S-wave (km/s) = 3.38227 3.92959 3.66616
# Velocity P-wave (km/s) = 5.43740 6.53571 6.01169
#
# Compressibility (1/GPa) = 0.03283327
#
# Stress axis : x y z
#
# Youngs Moduli (GPa) = 68.70273 79.86695 33.02673
#
# Poissons Ratio (x) = 0.43532 0.14830
# Poissons Ratio (y) = 0.37447 0.07661
# Poissons Ratio (z) = 0.30850 0.18527
#
# Static dielectric constant tensor:
#      x y z
#    x 3.885460 -0.025940 0.215180 
#    y -0.025940 4.328500 -0.451560 
#    z 0.215180 -0.451560 3.780390 
# 
# 
# High freq. dielectric constant tensor:
#      x y z
#    x 1.836870 0.008950 0.028900 
#    y 0.008950 1.849460 -0.017840 
#    z 0.028900 -0.017840 1.809440 
# 
# From -- ./inp_files/198664.got.cif
#   From: 2010.06.25/outbox.cif.g09.slc.cpg/sg2_100_cif.got.tgz:198664.got - 2010.06.27 13:26:56.
