data_PCOD8040680
_publ_section_title
;
Structure prediction by ZEFSAII (Michael W. Deem and Ramdas Pophale) SiO2 
 PCOD8040680
Probable space group: P -1
;
_chemical_formula_sum "Si O2"
_cell_formula_units_Z 16
_cell_length_a 18.373279
_cell_length_b 23.175722
_cell_length_c 7.125545
_cell_angle_alpha 102.427270
_cell_angle_beta 63.262662
_cell_angle_gamma 157.482276
_cell_volume 840.949690
_symmetry_space_group_name_H-M "P -1"
_symmetry_group_IT_number 2
_symmetry_cell_setting 'triclinic'
loop_
_space_group_symop_operation_xyz
x,y,z
-x,-y,-z
loop_
_atom_site_type_symbol
_atom_site_label
_atom_site_fract_x
_atom_site_fract_y
_atom_site_fract_z
Si Si1 0.764488 0.972294 0.777527
Si Si2 0.418569 0.774247 0.336665
Si Si3 0.476717 0.010722 0.237892
Si Si4 0.654476 0.611313 0.591643
Si Si5 0.646019 0.386868 0.864016
Si Si6 0.785543 0.049835 0.438328
Si Si7 0.153858 0.710014 0.681602
Si Si8 0.658839 0.530090 0.868312
O O1 0.764271 0.982278 0.563435
O O2 0.053971 0.175715 0.659723
O O3 0.578779 0.893442 0.039616
O O4 0.637195 0.820387 0.863880
O O5 0.292127 0.621408 0.371347
O O6 0.198883 0.671513 0.556475
O O7 0.640033 0.928313 0.340881
O O8 0.335192 0.974944 0.349935
O O9 0.310532 0.853599 0.447510
O O10 0.750992 0.209122 0.161803
O O11 0.500000 0.000000 0.000000
O O12 0.500000 0.500000 0.500000
O O13 0.625314 0.531654 0.695846
O O14 0.563102 0.602423 0.823973
O O15 0.657706 0.458539 0.804977
O O16 0.856535 0.523281 0.881020
O O17 0.080529 0.266040 0.199431
#
# Coordination Sequence:
#
# PCOD8040680 Si02
#       8
#     2   2   2   2   2   2   2   2
#     4   9  21  36  58  84 116 147 192 237 294 341
#     4   9  20  35  59  78 126 159 187 227 293 334
#     4  10  20  33  57  85 114 153 208 239 269 326
#     4  10  21  41  65  85 108 151 194 240 298 352
#     4  10  21  40  55  91 122 151 189 242 290 340
#     4  10  18  38  57  81 115 157 194 236 281 344
#     4  10  19  37  55  84 121 162 189 238 279 335
#     4  10  21  39  63  85 116 143 195 247 284 348
#
# _framework density 19.026109000000002
#
# number of rings (size 3 to 8) (size 9 to 14) (size 15 to 20)
#    0.750    1.500    1.250    1.875    0.000    0.500 
#    9.000    1.875    0.000    0.000    0.000    0.000 
#    0.000    0.000    0.000    0.000    0.000    0.000 
#
# Total GULP energy -198263.637066 kJ/mol
# GULP energy per Si atom -12391.477317 kJ/mol
# Density = 1.898280 g / cm^3
# Si number density = 19.026109 Si / 1000 Ang^3
#
#
#
# Elastic Constant Matrix: (Units=GPa)
#
#
# Indices 1 2 3 4 5 6 
#
# 1 97.9634 88.6760 28.2842 -12.3620 15.9595 3.5645
# 2 88.6760 0.0149 22.2906 23.7068 -19.5848 -26.7963
# 3 28.2842 22.2906 66.9624 2.4272 -2.9454 -4.6478
# 4 -12.3620 23.7068 2.4272 16.5008 5.7351 3.3927
# 5 15.9595 -19.5848 -2.9454 5.7351 17.3410 -7.5316
# 6 3.5645 -26.7963 -4.6478 3.3927 -7.5316 22.3244
#
#
#
# Elastic Compliance Matrix: (Units=1/GPa)
#
#
# Indices 1 2 3 4 5 6 
#
# 1 0.005156 0.004654 -0.002875 -0.005358 0.004637 0.006543
# 2 0.004654 -0.000329 -0.003235 0.009979 -0.011657 -0.007260
# 3 -0.002875 -0.003235 0.017518 -0.001468 0.003101 0.001493
# 4 -0.005358 0.009979 -0.001468 0.037992 0.007406 0.009253
# 5 0.004637 -0.011657 0.003101 0.007406 0.037147 -0.002680
# 6 0.006543 -0.007260 0.001493 0.009253 -0.002680 0.033035
#
#
# Mechanical properties :
#
#
# Convention : Reuss Voigt Hill
#
# Bulk Modulus (GPa) = 51.45586 49.27137 50.36361
# Shear Modulus (GPa) = 35.73773 12.94589 24.34181
#
# Velocity S-wave (km/s) = 4.33870 2.61133 3.58074
# Velocity P-wave (km/s) = 7.22514 5.91988 6.60483
#
# Compressibility (1/GPa) = 0.01943413
#
# Stress axis : x y z
#
# Youngs Moduli (GPa) = 193.96701 -3043.44709 57.08428
#
# Poissons Ratio (x) = 14.16390 0.16409
# Poissons Ratio (y) = -0.90270 0.18465
# Poissons Ratio (z) = 0.55756 -9.84487
#
# Static dielectric constant tensor:
#      x y z
#    x 3.523820 0.096740 -0.051680 
#    y 0.096740 3.567210 -0.043740 
#    z -0.051680 -0.043740 3.224140 
# 
# 
# High freq. dielectric constant tensor:
#      x y z
#    x 1.733410 0.008260 0.001340 
#    y 0.008260 1.746420 -0.003140 
#    z 0.001340 -0.003140 1.722960 
# 
# From -- ./inp_files/112864.got.cif
#   From: 2010.06.25/outbox.cif.g09.slc.cpg/sg2_57_cif.got.tgz:112864.got - 2010.06.27 13:26:56.
