data_PCOD8040180
_publ_section_title
;
Structure prediction by ZEFSAII (Michael W. Deem and Ramdas Pophale) SiO2 
 PCOD8040180
Probable space group: P -1
;
_chemical_formula_sum "Si O2"
_cell_formula_units_Z 14
_cell_length_a 11.906491
_cell_length_b 14.216690
_cell_length_c 11.557294
_cell_angle_alpha 146.175285
_cell_angle_beta 142.587114
_cell_angle_gamma 52.820345
_cell_volume 652.642518
_symmetry_space_group_name_H-M "P -1"
_symmetry_group_IT_number 2
_symmetry_cell_setting 'triclinic'
loop_
_space_group_symop_operation_xyz
x,y,z
-x,-y,-z
loop_
_atom_site_type_symbol
_atom_site_label
_atom_site_fract_x
_atom_site_fract_y
_atom_site_fract_z
Si Si1 0.644998 0.494864 0.404421
Si Si2 0.269755 0.611534 0.249025
Si Si3 0.708087 0.358648 0.950473
Si Si4 0.046704 0.106870 0.319669
Si Si5 0.429422 0.283230 0.832935
Si Si6 0.086010 0.658181 0.370200
Si Si7 0.936318 0.737917 0.758286
O O1 0.473597 0.565391 0.398922
O O2 0.799592 0.471027 0.601266
O O3 0.735074 0.628945 0.515462
O O4 0.564540 0.317007 0.090100
O O5 0.282324 0.722102 0.253065
O O6 0.199835 0.717958 0.406472
O O7 0.120822 0.437300 0.928538
O O8 0.548149 0.243208 0.777139
O O9 0.667544 0.550004 0.096373
O O10 0.904989 0.373909 0.193266
O O11 0.264781 0.121961 0.552648
O O12 0.046572 0.220557 0.320268
O O13 0.925013 0.176559 0.391753
O O14 0.961473 0.910996 0.030838
#
# Coordination Sequence:
#
# PCOD8040180 Si02
#       7
#     2   2   2   2   2   2   2
#     4  11  20  38  63  89 110 152 195 241 285 342
#     4  10  21  36  62  90 112 147 200 245 277 334
#     4  10  18  36  56  87 112 150 192 238 283 337
#     4  11  22  39  53  89 121 152 188 241 287 351
#     4  10  20  34  63  85 114 147 201 240 282 341
#     4  11  21  38  63  84 119 150 196 241 283 334
#     4  11  23  35  60  83 124 153 185 238 303 335
#
# _framework density 21.451253000000001
#
# number of rings (size 3 to 8) (size 9 to 14) (size 15 to 20)
#    0.000    1.429    4.286    3.857    0.000    2.286 
#    0.000    4.286    0.000    0.000    0.000    0.000 
#    0.000    0.000    0.000    0.000    0.000    0.000 
#
# Total GULP energy -173571.397566 kJ/mol
# GULP energy per Si atom -12397.956969 kJ/mol
# Density = 2.140243 g / cm^3
# Si number density = 21.451253 Si / 1000 Ang^3
#
#
#
# Elastic Constant Matrix: (Units=GPa)
#
#
# Indices 1 2 3 4 5 6 
#
# 1 165.2147 12.6742 33.5117 -8.3485 -19.0719 -13.4950
# 2 12.6742 44.3602 6.4392 -20.3896 7.9459 -6.6906
# 3 33.5117 6.4392 78.0026 -13.4189 -6.0536 -2.8637
# 4 -8.3485 -20.3896 -13.4189 18.7434 -6.2462 1.7738
# 5 -19.0719 7.9459 -6.0536 -6.2462 32.3674 -6.9649
# 6 -13.4950 -6.6906 -2.8637 1.7738 -6.9649 23.8668
#
#
#
# Elastic Compliance Matrix: (Units=1/GPa)
#
#
# Indices 1 2 3 4 5 6 
#
# 1 0.007854 -0.001246 -0.002248 0.002044 0.006079 0.005444
# 2 -0.001246 0.049979 0.006981 0.058434 0.001801 0.010326
# 3 -0.002248 0.006981 0.017128 0.020147 0.004610 0.002589
# 4 0.002044 0.058434 0.020147 0.137619 0.020570 0.015729
# 5 0.006079 0.001801 0.004610 0.020570 0.042152 0.015268
# 6 0.005444 0.010326 0.002589 0.015729 0.015268 0.051470
#
#
# Mechanical properties :
#
#
# Convention : Reuss Voigt Hill
#
# Bulk Modulus (GPa) = 12.20483 43.64750 27.92617
# Shear Modulus (GPa) = 15.31209 30.65902 22.98555
#
# Velocity S-wave (km/s) = 2.67462 3.78463 3.27697
# Velocity P-wave (km/s) = 3.90385 6.28406 5.23113
#
# Compressibility (1/GPa) = 0.08193478
#
# Stress axis : x y z
#
# Youngs Moduli (GPa) = 127.32291 20.00852 58.38281
#
# Poissons Ratio (x) = 0.02493 0.13125
# Poissons Ratio (y) = 0.15863 -0.40756
# Poissons Ratio (z) = 0.28624 -0.13968
#
# Static dielectric constant tensor:
#      x y z
#    x 4.350000 -0.094990 -0.116760 
#    y -0.094990 3.586980 -0.419450 
#    z -0.116760 -0.419450 3.838640 
# 
# 
# High freq. dielectric constant tensor:
#      x y z
#    x 1.856880 -0.016640 -0.003610 
#    y -0.016640 1.812480 -0.038400 
#    z -0.003610 -0.038400 1.826110 
# 
# From -- ./inp_files/258118.got.cif
#   From: 2010.06.25/outbox.cif.g09.slc.cpg/sg2_130_cif.got.tgz:258118.got - 2010.06.27 13:26:56.
