data_PCOD8040030
_publ_section_title
;
Structure prediction by ZEFSAII (Michael W. Deem and Ramdas Pophale) SiO2 
 PCOD8040030
Probable space group: P -1
;
_chemical_formula_sum "Si O2"
_cell_formula_units_Z 14
_cell_length_a 8.939834
_cell_length_b 7.054858
_cell_length_c 12.102405
_cell_angle_alpha 71.064587
_cell_angle_beta 54.783961
_cell_angle_gamma 81.675911
_cell_volume 588.962590
_symmetry_space_group_name_H-M "P -1"
_symmetry_group_IT_number 2
_symmetry_cell_setting 'triclinic'
loop_
_space_group_symop_operation_xyz
x,y,z
-x,-y,-z
loop_
_atom_site_type_symbol
_atom_site_label
_atom_site_fract_x
_atom_site_fract_y
_atom_site_fract_z
Si Si1 0.678667 0.603738 0.957169
Si Si2 0.016762 0.397534 0.339716
Si Si3 0.564073 0.836709 0.160021
Si Si4 0.682815 0.597460 0.352775
Si Si5 0.866361 0.205461 0.649788
Si Si6 0.069236 0.058660 0.776757
Si Si7 0.181933 0.791938 0.956709
O O1 0.820698 0.683804 0.788048
O O2 0.500000 0.500000 0.000000
O O3 0.625497 0.794555 0.016171
O O4 0.764349 0.435567 0.029748
O O5 0.096208 0.594347 0.332389
O O6 0.841334 0.440277 0.330058
O O7 0.959135 0.226005 0.486164
O O8 0.642386 0.655978 0.232496
O O9 0.347721 0.842694 0.263777
O O10 0.645465 0.054743 0.119621
O O11 0.500000 0.500000 0.500000
O O12 0.742533 0.806489 0.352224
O O13 0.957562 0.028289 0.715438
O O14 0.100447 0.843778 0.860188
O O15 0.967643 0.191541 0.886574
#
# Coordination Sequence:
#
# PCOD8040030 Si02
#       7
#     2   2   2   2   2   2   2
#     4  12  23  40  64  98 125 157 208 264 306 362
#     4  10  20  36  60  91 129 160 206 259 306 367
#     4  11  23  36  69  96 118 166 211 251 312 368
#     4  10  18  35  61  93 122 165 214 247 302 378
#     4  10  18  36  64  91 118 172 208 244 318 368
#     4   9  19  36  59  86 124 165 200 252 309 364
#     4  10  21  41  60  91 131 159 199 260 312 366
#
# _framework density 23.770610000000001
#
# number of rings (size 3 to 8) (size 9 to 14) (size 15 to 20)
#    0.000    1.714    5.714    0.000    0.000    2.857 
#    0.000    0.000    0.000   14.571    0.000    0.000 
#    0.000    0.000    0.000    0.000    0.000    0.000 
#
# Total GULP energy -173573.645126 kJ/mol
# GULP energy per Si atom -12398.117509 kJ/mol
# Density = 2.371651 g / cm^3
# Si number density = 23.770610 Si / 1000 Ang^3
#
#
#
# Elastic Constant Matrix: (Units=GPa)
#
#
# Indices 1 2 3 4 5 6 
#
# 1 140.0054 10.2352 63.2758 -8.2287 2.4828 -15.5869
# 2 10.2352 40.3606 26.0956 -6.3895 1.1437 -2.9341
# 3 63.2758 26.0956 173.6761 -8.2270 -6.5471 -1.9426
# 4 -8.2287 -6.3895 -8.2270 24.0952 -4.5982 4.1041
# 5 2.4828 1.1437 -6.5471 -4.5982 47.1936 -8.8583
# 6 -15.5869 -2.9341 -1.9426 4.1041 -8.8583 27.5869
#
#
#
# Elastic Compliance Matrix: (Units=1/GPa)
#
#
# Indices 1 2 3 4 5 6 
#
# 1 0.009220 0.000347 -0.003292 0.001308 0.000087 0.004848
# 2 0.000347 0.028425 -0.004111 0.005855 -0.000341 0.001949
# 3 -0.003292 -0.004111 0.007642 0.000870 0.001131 -0.001525
# 4 0.001308 0.005855 0.000870 0.045182 0.003530 -0.004165
# 5 0.000087 -0.000341 0.001131 0.003530 0.022999 0.006953
# 6 0.004848 0.001949 -0.001525 -0.004165 0.006953 0.041940
#
#
# Mechanical properties :
#
#
# Convention : Reuss Voigt Hill
#
# Bulk Modulus (GPa) = 32.07681 61.47282 46.77481
# Shear Modulus (GPa) = 27.79151 36.73751 32.26451
#
# Velocity S-wave (km/s) = 3.42300 3.93555 3.68819
# Velocity P-wave (km/s) = 5.39872 6.82411 6.15283
#
# Compressibility (1/GPa) = 0.03117517
#
# Stress axis : x y z
#
# Youngs Moduli (GPa) = 108.45976 35.18022 130.86045
#
# Poissons Ratio (x) = -0.01222 0.43077
# Poissons Ratio (y) = -0.03766 0.53799
# Poissons Ratio (z) = 0.35703 0.14463
#
# Static dielectric constant tensor:
#      x y z
#    x 4.706480 -0.235370 0.123750 
#    y -0.235370 3.865080 -0.381610 
#    z 0.123750 -0.381610 4.450320 
# 
# 
# High freq. dielectric constant tensor:
#      x y z
#    x 1.961160 -0.005420 -0.001960 
#    y -0.005420 1.911760 -0.033920 
#    z -0.001960 -0.033920 1.944720 
# 
# From -- ./inp_files/225219.got.cif
#   From: 2010.06.25/outbox.cif.g09.slc.cpg/sg2_113_cif.got.tgz:225219.got - 2010.06.27 13:26:56.
