data_PCOD8040925
_publ_section_title
;
Structure prediction by ZEFSAII (Michael W. Deem and Ramdas Pophale) SiO2 
 PCOD8040925
Probable space group: P -1
;
_chemical_formula_sum "Si O2"
_cell_formula_units_Z 14
_cell_length_a 16.316568
_cell_length_b 9.661086
_cell_length_c 11.335379
_cell_angle_alpha 139.841277
_cell_angle_beta 150.565062
_cell_angle_gamma 39.661619
_cell_volume 534.813402
_symmetry_space_group_name_H-M "P -1"
_symmetry_group_IT_number 2
_symmetry_cell_setting 'triclinic'
loop_
_space_group_symop_operation_xyz
x,y,z
-x,-y,-z
loop_
_atom_site_type_symbol
_atom_site_label
_atom_site_fract_x
_atom_site_fract_y
_atom_site_fract_z
Si Si1 0.246057 0.891434 0.651709
Si Si2 0.413107 0.432914 0.030769
Si Si3 0.952369 0.673470 0.168252
Si Si4 0.965647 0.430818 0.249827
Si Si5 0.037983 0.133502 0.346024
Si Si6 0.222910 0.146413 0.162026
Si Si7 0.572947 0.775470 0.331967
O O1 0.449921 0.751789 0.834531
O O2 0.134046 0.727338 0.434522
O O3 0.194063 0.111845 0.814738
O O4 0.213030 0.970036 0.523903
O O5 0.490233 0.624645 0.210206
O O6 0.237713 0.534197 0.952203
O O7 0.367208 0.313412 0.780421
O O8 0.974051 0.441333 0.122338
O O9 0.872910 0.650669 0.921564
O O10 0.032141 0.630000 0.514583
O O11 0.074039 0.188827 0.291565
O O12 0.877753 0.035249 0.088787
O O13 0.242516 0.233541 0.377039
O O14 0.427592 0.025625 0.302676
#
# Coordination Sequence:
#
# PCOD8040925 Si02
#       7
#     2   2   2   2   2   2   2
#     4   9  18  33  58  81 115 148 198 225 276 335
#     4  11  21  36  56  97 112 143 185 256 281 328
#     4   9  18  33  59  83 110 155 191 229 272 355
#     4  10  20  33  59  90 120 140 189 237 296 325
#     4   9  19  35  59  82 112 160 189 225 273 364
#     4  10  18  40  57  85 104 164 195 227 263 359
#     4  10  22  33  62  79 120 147 198 230 281 330
#
# _framework density 26.177354999999999
#
# number of rings (size 3 to 8) (size 9 to 14) (size 15 to 20)
#    0.000    2.286    2.857    0.857    0.000    3.429 
#    0.000    4.286    0.000    0.000    0.000    0.000 
#    0.000    0.000    0.000    0.000    0.000    0.000 
#
# Total GULP energy -173592.014845 kJ/mol
# GULP energy per Si atom -12399.429632 kJ/mol
# Density = 2.611777 g / cm^3
# Si number density = 26.177355 Si / 1000 Ang^3
#
#
#
# Elastic Constant Matrix: (Units=GPa)
#
#
# Indices 1 2 3 4 5 6 
#
# 1 133.1241 55.2101 45.1903 -34.2521 -23.5890 42.3316
# 2 55.2101 148.4774 49.2024 -59.2329 -1.6389 37.6749
# 3 45.1903 49.2024 145.6196 -42.3275 -13.3581 14.7176
# 4 -34.2521 -59.2329 -42.3275 46.4389 1.1753 -7.4997
# 5 -23.5890 -1.6389 -13.3581 1.1753 31.7637 -4.7860
# 6 42.3316 37.6749 14.7176 -7.4997 -4.7860 44.5956
#
#
#
# Elastic Compliance Matrix: (Units=1/GPa)
#
#
# Indices 1 2 3 4 5 6 
#
# 1 0.015818 0.003117 0.000212 0.013260 0.009323 -0.014487
# 2 0.003117 0.019242 0.001668 0.025867 0.000741 -0.015335
# 3 0.000212 0.001668 0.010006 0.010877 0.003643 -0.002692
# 4 0.013260 0.025867 0.010877 0.069903 0.009362 -0.025269
# 5 0.009323 0.000741 0.003643 0.009362 0.038887 -0.004931
# 6 -0.014487 -0.015335 -0.002692 -0.025269 -0.004931 0.045241
#
#
# Mechanical properties :
#
#
# Convention : Reuss Voigt Hill
#
# Bulk Modulus (GPa) = 18.16241 80.71406 49.43824
# Shear Modulus (GPa) = 24.10142 43.06752 33.58447
#
# Velocity S-wave (km/s) = 3.03759 4.06053 3.58573
# Velocity P-wave (km/s) = 4.38815 7.27216 6.00584
#
# Compressibility (1/GPa) = 0.05505877
#
# Stress axis : x y z
#
# Youngs Moduli (GPa) = 63.22028 51.96960 99.94287
#
# Poissons Ratio (x) = -0.16198 -0.02117
# Poissons Ratio (y) = -0.19705 -0.16670
# Poissons Ratio (z) = -0.01339 -0.08668
#
# Static dielectric constant tensor:
#      x y z
#    x 4.800670 0.266370 -0.329020 
#    y 0.266370 5.198230 -0.346020 
#    z -0.329020 -0.346020 4.882150 
# 
# 
# High freq. dielectric constant tensor:
#      x y z
#    x 2.045430 0.001970 -0.007830 
#    y 0.001970 2.074350 -0.023930 
#    z -0.007830 -0.023930 2.055080 
# 
# From -- ./inp_files/401913.got.cif
#   From: 2010.06.25/outbox.cif.g09.slc.cpg/sg2_201_cif.got.tgz:401913.got - 2010.06.27 13:26:56.
