data_PCOD8040184
_publ_section_title
;
Structure prediction by ZEFSAII (Michael W. Deem and Ramdas Pophale) SiO2 
 PCOD8040184
Probable space group: P -1
;
_chemical_formula_sum "Si O2"
_cell_formula_units_Z 16
_cell_length_a 16.862431
_cell_length_b 11.779684
_cell_length_c 25.813408
_cell_angle_alpha 31.127653
_cell_angle_beta 19.539679
_cell_angle_gamma 32.684606
_cell_volume 868.233193
_symmetry_space_group_name_H-M "P -1"
_symmetry_group_IT_number 2
_symmetry_cell_setting 'triclinic'
loop_
_space_group_symop_operation_xyz
x,y,z
-x,-y,-z
loop_
_atom_site_type_symbol
_atom_site_label
_atom_site_fract_x
_atom_site_fract_y
_atom_site_fract_z
Si Si1 0.875379 0.449347 0.529849
Si Si2 0.779805 0.188510 0.040380
Si Si3 0.121890 0.418522 0.237830
Si Si4 0.358413 0.261023 0.352848
Si Si5 0.559803 0.032715 0.132360
Si Si6 0.448843 0.112032 0.543267
Si Si7 0.935454 0.242008 0.778215
Si Si8 0.362705 0.607931 0.405095
O O1 0.687002 0.525284 0.663198
O O2 0.748806 0.342180 0.603285
O O3 0.108513 0.264332 0.474861
O O4 0.967193 0.679901 0.366486
O O5 0.580976 0.272020 0.174276
O O6 0.652145 0.088944 0.109860
O O7 0.872660 0.414095 0.879308
O O8 0.000000 0.000000 0.000000
O O9 0.306009 0.182233 0.211854
O O10 0.205606 0.533148 0.193571
O O11 0.852589 0.368137 0.429454
O O12 0.411227 0.029177 0.441701
O O13 0.538164 0.774549 0.245996
O O14 0.756865 0.067384 0.953315
O O15 0.522151 0.355273 0.405107
O O16 0.159351 0.141918 0.717897
O O17 0.500000 0.000000 0.500000
#
# Coordination Sequence:
#
# PCOD8040184 Si02
#       8
#     2   2   2   2   2   2   2   2
#     4   9  19  33  57  84 102 138 187 229 266 317
#     4  11  21  35  56  84 111 144 185 222 270 326
#     4   9  18  34  54  78 108 148 183 214 261 324
#     4  11  18  32  59  82 105 136 188 228 263 319
#     4  11  20  34  57  81 112 146 178 227 267 318
#     4  10  18  36  57  76 103 144 182 218 265 327
#     4   9  17  33  54  80 104 138 192 213 257 324
#     4  10  20  36  55  82 109 142 187 222 269 322
#
# _framework density 18.428228000000001
#
# number of rings (size 3 to 8) (size 9 to 14) (size 15 to 20)
#    0.000    2.250    2.500    6.375    0.000    0.000 
#    0.000    4.375    0.000    8.250    0.000    0.000 
#    0.000    0.000    0.000    0.000    0.000    0.000 
#
# Total GULP energy -198275.341122 kJ/mol
# GULP energy per Si atom -12392.208820 kJ/mol
# Density = 1.838628 g / cm^3
# Si number density = 18.428228 Si / 1000 Ang^3
#
#
#
# Elastic Constant Matrix: (Units=GPa)
#
#
# Indices 1 2 3 4 5 6 
#
# 1 75.0695 27.5396 28.4163 -0.7789 8.9242 -14.4524
# 2 27.5396 95.8629 38.0650 -2.3250 -3.7754 -11.3169
# 3 28.4163 38.0650 102.1699 -11.6722 0.5936 19.1219
# 4 -0.7789 -2.3250 -11.6722 33.3319 6.0674 1.8030
# 5 8.9242 -3.7754 0.5936 6.0674 23.4291 3.1728
# 6 -14.4524 -11.3169 19.1219 1.8030 3.1728 32.2594
#
#
#
# Elastic Compliance Matrix: (Units=1/GPa)
#
#
# Indices 1 2 3 4 5 6 
#
# 1 0.020886 -0.001447 -0.008138 -0.001514 -0.009581 0.014700
# 2 -0.001447 0.014639 -0.006921 -0.002359 0.002549 0.008471
# 3 -0.008138 -0.006921 0.018665 0.006412 0.002251 -0.017717
# 4 -0.001514 -0.002359 0.006412 0.033824 -0.007855 -0.006424
# 5 -0.009581 0.002549 0.002251 -0.007855 0.049966 -0.009207
# 6 0.014700 0.008471 -0.017717 -0.006424 -0.009207 0.052323
#
#
# Mechanical properties :
#
#
# Convention : Reuss Voigt Hill
#
# Bulk Modulus (GPa) = 47.22188 51.23824 49.23006
# Shear Modulus (GPa) = 21.70376 29.74282 25.72329
#
# Velocity S-wave (km/s) = 3.43555 4.02180 3.74018
# Velocity P-wave (km/s) = 6.43566 7.03072 6.73976
#
# Compressibility (1/GPa) = 0.02117662
#
# Stress axis : x y z
#
# Youngs Moduli (GPa) = 47.87906 68.31236 53.57616
#
# Poissons Ratio (x) = 0.09886 0.43602
# Poissons Ratio (y) = 0.06929 0.37080
# Poissons Ratio (z) = 0.38966 0.47278
#
# Static dielectric constant tensor:
#      x y z
#    x 3.288990 -0.221630 0.265110 
#    y -0.221630 3.624600 0.270730 
#    z 0.265110 0.270730 3.513650 
# 
# 
# High freq. dielectric constant tensor:
#      x y z
#    x 1.694680 -0.019460 0.021930 
#    y -0.019460 1.716020 0.019130 
#    z 0.021930 0.019130 1.704260 
# 
# From -- ./inp_files/464679.got.cif
#   From: 2010.06.25/outbox.cif.g09.slc.cpg/sg2_233_cif.got.tgz:464679.got - 2010.06.27 13:26:56.
