data_PCOD8040864
_publ_section_title
;
Structure prediction by ZEFSAII (Michael W. Deem and Ramdas Pophale) SiO2 
 PCOD8040864
Probable space group: P -1
;
_chemical_formula_sum "Si O2"
_cell_formula_units_Z 16
_cell_length_a 13.504547
_cell_length_b 22.194979
_cell_length_c 8.083916
_cell_angle_alpha 125.256617
_cell_angle_beta 55.144896
_cell_angle_gamma 156.572285
_cell_volume 780.102374
_symmetry_space_group_name_H-M "P -1"
_symmetry_group_IT_number 2
_symmetry_cell_setting 'triclinic'
loop_
_space_group_symop_operation_xyz
x,y,z
-x,-y,-z
loop_
_atom_site_type_symbol
_atom_site_label
_atom_site_fract_x
_atom_site_fract_y
_atom_site_fract_z
Si Si1 0.976852 0.342274 0.170277
Si Si2 0.507984 0.318892 0.848950
Si Si3 0.203057 0.905214 0.925793
Si Si4 0.179118 0.149145 0.172423
Si Si5 0.780607 0.226793 0.820547
Si Si6 0.670077 0.238232 0.605035
Si Si7 0.860400 0.117278 0.427446
Si Si8 0.021558 0.960859 0.265464
O O1 0.916791 0.224295 0.059028
O O2 0.846532 0.316367 0.403268
O O3 0.274629 0.515269 0.175866
O O4 0.899655 0.326378 0.031641
O O5 0.593758 0.281162 0.727028
O O6 0.257403 0.194090 0.785706
O O7 0.434654 0.308420 0.086571
O O8 0.083015 0.844418 0.761491
O O9 0.498580 0.054479 0.864965
O O10 0.134226 0.940567 0.153934
O O11 0.036648 0.145757 0.369323
O O12 0.237367 0.123158 0.220623
O O13 0.000000 0.000000 0.000000
O O14 0.798953 0.291882 0.747275
O O15 0.923737 0.227652 0.634622
O O16 0.430273 0.056493 0.536540
O O17 0.000000 0.000000 0.500000
#
# Coordination Sequence:
#
# PCOD8040864 Si02
#       8
#     2   2   2   2   2   2   2   2
#     4  12  26  40  62  95 134 168 203 257 320 380
#     4  11  24  44  61  90 131 169 201 257 324 371
#     4  11  21  40  65  91 128 164 209 267 305 370
#     4  10  18  39  64  85 119 160 207 256 303 367
#     4  11  24  39  66  97 119 168 220 255 313 366
#     4  11  21  42  66  89 127 164 210 270 306 370
#     4  11  18  39  68  89 117 163 216 264 309 352
#     4  11  24  40  67  98 117 163 219 262 309 369
#
# _framework density 20.510128000000002
#
# number of rings (size 3 to 8) (size 9 to 14) (size 15 to 20)
#    0.000    1.000    7.500    2.250    3.500    1.000 
#    2.250    0.625    0.000    0.000    0.000    0.000 
#    0.000    0.000    0.000    0.000    0.000    0.000 
#
# Total GULP energy -198232.940083 kJ/mol
# GULP energy per Si atom -12389.558755 kJ/mol
# Density = 2.046345 g / cm^3
# Si number density = 20.510128 Si / 1000 Ang^3
#
#
#
# Elastic Constant Matrix: (Units=GPa)
#
#
# Indices 1 2 3 4 5 6 
#
# 1 51.8654 6.4381 20.3982 -2.4986 -20.7854 -0.2382
# 2 6.4381 77.7781 24.7257 -23.1858 0.8661 -1.2939
# 3 20.3982 24.7257 110.0484 -22.3156 -6.7301 4.4278
# 4 -2.4986 -23.1858 -22.3156 24.8300 -0.0835 0.8428
# 5 -20.7854 0.8661 -6.7301 -0.0835 41.4158 -7.1924
# 6 -0.2382 -1.2939 4.4278 0.8428 -7.1924 12.9662
#
#
#
# Elastic Compliance Matrix: (Units=1/GPa)
#
#
# Indices 1 2 3 4 5 6 
#
# 1 0.027179 -0.001761 -0.004894 -0.003611 0.014676 0.010370
# 2 -0.001761 0.018002 -0.000530 0.016146 -0.001282 0.000184
# 3 -0.004894 -0.000530 0.012350 0.010304 -0.001429 -0.005822
# 4 -0.003611 0.016146 0.010304 0.064481 -0.001567 -0.007035
# 5 0.014676 -0.001282 -0.001429 -0.001567 0.034779 0.020024
# 6 0.010370 0.000184 -0.005822 -0.007035 0.020024 0.090885
#
#
# Mechanical properties :
#
#
# Convention : Reuss Voigt Hill
#
# Bulk Modulus (GPa) = 23.16969 38.09067 30.63018
# Shear Modulus (GPa) = 18.08752 28.38440 23.23596
#
# Velocity S-wave (km/s) = 2.97287 3.72415 3.36951
# Velocity P-wave (km/s) = 4.80679 6.09133 5.48678
#
# Compressibility (1/GPa) = 0.04315983
#
# Stress axis : x y z
#
# Youngs Moduli (GPa) = 36.79306 55.55021 80.97454
#
# Poissons Ratio (x) = 0.09784 0.39629
# Poissons Ratio (y) = 0.06480 0.04292
# Poissons Ratio (z) = 0.18007 0.02944
#
# Static dielectric constant tensor:
#      x y z
#    x 3.776280 -0.168690 0.012660 
#    y -0.168690 3.680950 -0.349800 
#    z 0.012660 -0.349800 3.910510 
# 
# 
# High freq. dielectric constant tensor:
#      x y z
#    x 1.803430 -0.016820 -0.008090 
#    y -0.016820 1.773100 -0.023980 
#    z -0.008090 -0.023980 1.812960 
# 
# From -- ./inp_files/320171.got.cif
#   From: 2010.06.25/outbox.cif.g09.slc.cpg/sg2_161_cif.got.tgz:320171.got - 2010.06.27 13:26:56.
