data_PCOD8040055
_publ_section_title
;
Structure prediction by ZEFSAII (Michael W. Deem and Ramdas Pophale) SiO2 
 PCOD8040055
Probable space group: P -1
;
_chemical_formula_sum "Si O2"
_cell_formula_units_Z 16
_cell_length_a 8.957860
_cell_length_b 25.574333
_cell_length_c 15.617568
_cell_angle_alpha 162.474105
_cell_angle_beta 49.112507
_cell_angle_gamma 130.584592
_cell_volume 809.040673
_symmetry_space_group_name_H-M "P -1"
_symmetry_group_IT_number 2
_symmetry_cell_setting 'triclinic'
loop_
_space_group_symop_operation_xyz
x,y,z
-x,-y,-z
loop_
_atom_site_type_symbol
_atom_site_label
_atom_site_fract_x
_atom_site_fract_y
_atom_site_fract_z
Si Si1 0.137541 0.211628 0.710127
Si Si2 0.364164 0.185500 0.274193
Si Si3 0.908150 0.673127 0.783244
Si Si4 0.884378 0.170321 0.896811
Si Si5 0.253904 0.804007 0.740445
Si Si6 0.575830 0.514899 0.900163
Si Si7 0.571457 0.437056 0.464549
Si Si8 0.169949 0.392876 0.802498
O O1 0.111961 0.331383 0.824308
O O2 0.935377 0.183204 0.796468
O O3 0.207450 0.030746 0.367865
O O4 0.288658 0.300780 0.865062
O O5 0.587439 0.184420 0.224113
O O6 0.382824 0.334745 0.426289
O O7 0.200803 0.230522 0.475787
O O8 0.282735 0.988737 0.966036
O O9 0.678389 0.609483 0.743893
O O10 0.000000 0.500000 0.500000
O O11 0.031490 0.771411 0.811889
O O12 0.929027 0.790461 0.045238
O O13 0.722580 0.296339 0.173698
O O14 0.292480 0.643622 0.414441
O O15 0.385228 0.511766 0.904639
O O16 0.500000 0.500000 0.000000
O O17 0.500000 0.500000 0.500000
O O18 0.000000 0.500000 0.000000
#
# Coordination Sequence:
#
# PCOD8040055 Si02
#       8
#     2   2   2   2   2   2   2   2
#     4  10  21  38  59  88 113 156 203 241 292 343
#     4  10  21  35  62  88 118 152 199 252 296 346
#     4  10  18  36  61  87 115 155 199 238 295 356
#     4  10  21  37  63  84 116 152 201 249 281 359
#     4  10  18  35  62  91 110 151 206 251 284 345
#     4   9  19  33  58  82 114 150 196 240 288 352
#     4  11  24  38  60  90 124 154 191 249 312 357
#     4  10  22  37  57  83 120 159 193 237 301 360
#
# _framework density 19.776509000000001
#
# number of rings (size 3 to 8) (size 9 to 14) (size 15 to 20)
#    0.000    2.000    2.500    2.250    8.750    0.000 
#    0.000    3.125    0.000    3.000    0.000    0.000 
#    0.000    0.000    0.000    0.000    0.000    0.000 
#
# Total GULP energy -198228.381774 kJ/mol
# GULP energy per Si atom -12389.273861 kJ/mol
# Density = 1.973150 g / cm^3
# Si number density = 19.776509 Si / 1000 Ang^3
#
#
#
# Elastic Constant Matrix: (Units=GPa)
#
#
# Indices 1 2 3 4 5 6 
#
# 1 79.9100 26.9690 50.8178 12.6715 4.8412 -7.3065
# 2 26.9690 115.2393 34.9078 10.5300 3.9916 -10.1879
# 3 50.8178 34.9078 122.7516 11.9153 25.4881 3.3567
# 4 12.6715 10.5300 11.9153 37.5168 4.4499 3.7134
# 5 4.8412 3.9916 25.4881 4.4499 26.3070 -0.8390
# 6 -7.3065 -10.1879 3.3567 3.7134 -0.8390 23.4459
#
#
#
# Elastic Compliance Matrix: (Units=1/GPa)
#
#
# Indices 1 2 3 4 5 6 
#
# 1 0.019646 -0.000950 -0.008888 -0.005081 0.006255 0.008011
# 2 -0.000950 0.010369 -0.002864 -0.002413 0.001946 0.005071
# 3 -0.008888 -0.002864 0.015489 0.001152 -0.013352 -0.006892
# 4 -0.005081 -0.002413 0.001152 0.030059 -0.005147 -0.007742
# 5 0.006255 0.001946 -0.013352 -0.005147 0.050607 0.007333
# 6 0.008011 0.005071 -0.006892 -0.007742 0.007333 0.049827
#
#
# Mechanical properties :
#
#
# Convention : Reuss Voigt Hill
#
# Bulk Modulus (GPa) = 49.74830 60.36559 55.05694
# Shear Modulus (GPa) = 24.02690 31.13436 27.58063
#
# Velocity S-wave (km/s) = 3.48935 3.97206 3.73851
# Velocity P-wave (km/s) = 6.43770 7.18516 6.82167
#
# Compressibility (1/GPa) = 0.02010119
#
# Stress axis : x y z
#
# Youngs Moduli (GPa) = 50.90141 96.44299 64.56006
#
# Poissons Ratio (x) = 0.09158 0.57379
# Poissons Ratio (y) = 0.04834 0.18491
# Poissons Ratio (z) = 0.45240 0.27623
#
# Static dielectric constant tensor:
#      x y z
#    x 3.505720 -0.006870 0.457250 
#    y -0.006870 3.599390 -0.023580 
#    z 0.457250 -0.023580 3.667590 
# 
# 
# High freq. dielectric constant tensor:
#      x y z
#    x 1.726580 0.000730 0.030370 
#    y 0.000730 1.785960 0.001100 
#    z 0.030370 0.001100 1.769390 
# 
# From -- ./inp_files/447492.got.cif
#   From: 2010.06.25/outbox.cif.g09.slc.cpg/sg2_224_cif.got.tgz:447492.got - 2010.06.27 13:26:56.
