data_PCOD8040179
_publ_section_title
;
Structure prediction by ZEFSAII (Michael W. Deem and Ramdas Pophale) SiO2 
 PCOD8040179
Probable space group: P -1
;
_chemical_formula_sum "Si O2"
_cell_formula_units_Z 14
_cell_length_a 21.136337
_cell_length_b 17.695353
_cell_length_c 9.497252
_cell_angle_alpha 130.008100
_cell_angle_beta 38.183492
_cell_angle_gamma 160.123899
_cell_volume 663.556701
_symmetry_space_group_name_H-M "P -1"
_symmetry_group_IT_number 2
_symmetry_cell_setting 'triclinic'
loop_
_space_group_symop_operation_xyz
x,y,z
-x,-y,-z
loop_
_atom_site_type_symbol
_atom_site_label
_atom_site_fract_x
_atom_site_fract_y
_atom_site_fract_z
Si Si1 0.800312 0.631582 0.186506
Si Si2 0.662288 0.537252 0.615822
Si Si3 0.504381 0.278633 0.044988
Si Si4 0.793671 0.171178 0.227445
Si Si5 0.779578 0.852962 0.859285
Si Si6 0.226909 0.628756 0.498731
Si Si7 0.083888 0.763065 0.222713
O O1 0.622852 0.465863 0.438478
O O2 0.618690 0.466697 0.168777
O O3 0.948555 0.866894 0.220106
O O4 0.010997 0.730642 0.921449
O O5 0.818453 0.780194 0.633814
O O6 0.827976 0.603200 0.486047
O O7 0.393433 0.311681 0.895555
O O8 0.335519 0.172870 0.085161
O O9 0.326841 0.049322 0.177334
O O10 0.740492 0.422515 0.743500
O O11 0.829483 0.312794 0.397528
O O12 0.495689 0.871611 0.410582
O O13 0.859300 0.236236 0.025218
O O14 0.974406 0.374432 0.727658
#
# Coordination Sequence:
#
# PCOD8040179 Si02
#       7
#     2   2   2   2   2   2   2
#     4  11  22  39  57  87 115 148 186 236 277 338
#     4  10  21  38  64  79 113 150 192 227 286 331
#     4  11  23  35  59  85 118 147 189 226 289 329
#     4   9  19  34  59  84 109 152 192 221 286 331
#     4  11  21  42  58  84 111 153 186 236 279 335
#     4  10  18  36  59  82 114 151 183 237 274 334
#     4  10  18  36  56  84 113 148 187 234 274 335
#
# _framework density 21.098423
#
# number of rings (size 3 to 8) (size 9 to 14) (size 15 to 20)
#    0.000    1.714    5.714    0.857    0.000    2.286 
#    0.000    2.143    0.000    0.000    0.000    0.000 
#    0.000    0.000    0.000    0.000    0.000    0.000 
#
# Total GULP energy -173557.820978 kJ/mol
# GULP energy per Si atom -12396.987213 kJ/mol
# Density = 2.105040 g / cm^3
# Si number density = 21.098423 Si / 1000 Ang^3
#
#
#
# Elastic Constant Matrix: (Units=GPa)
#
#
# Indices 1 2 3 4 5 6 
#
# 1 32.8274 29.7362 2.8077 1.8619 7.7312 -11.8825
# 2 29.7362 113.9267 20.6936 9.4433 24.5447 -4.5530
# 3 2.8077 20.6936 61.6453 7.6286 3.2842 -2.9108
# 4 1.8619 9.4433 7.6286 34.8160 -9.2302 5.7727
# 5 7.7312 24.5447 3.2842 -9.2302 25.6582 1.9757
# 6 -11.8825 -4.5530 -2.9108 5.7727 1.9757 31.0544
#
#
#
# Elastic Compliance Matrix: (Units=1/GPa)
#
#
# Indices 1 2 3 4 5 6 
#
# 1 0.048792 -0.010064 0.003330 -0.006249 -0.009232 0.019255
# 2 -0.010064 0.015528 -0.003177 -0.006688 -0.013840 0.000252
# 3 0.003330 -0.003177 0.017953 -0.004377 -0.002102 0.003439
# 4 -0.006249 -0.006688 -0.004377 0.040421 0.024371 -0.012846
# 5 -0.009232 -0.013840 -0.002102 0.024371 0.065143 -0.014433
# 6 0.019255 0.000252 0.003439 -0.012846 -0.014433 0.043235
#
#
# Mechanical properties :
#
#
# Convention : Reuss Voigt Hill
#
# Bulk Modulus (GPa) = 16.01250 34.98606 25.49928
# Shear Modulus (GPa) = 18.40206 28.64986 23.52596
#
# Velocity S-wave (km/s) = 2.95651 3.68899 3.34287
# Velocity P-wave (km/s) = 4.38868 5.89603 5.19729
#
# Compressibility (1/GPa) = 0.06245122
#
# Stress axis : x y z
#
# Youngs Moduli (GPa) = 20.49515 64.40147 55.70195
#
# Poissons Ratio (x) = 0.64812 -0.18551
# Poissons Ratio (y) = 0.20626 0.17697
# Poissons Ratio (z) = -0.06826 0.20461
#
# Static dielectric constant tensor:
#      x y z
#    x 3.377250 -0.322270 -0.069900 
#    y -0.322270 3.754200 0.080410 
#    z -0.069900 0.080410 3.970930 
# 
# 
# High freq. dielectric constant tensor:
#      x y z
#    x 1.785260 -0.031620 -0.003170 
#    y -0.031620 1.817750 0.004960 
#    z -0.003170 0.004960 1.846510 
# 
# From -- ./inp_files/336761.got.cif
#   From: 2010.06.25/outbox.cif.g09.slc.cpg/sg2_169_cif.got.tgz:336761.got - 2010.06.27 13:26:56.
