data_PCOD8040885
_publ_section_title
;
Structure prediction by ZEFSAII (Michael W. Deem and Ramdas Pophale) SiO2 
 PCOD8040885
Probable space group: P -1
;
_chemical_formula_sum "Si O2"
_cell_formula_units_Z 14
_cell_length_a 12.831006
_cell_length_b 18.489539
_cell_length_c 11.047383
_cell_angle_alpha 50.201549
_cell_angle_beta 68.239585
_cell_angle_gamma 25.934232
_cell_volume 697.940042
_symmetry_space_group_name_H-M "P -1"
_symmetry_group_IT_number 2
_symmetry_cell_setting 'triclinic'
loop_
_space_group_symop_operation_xyz
x,y,z
-x,-y,-z
loop_
_atom_site_type_symbol
_atom_site_label
_atom_site_fract_x
_atom_site_fract_y
_atom_site_fract_z
Si Si1 0.820334 0.513549 0.627135
Si Si2 0.870560 0.269140 0.482195
Si Si3 0.134224 0.108079 0.039567
Si Si4 0.823219 0.788214 0.616976
Si Si5 0.144761 0.103710 0.311248
Si Si6 0.187662 0.384439 0.726789
Si Si7 0.809942 0.144715 0.806293
O O1 0.472838 0.801740 0.493697
O O2 0.897570 0.478163 0.493292
O O3 0.026468 0.411127 0.741915
O O4 0.899493 0.342300 0.800198
O O5 0.942191 0.118842 0.684768
O O6 0.534105 0.566729 0.326883
O O7 0.100958 0.172798 0.529392
O O8 0.928329 0.207956 0.378344
O O9 0.012036 0.213015 0.116952
O O10 0.457006 0.907552 0.103331
O O11 0.159196 0.979828 0.135134
O O12 0.067555 0.520194 0.759713
O O13 0.500000 0.000000 0.500000
O O14 0.841033 0.800904 0.739186
O O15 0.000000 0.000000 0.000000
#
# Coordination Sequence:
#
# PCOD8040885 Si02
#       7
#     2   2   2   2   2   2   2
#     4  10  21  34  60  88 121 154 192 237 299 358
#     4   9  22  43  61  86 121 153 203 249 290 351
#     4  11  22  37  57  88 120 151 199 247 291 349
#     4  10  18  39  67  85 118 160 193 239 297 353
#     4   9  21  38  58  86 120 150 194 240 301 347
#     4  10  19  38  58  85 119 159 194 237 293 354
#     4  11  24  40  64  87 113 161 209 243 294 349
#
# _framework density 20.059031000000001
#
# number of rings (size 3 to 8) (size 9 to 14) (size 15 to 20)
#    0.857    1.143    2.857    0.429    2.000    2.857 
#    0.000    3.571    0.000    0.000    0.000    0.000 
#    0.000    0.000    0.000    0.000    0.000    0.000 
#
# Total GULP energy -173513.120474 kJ/mol
# GULP energy per Si atom -12393.794320 kJ/mol
# Density = 2.001338 g / cm^3
# Si number density = 20.059031 Si / 1000 Ang^3
#
#
#
# Elastic Constant Matrix: (Units=GPa)
#
#
# Indices 1 2 3 4 5 6 
#
# 1 68.6306 17.1931 19.3400 1.3011 -3.6977 0.8290
# 2 17.1931 94.7673 26.3408 4.6586 -5.4319 6.4324
# 3 19.3400 26.3408 90.5821 0.4018 -7.4698 4.4424
# 4 1.3011 4.6586 0.4018 17.8647 5.0779 -6.6431
# 5 -3.6977 -5.4319 -7.4698 5.0779 25.7553 4.9716
# 6 0.8290 6.4324 4.4424 -6.6431 4.9716 39.6749
#
#
#
# Elastic Compliance Matrix: (Units=1/GPa)
#
#
# Indices 1 2 3 4 5 6 
#
# 1 0.015924 -0.002018 -0.002704 -0.000939 0.001265 -0.000019
# 2 -0.002018 0.012286 -0.002731 -0.004914 0.003028 -0.002846
# 3 -0.002704 -0.002731 0.012749 -0.000826 0.003179 -0.001465
# 4 -0.000939 -0.004914 -0.000826 0.067704 -0.017548 0.014444
# 5 0.001265 0.003028 0.003179 -0.017548 0.045874 -0.009560
# 6 -0.000019 -0.002846 -0.001465 0.014444 -0.009560 0.029447
#
#
# Mechanical properties :
#
#
# Convention : Reuss Voigt Hill
#
# Bulk Modulus (GPa) = 38.38128 42.19200 40.28664
# Shear Modulus (GPa) = 24.08792 29.39938 26.74365
#
# Velocity S-wave (km/s) = 3.46909 3.83252 3.65533
# Velocity P-wave (km/s) = 5.93480 6.37683 6.15978
#
# Compressibility (1/GPa) = 0.02605437
#
# Stress axis : x y z
#
# Youngs Moduli (GPa) = 62.79688 81.39654 78.43904
#
# Poissons Ratio (x) = 0.16422 0.21209
# Poissons Ratio (y) = 0.12670 0.21420
# Poissons Ratio (z) = 0.16979 0.22227
#
# Static dielectric constant tensor:
#      x y z
#    x 3.610310 0.027340 -0.107100 
#    y 0.027340 3.830090 0.075060 
#    z -0.107100 0.075060 3.384480 
# 
# 
# High freq. dielectric constant tensor:
#      x y z
#    x 1.778850 0.005580 -0.007080 
#    y 0.005580 1.794940 -0.003280 
#    z -0.007080 -0.003280 1.758250 
# 
# From -- ./inp_files/409133.got.cif
#   From: 2010.06.25/outbox.cif.g09.slc.cpg/sg2_205_cif.got.tgz:409133.got - 2010.06.27 13:26:56.
