data_PCOD8040262
_publ_section_title
;
Structure prediction by ZEFSAII (Michael W. Deem and Ramdas Pophale) SiO2 
 PCOD8040262
Probable space group: P -1
;
_chemical_formula_sum "Si O2"
_cell_formula_units_Z 16
_cell_length_a 15.023297
_cell_length_b 10.678492
_cell_length_c 9.538286
_cell_angle_alpha 112.592761
_cell_angle_beta 138.568687
_cell_angle_gamma 88.821575
_cell_volume 840.500891
_symmetry_space_group_name_H-M "P -1"
_symmetry_group_IT_number 2
_symmetry_cell_setting 'triclinic'
loop_
_space_group_symop_operation_xyz
x,y,z
-x,-y,-z
loop_
_atom_site_type_symbol
_atom_site_label
_atom_site_fract_x
_atom_site_fract_y
_atom_site_fract_z
Si Si1 0.200468 0.576797 0.037938
Si Si2 0.002030 0.845617 0.896857
Si Si3 0.826325 0.222100 0.152680
Si Si4 0.226932 0.823973 0.363779
Si Si5 0.285425 0.457055 0.614105
Si Si6 0.881869 0.344234 0.565922
Si Si7 0.499067 0.087130 0.676944
Si Si8 0.565281 0.425421 0.864373
O O1 0.162359 0.645050 0.881469
O O2 0.047504 0.449010 0.864598
O O3 0.275612 0.701742 0.301193
O O4 0.323473 0.518060 0.114367
O O5 0.099690 0.872281 0.881039
O O6 0.837645 0.715028 0.617854
O O7 0.076568 0.801045 0.095903
O O8 0.000000 0.000000 0.000000
O O9 0.911206 0.289603 0.426091
O O10 0.654880 0.118206 0.949737
O O11 0.194935 0.795498 0.478670
O O12 0.360561 0.990088 0.572143
O O13 0.221971 0.568913 0.526753
O O14 0.432956 0.476418 0.710136
O O15 0.333184 0.497183 0.847944
O O16 0.490381 0.243431 0.705291
O O17 0.500000 0.000000 0.500000
#
# Coordination Sequence:
#
# PCOD8040262 Si02
#       8
#     2   2   2   2   2   2   2   2
#     4  10  18  36  60  82 115 154 200 233 280 352
#     4  11  22  38  62  89 114 156 200 246 290 348
#     4  10  20  35  62  86 109 159 200 236 285 349
#     4  11  23  34  60  90 119 154 192 247 294 346
#     4  11  21  35  59  91 121 145 197 248 294 341
#     4  12  21  38  60  91 120 151 197 241 299 354
#     4  11  18  37  60  83 116 151 203 241 282 349
#     4  10  21  36  61  89 113 155 198 250 284 336
#
# _framework density 19.036268
#
# number of rings (size 3 to 8) (size 9 to 14) (size 15 to 20)
#    0.000    1.250    8.750    2.250    0.000    0.500 
#    0.000    1.250    2.750    0.000    0.000    0.000 
#    0.000    0.000    0.000    0.000    0.000    0.000 
#
# Total GULP energy -198351.465372 kJ/mol
# GULP energy per Si atom -12396.966586 kJ/mol
# Density = 1.899294 g / cm^3
# Si number density = 19.036268 Si / 1000 Ang^3
#
#
#
# Elastic Constant Matrix: (Units=GPa)
#
#
# Indices 1 2 3 4 5 6 
#
# 1 113.3543 45.7372 22.9108 -5.8765 8.7366 -10.7229
# 2 45.7372 65.1228 29.5897 12.2574 0.1815 -3.0846
# 3 22.9108 29.5897 66.5506 13.0022 10.6419 0.6410
# 4 -5.8765 12.2574 13.0022 21.1950 0.2637 2.1620
# 5 8.7366 0.1815 10.6419 0.2637 40.5793 2.5547
# 6 -10.7229 -3.0846 0.6410 2.1620 2.5547 41.9339
#
#
#
# Elastic Compliance Matrix: (Units=1/GPa)
#
#
# Indices 1 2 3 4 5 6 
#
# 1 0.015067 -0.011886 -0.001782 0.011919 -0.002963 0.002572
# 2 -0.011886 0.029796 -0.006613 -0.016507 0.004277 -0.000156
# 3 -0.001782 -0.006613 0.021273 -0.009609 -0.005074 -0.000463
# 4 0.011919 -0.016507 -0.009609 0.066074 -0.000313 -0.001407
# 5 -0.002963 0.004277 -0.005074 -0.000313 0.026719 -0.001977
# 6 0.002572 -0.000156 -0.000463 -0.001407 -0.001977 0.024693
#
#
# Mechanical properties :
#
#
# Convention : Reuss Voigt Hill
#
# Bulk Modulus (GPa) = 39.10217 49.05589 44.07903
# Shear Modulus (GPa) = 21.48593 30.52765 26.00679
#
# Velocity S-wave (km/s) = 3.36323 4.00891 3.70018
# Velocity P-wave (km/s) = 5.97221 6.87417 6.43900
#
# Compressibility (1/GPa) = 0.02557403
#
# Stress axis : x y z
#
# Youngs Moduli (GPa) = 66.36837 33.56177 47.00713
#
# Poissons Ratio (x) = 0.39891 0.08377
# Poissons Ratio (y) = 0.78884 0.31087
# Poissons Ratio (z) = 0.11828 0.22196
#
# Static dielectric constant tensor:
#      x y z
#    x 3.862210 -0.228330 0.232220 
#    y -0.228330 3.279300 0.264280 
#    z 0.232220 0.264280 3.692970 
# 
# 
# High freq. dielectric constant tensor:
#      x y z
#    x 1.751050 -0.014040 0.008900 
#    y -0.014040 1.697640 0.023480 
#    z 0.008900 0.023480 1.745070 
# 
# From -- ./inp_files/256288.got.cif
#   From: 2010.06.25/outbox.cif.g09.slc.cpg/sg2_129_cif.got.tgz:256288.got - 2010.06.27 13:26:56.
