data_PCOD8040106
_publ_section_title
;
Structure prediction by ZEFSAII (Michael W. Deem and Ramdas Pophale) SiO2 
 PCOD8040106
Probable space group: P -1
;
_chemical_formula_sum "Si O2"
_cell_formula_units_Z 16
_cell_length_a 11.988836
_cell_length_b 11.836034
_cell_length_c 8.976167
_cell_angle_alpha 120.234837
_cell_angle_beta 98.765924
_cell_angle_gamma 53.904662
_cell_volume 870.018271
_symmetry_space_group_name_H-M "P -1"
_symmetry_group_IT_number 2
_symmetry_cell_setting 'triclinic'
loop_
_space_group_symop_operation_xyz
x,y,z
-x,-y,-z
loop_
_atom_site_type_symbol
_atom_site_label
_atom_site_fract_x
_atom_site_fract_y
_atom_site_fract_z
Si Si1 0.776710 0.117384 0.591164
Si Si2 0.986717 0.203703 0.696279
Si Si3 0.653191 0.492226 0.180973
Si Si4 0.579818 0.265813 0.925470
Si Si5 0.154725 0.448981 0.160512
Si Si6 0.531017 0.338667 0.472815
Si Si7 0.526163 0.827678 0.898762
Si Si8 0.073103 0.581026 0.924046
O O1 0.894450 0.141042 0.668203
O O2 0.685799 0.147225 0.738396
O O3 0.682105 0.238156 0.517639
O O4 0.861461 0.928605 0.434922
O O5 0.896293 0.368466 0.685636
O O6 0.014277 0.244735 0.892834
O O7 0.571354 0.588687 0.077142
O O8 0.586993 0.603622 0.387384
O O9 0.812775 0.433748 0.171888
O O10 0.645955 0.339282 0.083537
O O11 0.552078 0.165023 0.962969
O O12 0.307938 0.315118 0.165026
O O13 0.041074 0.426397 0.193778
O O14 0.151998 0.436285 0.970047
O O15 0.500000 0.500000 0.500000
O O16 0.534205 0.213305 0.279067
O O17 0.500000 0.000000 0.000000
#
# Coordination Sequence:
#
# PCOD8040106 Si02
#       8
#     2   2   2   2   2   2   2   2
#     4  10  20  33  61  92 112 146 197 258 279 328
#     4   9  17  33  59  89 113 142 201 244 287 333
#     4  10  18  35  64  89 105 152 209 243 276 338
#     4  10  18  36  60  86 118 146 202 244 284 341
#     4   9  19  36  59  80 110 161 191 230 290 351
#     4  11  23  37  60  88 123 154 192 242 300 357
#     4  12  25  40  58  86 128 159 184 240 309 359
#     4   9  17  33  62  83 106 145 202 242 268 339
#
# _framework density 18.390419000000001
#
# number of rings (size 3 to 8) (size 9 to 14) (size 15 to 20)
#    0.750    1.250    3.750    0.750    3.500    0.000 
#    2.250    1.875    5.500    4.500    0.000    0.000 
#    0.000    0.000    0.000    0.000    0.000    0.000 
#
# Total GULP energy -198283.370123 kJ/mol
# GULP energy per Si atom -12392.710633 kJ/mol
# Density = 1.834856 g / cm^3
# Si number density = 18.390419 Si / 1000 Ang^3
#
#
#
# Elastic Constant Matrix: (Units=GPa)
#
#
# Indices 1 2 3 4 5 6 
#
# 1 109.0937 28.3046 31.7169 6.5420 -15.3219 11.5071
# 2 28.3046 80.9681 33.3682 17.0088 -11.8875 10.2702
# 3 31.7169 33.3682 87.8656 13.1689 -8.2946 8.7300
# 4 6.5420 17.0088 13.1689 31.5536 -4.1454 -0.1491
# 5 -15.3219 -11.8875 -8.2946 -4.1454 19.5335 7.9624
# 6 11.5071 10.2702 8.7300 -0.1491 7.9624 27.9247
#
#
#
# Elastic Compliance Matrix: (Units=1/GPa)
#
#
# Indices 1 2 3 4 5 6 
#
# 1 0.012410 -0.000842 -0.002433 0.000335 0.011211 -0.007238
# 2 -0.000842 0.018249 -0.003777 -0.006706 0.010801 -0.008299
# 3 -0.002433 -0.003777 0.014720 -0.003282 0.002552 -0.002956
# 4 0.000335 -0.006706 -0.003282 0.036793 0.001300 0.003180
# 5 0.011211 0.010801 0.002552 0.001300 0.081181 -0.032531
# 6 -0.007238 -0.008299 -0.002956 0.003180 -0.032531 0.052063
#
#
# Mechanical properties :
#
#
# Convention : Reuss Voigt Hill
#
# Bulk Modulus (GPa) = 31.97381 51.63409 41.80395
# Shear Modulus (GPa) = 20.83826 28.10489 24.47157
#
# Velocity S-wave (km/s) = 3.36981 3.91351 3.65179
# Velocity P-wave (km/s) = 5.70655 6.96838 6.36879
#
# Compressibility (1/GPa) = 0.03127559
#
# Stress axis : x y z
#
# Youngs Moduli (GPa) = 80.57989 54.79845 67.93524
#
# Poissons Ratio (x) = 0.04614 0.16526
# Poissons Ratio (y) = 0.06785 0.25658
# Poissons Ratio (z) = 0.19602 0.20697
#
# Static dielectric constant tensor:
#      x y z
#    x 3.398110 -0.036500 0.005040 
#    y -0.036500 3.179910 0.157250 
#    z 0.005040 0.157250 3.348470 
# 
# 
# High freq. dielectric constant tensor:
#      x y z
#    x 1.722470 -0.003640 -0.000500 
#    y -0.003640 1.682930 0.013920 
#    z -0.000500 0.013920 1.701970 
# 
# From -- ./inp_files/260128.got.cif
#   From: 2010.06.25/outbox.cif.g09.slc.cpg/sg2_131_cif.got.tgz:260128.got - 2010.06.27 13:26:56.
