data_PCOD8040839
_publ_section_title
;
Structure prediction by ZEFSAII (Michael W. Deem and Ramdas Pophale) SiO2 
 PCOD8040839
Probable space group: P -1
;
_chemical_formula_sum "Si O2"
_cell_formula_units_Z 16
_cell_length_a 13.174312
_cell_length_b 15.028532
_cell_length_c 8.654214
_cell_angle_alpha 98.349441
_cell_angle_beta 58.661044
_cell_angle_gamma 50.052786
_cell_volume 764.661859
_symmetry_space_group_name_H-M "P -1"
_symmetry_group_IT_number 2
_symmetry_cell_setting 'triclinic'
loop_
_space_group_symop_operation_xyz
x,y,z
-x,-y,-z
loop_
_atom_site_type_symbol
_atom_site_label
_atom_site_fract_x
_atom_site_fract_y
_atom_site_fract_z
Si Si1 0.465649 0.062483 0.373988
Si Si2 0.752395 0.669207 0.183688
Si Si3 0.464469 0.740243 0.219984
Si Si4 0.154338 0.685311 0.889408
Si Si5 0.846034 0.892593 0.464862
Si Si6 0.636099 0.364477 0.569012
Si Si7 0.198974 0.585718 0.337946
Si Si8 0.090809 0.278752 0.129947
O O1 0.363803 0.224852 0.536895
O O2 0.297882 0.106722 0.421249
O O3 0.500000 0.000000 0.500000
O O4 0.703992 0.925376 0.062822
O O5 0.620083 0.668759 0.224052
O O6 0.767120 0.725444 0.036387
O O7 0.000000 0.500000 0.000000
O O8 0.300624 0.766317 0.419285
O O9 0.310973 0.920525 0.320357
O O10 0.629689 0.593209 0.922563
O O11 0.374603 0.523771 0.773370
O O12 0.205676 0.728966 0.731054
O O13 0.080891 0.640922 0.849021
O O14 0.950911 0.846935 0.201735
O O15 0.049585 0.744347 0.384183
O O16 0.659239 0.437363 0.675138
O O17 0.037075 0.627860 0.583524
#
# Coordination Sequence:
#
# PCOD8040839 Si02
#       8
#     2   2   2   2   2   2   2   2
#     4  10  18  39  61  89 122 155 198 254 304 360
#     4  11  20  36  65  94 120 157 202 261 306 357
#     4  12  23  39  62  93 125 161 211 243 308 373
#     4  10  19  40  71  89 114 166 209 252 312 353
#     4  12  22  40  68  91 123 165 202 251 315 363
#     4  10  23  42  64  88 124 163 210 259 297 359
#     4  11  26  43  60  88 132 170 198 250 308 363
#     4  10  20  41  64  90 124 160 201 250 312 363
#
# _framework density 20.924284
#
# number of rings (size 3 to 8) (size 9 to 14) (size 15 to 20)
#    0.000    1.250    6.250    1.875    0.000    2.000 
#    2.250    0.000    5.500    0.000    0.000    0.000 
#    0.000    0.000    0.000    0.000    0.000    0.000 
#
# Total GULP energy -198252.156923 kJ/mol
# GULP energy per Si atom -12390.759808 kJ/mol
# Density = 2.087666 g / cm^3
# Si number density = 20.924284 Si / 1000 Ang^3
#
#
#
# Elastic Constant Matrix: (Units=GPa)
#
#
# Indices 1 2 3 4 5 6 
#
# 1 92.3516 17.6049 42.6002 6.5049 4.9343 5.7666
# 2 17.6049 48.9593 38.0573 5.5905 18.3543 -2.9675
# 3 42.6002 38.0573 130.9339 2.2512 17.6134 2.1888
# 4 6.5049 5.5905 2.2512 33.2064 4.2818 -7.4941
# 5 4.9343 18.3543 17.6134 4.2818 30.5650 5.2078
# 6 5.7666 -2.9675 2.1888 -7.4941 5.2078 29.6281
#
#
#
# Elastic Compliance Matrix: (Units=1/GPa)
#
#
# Indices 1 2 3 4 5 6 
#
# 1 0.013438 -0.002797 -0.003819 -0.003147 0.002817 -0.003905
# 2 -0.002797 0.033469 -0.006648 -0.000842 -0.016916 0.007148
# 3 -0.003819 -0.006648 0.011051 0.001356 -0.001940 -0.000055
# 4 -0.003147 -0.000842 0.001356 0.033861 -0.006230 0.010088
# 5 0.002817 -0.016916 -0.001940 -0.006230 0.046428 -0.011836
# 6 -0.003905 0.007148 -0.000055 0.010088 -0.011836 0.039864
#
#
# Mechanical properties :
#
#
# Convention : Reuss Voigt Hill
#
# Bulk Modulus (GPa) = 31.81557 52.08552 41.95055
# Shear Modulus (GPa) = 23.24344 30.27871 26.76108
#
# Velocity S-wave (km/s) = 3.33654 3.80815 3.58012
# Velocity P-wave (km/s) = 5.48465 6.65451 6.09770
#
# Compressibility (1/GPa) = 0.03143115
#
# Stress axis : x y z
#
# Youngs Moduli (GPa) = 74.41674 29.87816 90.49216
#
# Poissons Ratio (x) = 0.08357 0.34556
# Poissons Ratio (y) = 0.20815 0.60155
# Poissons Ratio (z) = 0.28417 0.19862
#
# Static dielectric constant tensor:
#      x y z
#    x 3.573480 -0.277580 -0.208930 
#    y -0.277580 3.811140 -0.326040 
#    z -0.208930 -0.326040 4.283100 
# 
# 
# High freq. dielectric constant tensor:
#      x y z
#    x 1.823760 -0.006140 -0.010670 
#    y -0.006140 1.790540 0.003210 
#    z -0.010670 0.003210 1.830150 
# 
# From -- ./inp_files/240300.got.cif
#   From: 2010.06.25/outbox.cif.g09.slc.cpg/sg2_121_cif.got.tgz:240300.got - 2010.06.27 13:26:56.
