data_PCOD8040078
_publ_section_title
;
Structure prediction by ZEFSAII (Michael W. Deem and Ramdas Pophale) SiO2 
 PCOD8040078
Probable space group: P -1
;
_chemical_formula_sum "Si O2"
_cell_formula_units_Z 16
_cell_length_a 9.131477
_cell_length_b 10.753278
_cell_length_c 9.209205
_cell_angle_alpha 106.540014
_cell_angle_beta 112.345994
_cell_angle_gamma 73.445036
_cell_volume 785.683657
_symmetry_space_group_name_H-M "P -1"
_symmetry_group_IT_number 2
_symmetry_cell_setting 'triclinic'
loop_
_space_group_symop_operation_xyz
x,y,z
-x,-y,-z
loop_
_atom_site_type_symbol
_atom_site_label
_atom_site_fract_x
_atom_site_fract_y
_atom_site_fract_z
Si Si1 0.010548 0.179179 0.115203
Si Si2 0.906777 0.400394 0.355153
Si Si3 0.873298 0.213285 0.531565
Si Si4 0.767336 0.307879 0.831862
Si Si5 0.510148 0.807434 0.174090
Si Si6 0.234785 0.986718 0.962015
Si Si7 0.225831 0.053020 0.658231
Si Si8 0.328430 0.464704 0.929560
O O1 0.029564 0.305041 0.260872
O O2 0.912560 0.090189 0.144933
O O3 0.908699 0.213355 0.940901
O O4 0.185910 0.096204 0.108142
O O5 0.832042 0.312703 0.414174
O O6 0.762273 0.483082 0.235220
O O7 0.000000 0.500000 0.500000
O O8 0.814207 0.301038 0.679467
O O9 0.064246 0.154534 0.585201
O O10 0.775177 0.094607 0.446560
O O11 0.599156 0.257339 0.776645
O O12 0.758811 0.458895 0.936058
O O13 0.617054 0.897480 0.331184
O O14 0.643909 0.694164 0.105272
O O15 0.399336 0.888823 0.035215
O O16 0.256131 0.057214 0.843201
O O17 0.500000 0.500000 0.000000
#
# Coordination Sequence:
#
# PCOD8040078 Si02
#       8
#     2   2   2   2   2   2   2   2
#     4   9  18  36  62  89 117 159 202 239 298 356
#     4  11  22  40  63  89 122 158 202 253 299 353
#     4  11  23  38  61  90 122 158 197 251 308 350
#     4   9  19  39  62  87 118 161 203 243 291 364
#     4  10  21  37  62  88 119 159 201 244 300 355
#     4  10  18  35  63  87 121 154 202 245 291 364
#     4  11  22  36  57  93 129 150 193 253 308 357
#     4   9  20  41  64  81 116 169 201 236 299 364
#
# _framework density 20.364432000000001
#
# number of rings (size 3 to 8) (size 9 to 14) (size 15 to 20)
#    0.000    2.000    2.500    1.875    0.000    0.500 
#    2.250    6.875    0.000    0.000    0.000    0.000 
#    0.000    0.000    0.000    0.000    0.000    0.000 
#
# Total GULP energy -198339.877647 kJ/mol
# GULP energy per Si atom -12396.242353 kJ/mol
# Density = 2.031808 g / cm^3
# Si number density = 20.364432 Si / 1000 Ang^3
#
#
#
# Elastic Constant Matrix: (Units=GPa)
#
#
# Indices 1 2 3 4 5 6 
#
# 1 53.1752 38.9080 43.3828 2.9247 5.4242 -4.2996
# 2 38.9080 123.3279 56.1321 9.0017 1.0919 -21.2227
# 3 43.3828 56.1321 116.9214 12.6474 0.7864 -8.3819
# 4 2.9247 9.0017 12.6474 30.6417 0.4831 1.8923
# 5 5.4242 1.0919 0.7864 0.4831 29.3240 4.4673
# 6 -4.2996 -21.2227 -8.3819 1.8923 4.4673 21.4328
#
#
#
# Elastic Compliance Matrix: (Units=1/GPa)
#
#
# Indices 1 2 3 4 5 6 
#
# 1 0.030767 -0.006319 -0.008855 0.002823 -0.004840 -0.002789
# 2 -0.006319 0.013717 -0.003098 -0.002846 -0.000973 0.011558
# 3 -0.008855 -0.003098 0.013793 -0.003998 0.001355 0.000621
# 4 0.002823 -0.002846 -0.003998 0.035280 0.000171 -0.006966
# 5 -0.004840 -0.000973 0.001355 0.000171 0.036365 -0.008999
# 6 -0.002789 0.011558 0.000621 -0.006966 -0.008999 0.060276
#
#
# Mechanical properties :
#
#
# Convention : Reuss Voigt Hill
#
# Bulk Modulus (GPa) = 46.01143 63.36336 54.68739
# Shear Modulus (GPa) = 21.36882 26.61314 23.99098
#
# Velocity S-wave (km/s) = 3.24284 3.61895 3.43604
# Velocity P-wave (km/s) = 6.05511 6.97457 6.53104
#
# Compressibility (1/GPa) = 0.02173373
#
# Stress axis : x y z
#
# Youngs Moduli (GPa) = 32.50286 72.90075 72.49939
#
# Poissons Ratio (x) = 0.46068 0.64196
# Poissons Ratio (y) = 0.20539 0.22458
# Poissons Ratio (z) = 0.28780 0.22583
#
# Static dielectric constant tensor:
#      x y z
#    x 3.484230 -0.112590 0.021300 
#    y -0.112590 4.229280 0.362300 
#    z 0.021300 0.362300 3.695620 
# 
# 
# High freq. dielectric constant tensor:
#      x y z
#    x 1.772990 -0.007250 0.005550 
#    y -0.007250 1.806970 0.008460 
#    z 0.005550 0.008460 1.787480 
# 
# From -- ./inp_files/181804.got.cif
#   From: 2010.06.25/outbox.cif.g09.slc.cpg/sg2_91_cif.got.tgz:181804.got - 2010.06.27 13:26:56.
