data_PCOD8040947
_publ_section_title
;
Structure prediction by ZEFSAII (Michael W. Deem and Ramdas Pophale) SiO2 
 PCOD8040947
Probable space group: P -1
;
_chemical_formula_sum "Si O2"
_cell_formula_units_Z 16
_cell_length_a 9.106888
_cell_length_b 9.611391
_cell_length_c 25.685805
_cell_angle_alpha 136.702986
_cell_angle_beta 28.651794
_cell_angle_gamma 137.269426
_cell_volume 707.166322
_symmetry_space_group_name_H-M "P -1"
_symmetry_group_IT_number 2
_symmetry_cell_setting 'triclinic'
loop_
_space_group_symop_operation_xyz
x,y,z
-x,-y,-z
loop_
_atom_site_type_symbol
_atom_site_label
_atom_site_fract_x
_atom_site_fract_y
_atom_site_fract_z
Si Si1 0.066781 0.483532 0.172091
Si Si2 0.219824 0.495413 0.299980
Si Si3 0.778258 0.508161 0.989597
Si Si4 0.244830 0.277892 0.507247
Si Si5 0.080545 0.712181 0.565848
Si Si6 0.828204 0.851547 0.392979
Si Si7 0.906472 0.750958 0.117778
Si Si8 0.809817 0.197869 0.261966
O O1 0.024307 0.447962 0.113773
O O2 0.984886 0.699215 0.270332
O O3 0.829412 0.277161 0.217650
O O4 0.417695 0.496355 0.086514
O O5 0.591303 0.597716 0.201562
O O6 0.052568 0.677591 0.418948
O O7 0.153592 0.325888 0.321335
O O8 0.047459 0.389778 0.272159
O O9 0.802133 0.290216 0.950568
O O10 0.929472 0.695777 0.034809
O O11 0.500000 0.500000 0.500000
O O12 0.091292 0.150154 0.571710
O O13 0.435220 0.142472 0.379086
O O14 0.446915 0.771213 0.485129
O O15 0.000000 0.500000 0.500000
O O16 0.017464 0.908864 0.608891
O O17 0.927701 0.994698 0.180225
#
# Coordination Sequence:
#
# PCOD8040947 Si02
#       8
#     2   2   2   2   2   2   2   2
#     4  11  22  46  69  92 134 172 217 277 331 375
#     4  11  22  44  62  96 137 166 210 267 322 395
#     4  10  25  46  65  94 129 168 229 283 320 380
#     4  10  18  40  64  95 130 166 204 250 316 399
#     4  11  26  39  63 102 135 171 210 253 322 401
#     4  11  22  43  66  91 137 169 208 260 321 386
#     4  11  25  44  68  96 128 170 226 275 325 382
#     4  11  22  40  72  96 127 177 212 263 336 389
#
# _framework density 22.625512000000001
#
# number of rings (size 3 to 8) (size 9 to 14) (size 15 to 20)
#    0.000    1.250    6.250    0.000    5.250    1.500 
#    6.750    0.000    0.000    0.000    0.000    0.000 
#    0.000    0.000    0.000    0.000    0.000    0.000 
#
# Total GULP energy -198364.674959 kJ/mol
# GULP energy per Si atom -12397.792185 kJ/mol
# Density = 2.257402 g / cm^3
# Si number density = 22.625512 Si / 1000 Ang^3
#
#
#
# Elastic Constant Matrix: (Units=GPa)
#
#
# Indices 1 2 3 4 5 6 
#
# 1 82.0892 30.2881 22.5113 -9.7543 16.2836 -31.6953
# 2 30.2881 127.2838 37.2053 9.9771 7.6729 -28.9653
# 3 22.5113 37.2053 102.1048 12.0564 15.8250 -18.6461
# 4 -9.7543 9.9771 12.0564 35.3757 -15.2993 -1.9942
# 5 16.2836 7.6729 15.8250 -15.2993 38.0628 -8.1644
# 6 -31.6953 -28.9653 -18.6461 -1.9942 -8.1644 34.1053
#
#
#
# Elastic Compliance Matrix: (Units=1/GPa)
#
#
# Indices 1 2 3 4 5 6 
#
# 1 0.020998 -0.000903 -0.001622 0.006964 -0.001485 0.017913
# 2 -0.000903 0.010379 -0.002054 -0.002244 -0.000329 0.006643
# 3 -0.001622 -0.002054 0.013157 -0.007212 -0.006859 0.001879
# 4 0.006964 -0.002244 -0.007212 0.041902 0.018946 0.007609
# 5 -0.001485 -0.000329 -0.006859 0.018946 0.038495 0.004913
# 6 0.017913 0.006643 0.001879 0.007609 0.004913 0.054258
#
#
# Mechanical properties :
#
#
# Convention : Reuss Voigt Hill
#
# Bulk Modulus (GPa) = 28.26576 54.60970 41.43773
# Shear Modulus (GPa) = 24.98269 36.27362 30.62816
#
# Velocity S-wave (km/s) = 3.32653 4.00836 3.68326
# Velocity P-wave (km/s) = 5.22249 6.75362 6.03679
#
# Compressibility (1/GPa) = 0.03537849
#
# Stress axis : x y z
#
# Youngs Moduli (GPa) = 47.62342 96.34776 76.00258
#
# Poissons Ratio (x) = 0.08698 0.12324
# Poissons Ratio (y) = 0.04299 0.15609
# Poissons Ratio (z) = 0.07722 0.19788
#
# Static dielectric constant tensor:
#      x y z
#    x 4.122080 -0.386170 0.064350 
#    y -0.386170 4.044450 0.032280 
#    z 0.064350 0.032280 4.665570 
# 
# 
# High freq. dielectric constant tensor:
#      x y z
#    x 1.890360 -0.023440 0.000200 
#    y -0.023440 1.884230 0.003330 
#    z 0.000200 0.003330 1.905960 
# 
# From -- ./inp_files/616679.got.cif
#   From: 2010.06.25/outbox.cif.g09.slc.cpg/sg2_309_cif.got.tgz:616679.got - 2010.06.27 13:26:56.
