data_PCOD8040222
_publ_section_title
;
Structure prediction by ZEFSAII (Michael W. Deem and Ramdas Pophale) SiO2 
 PCOD8040222
Probable space group: P -1
;
_chemical_formula_sum "Si O2"
_cell_formula_units_Z 14
_cell_length_a 20.129376
_cell_length_b 8.174486
_cell_length_c 18.080188
_cell_angle_alpha 47.319676
_cell_angle_beta 155.498557
_cell_angle_gamma 145.954269
_cell_volume 652.622694
_symmetry_space_group_name_H-M "P -1"
_symmetry_group_IT_number 2
_symmetry_cell_setting 'triclinic'
loop_
_space_group_symop_operation_xyz
x,y,z
-x,-y,-z
loop_
_atom_site_type_symbol
_atom_site_label
_atom_site_fract_x
_atom_site_fract_y
_atom_site_fract_z
Si Si1 0.373114 0.219095 0.720599
Si Si2 0.315401 0.047862 0.406059
Si Si3 0.577711 0.265673 0.310459
Si Si4 0.307569 0.325162 0.463803
Si Si5 0.912563 0.196480 0.045235
Si Si6 0.136783 0.323359 0.901821
Si Si7 0.010885 0.533843 0.587128
O O1 0.377400 0.447995 0.700939
O O2 0.287990 0.162502 0.567715
O O3 0.206733 0.896405 0.694564
O O4 0.622070 0.355889 0.927784
O O5 0.315363 0.176804 0.445445
O O6 0.460042 0.313068 0.409737
O O7 0.416023 0.899602 0.563664
O O8 0.053002 0.778231 0.200431
O O9 0.769606 0.393921 0.407733
O O10 0.331802 0.001445 0.104480
O O11 0.101112 0.299747 0.262311
O O12 0.871487 0.953186 0.021158
O O13 0.000000 0.500000 0.000000
O O14 0.071066 0.360856 0.742539
O O15 0.000000 0.500000 0.500000
#
# Coordination Sequence:
#
# PCOD8040222 Si02
#       7
#     2   2   2   2   2   2   2
#     4  11  22  38  58  88 119 156 186 247 296 339
#     4   9  18  37  57  85 117 160 193 241 273 350
#     4  10  21  37  59  89 119 148 194 243 298 335
#     4  10  20  35  61  84 121 156 201 227 289 346
#     4  10  18  36  58  87 117 155 187 240 287 341
#     4   9  21  37  58  86 120 150 195 238 292 343
#     4  11  22  43  65  82 112 157 202 240 284 351
#
# _framework density 21.451905
#
# number of rings (size 3 to 8) (size 9 to 14) (size 15 to 20)
#    0.000    2.000    1.429    3.429    0.000    1.143 
#    0.000   13.571    0.000    0.000    0.000    0.000 
#    0.000    0.000    0.000    0.000    0.000    0.000 
#
# Total GULP energy -173492.642635 kJ/mol
# GULP energy per Si atom -12392.331617 kJ/mol
# Density = 2.140308 g / cm^3
# Si number density = 21.451905 Si / 1000 Ang^3
#
#
#
# Elastic Constant Matrix: (Units=GPa)
#
#
# Indices 1 2 3 4 5 6 
#
# 1 43.0635 15.9580 23.0844 7.3999 10.4473 8.7452
# 2 15.9580 133.6352 37.5410 4.1512 20.8212 19.0956
# 3 23.0844 37.5410 146.7701 17.1524 30.4878 12.5832
# 4 7.3999 4.1512 17.1524 36.7254 11.2088 9.9703
# 5 10.4473 20.8212 30.4878 11.2088 33.2121 4.6126
# 6 8.7452 19.0956 12.5832 9.9703 4.6126 25.6938
#
#
#
# Elastic Compliance Matrix: (Units=1/GPa)
#
#
# Indices 1 2 3 4 5 6 
#
# 1 0.027450 -0.000971 -0.002466 -0.001234 -0.004495 -0.006128
# 2 -0.000971 0.009462 -0.001068 0.002803 -0.004700 -0.006423
# 3 -0.002466 -0.001068 0.009025 -0.001395 -0.006211 -0.001130
# 4 -0.001234 0.002803 -0.001395 0.034224 -0.009906 -0.012482
# 5 -0.004495 -0.004700 -0.006211 -0.009906 0.042931 0.004202
# 6 -0.006128 -0.006423 -0.001130 -0.012482 0.004202 0.050422
#
#
# Mechanical properties :
#
#
# Convention : Reuss Voigt Hill
#
# Bulk Modulus (GPa) = 27.08041 52.95951 40.01996
# Shear Modulus (GPa) = 25.66304 35.58530 30.62417
#
# Velocity S-wave (km/s) = 3.46252 4.07731 3.78242
# Velocity P-wave (km/s) = 5.35131 6.84887 6.14588
#
# Compressibility (1/GPa) = 0.03692706
#
# Stress axis : x y z
#
# Youngs Moduli (GPa) = 36.42969 105.68583 110.80885
#
# Poissons Ratio (x) = 0.10261 0.27323
# Poissons Ratio (y) = 0.03537 0.11836
# Poissons Ratio (z) = 0.08983 0.11289
#
# Static dielectric constant tensor:
#      x y z
#    x 3.392550 0.327580 0.495920 
#    y 0.327580 4.397430 0.307160 
#    z 0.495920 0.307160 4.384180 
# 
# 
# High freq. dielectric constant tensor:
#      x y z
#    x 1.791900 0.015500 0.028950 
#    y 0.015500 1.867920 0.009880 
#    z 0.028950 0.009880 1.855080 
# 
# From -- ./inp_files/170851.got.cif
#   From: 2010.06.25/outbox.cif.g09.slc.cpg/sg2_86_cif.got.tgz:170851.got - 2010.06.27 13:26:56.
