data_PCOD8040767
_publ_section_title
;
Structure prediction by ZEFSAII (Michael W. Deem and Ramdas Pophale) SiO2 
 PCOD8040767
Probable space group: P -1
;
_chemical_formula_sum "Si O2"
_cell_formula_units_Z 14
_cell_length_a 12.074832
_cell_length_b 9.166322
_cell_length_c 7.846337
_cell_angle_alpha 130.027600
_cell_angle_beta 63.696799
_cell_angle_gamma 103.440780
_cell_volume 594.397018
_symmetry_space_group_name_H-M "P -1"
_symmetry_group_IT_number 2
_symmetry_cell_setting 'triclinic'
loop_
_space_group_symop_operation_xyz
x,y,z
-x,-y,-z
loop_
_atom_site_type_symbol
_atom_site_label
_atom_site_fract_x
_atom_site_fract_y
_atom_site_fract_z
Si Si1 0.028248 0.541996 0.705846
Si Si2 0.616867 0.507514 0.806928
Si Si3 0.244212 0.600032 0.819461
Si Si4 0.541381 0.198056 0.050665
Si Si5 0.700619 0.121972 0.543929
Si Si6 0.223284 0.299533 0.892462
Si Si7 0.924387 0.189340 0.648879
O O1 0.172896 0.584770 0.673502
O O2 0.000000 0.500000 0.500000
O O3 0.017929 0.349693 0.674777
O O4 0.925637 0.702016 0.974590
O O5 0.652999 0.284992 0.560502
O O6 0.500000 0.500000 0.000000
O O7 0.580997 0.653181 0.785350
O O8 0.730507 0.576566 0.890261
O O9 0.254174 0.400135 0.767892
O O10 0.377362 0.690035 0.783562
O O11 0.160614 0.759321 0.094834
O O12 0.614927 0.148687 0.789527
O O13 0.500000 0.000000 0.000000
O O14 0.842187 0.157339 0.514805
O O15 0.702110 0.908573 0.307102
O O16 0.000000 0.000000 0.500000
#
# Coordination Sequence:
#
# PCOD8040767 Si02
#       7
#     2   2   2   2   2   2   2
#     4  11  23  41  64  97 137 164 211 287 331 377
#     4  10  19  41  66  95 133 162 231 270 309 395
#     4  10  20  41  66  93 129 175 223 258 328 411
#     4  10  22  43  65  97 137 169 213 281 331 377
#     4  10  20  38  70  97 122 177 222 259 321 390
#     4  11  20  42  71  98 126 177 223 261 326 403
#     4  10  18  38  65  93 128 169 217 259 320 404
#
# _framework density 23.553279
#
# number of rings (size 3 to 8) (size 9 to 14) (size 15 to 20)
#    0.000    1.714    5.714    3.429    0.000    2.286 
#   10.286    3.571    0.000    0.000    0.000    0.000 
#    0.000    0.000    0.000    0.000    0.000    0.000 
#
# Total GULP energy -173458.776997 kJ/mol
# GULP energy per Si atom -12389.912643 kJ/mol
# Density = 2.349967 g / cm^3
# Si number density = 23.553279 Si / 1000 Ang^3
#
#
#
# Elastic Constant Matrix: (Units=GPa)
#
#
# Indices 1 2 3 4 5 6 
#
# 1 148.1623 63.9291 18.7221 12.6729 3.7633 -10.9700
# 2 63.9291 116.7514 47.1203 38.4979 -16.9634 -17.9602
# 3 18.7221 47.1203 77.1127 42.8430 -6.1423 -22.9400
# 4 12.6729 38.4979 42.8430 44.5623 -17.8197 -12.8537
# 5 3.7633 -16.9634 -6.1423 -17.8197 39.5467 9.3719
# 6 -10.9700 -17.9602 -22.9400 -12.8537 9.3719 40.5410
#
#
#
# Elastic Compliance Matrix: (Units=1/GPa)
#
#
# Indices 1 2 3 4 5 6 
#
# 1 0.009373 -0.006074 0.001570 0.000098 -0.003587 0.001594
# 2 -0.006074 0.016487 -0.004770 -0.006297 0.004066 0.000025
# 3 0.001570 -0.004770 0.036825 -0.034223 -0.014667 0.011689
# 4 0.000098 -0.006297 -0.034223 0.068787 0.024381 -0.005955
# 5 -0.003587 0.004066 -0.014667 0.024381 0.038105 -0.008547
# 6 0.001594 0.000025 0.011689 -0.005955 -0.008547 0.031811
#
#
# Mechanical properties :
#
#
# Convention : Reuss Voigt Hill
#
# Bulk Modulus (GPa) = 22.65702 66.84104 44.74903
# Shear Modulus (GPa) = 21.30855 39.08033 30.19444
#
# Velocity S-wave (km/s) = 3.01108 4.07778 3.58434
# Velocity P-wave (km/s) = 4.66145 7.11417 6.01417
#
# Compressibility (1/GPa) = 0.04413643
#
# Stress axis : x y z
#
# Youngs Moduli (GPa) = 106.69472 60.65262 27.15583
#
# Poissons Ratio (x) = 0.36840 -0.04264
# Poissons Ratio (y) = 0.64807 0.12954
# Poissons Ratio (z) = -0.16753 0.28932
#
# Static dielectric constant tensor:
#      x y z
#    x 3.311240 0.291590 0.181260 
#    y 0.291590 4.217830 0.258210 
#    z 0.181260 0.258210 3.942450 
# 
# 
# High freq. dielectric constant tensor:
#      x y z
#    x 1.949270 -0.001060 -0.013230 
#    y -0.001060 1.918750 0.019070 
#    z -0.013230 0.019070 1.916970 
# 
# From -- ./inp_files/215563.got.cif
#   From: 2010.06.25/outbox.cif.g09.slc.cpg/sg2_108_cif.got.tgz:215563.got - 2010.06.27 13:26:56.
