data_PCOD8040847
_publ_section_title
;
Structure prediction by ZEFSAII (Michael W. Deem and Ramdas Pophale) SiO2 
 PCOD8040847
Probable space group: P -1
;
_chemical_formula_sum "Si O2"
_cell_formula_units_Z 16
_cell_length_a 22.777795
_cell_length_b 8.419847
_cell_length_c 16.633835
_cell_angle_alpha 110.209060
_cell_angle_beta 17.598924
_cell_angle_gamma 118.451006
_cell_volume 773.965154
_symmetry_space_group_name_H-M "P -1"
_symmetry_group_IT_number 2
_symmetry_cell_setting 'triclinic'
loop_
_space_group_symop_operation_xyz
x,y,z
-x,-y,-z
loop_
_atom_site_type_symbol
_atom_site_label
_atom_site_fract_x
_atom_site_fract_y
_atom_site_fract_z
Si Si1 0.129895 0.840711 0.757444
Si Si2 0.789852 0.761511 0.567538
Si Si3 0.594644 0.370446 0.650070
Si Si4 0.094122 0.870295 0.632154
Si Si5 0.345190 0.235351 0.624076
Si Si6 0.182123 0.995823 0.204410
Si Si7 0.588699 0.591723 0.266225
Si Si8 0.495401 0.115587 0.950659
O O1 0.216307 0.689606 0.611481
O O2 0.137267 0.941723 0.680336
O O3 0.289491 0.014845 0.641284
O O4 0.868173 0.733772 0.108297
O O5 0.691046 0.555920 0.616036
O O6 0.839433 0.938518 0.473948
O O7 0.599395 0.741247 0.877186
O O8 0.029788 0.821266 0.308735
O O9 0.578582 0.435536 0.592404
O O10 0.350259 0.198794 0.972087
O O11 0.244955 0.769593 0.398888
O O12 0.838025 0.697451 0.920858
O O13 0.534811 0.384324 0.339387
O O14 0.429183 0.281029 0.614865
O O15 0.342338 0.963132 0.051315
O O16 0.000000 0.000000 0.500000
O O17 0.500000 0.000000 0.000000
#
# Coordination Sequence:
#
# PCOD8040847 Si02
#       8
#     2   2   2   2   2   2   2   2
#     4  10  21  39  63  85 123 161 206 254 315 367
#     4  10  22  39  64  89 131 166 201 255 307 350
#     4  12  23  40  63  99 121 165 208 253 303 377
#     4  10  18  39  62  89 125 166 206 252 297 370
#     4   9  21  43  61  87 121 164 196 268 313 365
#     4  10  21  41  61  90 129 163 203 254 303 355
#     4  10  21  39  64  91 124 156 213 251 316 371
#     4   9  19  37  64  88 123 167 205 245 302 360
#
# _framework density 20.672764999999998
#
# number of rings (size 3 to 8) (size 9 to 14) (size 15 to 20)
#    0.000    2.000    2.500    0.750    0.000    3.000 
#    6.750    0.625    0.000    0.000    0.000    0.000 
#    0.000    0.000    0.000    0.000    0.000    0.000 
#
# Total GULP energy -198210.631915 kJ/mol
# GULP energy per Si atom -12388.164495 kJ/mol
# Density = 2.062571 g / cm^3
# Si number density = 20.672765 Si / 1000 Ang^3
#
#
#
# Elastic Constant Matrix: (Units=GPa)
#
#
# Indices 1 2 3 4 5 6 
#
# 1 139.8689 34.9952 14.8320 -4.0800 -14.7398 17.4584
# 2 34.9952 102.3780 38.7126 1.5023 -12.8170 25.2457
# 3 14.8320 38.7126 86.8701 1.5890 3.3435 -0.8685
# 4 -4.0800 1.5023 1.5890 26.2229 -1.8564 -6.0620
# 5 -14.7398 -12.8170 3.3435 -1.8564 29.0471 -5.0511
# 6 17.4584 25.2457 -0.8685 -6.0620 -5.0511 27.7187
#
#
#
# Elastic Compliance Matrix: (Units=1/GPa)
#
#
# Indices 1 2 3 4 5 6 
#
# 1 0.008364 -0.001221 -0.001061 0.000884 0.003294 -0.003396
# 2 -0.001221 0.017748 -0.007983 -0.003956 0.005170 -0.015569
# 3 -0.001061 -0.007983 0.015483 0.000844 -0.004433 0.007801
# 4 0.000884 -0.003956 0.000844 0.041659 0.003498 0.012821
# 5 0.003294 0.005170 -0.004433 0.003498 0.039288 0.001002
# 6 -0.003396 -0.015569 0.007801 0.012821 0.001002 0.055626
#
#
# Mechanical properties :
#
#
# Convention : Reuss Voigt Hill
#
# Bulk Modulus (GPa) = 47.47057 56.24404 51.85730
# Shear Modulus (GPa) = 24.30474 32.63623 28.47048
#
# Velocity S-wave (km/s) = 3.43255 3.97760 3.71509
# Velocity P-wave (km/s) = 6.22275 6.95421 6.59862
#
# Compressibility (1/GPa) = 0.02106568
#
# Stress axis : x y z
#
# Youngs Moduli (GPa) = 119.55548 56.34292 64.58567
#
# Poissons Ratio (x) = 0.06881 0.06851
# Poissons Ratio (y) = 0.14602 0.51560
# Poissons Ratio (z) = 0.12681 0.44979
#
# Static dielectric constant tensor:
#      x y z
#    x 5.591860 0.459170 1.086830 
#    y 0.459170 3.374770 0.265840 
#    z 1.086830 0.265840 5.239850 
# 
# 
# High freq. dielectric constant tensor:
#      x y z
#    x 1.829940 0.014590 0.004620 
#    y 0.014590 1.763670 -0.003090 
#    z 0.004620 -0.003090 1.823070 
# 
# From -- ./inp_files/299694.got.cif
#   From: 2010.06.25/outbox.cif.g09.slc.cpg/sg2_150_cif.got.tgz:299694.got - 2010.06.27 13:26:56.
