data_PCOD8040303
_publ_section_title
;
Structure prediction by ZEFSAII (Michael W. Deem and Ramdas Pophale) SiO2 
 PCOD8040303
Probable space group: P -1
;
_chemical_formula_sum "Si O2"
_cell_formula_units_Z 12
_cell_length_a 18.535018
_cell_length_b 15.819017
_cell_length_c 13.833931
_cell_angle_alpha 144.453344
_cell_angle_beta 157.923260
_cell_angle_gamma 22.512096
_cell_volume 557.759893
_symmetry_space_group_name_H-M "P -1"
_symmetry_group_IT_number 2
_symmetry_cell_setting 'triclinic'
loop_
_space_group_symop_operation_xyz
x,y,z
-x,-y,-z
loop_
_atom_site_type_symbol
_atom_site_label
_atom_site_fract_x
_atom_site_fract_y
_atom_site_fract_z
Si Si1 0.227753 0.957892 0.677900
Si Si2 0.272594 0.856668 0.436753
Si Si3 0.774113 0.431578 0.839931
Si Si4 0.693482 0.857159 0.904294
Si Si5 0.174204 0.062513 0.143486
Si Si6 0.724130 0.772535 0.430531
O O1 0.113130 0.036145 0.496140
O O2 0.556442 0.689928 0.837640
O O3 0.000000 0.000000 0.500000
O O4 0.273021 0.092087 0.900882
O O5 0.392269 0.633229 0.428129
O O6 0.551058 0.780648 0.666237
O O7 0.029198 0.964510 0.149524
O O8 0.965108 0.355921 0.910376
O O9 0.027962 0.275720 0.094445
O O10 0.473944 0.090419 0.784775
O O11 0.165691 0.131125 0.306101
O O12 0.515832 0.829580 0.311930
O O13 0.000000 0.500000 0.500000
#
# Coordination Sequence:
#
# PCOD8040303 Si02
#       6
#     2   2   2   2   2   2
#     4  12  21  39  63  83 120 156 191 237 289 341
#     4  10  22  40  57  88 118 151 196 234 288 343
#     4   9  21  41  57  84 115 157 187 235 292 338
#     4  11  23  38  60  87 118 151 195 241 284 342
#     4   8  19  36  57  79 116 143 192 231 279 343
#     4  10  18  36  61  83 110 153 191 233 290 336
#
# _framework density 21.514633
#
# number of rings (size 3 to 8) (size 9 to 14) (size 15 to 20)
#    1.000    1.000    1.667    2.000    0.000    1.333 
#    3.000    0.833    0.000    0.000    0.000    0.000 
#    0.000    0.000    0.000    0.000    0.000    0.000 
#
# Total GULP energy -148694.261525 kJ/mol
# GULP energy per Si atom -12391.188460 kJ/mol
# Density = 2.146566 g / cm^3
# Si number density = 21.514633 Si / 1000 Ang^3
#
#
#
# Elastic Constant Matrix: (Units=GPa)
#
#
# Indices 1 2 3 4 5 6 
#
# 1 66.9526 32.1249 37.9017 4.0240 19.0546 -19.0871
# 2 32.1249 104.4993 38.5544 -12.1155 12.7728 -30.5126
# 3 37.9017 38.5544 143.9171 19.8879 16.1338 -19.7703
# 4 4.0240 -12.1155 19.8879 29.0429 -6.6703 0.9311
# 5 19.0546 12.7728 16.1338 -6.6703 46.5591 3.8096
# 6 -19.0871 -30.5126 -19.7703 0.9311 3.8096 31.6167
#
#
#
# Elastic Compliance Matrix: (Units=1/GPa)
#
#
# Indices 1 2 3 4 5 6 
#
# 1 0.024039 -0.002460 -0.002046 -0.005709 -0.010276 0.012265
# 2 -0.002460 0.016239 -0.002861 0.008145 -0.002307 0.012436
# 3 -0.002046 -0.002861 0.010295 -0.008857 -0.003469 0.003120
# 4 -0.005709 0.008145 -0.008857 0.047156 0.010233 -0.003746
# 5 -0.010276 -0.002307 -0.003469 0.010233 0.030174 -0.014537
# 6 0.012265 0.012436 0.003120 -0.003746 -0.014537 0.054848
#
#
# Mechanical properties :
#
#
# Convention : Reuss Voigt Hill
#
# Bulk Modulus (GPa) = 27.90249 59.17010 43.53630
# Shear Modulus (GPa) = 23.87426 35.22960 29.55193
#
# Velocity S-wave (km/s) = 3.33479 4.05096 3.71020
# Velocity P-wave (km/s) = 5.27494 7.03152 6.21560
#
# Compressibility (1/GPa) = 0.03583910
#
# Stress axis : x y z
#
# Youngs Moduli (GPa) = 41.59986 61.58156 97.13186
#
# Poissons Ratio (x) = 0.15146 0.19874
# Poissons Ratio (y) = 0.10232 0.27790
# Poissons Ratio (z) = 0.08512 0.17619
#
# Static dielectric constant tensor:
#      x y z
#    x 3.787960 -0.241670 -0.234470 
#    y -0.241670 3.512270 0.008580 
#    z -0.234470 0.008580 4.179610 
# 
# 
# High freq. dielectric constant tensor:
#      x y z
#    x 1.828690 -0.021720 -0.010790 
#    y -0.021720 1.814390 -0.002400 
#    z -0.010790 -0.002400 1.869400 
# 
# From -- ./inp_files/40137.got.cif
#   From: 2010.06.25/outbox.cif.g09.slc.cpg/sg2_21_cif.got.tgz:40137.got - 2010.06.27 13:26:56.
