data_PCOD8040797
_publ_section_title
;
Structure prediction by ZEFSAII (Michael W. Deem and Ramdas Pophale) SiO2 
 PCOD8040797
Probable space group: P -1
;
_chemical_formula_sum "Si O2"
_cell_formula_units_Z 16
_cell_length_a 11.828870
_cell_length_b 11.716092
_cell_length_c 8.811740
_cell_angle_alpha 116.343830
_cell_angle_beta 93.318258
_cell_angle_gamma 49.604887
_cell_volume 784.850142
_symmetry_space_group_name_H-M "P -1"
_symmetry_group_IT_number 2
_symmetry_cell_setting 'triclinic'
loop_
_space_group_symop_operation_xyz
x,y,z
-x,-y,-z
loop_
_atom_site_type_symbol
_atom_site_label
_atom_site_fract_x
_atom_site_fract_y
_atom_site_fract_z
Si Si1 0.509312 0.632658 0.144381
Si Si2 0.007741 0.185861 0.132935
Si Si3 0.623654 0.067571 0.936110
Si Si4 0.978141 0.995784 0.244207
Si Si5 0.778241 0.082060 0.550715
Si Si6 0.470066 0.135861 0.270909
Si Si7 0.324879 0.104063 0.607542
Si Si8 0.249364 0.420731 0.675635
O O1 0.451618 0.780614 0.104057
O O2 0.396109 0.725285 0.336560
O O3 0.677646 0.537987 0.171557
O O4 0.500000 0.500000 0.000000
O O5 0.927227 0.153619 0.228458
O O6 0.921745 0.389202 0.270610
O O7 0.195029 0.040268 0.084187
O O8 0.968937 0.164633 0.949094
O O9 0.624179 0.921514 0.794964
O O10 0.513872 0.170744 0.137723
O O11 0.830957 0.066798 0.375007
O O12 0.118877 0.925747 0.322769
O O13 0.768411 0.938461 0.506533
O O14 0.359689 0.312301 0.471809
O O15 0.640927 0.968154 0.260348
O O16 0.218896 0.312080 0.699437
O O17 0.500000 0.000000 0.500000
#
# Coordination Sequence:
#
# PCOD8040797 Si02
#       8
#     2   2   2   2   2   2   2   2
#     4  12  23  39  66  92 124 169 213 261 303 377
#     4  11  24  42  61  95 131 167 201 267 318 371
#     4  11  23  42  67  91 130 167 212 255 323 373
#     4  10  24  40  63  86 131 167 209 247 321 381
#     4  11  20  42  65  90 117 174 213 254 306 381
#     4  10  21  41  68  94 122 168 213 263 308 379
#     4  10  18  38  68  89 118 163 214 256 308 371
#     4  11  23  40  65  96 127 158 218 262 314 368
#
# _framework density 20.386057000000001
#
# number of rings (size 3 to 8) (size 9 to 14) (size 15 to 20)
#    0.000    1.250    5.000    2.250    1.750    1.500 
#    0.000    3.750    0.000    0.000    0.000    0.000 
#    0.000    0.000    0.000    0.000    0.000    0.000 
#
# Total GULP energy -198300.003415 kJ/mol
# GULP energy per Si atom -12393.750213 kJ/mol
# Density = 2.033966 g / cm^3
# Si number density = 20.386057 Si / 1000 Ang^3
#
#
#
# Elastic Constant Matrix: (Units=GPa)
#
#
# Indices 1 2 3 4 5 6 
#
# 1 99.8191 19.3863 37.9634 0.0124 -0.7952 10.5950
# 2 19.3863 72.3568 38.7464 6.0283 -16.3293 3.4264
# 3 37.9634 38.7464 102.6461 -1.6292 -0.4680 12.1027
# 4 0.0124 6.0283 -1.6292 28.5039 3.5106 5.0342
# 5 -0.7952 -16.3293 -0.4680 3.5106 35.2281 -5.5027
# 6 10.5950 3.4264 12.1027 5.0342 -5.5027 24.0212
#
#
#
# Elastic Compliance Matrix: (Units=1/GPa)
#
#
# Indices 1 2 3 4 5 6 
#
# 1 0.012009 -0.001574 -0.003385 0.000961 -0.001200 -0.003843
# 2 -0.001574 0.021701 -0.008393 -0.007572 0.011616 0.006075
# 3 -0.003385 -0.008393 0.015042 0.004538 -0.005322 -0.007059
# 4 0.000961 -0.007572 0.004538 0.040250 -0.009346 -0.012207
# 5 -0.001200 0.011616 -0.005322 -0.009346 0.036457 0.011864
# 6 -0.003843 0.006075 -0.007059 -0.012207 0.011864 0.051291
#
#
# Mechanical properties :
#
#
# Convention : Reuss Voigt Hill
#
# Bulk Modulus (GPa) = 45.35256 51.89048 48.62152
# Shear Modulus (GPa) = 23.71872 29.46570 26.59221
#
# Velocity S-wave (km/s) = 3.41468 3.80595 3.61561
# Velocity P-wave (km/s) = 6.15157 6.69498 6.42902
#
# Compressibility (1/GPa) = 0.02204947
#
# Stress axis : x y z
#
# Youngs Moduli (GPa) = 83.26892 46.08069 66.47956
#
# Poissons Ratio (x) = 0.07253 0.22500
# Poissons Ratio (y) = 0.13106 0.55797
# Poissons Ratio (z) = 0.28183 0.38676
#
# Static dielectric constant tensor:
#      x y z
#    x 3.889580 0.186800 0.069210 
#    y 0.186800 3.675510 -0.272280 
#    z 0.069210 -0.272280 3.938610 
# 
# 
# High freq. dielectric constant tensor:
#      x y z
#    x 1.805800 0.007690 0.012580 
#    y 0.007690 1.775820 -0.016160 
#    z 0.012580 -0.016160 1.803980 
# 
# From -- ./inp_files/260118.got.cif
#   From: 2010.06.25/outbox.cif.g09.slc.cpg/sg2_131_cif.got.tgz:260118.got - 2010.06.27 13:26:56.
