data_PCOD8040034
_publ_section_title
;
Structure prediction by ZEFSAII (Michael W. Deem and Ramdas Pophale) SiO2 
 PCOD8040034
Probable space group: P -1
;
_chemical_formula_sum "Si O2"
_cell_formula_units_Z 16
_cell_length_a 8.650481
_cell_length_b 8.267105
_cell_length_c 11.872019
_cell_angle_alpha 110.224987
_cell_angle_beta 89.859839
_cell_angle_gamma 68.051426
_cell_volume 730.424820
_symmetry_space_group_name_H-M "P -1"
_symmetry_group_IT_number 2
_symmetry_cell_setting 'triclinic'
loop_
_space_group_symop_operation_xyz
x,y,z
-x,-y,-z
loop_
_atom_site_type_symbol
_atom_site_label
_atom_site_fract_x
_atom_site_fract_y
_atom_site_fract_z
Si Si1 0.937345 0.001485 0.682517
Si Si2 0.811096 0.599716 0.070613
Si Si3 0.418164 0.356748 0.492868
Si Si4 0.761536 0.048923 0.474104
Si Si5 0.162166 0.366489 0.661089
Si Si6 0.823454 0.694431 0.696491
Si Si7 0.162549 0.782989 0.031855
Si Si8 0.199676 0.121765 0.032991
O O1 0.905439 0.816443 0.660355
O O2 0.133136 0.933482 0.630739
O O3 0.822397 0.117859 0.605576
O O4 0.898859 0.134898 0.823896
O O5 0.798549 0.655353 0.212986
O O6 0.728564 0.444303 0.014632
O O7 0.723301 0.800565 0.052642
O O8 0.000000 0.500000 0.000000
O O9 0.500000 0.500000 0.500000
O O10 0.564238 0.161520 0.483262
O O11 0.284686 0.445810 0.615850
O O12 0.328752 0.323051 0.374240
O O13 0.794684 0.833937 0.443105
O O14 0.967357 0.489236 0.667358
O O15 0.748767 0.791041 0.837914
O O16 0.265737 0.893699 0.996215
O O17 0.003330 0.805634 0.958093
#
# Coordination Sequence:
#
# PCOD8040034 Si02
#       8
#     2   2   2   2   2   2   2   2
#     4  10  22  37  69  96 127 167 224 265 324 397
#     4  10  18  35  61  98 127 159 214 275 320 374
#     4  12  28  44  61  92 140 176 215 269 332 383
#     4  11  24  41  62  98 129 172 213 271 332 387
#     4  12  23  41  69  97 128 171 222 267 324 394
#     4  11  22  41  66  95 131 168 218 268 321 396
#     4   9  17  33  58  99 127 156 212 274 319 377
#     4   9  18  33  59  97 125 161 206 271 321 374
#
# _framework density 21.905059999999999
#
# number of rings (size 3 to 8) (size 9 to 14) (size 15 to 20)
#    0.000    1.500    3.750    3.000    3.500    0.000 
#    2.250    0.000    0.000    6.000    0.000    0.000 
#    0.000    0.000    0.000    0.000    0.000    0.000 
#
# Total GULP energy -198303.400784 kJ/mol
# GULP energy per Si atom -12393.962549 kJ/mol
# Density = 2.185520 g / cm^3
# Si number density = 21.905060 Si / 1000 Ang^3
#
#
#
# Elastic Constant Matrix: (Units=GPa)
#
#
# Indices 1 2 3 4 5 6 
#
# 1 76.8074 33.2076 31.6105 -7.9978 13.6883 7.9539
# 2 33.2076 118.8565 25.4050 -8.4029 12.1552 18.6059
# 3 31.6105 25.4050 127.1327 -27.2025 20.6848 3.8229
# 4 -7.9978 -8.4029 -27.2025 31.6394 5.9611 -1.7734
# 5 13.6883 12.1552 20.6848 5.9611 16.6075 -0.8446
# 6 7.9539 18.6059 3.8229 -1.7734 -0.8446 31.5061
#
#
#
# Elastic Compliance Matrix: (Units=1/GPa)
#
#
# Indices 1 2 3 4 5 6 
#
# 1 0.017839 -0.002445 0.000146 0.006765 -0.015682 -0.003117
# 2 -0.002445 0.011121 0.001156 0.004796 -0.009594 -0.006078
# 3 0.000146 0.001156 0.016683 0.020028 -0.029056 -0.002395
# 4 0.006765 0.004796 0.020028 0.062195 -0.056609 -0.004987
# 5 -0.015682 -0.009594 -0.029056 -0.056609 0.137363 0.013647
# 6 -0.003117 -0.006078 -0.002395 -0.004987 0.013647 0.036492
#
#
# Mechanical properties :
#
#
# Convention : Reuss Voigt Hill
#
# Bulk Modulus (GPa) = 23.06490 55.91588 39.49039
# Shear Modulus (GPa) = 16.75418 31.45549 24.10483
#
# Velocity S-wave (km/s) = 2.76860 3.79356 3.32086
# Velocity P-wave (km/s) = 4.55769 6.69104 5.72462
#
# Compressibility (1/GPa) = 0.04335592
#
# Stress axis : x y z
#
# Youngs Moduli (GPa) = 56.05797 89.91683 59.93991
#
# Poissons Ratio (x) = 0.21987 -0.00875
# Poissons Ratio (y) = 0.13708 -0.06927
# Poissons Ratio (z) = -0.00818 -0.10391
#
# Static dielectric constant tensor:
#      x y z
#    x 3.988580 0.325780 0.201550 
#    y 0.325780 4.660300 -0.204790 
#    z 0.201550 -0.204790 4.013190 
# 
# 
# High freq. dielectric constant tensor:
#      x y z
#    x 1.824330 0.032750 0.015450 
#    y 0.032750 1.872330 -0.015730 
#    z 0.015450 -0.015730 1.867670 
# 
# From -- ./inp_files/218074.got.cif
#   From: 2010.06.25/outbox.cif.g09.slc.cpg/sg2_110_cif.got.tgz:218074.got - 2010.06.27 13:26:56.
