data_PCOD8040975
_publ_section_title
;
Structure prediction by ZEFSAII (Michael W. Deem and Ramdas Pophale) SiO2 
 PCOD8040975
Probable space group: P -1
;
_chemical_formula_sum "Si O2"
_cell_formula_units_Z 14
_cell_length_a 10.085607
_cell_length_b 9.766265
_cell_length_c 11.193695
_cell_angle_alpha 123.565815
_cell_angle_beta 56.851513
_cell_angle_gamma 136.747767
_cell_volume 609.129742
_symmetry_space_group_name_H-M "P -1"
_symmetry_group_IT_number 2
_symmetry_cell_setting 'triclinic'
loop_
_space_group_symop_operation_xyz
x,y,z
-x,-y,-z
loop_
_atom_site_type_symbol
_atom_site_label
_atom_site_fract_x
_atom_site_fract_y
_atom_site_fract_z
Si Si1 0.438446 0.528981 0.917229
Si Si2 0.794997 0.469045 0.587243
Si Si3 0.287383 0.981185 0.349738
Si Si4 0.233330 0.105386 0.694586
Si Si5 0.702217 0.162433 0.305196
Si Si6 0.203488 0.160272 0.259826
Si Si7 0.868533 0.464579 0.805050
O O1 0.391700 0.352472 0.759905
O O2 0.620128 0.751778 0.881390
O O3 0.500000 0.500000 0.000000
O O4 0.242128 0.520504 0.021181
O O5 0.644468 0.261080 0.484439
O O6 0.820004 0.662366 0.609155
O O7 0.740270 0.446666 0.743466
O O8 0.000000 0.500000 0.500000
O O9 0.134291 0.734867 0.282603
O O10 0.251298 0.039413 0.523504
O O11 0.509720 0.043594 0.257157
O O12 0.256252 0.100418 0.325257
O O13 0.266131 0.994046 0.728471
O O14 0.007441 0.033846 0.785140
O O15 0.899562 0.335873 0.217102
#
# Coordination Sequence:
#
# PCOD8040975 Si02
#       7
#     2   2   2   2   2   2   2
#     4  12  26  43  71 105 142 183 236 284 341 419
#     4  10  18  40  69  95 133 172 222 286 330 396
#     4  12  27  42  74 106 138 182 233 291 352 402
#     4  12  24  44  74 102 136 186 236 284 350 410
#     4  11  22  41  73 102 134 180 238 282 339 414
#     4  12  26  46  67 108 145 175 233 297 342 410
#     4  11  23  45  68  99 141 183 229 282 343 412
#
# _framework density 22.983609000000001
#
# number of rings (size 3 to 8) (size 9 to 14) (size 15 to 20)
#    0.000    0.571    5.714    3.429    0.000    7.429 
#    0.000    1.429    0.000    0.000    0.000    0.000 
#    0.000    0.000    0.000    0.000    0.000    0.000 
#
# Total GULP energy -173600.741098 kJ/mol
# GULP energy per Si atom -12400.052936 kJ/mol
# Density = 2.293130 g / cm^3
# Si number density = 22.983609 Si / 1000 Ang^3
#
#
#
# Elastic Constant Matrix: (Units=GPa)
#
#
# Indices 1 2 3 4 5 6 
#
# 1 134.8656 59.0975 16.5161 -12.9431 -8.5077 -18.2347
# 2 59.0975 123.1182 24.6963 -16.5521 0.3646 -7.7297
# 3 16.5161 24.6963 90.7541 -3.7180 -17.4986 -10.3470
# 4 -12.9431 -16.5521 -3.7180 30.8546 8.1313 -4.4427
# 5 -8.5077 0.3646 -17.4986 8.1313 15.6518 1.2583
# 6 -18.2347 -7.7297 -10.3470 -4.4427 1.2583 42.7362
#
#
#
# Elastic Compliance Matrix: (Units=1/GPa)
#
#
# Indices 1 2 3 4 5 6 
#
# 1 0.010398 -0.004903 0.001116 0.000730 0.006337 0.003709
# 2 -0.004903 0.012358 -0.004392 0.007117 -0.011573 0.000160
# 3 0.001116 -0.004392 0.016184 -0.005204 0.021310 0.002432
# 4 0.000730 0.007117 -0.005204 0.044422 -0.029131 0.005815
# 5 0.006337 -0.011573 0.021310 -0.029131 0.106595 -0.000397
# 6 0.003709 0.000160 0.002432 0.005815 -0.000397 0.026216
#
#
# Mechanical properties :
#
#
# Convention : Reuss Voigt Hill
#
# Bulk Modulus (GPa) = 44.28202 61.03975 52.66088
# Shear Modulus (GPa) = 20.82846 34.41038 27.61942
#
# Velocity S-wave (km/s) = 3.01363 3.87353 3.47032
# Velocity P-wave (km/s) = 5.60517 6.82797 6.24656
#
# Compressibility (1/GPa) = 0.02258253
#
# Stress axis : x y z
#
# Youngs Moduli (GPa) = 96.17481 80.92122 61.79001
#
# Poissons Ratio (x) = 0.39673 -0.06899
# Poissons Ratio (y) = 0.47151 0.27140
# Poissons Ratio (z) = -0.10738 0.35543
#
# Static dielectric constant tensor:
#      x y z
#    x 4.202130 0.314050 0.009570 
#    y 0.314050 4.430610 0.092560 
#    z 0.009570 0.092560 4.756500 
# 
# 
# High freq. dielectric constant tensor:
#      x y z
#    x 1.899010 0.016710 -0.025270 
#    y 0.016710 1.918600 -0.005740 
#    z -0.025270 -0.005740 1.899290 
# 
# From -- ./inp_files/383152.got.cif
#   From: 2010.06.25/outbox.cif.g09.slc.cpg/sg2_192_cif.got.tgz:383152.got - 2010.06.27 13:26:56.
