data_PCOD8040491
_publ_section_title
;
Structure prediction by ZEFSAII (Michael W. Deem and Ramdas Pophale) SiO2 
 PCOD8040491
Probable space group: P -1
;
_chemical_formula_sum "Si O2"
_cell_formula_units_Z 16
_cell_length_a 11.282099
_cell_length_b 12.264782
_cell_length_c 12.405468
_cell_angle_alpha 111.840075
_cell_angle_beta 85.938108
_cell_angle_gamma 145.305174
_cell_volume 812.273154
_symmetry_space_group_name_H-M "P -1"
_symmetry_group_IT_number 2
_symmetry_cell_setting 'triclinic'
loop_
_space_group_symop_operation_xyz
x,y,z
-x,-y,-z
loop_
_atom_site_type_symbol
_atom_site_label
_atom_site_fract_x
_atom_site_fract_y
_atom_site_fract_z
Si Si1 0.386535 0.509346 0.212201
Si Si2 0.493880 0.801995 0.476220
Si Si3 0.895028 0.141005 0.059035
Si Si4 0.460564 0.620870 0.838649
Si Si5 0.654768 0.331412 0.334588
Si Si6 0.399586 0.969810 0.793440
Si Si7 0.189747 0.762595 0.496265
Si Si8 0.267816 0.544244 0.037995
O O1 0.473342 0.668509 0.358284
O O2 0.524799 0.506378 0.212825
O O3 0.439384 0.612648 0.129550
O O4 0.106977 0.253047 0.146489
O O5 0.498193 0.764732 0.586743
O O6 0.282809 0.714102 0.434299
O O7 0.733757 0.073360 0.534281
O O8 0.779821 0.131318 0.146427
O O9 0.003274 0.308019 0.012726
O O10 0.715010 0.892081 0.936715
O O11 0.351751 0.569699 0.713986
O O12 0.284892 0.509634 0.903387
O O13 0.552741 0.125185 0.212203
O O14 0.913395 0.522946 0.430629
O O15 0.295623 0.888782 0.650787
O O16 0.644742 0.246950 0.885209
#
# Coordination Sequence:
#
# PCOD8040491 Si02
#       8
#     2   2   2   2   2   2   2   2
#     4  10  19  39  62  79 106 145 197 233 261 318
#     4  10  20  37  61  86 105 145 190 233 267 321
#     4   9  20  35  61  84 101 144 194 232 269 313
#     4  11  23  39  51  83 121 150 176 224 280 335
#     4  11  24  34  55  85 124 145 171 223 290 342
#     4  10  18  37  59  87 107 137 189 235 276 320
#     4  10  19  36  61  84 112 141 186 232 275 322
#     4   9  21  36  62  82 103 144 193 237 267 309
#
# _framework density 19.697808999999999
#
# number of rings (size 3 to 8) (size 9 to 14) (size 15 to 20)
#    0.750    1.250    1.250    3.750    0.000    3.500 
#    0.000    1.875    0.000    0.000    0.000    0.000 
#    0.000    0.000    0.000    0.000    0.000    0.000 
#
# Total GULP energy -198352.114300 kJ/mol
# GULP energy per Si atom -12397.007144 kJ/mol
# Density = 1.965298 g / cm^3
# Si number density = 19.697809 Si / 1000 Ang^3
#
#
#
# Elastic Constant Matrix: (Units=GPa)
#
#
# Indices 1 2 3 4 5 6 
#
# 1 25.4869 5.9960 18.3150 0.6559 -8.0881 -14.2959
# 2 5.9960 98.6230 21.1653 -14.7555 -16.2886 4.3130
# 3 18.3150 21.1653 73.5115 -15.0494 -24.0525 -9.6454
# 4 0.6559 -14.7555 -15.0494 35.4405 -5.0961 0.2238
# 5 -8.0881 -16.2886 -24.0525 -5.0961 22.5529 -2.6910
# 6 -14.2959 4.3130 -9.6454 0.2238 -2.6910 22.0350
#
#
#
# Elastic Compliance Matrix: (Units=1/GPa)
#
#
# Indices 1 2 3 4 5 6 
#
# 1 0.084851 -0.001181 -0.000317 0.002743 0.036973 0.059630
# 2 -0.001181 0.013266 0.002806 0.008763 0.014070 -0.000505
# 3 -0.000317 0.002806 0.036130 0.023314 0.048185 0.020708
# 4 0.002743 0.008763 0.023314 0.048068 0.044860 0.015260
# 5 0.036973 0.014070 0.048185 0.044860 0.136269 0.058512
# 6 0.059630 -0.000505 0.020708 0.015260 0.058512 0.100224
#
#
# Mechanical properties :
#
#
# Convention : Reuss Voigt Hill
#
# Bulk Modulus (GPa) = 7.30656 32.06378 19.68517
# Shear Modulus (GPa) = 10.82686 26.14868 18.48777
#
# Velocity S-wave (km/s) = 2.34700 3.64743 3.06693
# Velocity P-wave (km/s) = 3.32595 5.83537 4.74939
#
# Compressibility (1/GPa) = 0.13686322
#
# Stress axis : x y z
#
# Youngs Moduli (GPa) = 11.78532 75.37884 27.67775
#
# Poissons Ratio (x) = 0.08906 0.00877
# Poissons Ratio (y) = 0.01392 -0.07767
# Poissons Ratio (z) = 0.00374 -0.21153
#
# Static dielectric constant tensor:
#      x y z
#    x 3.224320 -0.045310 -0.169790 
#    y -0.045310 3.772660 -0.104330 
#    z -0.169790 -0.104330 3.414080 
# 
# 
# High freq. dielectric constant tensor:
#      x y z
#    x 1.733130 -0.002950 -0.018330 
#    y -0.002950 1.783130 -0.007790 
#    z -0.018330 -0.007790 1.762050 
# 
# From -- ./inp_files/423927.got.cif
#   From: 2010.06.25/outbox.cif.g09.slc.cpg/sg2_212_cif.got.tgz:423927.got - 2010.06.27 13:26:56.
