data_PCOD8040422
_publ_section_title
;
Structure prediction by ZEFSAII (Michael W. Deem and Ramdas Pophale) SiO2 
 PCOD8040422
Probable space group: P -1
;
_chemical_formula_sum "Si O2"
_cell_formula_units_Z 14
_cell_length_a 9.802341
_cell_length_b 7.363107
_cell_length_c 16.864098
_cell_angle_alpha 100.803153
_cell_angle_beta 60.580583
_cell_angle_gamma 56.385992
_cell_volume 683.342188
_symmetry_space_group_name_H-M "P -1"
_symmetry_group_IT_number 2
_symmetry_cell_setting 'triclinic'
loop_
_space_group_symop_operation_xyz
x,y,z
-x,-y,-z
loop_
_atom_site_type_symbol
_atom_site_label
_atom_site_fract_x
_atom_site_fract_y
_atom_site_fract_z
Si Si1 0.426861 0.718419 0.182859
Si Si2 0.389674 0.857422 0.682848
Si Si3 0.798600 0.083121 0.011529
Si Si4 0.016641 0.872869 0.768220
Si Si5 0.717659 0.245166 0.597727
Si Si6 0.530252 0.674174 0.466518
Si Si7 0.271324 0.195404 0.888200
O O1 0.595726 0.409837 0.074020
O O2 0.394299 0.722965 0.285907
O O3 0.548976 0.805122 0.136778
O O4 0.175755 0.926197 0.228465
O O5 0.606971 0.544417 0.632804
O O6 0.465201 0.870074 0.574135
O O7 0.152839 0.943761 0.750789
O O8 0.327994 0.088894 0.772649
O O9 0.677321 0.024518 0.088619
O O10 0.904417 0.906586 0.885742
O O11 0.000000 0.000000 0.000000
O O12 0.197423 0.551058 0.660432
O O13 0.648476 0.154536 0.543109
O O14 0.000000 0.000000 0.500000
O O15 0.500000 0.500000 0.500000
O O16 0.000000 0.500000 0.000000
#
# Coordination Sequence:
#
# PCOD8040422 Si02
#       7
#     2   2   2   2   2   2   2
#     4  12  23  38  64  96 124 162 211 257 312 365
#     4  10  19  40  62  89 127 162 209 255 306 372
#     4  12  21  42  64  88 124 167 210 252 314 372
#     4  10  20  37  64  91 122 167 204 254 311 370
#     4  10  18  36  66  93 121 165 208 251 312 373
#     4   8  17  33  60  89 119 158 207 253 301 368
#     4  12  25  39  65  95 124 165 209 259 308 368
#
# _framework density 20.487539999999999
#
# number of rings (size 3 to 8) (size 9 to 14) (size 15 to 20)
#    0.000    1.714    4.286    3.857    0.000    0.571 
#    0.000    3.571    0.000    0.000    0.000    0.000 
#    0.000    0.000    0.000    0.000    0.000    0.000 
#
# Total GULP energy -173579.537877 kJ/mol
# GULP energy per Si atom -12398.538420 kJ/mol
# Density = 2.044091 g / cm^3
# Si number density = 20.487540 Si / 1000 Ang^3
#
#
#
# Elastic Constant Matrix: (Units=GPa)
#
#
# Indices 1 2 3 4 5 6 
#
# 1 75.6820 52.8257 41.5865 16.0383 -0.3853 -8.1501
# 2 52.8257 85.6607 42.9564 12.4444 2.7791 -29.4172
# 3 41.5865 42.9564 161.6249 0.2177 24.6522 -11.9885
# 4 16.0383 12.4444 0.2177 41.5374 -8.3003 -2.1802
# 5 -0.3853 2.7791 24.6522 -8.3003 38.7935 1.4224
# 6 -8.1501 -29.4172 -11.9885 -2.1802 1.4224 38.2208
#
#
#
# Elastic Compliance Matrix: (Units=1/GPa)
#
#
# Indices 1 2 3 4 5 6 
#
# 1 0.027775 -0.017919 -0.003536 -0.005224 0.003033 -0.009389
# 2 -0.017919 0.030447 -0.001710 -0.001658 -0.002326 0.019068
# 3 -0.003536 -0.001710 0.008385 0.000859 -0.005087 0.000798
# 4 -0.005224 -0.001658 0.000859 0.027636 0.005461 -0.000747
# 5 0.003033 -0.002326 -0.005087 0.005461 0.030506 -0.003563
# 6 -0.009389 0.019068 0.000798 -0.000747 -0.003563 0.039178
#
#
# Mechanical properties :
#
#
# Convention : Reuss Voigt Hill
#
# Bulk Modulus (GPa) = 49.31745 66.41163 57.86454
# Shear Modulus (GPa) = 23.03969 36.08359 29.56164
#
# Velocity S-wave (km/s) = 3.35710 4.20127 3.80268
# Velocity P-wave (km/s) = 6.25708 7.48467 6.89823
#
# Compressibility (1/GPa) = 0.02027680
#
# Stress axis : x y z
#
# Youngs Moduli (GPa) = 36.00344 32.84443 119.25445
#
# Poissons Ratio (x) = 0.58854 0.42170
# Poissons Ratio (y) = 0.64515 0.20392
# Poissons Ratio (z) = 0.12731 0.05616
#
# Static dielectric constant tensor:
#      x y z
#    x 3.654250 -0.110600 0.371600 
#    y -0.110600 3.743400 0.025670 
#    z 0.371600 0.025670 4.612840 
# 
# 
# High freq. dielectric constant tensor:
#      x y z
#    x 1.775380 -0.018980 0.010020 
#    y -0.018980 1.787550 -0.003300 
#    z 0.010020 -0.003300 1.831880 
# 
# From -- ./inp_files/495175.got.cif
#   From: 2010.06.25/outbox.cif.g09.slc.cpg/sg2_248_cif.got.tgz:495175.got - 2010.06.27 13:26:56.
