data_PCOD8040602
_publ_section_title
;
Structure prediction by ZEFSAII (Michael W. Deem and Ramdas Pophale) SiO2 
 PCOD8040602
Probable space group: P -1
;
_chemical_formula_sum "Si O2"
_cell_formula_units_Z 16
_cell_length_a 15.897450
_cell_length_b 22.864134
_cell_length_c 8.771607
_cell_angle_alpha 132.236890
_cell_angle_beta 46.871997
_cell_angle_gamma 160.758484
_cell_volume 762.079828
_symmetry_space_group_name_H-M "P -1"
_symmetry_group_IT_number 2
_symmetry_cell_setting 'triclinic'
loop_
_space_group_symop_operation_xyz
x,y,z
-x,-y,-z
loop_
_atom_site_type_symbol
_atom_site_label
_atom_site_fract_x
_atom_site_fract_y
_atom_site_fract_z
Si Si1 0.054860 0.129957 0.309864
Si Si2 0.252781 0.967802 0.902219
Si Si3 0.276024 0.589686 0.687601
Si Si4 0.659703 0.126688 0.878626
Si Si5 0.141662 0.006529 0.368331
Si Si6 0.902285 0.486737 0.899045
Si Si7 0.617540 0.809803 0.081482
Si Si8 0.984094 0.734242 0.552979
O O1 0.142882 0.259702 0.327743
O O2 0.292803 0.213632 0.161927
O O3 0.985227 0.112986 0.537002
O O4 0.792365 0.924226 0.215939
O O5 0.089456 0.803875 0.718406
O O6 0.488301 0.071687 0.879438
O O7 0.354578 0.093004 0.875709
O O8 0.079448 0.906812 0.135489
O O9 0.553359 0.785929 0.620352
O O10 0.042199 0.487736 0.701706
O O11 0.230883 0.467430 0.532147
O O12 0.267058 0.619236 0.920993
O O13 0.788697 0.139180 0.633338
O O14 0.881237 0.313936 0.010546
O O15 0.500000 0.000000 0.000000
O O16 0.000000 0.000000 0.500000
O O17 0.696698 0.384727 0.840546
#
# Coordination Sequence:
#
# PCOD8040602 Si02
#       8
#     2   2   2   2   2   2   2   2
#     4  10  22  38  63  92 124 156 210 258 302 366
#     4  11  20  39  64  86 122 167 208 241 313 372
#     4  10  20  38  63  92 122 160 209 249 308 372
#     4  11  22  38  61  94 129 158 207 262 308 360
#     4  12  21  39  67  90 118 166 211 254 306 366
#     4  10  18  37  64  86 120 166 205 249 305 379
#     4  10  19  39  65  87 118 167 208 247 310 375
#     4  10  23  38  62  93 126 164 201 256 311 368
#
# _framework density 20.995176000000001
#
# number of rings (size 3 to 8) (size 9 to 14) (size 15 to 20)
#    0.000    1.500    3.750    2.625    0.000    1.000 
#    2.250    8.125    0.000    0.000    0.000    0.000 
#    0.000    0.000    0.000    0.000    0.000    0.000 
#
# Total GULP energy -198296.006123 kJ/mol
# GULP energy per Si atom -12393.500383 kJ/mol
# Density = 2.094739 g / cm^3
# Si number density = 20.995176 Si / 1000 Ang^3
#
#
#
# Elastic Constant Matrix: (Units=GPa)
#
#
# Indices 1 2 3 4 5 6 
#
# 1 83.0872 33.3529 15.7221 -1.9961 -12.7355 13.0672
# 2 33.3529 60.2980 15.7464 4.2850 -3.7384 2.6453
# 3 15.7221 15.7464 82.0725 6.3933 1.2310 -8.5132
# 4 -1.9961 4.2850 6.3933 26.7832 0.2753 -1.4496
# 5 -12.7355 -3.7384 1.2310 0.2753 35.4553 -4.1747
# 6 13.0672 2.6453 -8.5132 -1.4496 -4.1747 27.7022
#
#
#
# Elastic Compliance Matrix: (Units=1/GPa)
#
#
# Indices 1 2 3 4 5 6 
#
# 1 0.018158 -0.008870 -0.002883 0.002993 0.004754 -0.007731
# 2 -0.008870 0.022225 -0.002157 -0.003635 -0.000608 0.001117
# 3 -0.002883 -0.002157 0.013967 -0.002893 -0.001073 0.005545
# 4 0.002993 -0.003635 -0.002893 0.038835 0.000509 0.000155
# 5 0.004754 -0.000608 -0.001073 0.000509 0.030123 0.002052
# 6 -0.007731 0.001117 0.005545 0.000155 0.002052 0.041660
#
#
# Mechanical properties :
#
#
# Convention : Reuss Voigt Hill
#
# Bulk Modulus (GPa) = 37.69169 39.45560 38.57364
# Shear Modulus (GPa) = 24.79773 28.69723 26.74748
#
# Velocity S-wave (km/s) = 3.44046 3.70110 3.57316
# Velocity P-wave (km/s) = 5.81153 6.09079 5.95280
#
# Compressibility (1/GPa) = 0.02653105
#
# Stress axis : x y z
#
# Youngs Moduli (GPa) = 55.07211 44.99363 71.59699
#
# Poissons Ratio (x) = 0.39908 0.20642
# Poissons Ratio (y) = 0.48848 0.15443
# Poissons Ratio (z) = 0.15878 0.09705
#
# Static dielectric constant tensor:
#      x y z
#    x 3.631150 -0.156550 -0.973870 
#    y -0.156550 3.234710 -1.121890 
#    z -0.973870 -1.121890 1.534290 
# 
# 
# High freq. dielectric constant tensor:
#      x y z
#    x 1.827790 0.011220 -0.014820 
#    y 0.011220 1.801470 0.006690 
#    z -0.014820 0.006690 1.819160 
# 
# From -- ./inp_files/295987.got.cif
#   From: 2010.06.25/outbox.cif.g09.slc.cpg/sg2_148_cif.got.tgz:295987.got - 2010.06.27 13:26:56.
