data_PCOD8040127
_publ_section_title
;
Structure prediction by ZEFSAII (Michael W. Deem and Ramdas Pophale) SiO2 
 PCOD8040127
Probable space group: P -1
;
_chemical_formula_sum "Si O2"
_cell_formula_units_Z 16
_cell_length_a 10.957113
_cell_length_b 12.353980
_cell_length_c 7.765390
_cell_angle_alpha 76.161706
_cell_angle_beta 97.906019
_cell_angle_gamma 53.457860
_cell_volume 765.379497
_symmetry_space_group_name_H-M "P -1"
_symmetry_group_IT_number 2
_symmetry_cell_setting 'triclinic'
loop_
_space_group_symop_operation_xyz
x,y,z
-x,-y,-z
loop_
_atom_site_type_symbol
_atom_site_label
_atom_site_fract_x
_atom_site_fract_y
_atom_site_fract_z
Si Si1 0.390289 0.832616 0.092426
Si Si2 0.052627 0.309305 0.516040
Si Si3 0.737573 0.616988 0.398117
Si Si4 0.129871 0.878571 0.264722
Si Si5 0.890684 0.858602 0.077056
Si Si6 0.336595 0.649161 0.978497
Si Si7 0.010406 0.169089 0.265903
Si Si8 0.324127 0.570383 0.382869
O O1 0.581401 0.735961 0.204519
O O2 0.292140 0.834559 0.229606
O O3 0.371665 0.760745 0.954031
O O4 0.302061 0.004045 0.975632
O O5 0.204934 0.303559 0.529095
O O6 0.046354 0.272576 0.729314
O O7 0.887938 0.474587 0.372497
O O8 0.084004 0.188667 0.437909
O O9 0.692583 0.551891 0.556752
O O10 0.194707 0.720586 0.416989
O O11 0.980626 0.926965 0.091832
O O12 0.066746 0.005581 0.343316
O O13 0.924685 0.806475 0.904151
O O14 0.285876 0.625605 0.159342
O O15 0.500000 0.500000 0.000000
O O16 0.185380 0.713370 0.800366
O O17 0.500000 0.500000 0.500000
#
# Coordination Sequence:
#
# PCOD8040127 Si02
#       8
#     2   2   2   2   2   2   2   2
#     4  10  19  37  62  86 124 158 195 261 316 356
#     4  11  26  40  63  89 125 173 209 243 294 386
#     4  11  22  43  60  90 126 165 210 246 305 367
#     4  10  18  35  65  91 117 159 199 256 319 356
#     4  11  20  42  63  90 124 165 200 252 322 354
#     4  11  20  33  57  97 122 148 200 262 313 359
#     4  11  21  40  62  94 126 153 208 258 305 368
#     4  11  20  37  66  88 118 162 198 256 318 354
#
# _framework density 20.904662999999999
#
# number of rings (size 3 to 8) (size 9 to 14) (size 15 to 20)
#    0.000    1.250    7.500    1.500    0.000    1.000 
#    2.250    9.375    0.000    0.000    0.000    0.000 
#    0.000    0.000    0.000    0.000    0.000    0.000 
#
# Total GULP energy -198230.661928 kJ/mol
# GULP energy per Si atom -12389.416370 kJ/mol
# Density = 2.085708 g / cm^3
# Si number density = 20.904663 Si / 1000 Ang^3
#
#
#
# Elastic Constant Matrix: (Units=GPa)
#
#
# Indices 1 2 3 4 5 6 
#
# 1 93.5210 28.7647 28.0651 -2.9226 18.1723 5.1436
# 2 28.7647 106.0974 26.1850 -4.2865 10.8174 -9.0305
# 3 28.0651 26.1850 68.3221 -3.2095 9.1108 -0.9842
# 4 -2.9226 -4.2865 -3.2095 36.5470 -5.9247 9.9097
# 5 18.1723 10.8174 9.1108 -5.9247 30.0822 -3.7160
# 6 5.1436 -9.0305 -0.9842 9.9097 -3.7160 27.2488
#
#
#
# Elastic Compliance Matrix: (Units=1/GPa)
#
#
# Indices 1 2 3 4 5 6 
#
# 1 0.014338 -0.002575 -0.004009 0.000690 -0.006992 -0.004909
# 2 -0.002575 0.011340 -0.003095 -0.000459 -0.001164 0.004141
# 3 -0.004009 -0.003095 0.017727 0.000618 -0.001724 -0.000088
# 4 0.000690 -0.000459 0.000618 0.031096 0.004329 -0.010979
# 5 -0.006992 -0.001164 -0.001724 0.004329 0.039844 0.004731
# 6 -0.004909 0.004141 -0.000088 -0.010979 0.004731 0.043632
#
#
# Mechanical properties :
#
#
# Convention : Reuss Voigt Hill
#
# Bulk Modulus (GPa) = 41.58481 48.21891 44.90186
# Shear Modulus (GPa) = 26.97594 31.10399 29.03997
#
# Velocity S-wave (km/s) = 3.59615 3.86151 3.73119
# Velocity P-wave (km/s) = 6.09744 6.55728 6.33154
#
# Compressibility (1/GPa) = 0.02404724
#
# Stress axis : x y z
#
# Youngs Moduli (GPa) = 69.74503 88.18479 56.41099
#
# Poissons Ratio (x) = 0.22707 0.22614
# Poissons Ratio (y) = 0.17959 0.17460
# Poissons Ratio (z) = 0.27959 0.27294
#
# Static dielectric constant tensor:
#      x y z
#    x 3.726540 -0.124740 0.210730 
#    y -0.124740 4.216770 -0.229310 
#    z 0.210730 -0.229310 3.562580 
# 
# 
# High freq. dielectric constant tensor:
#      x y z
#    x 1.806450 -0.007610 0.018110 
#    y -0.007610 1.822320 -0.028230 
#    z 0.018110 -0.028230 1.796820 
# 
# From -- ./inp_files/253108.got.cif
#   From: 2010.06.25/outbox.cif.g09.slc.cpg/sg2_127_cif.got.tgz:253108.got - 2010.06.27 13:26:56.
