data_PCOD8040738
_publ_section_title
;
Structure prediction by ZEFSAII (Michael W. Deem and Ramdas Pophale) SiO2 
 PCOD8040738
Probable space group: P -1
;
_chemical_formula_sum "Si O2"
_cell_formula_units_Z 16
_cell_length_a 14.715687
_cell_length_b 6.533346
_cell_length_c 17.872228
_cell_angle_alpha 82.328681
_cell_angle_beta 30.235285
_cell_angle_gamma 93.293267
_cell_volume 804.469293
_symmetry_space_group_name_H-M "P -1"
_symmetry_group_IT_number 2
_symmetry_cell_setting 'triclinic'
loop_
_space_group_symop_operation_xyz
x,y,z
-x,-y,-z
loop_
_atom_site_type_symbol
_atom_site_label
_atom_site_fract_x
_atom_site_fract_y
_atom_site_fract_z
Si Si1 0.938758 0.672134 0.761177
Si Si2 0.124421 0.366365 0.590021
Si Si3 0.417011 0.814194 0.320210
Si Si4 0.940024 0.137125 0.098343
Si Si5 0.079927 0.000979 0.524900
Si Si6 0.767508 0.953128 0.377368
Si Si7 0.609659 0.209647 0.258537
Si Si8 0.309070 0.387787 0.920250
O O1 0.945765 0.448512 0.728952
O O2 0.917632 0.827708 0.700702
O O3 0.755468 0.596647 0.949634
O O4 0.136621 0.812768 0.658565
O O5 0.310191 0.586092 0.449325
O O6 0.117163 0.204080 0.671379
O O7 0.121652 0.243112 0.518760
O O8 0.269702 0.929579 0.388381
O O9 0.550621 0.755242 0.165743
O O10 0.567747 0.973311 0.262132
O O11 0.825606 0.284963 0.135001
O O12 0.787663 0.976182 0.272842
O O13 0.125216 0.281732 0.004009
O O14 0.000000 0.000000 0.000000
O O15 0.000000 0.000000 0.500000
O O16 0.546015 0.825921 0.562876
O O17 0.583933 0.375025 0.205375
#
# Coordination Sequence:
#
# PCOD8040738 Si02
#       8
#     2   2   2   2   2   2   2   2
#     4   9  21  36  60  89 117 154 198 240 292 355
#     4  10  18  38  63  87 112 157 197 237 295 352
#     4  11  20  38  62  87 118 153 202 239 293 359
#     4  11  24  37  54  86 124 158 205 257 288 335
#     4  10  21  39  66  95 118 147 191 242 298 362
#     4  10  20  38  57  82 117 158 206 244 292 344
#     4  12  21  39  57  83 118 164 203 245 294 343
#     4  11  23  39  59  84 124 162 200 244 298 342
#
# _framework density 19.888888000000001
#
# number of rings (size 3 to 8) (size 9 to 14) (size 15 to 20)
#    0.000    1.500    6.250    0.750    1.750    3.000 
#    0.000    1.875    0.000    3.750    0.000    0.000 
#    0.000    0.000    0.000    0.000    0.000    0.000 
#
# Total GULP energy -198251.080561 kJ/mol
# GULP energy per Si atom -12390.692535 kJ/mol
# Density = 1.984362 g / cm^3
# Si number density = 19.888888 Si / 1000 Ang^3
#
#
#
# Elastic Constant Matrix: (Units=GPa)
#
#
# Indices 1 2 3 4 5 6 
#
# 1 96.5603 38.1588 36.1380 12.9562 17.5541 -5.3686
# 2 38.1588 125.1176 50.1268 19.4185 9.0165 -0.9540
# 3 36.1380 50.1268 121.0253 21.5060 22.4690 -3.8062
# 4 12.9562 19.4185 21.5060 31.0125 3.0063 -0.7185
# 5 17.5541 9.0165 22.4690 3.0063 26.0187 3.0425
# 6 -5.3686 -0.9540 -3.8062 -0.7185 3.0425 16.3384
#
#
#
# Elastic Compliance Matrix: (Units=1/GPa)
#
#
# Indices 1 2 3 4 5 6 
#
# 1 0.013924 -0.002897 -0.000846 -0.002509 -0.008023 0.005593
# 2 -0.002897 0.010576 -0.003287 -0.003333 0.001696 -0.001563
# 3 -0.000846 -0.003287 0.012635 -0.005383 -0.009037 0.003919
# 4 -0.002509 -0.003333 -0.005383 0.038781 0.003150 -0.001154
# 5 -0.008023 0.001696 -0.009037 0.003150 0.052366 -0.014256
# 6 0.005593 -0.001563 0.003919 -0.001154 -0.014256 0.066469
#
#
# Mechanical properties :
#
#
# Convention : Reuss Voigt Hill
#
# Bulk Modulus (GPa) = 43.34067 65.72781 54.53424
# Shear Modulus (GPa) = 23.09425 29.22588 26.16006
#
# Velocity S-wave (km/s) = 3.41128 3.83751 3.63066
# Velocity P-wave (km/s) = 6.11183 7.26323 6.71227
#
# Compressibility (1/GPa) = 0.02307302
#
# Stress axis : x y z
#
# Youngs Moduli (GPa) = 71.81784 94.55183 79.14811
#
# Poissons Ratio (x) = 0.27395 0.06699
# Poissons Ratio (y) = 0.20808 0.26017
# Poissons Ratio (z) = 0.06079 0.31081
#
# Static dielectric constant tensor:
#      x y z
#    x 3.299980 -0.081910 0.175690 
#    y -0.081910 3.863780 0.162410 
#    z 0.175690 0.162410 3.872820 
# 
# 
# High freq. dielectric constant tensor:
#      x y z
#    x 1.736940 -0.008680 0.012240 
#    y -0.008680 1.785360 0.009330 
#    z 0.012240 0.009330 1.780860 
# 
# From -- ./inp_files/39009.got.cif
#   From: 2010.06.25/outbox.cif.g09.slc.cpg/sg2_20_cif.got.tgz:39009.got - 2010.06.27 13:26:56.
