data_PCOD8040129
_publ_section_title
;
Structure prediction by ZEFSAII (Michael W. Deem and Ramdas Pophale) SiO2 
 PCOD8040129
Probable space group: P -1
;
_chemical_formula_sum "Si O2"
_cell_formula_units_Z 16
_cell_length_a 15.501120
_cell_length_b 8.589074
_cell_length_c 15.001267
_cell_angle_alpha 36.671732
_cell_angle_beta 42.295481
_cell_angle_gamma 41.743227
_cell_volume 742.396643
_symmetry_space_group_name_H-M "P -1"
_symmetry_group_IT_number 2
_symmetry_cell_setting 'triclinic'
loop_
_space_group_symop_operation_xyz
x,y,z
-x,-y,-z
loop_
_atom_site_type_symbol
_atom_site_label
_atom_site_fract_x
_atom_site_fract_y
_atom_site_fract_z
Si Si1 0.415079 0.278074 0.490381
Si Si2 0.468499 0.001247 0.747582
Si Si3 0.099145 0.540725 0.599068
Si Si4 0.772387 0.001494 0.952331
Si Si5 0.677129 0.760161 0.846781
Si Si6 0.073611 0.802124 0.117189
Si Si7 0.464758 0.543107 0.167601
Si Si8 0.113614 0.097150 0.271577
O O1 0.468172 0.248359 0.566077
O O2 0.254201 0.328621 0.595472
O O3 0.438565 0.521165 0.303443
O O4 0.500000 0.000000 0.500000
O O5 0.613284 0.900467 0.736423
O O6 0.457619 0.748211 0.811310
O O7 0.332395 0.114601 0.863183
O O8 0.023497 0.352787 0.697179
O O9 0.023243 0.656340 0.698784
O O10 0.089355 0.803612 0.423157
O O11 0.894645 0.009567 0.918416
O O12 0.681596 0.308077 0.839448
O O13 0.853371 0.810370 0.893992
O O14 0.781275 0.437410 0.910669
O O15 0.752929 0.948655 0.746285
O O16 0.549900 0.746162 0.008061
O O17 0.000000 0.000000 0.000000
#
# Coordination Sequence:
#
# PCOD8040129 Si02
#       8
#     2   2   2   2   2   2   2   2
#     4  10  21  37  63  92 127 155 202 264 316 343
#     4  10  19  35  63  94 126 155 203 267 305 354
#     4  10  22  43  59  90 130 163 205 253 310 367
#     4  11  19  38  63  93 116 161 214 248 309 359
#     4  10  20  39  63  91 124 166 209 247 313 369
#     4  11  22  37  67  90 123 159 210 264 309 356
#     4  10  18  35  65  92 124 151 209 262 300 357
#     4  10  23  40  64  86 129 174 200 248 305 387
#
# _framework density 21.551821
#
# number of rings (size 3 to 8) (size 9 to 14) (size 15 to 20)
#    0.000    1.750    3.750    1.500    1.750    2.500 
#    0.000    7.500    2.750    0.000    0.000    0.000 
#    0.000    0.000    0.000    0.000    0.000    0.000 
#
# Total GULP energy -198276.970121 kJ/mol
# GULP energy per Si atom -12392.310633 kJ/mol
# Density = 2.150277 g / cm^3
# Si number density = 21.551821 Si / 1000 Ang^3
#
#
#
# Elastic Constant Matrix: (Units=GPa)
#
#
# Indices 1 2 3 4 5 6 
#
# 1 133.7070 30.2179 67.7802 4.4413 11.4682 -19.8734
# 2 30.2179 71.2090 19.7515 29.2676 3.8364 -16.4319
# 3 67.7802 19.7515 117.9161 16.7725 21.1945 -10.2623
# 4 4.4413 29.2676 16.7725 33.6808 2.1841 3.1009
# 5 11.4682 3.8364 21.1945 2.1841 46.8182 -1.0002
# 6 -19.8734 -16.4319 -10.2623 3.1009 -1.0002 30.7808
#
#
#
# Elastic Compliance Matrix: (Units=1/GPa)
#
#
# Indices 1 2 3 4 5 6 
#
# 1 0.012296 -0.005433 -0.006935 0.006339 0.000322 0.002098
# 2 -0.005433 0.032098 0.003901 -0.030693 -0.001250 0.017979
# 3 -0.006935 0.003901 0.014274 -0.009581 -0.004568 0.003181
# 4 0.006339 -0.030693 -0.009581 0.062167 0.001936 -0.021686
# 5 0.000322 -0.001250 -0.004568 0.001936 0.023330 -0.001419
# 6 0.002098 0.017979 0.003181 -0.021686 -0.001419 0.046640
#
#
# Mechanical properties :
#
#
# Convention : Reuss Voigt Hill
#
# Bulk Modulus (GPa) = 23.96057 62.03682 42.99870
# Shear Modulus (GPa) = 22.55819 35.92812 29.24316
#
# Velocity S-wave (km/s) = 3.23878 4.08739 3.68758
# Velocity P-wave (km/s) = 5.01279 7.15004 6.17459
#
# Compressibility (1/GPa) = 0.04173523
#
# Stress axis : x y z
#
# Youngs Moduli (GPa) = 81.32662 31.15504 70.05743
#
# Poissons Ratio (x) = 0.16926 0.48584
# Poissons Ratio (y) = 0.44183 -0.27333
# Poissons Ratio (z) = 0.56399 -0.12155
#
# Static dielectric constant tensor:
#      x y z
#    x 3.875430 -0.149020 0.194070 
#    y -0.149020 3.813390 0.165650 
#    z 0.194070 0.165650 4.203560 
# 
# 
# High freq. dielectric constant tensor:
#      x y z
#    x 1.828750 -0.016150 0.004770 
#    y -0.016150 1.837020 0.015580 
#    z 0.004770 0.015580 1.846790 
# 
# From -- ./inp_files/529284.got.cif
#   From: 2010.06.25/outbox.cif.g09.slc.cpg/sg2_265_cif.got.tgz:529284.got - 2010.06.27 13:26:56.
