data_PCOD8040870
_publ_section_title
;
Structure prediction by ZEFSAII (Michael W. Deem and Ramdas Pophale) SiO2 
 PCOD8040870
Probable space group: P -1
;
_chemical_formula_sum "Si O2"
_cell_formula_units_Z 16
_cell_length_a 23.611489
_cell_length_b 18.329190
_cell_length_c 8.992762
_cell_angle_alpha 40.976909
_cell_angle_beta 40.413094
_cell_angle_gamma 18.864502
_cell_volume 804.678480
_symmetry_space_group_name_H-M "P -1"
_symmetry_group_IT_number 2
_symmetry_cell_setting 'triclinic'
loop_
_space_group_symop_operation_xyz
x,y,z
-x,-y,-z
loop_
_atom_site_type_symbol
_atom_site_label
_atom_site_fract_x
_atom_site_fract_y
_atom_site_fract_z
Si Si1 0.168506 0.766725 0.931435
Si Si2 0.704551 0.589526 0.232138
Si Si3 0.754493 0.555852 0.675540
Si Si4 0.460660 0.603227 0.072960
Si Si5 0.154681 0.415772 0.802620
Si Si6 0.567976 0.895975 0.780501
Si Si7 0.458989 0.831564 0.607584
Si Si8 0.813279 0.236675 0.438591
O O1 0.352147 0.588665 0.922147
O O2 0.180289 0.803875 0.685270
O O3 0.139777 0.665880 0.125468
O O4 0.000000 0.000000 0.000000
O O5 0.852858 0.478797 0.217797
O O6 0.533527 0.729521 0.448170
O O7 0.782158 0.403000 0.265987
O O8 0.639224 0.763866 0.992519
O O9 0.888486 0.490559 0.422593
O O10 0.629313 0.753371 0.741216
O O11 0.634371 0.648145 0.638428
O O12 0.335547 0.672385 0.324280
O O13 0.500000 0.500000 0.000000
O O14 0.361312 0.831067 0.872683
O O15 0.352023 0.139809 0.839583
O O16 0.000000 0.500000 0.000000
O O17 0.651057 0.929101 0.541142
O O18 0.000000 0.000000 0.500000
#
# Coordination Sequence:
#
# PCOD8040870 Si02
#       8
#     2   2   2   2   2   2   2   2
#     4  11  24  43  66  93 125 170 218 270 326 379
#     4  10  20  40  63  89 123 165 205 258 311 379
#     4   9  19  38  61  87 120 157 204 254 311 376
#     4  11  22  42  66  96 127 166 215 261 323 392
#     4  10  21  38  60  93 127 158 201 251 320 378
#     4  10  18  39  65  88 119 165 204 249 312 383
#     4   9  18  34  64  88 120 159 202 246 313 378
#     4  12  25  43  64  92 130 170 219 268 323 380
#
# _framework density 19.883717000000001
#
# number of rings (size 3 to 8) (size 9 to 14) (size 15 to 20)
#    0.000    2.000    2.500    4.125    3.500    0.000 
#    9.000    1.875    0.000    0.000    0.000    0.000 
#    0.000    0.000    0.000    0.000    0.000    0.000 
#
# Total GULP energy -198218.180705 kJ/mol
# GULP energy per Si atom -12388.636294 kJ/mol
# Density = 1.983846 g / cm^3
# Si number density = 19.883717 Si / 1000 Ang^3
#
#
#
# Elastic Constant Matrix: (Units=GPa)
#
#
# Indices 1 2 3 4 5 6 
#
# 1 90.5524 48.2364 59.5274 6.9691 8.0369 11.4464
# 2 48.2364 101.4691 60.4010 -6.2252 -5.7017 19.3207
# 3 59.5274 60.4010 162.9601 -0.4438 4.5203 7.6817
# 4 6.9691 -6.2252 -0.4438 37.0434 3.7480 -0.3493
# 5 8.0369 -5.7017 4.5203 3.7480 39.1516 -0.5238
# 6 11.4464 19.3207 7.6817 -0.3493 -0.5238 30.5934
#
#
#
# Elastic Compliance Matrix: (Units=1/GPa)
#
#
# Indices 1 2 3 4 5 6 
#
# 1 0.017897 -0.006195 -0.004060 -0.004096 -0.003740 -0.001875
# 2 -0.006195 0.016825 -0.003724 0.003504 0.003719 -0.007269
# 3 -0.004060 -0.003724 0.008946 0.000337 -0.000752 0.001616
# 4 -0.004096 0.003504 0.000337 0.028498 -0.001422 -0.000464
# 5 -0.003740 0.003719 -0.000752 -0.001422 0.027070 -0.000313
# 6 -0.001875 -0.007269 0.001616 -0.000464 -0.000313 0.037562
#
#
# Mechanical properties :
#
#
# Convention : Reuss Voigt Hill
#
# Bulk Modulus (GPa) = 63.66108 76.81235 70.23672
# Shear Modulus (GPa) = 29.41280 33.81212 31.61246
#
# Velocity S-wave (km/s) = 3.85026 4.12818 3.99164
# Velocity P-wave (km/s) = 7.20085 7.83818 7.52626
#
# Compressibility (1/GPa) = 0.01570818
#
# Stress axis : x y z
#
# Youngs Moduli (GPa) = 55.87577 59.43444 111.78685
#
# Poissons Ratio (x) = 0.36822 0.45388
# Poissons Ratio (y) = 0.34617 0.41631
# Poissons Ratio (z) = 0.22687 0.22134
#
# Static dielectric constant tensor:
#      x y z
#    x 3.640040 0.241600 0.088910 
#    y 0.241600 3.344860 -0.205680 
#    z 0.088910 -0.205680 4.456460 
# 
# 
# High freq. dielectric constant tensor:
#      x y z
#    x 1.772700 0.024240 0.013410 
#    y 0.024240 1.748200 -0.012920 
#    z 0.013410 -0.012920 1.802920 
# 
# From -- ./inp_files/354940.got.cif
#   From: 2010.06.25/outbox.cif.g09.slc.cpg/sg2_178_cif.got.tgz:354940.got - 2010.06.27 13:26:56.
