data_PCOD8040899
_publ_section_title
;
Structure prediction by ZEFSAII (Michael W. Deem and Ramdas Pophale) SiO2 
 PCOD8040899
Probable space group: P -1
;
_chemical_formula_sum "Si O2"
_cell_formula_units_Z 14
_cell_length_a 12.182291
_cell_length_b 9.509717
_cell_length_c 17.496235
_cell_angle_alpha 50.270904
_cell_angle_beta 29.137477
_cell_angle_gamma 39.763643
_cell_volume 627.868122
_symmetry_space_group_name_H-M "P -1"
_symmetry_group_IT_number 2
_symmetry_cell_setting 'triclinic'
loop_
_space_group_symop_operation_xyz
x,y,z
-x,-y,-z
loop_
_atom_site_type_symbol
_atom_site_label
_atom_site_fract_x
_atom_site_fract_y
_atom_site_fract_z
Si Si1 0.923149 0.322638 0.604992
Si Si2 0.666371 0.149300 0.517681
Si Si3 0.127093 0.654192 0.784099
Si Si4 0.885943 0.716757 0.142795
Si Si5 0.443055 0.448382 0.970440
Si Si6 0.639978 0.260029 0.667589
Si Si7 0.377080 0.016570 0.936407
O O1 0.681013 0.394317 0.786156
O O2 0.854432 0.284576 0.574251
O O3 0.000000 0.500000 0.500000
O O4 0.188850 0.076436 0.542208
O O5 0.744091 0.308929 0.380715
O O6 0.746899 0.140454 0.561367
O O7 0.346141 0.247192 0.669824
O O8 0.377539 0.511312 0.738861
O O9 0.007320 0.507553 0.890886
O O10 0.890664 0.883330 0.883810
O O11 0.737534 0.927812 0.101407
O O12 0.154815 0.665717 0.040798
O O13 0.500000 0.500000 0.000000
O O14 0.428231 0.238603 0.069092
O O15 0.554626 0.114261 0.815466
#
# Coordination Sequence:
#
# PCOD8040899 Si02
#       7
#     2   2   2   2   2   2   2
#     4  12  27  45  65 100 141 177 227 277 338 401
#     4  10  22  43  68 101 133 177 221 279 342 394
#     4  10  18  39  68 103 130 167 227 284 334 392
#     4  10  23  43  68  98 136 173 224 281 334 403
#     4  12  28  45  68  99 137 186 226 276 335 408
#     4  10  22  41  70 100 134 176 220 284 334 404
#     4  10  21  42  71 100 131 174 233 274 340 388
#
# _framework density 22.297678000000001
#
# number of rings (size 3 to 8) (size 9 to 14) (size 15 to 20)
#    0.000    1.714    1.429    5.571    6.000    4.000 
#    2.571    1.429    0.000    0.000    0.000    0.000 
#    0.000    0.000    0.000    0.000    0.000    0.000 
#
# Total GULP energy -173449.653607 kJ/mol
# GULP energy per Si atom -12389.260972 kJ/mol
# Density = 2.224693 g / cm^3
# Si number density = 22.297678 Si / 1000 Ang^3
#
#
#
# Elastic Constant Matrix: (Units=GPa)
#
#
# Indices 1 2 3 4 5 6 
#
# 1 92.0518 20.9435 42.9582 0.8877 -16.2429 1.0209
# 2 20.9435 59.5162 15.0114 -17.8704 -11.0623 2.4506
# 3 42.9582 15.0114 114.5717 -12.2755 4.5612 3.9715
# 4 0.8877 -17.8704 -12.2755 33.1287 -0.0958 4.3452
# 5 -16.2429 -11.0623 4.5612 -0.0958 28.6046 1.3443
# 6 1.0209 2.4506 3.9715 4.3452 1.3443 28.5823
#
#
#
# Elastic Compliance Matrix: (Units=1/GPa)
#
#
# Indices 1 2 3 4 5 6 
#
# 1 0.016443 -0.004115 -0.006568 -0.005208 0.008726 0.001059
# 2 -0.004115 0.023874 -0.000282 0.013462 0.007186 -0.004245
# 3 -0.006568 -0.000282 0.012022 0.004706 -0.005652 -0.001861
# 4 -0.005208 0.013462 0.004706 0.040366 0.002003 -0.007853
# 5 0.008726 0.007186 -0.005652 0.002003 0.043719 -0.002503
# 6 0.001059 -0.004245 -0.001861 -0.007853 -0.002503 0.036883
#
#
# Mechanical properties :
#
#
# Convention : Reuss Voigt Hill
#
# Bulk Modulus (GPa) = 32.88561 47.10734 39.99648
# Shear Modulus (GPa) = 24.34605 30.54488 27.44546
#
# Velocity S-wave (km/s) = 3.30792 3.70519 3.51218
# Velocity P-wave (km/s) = 5.41943 6.28307 5.86717
#
# Compressibility (1/GPa) = 0.03040843
#
# Stress axis : x y z
#
# Youngs Moduli (GPa) = 60.81586 41.88719 83.18376
#
# Poissons Ratio (x) = 0.17237 0.54637
# Poissons Ratio (y) = 0.25026 0.02343
# Poissons Ratio (z) = 0.39945 0.01180
#
# Static dielectric constant tensor:
#      x y z
#    x 3.924330 -0.291530 0.180980 
#    y -0.291530 4.343860 -0.035560 
#    z 0.180980 -0.035560 4.224420 
# 
# 
# High freq. dielectric constant tensor:
#      x y z
#    x 1.849270 -0.012830 0.007680 
#    y -0.012830 1.880800 0.010370 
#    z 0.007680 0.010370 1.892310 
# 
# From -- ./inp_files/285794.got.cif
#   From: 2010.06.25/outbox.cif.g09.slc.cpg/sg2_143_cif.got.tgz:285794.got - 2010.06.27 13:26:56.
