data_PCOD8040505
_publ_section_title
;
Structure prediction by ZEFSAII (Michael W. Deem and Ramdas Pophale) SiO2 
 PCOD8040505
Probable space group: P -1
;
_chemical_formula_sum "Si O2"
_cell_formula_units_Z 14
_cell_length_a 9.875416
_cell_length_b 9.593062
_cell_length_c 9.038164
_cell_angle_alpha 118.505167
_cell_angle_beta 110.098673
_cell_angle_gamma 69.545659
_cell_volume 688.540067
_symmetry_space_group_name_H-M "P -1"
_symmetry_group_IT_number 2
_symmetry_cell_setting 'triclinic'
loop_
_space_group_symop_operation_xyz
x,y,z
-x,-y,-z
loop_
_atom_site_type_symbol
_atom_site_label
_atom_site_fract_x
_atom_site_fract_y
_atom_site_fract_z
Si Si1 0.329087 0.054720 0.992886
Si Si2 0.284751 0.739420 0.727848
Si Si3 0.414298 0.398627 0.718123
Si Si4 0.055920 0.805518 0.426268
Si Si5 0.727681 0.425738 0.798049
Si Si6 0.407495 0.302571 0.338344
Si Si7 0.214725 0.309956 0.837370
O O1 0.312300 0.171010 0.189070
O O2 0.251233 0.150998 0.870979
O O3 0.500000 0.000000 0.000000
O O4 0.260025 0.896770 0.907617
O O5 0.315978 0.582280 0.764424
O O6 0.137461 0.750711 0.583162
O O7 0.422446 0.744494 0.674113
O O8 0.585374 0.394336 0.817237
O O9 0.401723 0.307939 0.514124
O O10 0.352716 0.304943 0.777867
O O11 0.163877 0.743839 0.295181
O O12 0.927308 0.704704 0.319248
O O13 0.000000 0.000000 0.500000
O O14 0.668076 0.523840 0.674703
O O15 0.812990 0.527863 0.989012
#
# Coordination Sequence:
#
# PCOD8040505 Si02
#       7
#     2   2   2   2   2   2   2
#     4   9  19  36  58  84 115 155 197 235 282 351
#     4  10  18  37  60  83 116 162 192 234 289 352
#     4  11  20  38  65  92 114 146 202 253 287 327
#     4  12  22  38  60  85 123 159 197 230 289 365
#     4  10  20  40  60  85 117 159 199 234 286 357
#     4   9  17  35  64  84 109 157 204 234 281 351
#     4  11  24  36  60  96 117 148 196 250 295 333
#
# _framework density 20.332877
#
# number of rings (size 3 to 8) (size 9 to 14) (size 15 to 20)
#    0.000    1.714    4.286    2.571    0.000    0.571 
#    0.000    7.857    0.000    1.714    0.000    0.000 
#    0.000    0.000    0.000    0.000    0.000    0.000 
#
# Total GULP energy -173566.722072 kJ/mol
# GULP energy per Si atom -12397.623005 kJ/mol
# Density = 2.028660 g / cm^3
# Si number density = 20.332877 Si / 1000 Ang^3
#
#
#
# Elastic Constant Matrix: (Units=GPa)
#
#
# Indices 1 2 3 4 5 6 
#
# 1 67.2774 26.5736 23.9596 11.1360 21.5046 -10.1332
# 2 26.5736 74.6028 31.5810 25.6086 5.6988 -13.4184
# 3 23.9596 31.5810 94.9593 20.6405 28.1742 0.1990
# 4 11.1360 25.6086 20.6405 26.0033 0.0837 0.4702
# 5 21.5046 5.6988 28.1742 0.0837 35.9321 -0.7455
# 6 -10.1332 -13.4184 0.1990 0.4702 -0.7455 23.3931
#
#
#
# Elastic Compliance Matrix: (Units=1/GPa)
#
#
# Indices 1 2 3 4 5 6 
#
# 1 0.022548 -0.003775 0.001072 -0.006877 -0.013569 0.007298
# 2 -0.003775 0.025945 -0.003357 -0.021522 0.001112 0.013743
# 3 0.001072 -0.003357 0.018123 -0.011460 -0.014331 -0.001842
# 4 -0.006877 -0.021522 -0.011460 0.071934 0.016012 -0.016162
# 5 -0.013569 0.001112 -0.014331 0.016012 0.046892 -0.003945
# 6 0.007298 0.013743 -0.001842 -0.016162 -0.003945 0.054007
#
#
# Mechanical properties :
#
#
# Convention : Reuss Voigt Hill
#
# Bulk Modulus (GPa) = 18.35014 44.56310 31.45662
# Shear Modulus (GPa) = 18.53667 27.38071 22.95869
#
# Velocity S-wave (km/s) = 3.02265 3.67362 3.36392
# Velocity P-wave (km/s) = 4.60720 6.32126 5.53103
#
# Compressibility (1/GPa) = 0.05449550
#
# Stress axis : x y z
#
# Youngs Moduli (GPa) = 44.34969 38.54336 55.17699
#
# Poissons Ratio (x) = 0.14552 -0.05914
# Poissons Ratio (y) = 0.16744 0.18521
# Poissons Ratio (z) = -0.04753 0.12938
#
# Static dielectric constant tensor:
#      x y z
#    x 3.366650 -0.119830 0.301880 
#    y -0.119830 3.638690 0.505030 
#    z 0.301880 0.505030 4.165770 
# 
# 
# High freq. dielectric constant tensor:
#      x y z
#    x 1.756500 -0.016150 0.024970 
#    y -0.016150 1.782770 0.020130 
#    z 0.024970 0.020130 1.816210 
# 
# From -- ./inp_files/159912.got.cif
#   From: 2010.06.25/outbox.cif.g09.slc.cpg/sg2_80_cif.got.tgz:159912.got - 2010.06.27 13:26:56.
