data_PCOD8040186
_publ_section_title
;
Structure prediction by ZEFSAII (Michael W. Deem and Ramdas Pophale) SiO2 
 PCOD8040186
Probable space group: P -1
;
_chemical_formula_sum "Si O2"
_cell_formula_units_Z 10
_cell_length_a 9.010347
_cell_length_b 15.345600
_cell_length_c 10.050438
_cell_angle_alpha 37.682329
_cell_angle_beta 46.577373
_cell_angle_gamma 36.263567
_cell_volume 497.783382
_symmetry_space_group_name_H-M "P -1"
_symmetry_group_IT_number 2
_symmetry_cell_setting 'triclinic'
loop_
_space_group_symop_operation_xyz
x,y,z
-x,-y,-z
loop_
_atom_site_type_symbol
_atom_site_label
_atom_site_fract_x
_atom_site_fract_y
_atom_site_fract_z
Si Si1 0.110533 0.923785 0.309325
Si Si2 0.494490 0.886715 0.927181
Si Si3 0.764952 0.867850 0.426484
Si Si4 0.051635 0.770328 0.784351
Si Si5 0.214430 0.406237 0.092340
O O1 0.379572 0.866736 0.155613
O O2 0.966886 0.901399 0.308105
O O3 0.169656 0.796235 0.550379
O O4 0.938023 0.127553 0.219924
O O5 0.757923 0.854755 0.835443
O O6 0.534205 0.748699 0.954530
O O7 0.290948 0.086094 0.752225
O O8 0.858887 0.670723 0.648153
O O9 0.500000 0.000000 0.500000
O O10 0.226676 0.560147 0.961155
O O11 0.000000 0.500000 0.000000
#
# Coordination Sequence:
#
# PCOD8040186 Si02
#       5
#     2   2   2   2   2
#     4  11  20  34  60  78 105 143 179 210 269 314
#     4  10  20  35  59  78 105 141 181 213 258 320
#     4  10  18  36  57  76 107 143 175 215 263 314
#     4  10  21  37  54  81 110 136 174 225 261 307
#     4   9  17  36  55  76 110 138 171 223 259 305
#
# _framework density 20.089058999999999
#
# number of rings (size 3 to 8) (size 9 to 14) (size 15 to 20)
#    0.000    2.000    6.000    1.200    0.000    0.800 
#    0.000    5.000    0.000    0.000    0.000    0.000 
#    0.000    0.000    0.000    0.000    0.000    0.000 
#
# Total GULP energy -123912.621315 kJ/mol
# GULP energy per Si atom -12391.262131 kJ/mol
# Density = 2.004334 g / cm^3
# Si number density = 20.089059 Si / 1000 Ang^3
#
#
#
# Elastic Constant Matrix: (Units=GPa)
#
#
# Indices 1 2 3 4 5 6 
#
# 1 25.6098 7.7785 37.6726 -3.9994 -0.2925 6.2877
# 2 7.7785 57.9593 62.5847 -8.3369 -3.8206 9.1452
# 3 37.6726 62.5847 162.4463 -1.8529 -9.7658 0.0806
# 4 -3.9994 -8.3369 -1.8529 47.7122 0.2900 -8.2776
# 5 -0.2925 -3.8206 -9.7658 0.2900 20.6827 -9.2768
# 6 6.2877 9.1452 0.0806 -8.2776 -9.2768 21.1503
#
#
#
# Elastic Compliance Matrix: (Units=1/GPa)
#
#
# Indices 1 2 3 4 5 6 
#
# 1 0.102993 0.038029 -0.040816 0.003029 -0.039016 -0.062834
# 2 0.038029 0.048864 -0.028930 0.003675 -0.022409 -0.040715
# 3 -0.040816 -0.028930 0.028084 -0.001667 0.022502 0.033754
# 4 0.003029 0.003675 -0.001667 0.023155 0.003188 0.007977
# 5 -0.039016 -0.022409 0.022502 0.003188 0.080059 0.057565
# 6 -0.062834 -0.040715 0.033754 0.007977 0.057565 0.111808
#
#
# Mechanical properties :
#
#
# Convention : Reuss Voigt Hill
#
# Bulk Modulus (GPa) = 8.58314 51.34302 29.96308
# Shear Modulus (GPa) = 10.05569 27.10767 18.58168
#
# Velocity S-wave (km/s) = 2.23974 3.67737 3.04462
# Velocity P-wave (km/s) = 3.31216 6.60635 5.22562
#
# Compressibility (1/GPa) = 0.11650755
#
# Stress axis : x y z
#
# Youngs Moduli (GPa) = 9.70944 20.46491 35.60729
#
# Poissons Ratio (x) = -0.77827 1.45335
# Poissons Ratio (y) = -0.36924 1.03012
# Poissons Ratio (z) = 0.39630 0.59205
#
# Static dielectric constant tensor:
#      x y z
#    x 3.772650 0.131860 0.203950 
#    y 0.131860 3.951930 -0.633960 
#    z 0.203950 -0.633960 4.624180 
# 
# 
# High freq. dielectric constant tensor:
#      x y z
#    x 1.759100 0.004460 -0.005350 
#    y 0.004460 1.756100 -0.007950 
#    z -0.005350 -0.007950 1.800220 
# 
# From -- ./inp_files/75255.got.cif
#   From: 2010.06.25/outbox.cif.g09.slc.cpg/sg2_38_cif.got.tgz:75255.got - 2010.06.27 13:26:56.
