data_PCOD8040230
_publ_section_title
;
Structure prediction by ZEFSAII (Michael W. Deem and Ramdas Pophale) SiO2 
 PCOD8040230
Probable space group: P -1
;
_chemical_formula_sum "Si O2"
_cell_formula_units_Z 16
_cell_length_a 16.737774
_cell_length_b 19.993742
_cell_length_c 16.112184
_cell_angle_alpha 163.259938
_cell_angle_beta 148.081889
_cell_angle_gamma 34.189564
_cell_volume 817.452030
_symmetry_space_group_name_H-M "P -1"
_symmetry_group_IT_number 2
_symmetry_cell_setting 'triclinic'
loop_
_space_group_symop_operation_xyz
x,y,z
-x,-y,-z
loop_
_atom_site_type_symbol
_atom_site_label
_atom_site_fract_x
_atom_site_fract_y
_atom_site_fract_z
Si Si1 0.510958 0.947348 0.820097
Si Si2 0.670406 0.695594 0.806714
Si Si3 0.145341 0.792406 0.815626
Si Si4 0.424577 0.734504 0.876782
Si Si5 0.696518 0.469017 0.872941
Si Si6 0.051510 0.753322 0.860020
Si Si7 0.917490 0.399032 0.117395
Si Si8 0.998395 0.241229 0.832248
O O1 0.641593 0.870292 0.910207
O O2 0.405950 0.744453 0.469426
O O3 0.408956 0.179930 0.035651
O O4 0.590132 0.014687 0.883570
O O5 0.599895 0.455519 0.441387
O O6 0.849709 0.640972 0.917467
O O7 0.304830 0.714955 0.821693
O O8 0.170203 0.805302 0.953129
O O9 0.025207 0.605587 0.470767
O O10 0.087641 0.045896 0.029918
O O11 0.594067 0.694159 0.016880
O O12 0.844330 0.406465 0.868622
O O13 0.757557 0.513402 0.073007
O O14 0.118272 0.745777 0.003376
O O15 0.000000 0.500000 0.500000
O O16 0.993487 0.213462 0.895884
O O17 0.000000 0.000000 0.500000
#
# Coordination Sequence:
#
# PCOD8040230 Si02
#       8
#     2   2   2   2   2   2   2   2
#     4  10  21  33  54  76 114 154 185 229 275 320
#     4  10  19  37  52  78 110 147 198 231 262 326
#     4  10  20  36  61  87 110 138 187 239 276 340
#     4  11  21  34  53  82 113 147 183 227 285 327
#     4   9  21  35  51  81 115 146 186 230 265 333
#     4   9  20  37  61  88 107 136 186 237 286 333
#     4   9  19  37  59  82 113 148 185 234 280 321
#     4  10  18  36  59  79 114 155 189 231 269 312
#
# _framework density 19.573014000000001
#
# number of rings (size 3 to 8) (size 9 to 14) (size 15 to 20)
#    0.750    1.500    2.500    0.375    1.750    2.000 
#    0.000    2.500    0.000    7.500    0.000    0.000 
#    0.000    0.000    0.000    0.000    0.000    0.000 
#
# Total GULP energy -198218.926640 kJ/mol
# GULP energy per Si atom -12388.682915 kJ/mol
# Density = 1.952847 g / cm^3
# Si number density = 19.573014 Si / 1000 Ang^3
#
#
#
# Elastic Constant Matrix: (Units=GPa)
#
#
# Indices 1 2 3 4 5 6 
#
# 1 76.7163 29.4335 24.9861 -3.3709 1.5891 7.4349
# 2 29.4335 83.4909 31.3296 -4.4977 12.3209 -1.1900
# 3 24.9861 31.3296 48.8292 1.0006 -2.8300 4.8927
# 4 -3.3709 -4.4977 1.0006 28.1104 0.1964 3.2322
# 5 1.5891 12.3209 -2.8300 0.1964 29.6947 -2.2824
# 6 7.4349 -1.1900 4.8927 3.2322 -2.2824 31.3721
#
#
#
# Elastic Compliance Matrix: (Units=1/GPa)
#
#
# Indices 1 2 3 4 5 6 
#
# 1 0.016787 -0.003554 -0.006026 0.002052 -0.000273 -0.003405
# 2 -0.003554 0.018809 -0.011037 0.002763 -0.008502 0.002374
# 3 -0.006026 -0.011037 0.031458 -0.003318 0.007692 -0.002995
# 4 0.002052 0.002763 -0.003318 0.036833 -0.002109 -0.003812
# 5 -0.000273 -0.008502 0.007692 -0.002109 0.038083 0.001531
# 6 -0.003405 0.002374 -0.002995 -0.003812 0.001531 0.033744
#
#
# Mechanical properties :
#
#
# Convention : Reuss Voigt Hill
#
# Bulk Modulus (GPa) = 38.72949 42.28165 40.50557
# Shear Modulus (GPa) = 22.16744 26.05458 24.11101
#
# Velocity S-wave (km/s) = 3.36899 3.65245 3.51358
# Velocity P-wave (km/s) = 5.91300 6.27982 6.09917
#
# Compressibility (1/GPa) = 0.02582012
#
# Stress axis : x y z
#
# Youngs Moduli (GPa) = 59.56893 53.16567 31.78800
#
# Poissons Ratio (x) = 0.18897 0.19156
# Poissons Ratio (y) = 0.21173 0.35083
# Poissons Ratio (z) = 0.35898 0.58677
#
# Static dielectric constant tensor:
#      x y z
#    x 3.692860 0.160730 -0.145040 
#    y 0.160730 3.716160 -0.066850 
#    z -0.145040 -0.066850 3.394590 
# 
# 
# High freq. dielectric constant tensor:
#      x y z
#    x 1.757250 0.003740 -0.005040 
#    y 0.003740 1.750640 -0.001400 
#    z -0.005040 -0.001400 1.749420 
# 
# From -- ./inp_files/535126.got.cif
#   From: 2010.06.25/outbox.cif.g09.slc.cpg/sg2_268_cif.got.tgz:535126.got - 2010.06.27 13:26:56.
