data_PCOD8040079
_publ_section_title
;
Structure prediction by ZEFSAII (Michael W. Deem and Ramdas Pophale) SiO2 
 PCOD8040079
Probable space group: P -1
;
_chemical_formula_sum "Si O2"
_cell_formula_units_Z 16
_cell_length_a 11.972729
_cell_length_b 18.711349
_cell_length_c 17.982277
_cell_angle_alpha 36.172505
_cell_angle_beta 159.838191
_cell_angle_gamma 133.398283
_cell_volume 768.422942
_symmetry_space_group_name_H-M "P -1"
_symmetry_group_IT_number 2
_symmetry_cell_setting 'triclinic'
loop_
_space_group_symop_operation_xyz
x,y,z
-x,-y,-z
loop_
_atom_site_type_symbol
_atom_site_label
_atom_site_fract_x
_atom_site_fract_y
_atom_site_fract_z
Si Si1 0.849130 0.673528 0.575417
Si Si2 0.586289 0.975163 0.659885
Si Si3 0.709514 0.506516 0.871672
Si Si4 0.466665 0.901266 0.918452
Si Si5 0.823164 0.111535 0.404304
Si Si6 0.495135 0.336467 0.775397
Si Si7 0.347446 0.865455 0.199250
Si Si8 0.697673 0.771851 0.643709
O O1 0.754950 0.606448 0.499655
O O2 0.479704 0.748738 0.320985
O O3 0.016802 0.779425 0.569716
O O4 0.120332 0.566122 0.885688
O O5 0.523537 0.115799 0.535178
O O6 0.500000 0.000000 0.500000
O O7 0.356474 0.906947 0.616358
O O8 0.981449 0.878917 0.995062
O O9 0.451656 0.444924 0.721430
O O10 0.532301 0.659238 0.648842
O O11 0.000000 0.500000 0.000000
O O12 0.438742 0.849264 0.861740
O O13 0.688180 0.996318 0.975836
O O14 0.637939 0.774115 0.181812
O O15 0.103608 0.975843 0.669051
O O16 0.891482 0.279285 0.042597
O O17 0.643012 0.827797 0.478712
#
# Coordination Sequence:
#
# PCOD8040079 Si02
#       8
#     2   2   2   2   2   2   2   2
#     4  11  22  38  65  98 121 159 211 263 305 365
#     4  12  25  39  59  96 131 166 202 252 318 377
#     4  10  21  39  61  91 126 159 208 262 312 351
#     4  10  18  35  63  87 124 158 204 258 310 366
#     4  10  20  37  60  88 128 162 200 255 315 365
#     4  11  20  36  63  94 122 157 206 259 314 356
#     4  11  22  37  62  92 124 166 203 247 322 373
#     4  11  21  41  59  86 129 162 203 254 304 373
#
# _framework density 20.821867000000001
#
# number of rings (size 3 to 8) (size 9 to 14) (size 15 to 20)
#    0.000    1.250    6.250    1.875    1.750    3.000 
#    2.250    0.000    0.000    3.750    0.000    0.000 
#    0.000    0.000    0.000    0.000    0.000    0.000 
#
# Total GULP energy -198316.852386 kJ/mol
# GULP energy per Si atom -12394.803274 kJ/mol
# Density = 2.077448 g / cm^3
# Si number density = 20.821867 Si / 1000 Ang^3
#
#
#
# Elastic Constant Matrix: (Units=GPa)
#
#
# Indices 1 2 3 4 5 6 
#
# 1 102.3363 36.3219 40.4368 0.1846 -21.6787 10.4270
# 2 36.3219 99.8907 38.6351 -20.4558 -15.2119 -1.8664
# 3 40.4368 38.6351 57.2266 1.2995 -16.8553 -7.5394
# 4 0.1846 -20.4558 1.2995 30.4177 -4.6638 -1.5290
# 5 -21.6787 -15.2119 -16.8553 -4.6638 39.1517 10.9183
# 6 10.4270 -1.8664 -7.5394 -1.5290 10.9183 30.6535
#
#
#
# Elastic Compliance Matrix: (Units=1/GPa)
#
#
# Indices 1 2 3 4 5 6 
#
# 1 0.017098 -0.001155 -0.010534 0.000176 0.007624 -0.011184
# 2 -0.001155 0.017667 -0.010546 0.012817 0.003716 -0.001810
# 3 -0.010534 -0.010546 0.033832 -0.007827 0.000744 0.010607
# 4 0.000176 0.012817 -0.007827 0.042861 0.007276 -0.001658
# 5 0.007624 0.003716 0.000744 0.007276 0.036530 -0.014833
# 6 -0.011184 -0.001810 0.010607 -0.001658 -0.014833 0.044126
#
#
# Mechanical properties :
#
#
# Convention : Reuss Voigt Hill
#
# Bulk Modulus (GPa) = 41.44745 54.47123 47.95934
# Shear Modulus (GPa) = 20.43928 29.64856 25.04392
#
# Velocity S-wave (km/s) = 3.13649 3.77757 3.47186
# Velocity P-wave (km/s) = 5.75028 6.72638 6.25739
#
# Compressibility (1/GPa) = 0.02412694
#
# Stress axis : x y z
#
# Youngs Moduli (GPa) = 58.48584 56.60401 29.55745
#
# Poissons Ratio (x) = 0.06536 0.31136
# Poissons Ratio (y) = 0.06753 0.31172
# Poissons Ratio (z) = 0.61610 0.59696
#
# Static dielectric constant tensor:
#      x y z
#    x 3.245630 0.295880 -0.546240 
#    y 0.295880 4.325840 -0.049550 
#    z -0.546240 -0.049550 3.344920 
# 
# 
# High freq. dielectric constant tensor:
#      x y z
#    x 1.802400 -0.001260 -0.028500 
#    y -0.001260 1.820890 -0.006430 
#    z -0.028500 -0.006430 1.784090 
# 
# From -- ./inp_files/570741.got.cif
#   From: 2010.06.25/outbox.cif.g09.slc.cpg/sg2_286_cif.got.tgz:570741.got - 2010.06.27 13:26:56.
