data_PCOD8040747
_publ_section_title
;
Structure prediction by ZEFSAII (Michael W. Deem and Ramdas Pophale) SiO2 
 PCOD8040747
Probable space group: P -1
;
_chemical_formula_sum "Si O2"
_cell_formula_units_Z 16
_cell_length_a 14.691463
_cell_length_b 15.595165
_cell_length_c 12.219761
_cell_angle_alpha 122.144307
_cell_angle_beta 149.016291
_cell_angle_gamma 37.836289
_cell_volume 785.346393
_symmetry_space_group_name_H-M "P -1"
_symmetry_group_IT_number 2
_symmetry_cell_setting 'triclinic'
loop_
_space_group_symop_operation_xyz
x,y,z
-x,-y,-z
loop_
_atom_site_type_symbol
_atom_site_label
_atom_site_fract_x
_atom_site_fract_y
_atom_site_fract_z
Si Si1 0.173312 0.867159 0.680354
Si Si2 0.882148 0.880128 0.778483
Si Si3 0.093467 0.669248 0.421378
Si Si4 0.603318 0.798949 0.405129
Si Si5 0.620420 0.801050 0.177346
Si Si6 0.456461 0.689174 0.328205
Si Si7 0.372584 0.097041 0.047476
Si Si8 0.245343 0.943022 0.443774
O O1 0.186978 0.742156 0.589615
O O2 0.485494 0.771816 0.943958
O O3 0.000000 0.000000 0.500000
O O4 0.042228 0.949365 0.719376
O O5 0.812281 0.792458 0.662001
O O6 0.710583 0.023579 0.785159
O O7 0.793490 0.951283 0.613322
O O8 0.203027 0.757352 0.043268
O O9 0.361540 0.483458 0.560596
O O10 0.904072 0.713318 0.355833
O O11 0.937140 0.733569 0.186186
O O12 0.676575 0.738098 0.315060
O O13 0.640290 0.682165 0.436806
O O14 0.399833 0.990758 0.086541
O O15 0.348136 0.794506 0.394870
O O16 0.534681 0.120953 0.280413
O O17 0.500000 0.000000 0.000000
#
# Coordination Sequence:
#
# PCOD8040747 Si02
#       8
#     2   2   2   2   2   2   2   2
#     4  12  21  37  68  88 112 163 219 252 297 361
#     4  10  20  39  63  91 127 161 211 249 298 367
#     4  11  24  42  57  94 133 160 195 261 315 361
#     4  10  20  37  65  93 114 169 213 247 296 365
#     4  11  20  37  66  90 118 159 217 257 290 356
#     4  11  25  40  60  92 140 157 194 254 320 372
#     4  10  18  38  64  84 117 155 207 256 290 352
#     4  11  20  41  67  92 116 167 209 256 303 357
#
# _framework density 20.373176000000001
#
# number of rings (size 3 to 8) (size 9 to 14) (size 15 to 20)
#    0.000    1.250    5.000    3.750    0.000    2.000 
#    0.000    5.000    0.000    0.000    0.000    0.000 
#    0.000    0.000    0.000    0.000    0.000    0.000 
#
# Total GULP energy -198401.471689 kJ/mol
# GULP energy per Si atom -12400.091981 kJ/mol
# Density = 2.032681 g / cm^3
# Si number density = 20.373176 Si / 1000 Ang^3
#
#
#
# Elastic Constant Matrix: (Units=GPa)
#
#
# Indices 1 2 3 4 5 6 
#
# 1 55.1315 24.7922 8.3800 3.6957 1.0303 8.6262
# 2 24.7922 115.3262 53.3358 -5.3054 1.9848 18.3932
# 3 8.3800 53.3358 102.7332 8.5679 0.7150 5.9134
# 4 3.6957 -5.3054 8.5679 26.3938 3.7288 2.3749
# 5 1.0303 1.9848 0.7150 3.7288 29.4820 11.3876
# 6 8.6262 18.3932 5.9134 2.3749 11.3876 21.3740
#
#
#
# Elastic Compliance Matrix: (Units=1/GPa)
#
#
# Indices 1 2 3 4 5 6 
#
# 1 0.021066 -0.004382 0.001213 -0.004023 0.002295 -0.005842
# 2 -0.004382 0.015134 -0.007416 0.006686 0.002909 -0.011496
# 3 0.001213 -0.007416 0.013854 -0.006390 -0.000177 0.002863
# 4 -0.004023 0.006686 -0.006390 0.042842 -0.003553 -0.005230
# 5 0.002295 0.002909 -0.000177 -0.003553 0.044383 -0.026632
# 6 -0.005842 -0.011496 0.002863 -0.005230 -0.026632 0.073014
#
#
# Mechanical properties :
#
#
# Convention : Reuss Voigt Hill
#
# Bulk Modulus (GPa) = 34.62245 49.57857 42.10051
# Shear Modulus (GPa) = 20.73907 27.89549 24.31728
#
# Velocity S-wave (km/s) = 3.19401 3.70432 3.45859
# Velocity P-wave (km/s) = 5.53473 6.53330 6.05464
#
# Compressibility (1/GPa) = 0.02888299
#
# Stress axis : x y z
#
# Youngs Moduli (GPa) = 47.47081 66.07811 72.17946
#
# Poissons Ratio (x) = 0.28957 -0.08752
# Poissons Ratio (y) = 0.20803 0.53525
# Poissons Ratio (z) = -0.05756 0.49001
#
# Static dielectric constant tensor:
#      x y z
#    x 3.823660 0.234190 -0.055180 
#    y 0.234190 3.548930 0.058130 
#    z -0.055180 0.058130 3.782640 
# 
# 
# High freq. dielectric constant tensor:
#      x y z
#    x 1.797080 0.015850 -0.000940 
#    y 0.015850 1.770740 0.021720 
#    z -0.000940 0.021720 1.800240 
# 
# From -- ./inp_files/433575.got.cif
#   From: 2010.06.25/outbox.cif.g09.slc.cpg/sg2_217_cif.got.tgz:433575.got - 2010.06.27 13:26:56.
