data_PCOD8040629
_publ_section_title
;
Structure prediction by ZEFSAII (Michael W. Deem and Ramdas Pophale) SiO2 
 PCOD8040629
Probable space group: P -1
;
_chemical_formula_sum "Si O2"
_cell_formula_units_Z 16
_cell_length_a 22.821631
_cell_length_b 14.295126
_cell_length_c 14.493722
_cell_angle_alpha 28.981452
_cell_angle_beta 28.940492
_cell_angle_gamma 20.229839
_cell_volume 749.436680
_symmetry_space_group_name_H-M "P -1"
_symmetry_group_IT_number 2
_symmetry_cell_setting 'triclinic'
loop_
_space_group_symop_operation_xyz
x,y,z
-x,-y,-z
loop_
_atom_site_type_symbol
_atom_site_label
_atom_site_fract_x
_atom_site_fract_y
_atom_site_fract_z
Si Si1 0.189623 0.877007 0.356346
Si Si2 0.920915 0.767677 0.131665
Si Si3 0.430472 0.367684 0.729539
Si Si4 0.181665 0.215127 0.944289
Si Si5 0.194814 0.125980 0.311782
Si Si6 0.896475 0.070846 0.234755
Si Si7 0.841112 0.814916 0.403988
Si Si8 0.571539 0.739669 0.374132
O O1 0.353446 0.536688 0.437824
O O2 0.160039 0.057139 0.325119
O O3 0.000000 0.000000 0.500000
O O4 0.236925 0.942972 0.143352
O O5 0.826159 0.804560 0.137978
O O6 0.817729 0.824139 0.318103
O O7 0.109725 0.436439 0.161367
O O8 0.936510 0.983919 0.925994
O O9 0.500000 0.500000 0.500000
O O10 0.268319 0.584173 0.836908
O O11 0.359093 0.353815 0.745886
O O12 0.596845 0.057525 0.810736
O O13 0.344460 0.170463 0.773557
O O14 0.000000 0.500000 0.000000
O O15 0.120315 0.079178 0.537132
O O16 0.898994 0.965602 0.222205
O O17 0.000000 0.500000 0.500000
O O18 0.644785 0.994902 0.559529
#
# Coordination Sequence:
#
# PCOD8040629 Si02
#       8
#     2   2   2   2   2   2   2   2
#     4  12  22  40  69  99 137 173 214 275 335 391
#     4  12  25  42  65  93 134 177 225 268 321 400
#     4  10  18  37  65  97 130 159 214 280 341 392
#     4  12  25  43  67 104 131 174 226 270 335 398
#     4  11  20  38  63  99 129 169 212 271 348 385
#     4  11  21  41  66  95 131 166 218 275 335 391
#     4  12  25  48  69  95 135 181 224 273 334 391
#     4  12  23  45  68  97 141 172 219 280 330 397
#
# _framework density 21.349368999999999
#
# number of rings (size 3 to 8) (size 9 to 14) (size 15 to 20)
#    0.000    0.500    8.750    1.875    0.000    1.000 
#    9.000    0.625    0.000    0.000    0.000    0.000 
#    0.000    0.000    0.000    0.000    0.000    0.000 
#
# Total GULP energy -198304.909702 kJ/mol
# GULP energy per Si atom -12394.056856 kJ/mol
# Density = 2.130078 g / cm^3
# Si number density = 21.349369 Si / 1000 Ang^3
#
#
#
# Elastic Constant Matrix: (Units=GPa)
#
#
# Indices 1 2 3 4 5 6 
#
# 1 167.5096 35.8235 41.7516 -3.8569 -6.2637 12.2008
# 2 35.8235 105.5161 27.0706 -11.8836 -1.8068 -3.5974
# 3 41.7516 27.0706 77.8927 -13.7072 -10.8843 3.4207
# 4 -3.8569 -11.8836 -13.7072 23.1591 -3.0974 2.6857
# 5 -6.2637 -1.8068 -10.8843 -3.0974 44.1443 2.4326
# 6 12.2008 -3.5974 3.4207 2.6857 2.4326 30.5419
#
#
#
# Elastic Compliance Matrix: (Units=1/GPa)
#
#
# Indices 1 2 3 4 5 6 
#
# 1 0.007393 -0.001882 -0.003416 -0.001422 0.000178 -0.002682
# 2 -0.001882 0.011208 -0.002341 0.003787 -0.000231 0.002020
# 3 -0.003416 -0.002341 0.017935 0.009714 0.004641 -0.002144
# 4 -0.001422 0.003787 0.009714 0.052074 0.006286 -0.005154
# 5 0.000178 -0.000231 0.004641 0.006286 0.024426 -0.003116
# 6 -0.002682 0.002020 -0.002144 -0.005154 -0.003116 0.034993
#
#
# Mechanical properties :
#
#
# Convention : Reuss Voigt Hill
#
# Bulk Modulus (GPa) = 47.04181 62.24553 54.64367
# Shear Modulus (GPa) = 29.34383 35.98723 32.66553
#
# Velocity S-wave (km/s) = 3.71139 4.11010 3.91582
# Velocity P-wave (km/s) = 6.35988 7.19325 6.78936
#
# Compressibility (1/GPa) = 0.02125769
#
# Stress axis : x y z
#
# Youngs Moduli (GPa) = 135.26263 89.22036 55.75653
#
# Poissons Ratio (x) = 0.16792 0.19048
# Poissons Ratio (y) = 0.25457 0.13053
# Poissons Ratio (z) = 0.46210 0.20887
#
# Static dielectric constant tensor:
#      x y z
#    x 4.133950 -0.005230 -0.015660 
#    y -0.005230 4.037750 -0.132530 
#    z -0.015660 -0.132530 3.826400 
# 
# 
# High freq. dielectric constant tensor:
#      x y z
#    x 1.853500 0.003240 -0.008580 
#    y 0.003240 1.820890 -0.015990 
#    z -0.008580 -0.015990 1.835430 
# 
# From -- ./inp_files/543002.got.cif
#   From: 2010.06.25/outbox.cif.g09.slc.cpg/sg2_272_cif.got.tgz:543002.got - 2010.06.27 13:26:56.
