data_PCOD8040993
_publ_section_title
;
Structure prediction by ZEFSAII (Michael W. Deem and Ramdas Pophale) SiO2 
 PCOD8040993
Probable space group: P -1
;
_chemical_formula_sum "Si O2"
_cell_formula_units_Z 16
_cell_length_a 10.244569
_cell_length_b 16.561397
_cell_length_c 6.723794
_cell_angle_alpha 90.744915
_cell_angle_beta 43.065781
_cell_angle_gamma 77.809515
_cell_volume 737.109290
_symmetry_space_group_name_H-M "P -1"
_symmetry_group_IT_number 2
_symmetry_cell_setting 'triclinic'
loop_
_space_group_symop_operation_xyz
x,y,z
-x,-y,-z
loop_
_atom_site_type_symbol
_atom_site_label
_atom_site_fract_x
_atom_site_fract_y
_atom_site_fract_z
Si Si1 0.792471 0.071467 0.274680
Si Si2 0.439530 0.071755 0.903209
Si Si3 0.768081 0.556106 0.724232
Si Si4 0.995581 0.851810 0.657536
Si Si5 0.765858 0.205587 0.984425
Si Si6 0.570326 0.479171 0.641540
Si Si7 0.220252 0.708623 0.639915
Si Si8 0.543306 0.744527 0.014997
O O1 0.602813 0.041259 0.543290
O O2 0.828819 0.117289 0.438795
O O3 0.729013 0.131137 0.155177
O O4 0.000000 0.000000 0.000000
O O5 0.397405 0.169295 0.029791
O O6 0.220270 0.076149 0.062755
O O7 0.500000 0.000000 0.000000
O O8 0.682483 0.543848 0.600509
O O9 0.000000 0.500000 0.500000
O O10 0.630329 0.520120 0.019491
O O11 0.736549 0.657271 0.789767
O O12 0.038058 0.835552 0.374800
O O13 0.016168 0.763935 0.751472
O O14 0.576259 0.251523 0.058554
O O15 0.805326 0.274523 0.093498
O O16 0.500000 0.500000 0.500000
O O17 0.746421 0.388352 0.451011
O O18 0.411072 0.735415 0.351107
#
# Coordination Sequence:
#
# PCOD8040993 Si02
#       8
#     2   2   2   2   2   2   2   2
#     4  11  24  43  64  88 123 163 207 265 317 366
#     4  12  25  42  63  94 125 164 211 260 310 370
#     4  10  23  41  66  95 131 172 210 262 325 380
#     4  10  23  41  63  91 124 162 209 256 311 377
#     4  10  18  41  66  85 122 172 203 253 320 368
#     4  10  21  40  66  97 128 165 216 263 314 386
#     4   9  19  40  65  91 126 168 203 256 317 370
#     4  10  21  42  63  90 131 166 205 262 315 370
#
# _framework density 21.706416000000001
#
# number of rings (size 3 to 8) (size 9 to 14) (size 15 to 20)
#    0.000    1.750    3.750    1.500    3.500    3.000 
#    4.500    0.000    0.000    0.000    0.000    0.000 
#    0.000    0.000    0.000    0.000    0.000    0.000 
#
# Total GULP energy -198272.355104 kJ/mol
# GULP energy per Si atom -12392.022194 kJ/mol
# Density = 2.165701 g / cm^3
# Si number density = 21.706416 Si / 1000 Ang^3
#
#
#
# Elastic Constant Matrix: (Units=GPa)
#
#
# Indices 1 2 3 4 5 6 
#
# 1 86.9885 11.9149 45.5159 -1.9530 7.4389 -23.0364
# 2 11.9149 93.5877 21.0683 11.4784 -7.6971 -13.0463
# 3 45.5159 21.0683 117.1048 12.8178 5.0821 -16.8407
# 4 -1.9530 11.4784 12.8178 29.3569 -6.3559 -6.1656
# 5 7.4389 -7.6971 5.0821 -6.3559 41.9490 11.5713
# 6 -23.0364 -13.0463 -16.8407 -6.1656 11.5713 35.5705
#
#
#
# Elastic Compliance Matrix: (Units=1/GPa)
#
#
# Indices 1 2 3 4 5 6 
#
# 1 0.018067 -0.000487 -0.005653 0.005172 -0.004957 0.011355
# 2 -0.000487 0.011890 -0.001286 -0.003336 0.001241 0.002455
# 3 -0.005653 -0.001286 0.011768 -0.005156 -0.001748 0.001114
# 4 0.005172 -0.003336 -0.005156 0.039889 0.003646 0.005413
# 5 -0.004957 0.001241 -0.001748 0.003646 0.029138 -0.012429
# 6 0.011355 0.002455 0.001114 0.005413 -0.012429 0.041876
#
#
# Mechanical properties :
#
#
# Convention : Reuss Voigt Hill
#
# Bulk Modulus (GPa) = 37.20916 50.51991 43.86454
# Shear Modulus (GPa) = 28.33857 35.98739 32.16298
#
# Velocity S-wave (km/s) = 3.61714 4.07617 3.85350
# Velocity P-wave (km/s) = 5.88423 6.74375 6.32860
#
# Compressibility (1/GPa) = 0.02687510
#
# Stress axis : x y z
#
# Youngs Moduli (GPa) = 55.34859 84.10437 84.97508
#
# Poissons Ratio (x) = 0.04094 0.48035
# Poissons Ratio (y) = 0.02694 0.10925
# Poissons Ratio (z) = 0.31287 0.10813
#
# Static dielectric constant tensor:
#      x y z
#    x 3.824180 -0.028390 0.128290 
#    y -0.028390 3.571030 0.111320 
#    z 0.128290 0.111320 3.854960 
# 
# 
# High freq. dielectric constant tensor:
#      x y z
#    x 1.845330 -0.015290 0.012070 
#    y -0.015290 1.859220 0.021010 
#    z 0.012070 0.021010 1.847550 
# 
# From -- ./inp_files/47695.got.cif
#   From: 2010.06.25/outbox.cif.g09.slc.cpg/sg2_24_cif.got.tgz:47695.got - 2010.06.27 13:26:56.
