data_PCOD8040820
_publ_section_title
;
Structure prediction by ZEFSAII (Michael W. Deem and Ramdas Pophale) SiO2 
 PCOD8040820
Probable space group: P -1
;
_chemical_formula_sum "Si O2"
_cell_formula_units_Z 14
_cell_length_a 9.516946
_cell_length_b 19.867406
_cell_length_c 11.173147
_cell_angle_alpha 31.352052
_cell_angle_beta 126.294493
_cell_angle_gamma 142.236059
_cell_volume 649.802420
_symmetry_space_group_name_H-M "P -1"
_symmetry_group_IT_number 2
_symmetry_cell_setting 'triclinic'
loop_
_space_group_symop_operation_xyz
x,y,z
-x,-y,-z
loop_
_atom_site_type_symbol
_atom_site_label
_atom_site_fract_x
_atom_site_fract_y
_atom_site_fract_z
Si Si1 0.624921 0.760346 0.143994
Si Si2 0.775923 0.962072 0.494639
Si Si3 0.912556 0.160333 0.709882
Si Si4 0.577407 0.141323 0.726149
Si Si5 0.479958 0.632550 0.512535
Si Si6 0.485196 0.626840 0.021057
Si Si7 0.049593 0.253113 0.379559
O O1 0.438431 0.626734 0.357305
O O2 0.830514 0.756368 0.243346
O O3 0.491157 0.700579 0.040651
O O4 0.725392 0.949879 0.941143
O O5 0.638006 0.961373 0.319966
O O6 0.601022 0.771429 0.758290
O O7 0.856548 0.115292 0.393366
O O8 0.000000 0.000000 0.500000
O O9 0.820638 0.223661 0.658081
O O10 0.916919 0.219582 0.487528
O O11 0.633755 0.308444 0.559981
O O12 0.500000 0.000000 0.000000
O O13 0.769577 0.776878 0.459047
O O14 0.376156 0.442194 0.794975
O O15 0.207399 0.456789 0.107564
#
# Coordination Sequence:
#
# PCOD8040820 Si02
#       7
#     2   2   2   2   2   2   2
#     4  10  18  38  70  95 130 176 219 263 320 392
#     4  12  24  42  73  94 127 183 215 269 338 384
#     4  10  21  36  68  97 133 172 222 261 326 391
#     4  12  25  41  64 102 137 167 220 278 329 391
#     4   9  20  39  65  97 130 167 215 269 317 379
#     4  10  22  40  72  96 127 168 237 264 309 405
#     4   9  21  42  68  96 120 173 229 259 315 394
#
# _framework density 21.545010999999999
#
# number of rings (size 3 to 8) (size 9 to 14) (size 15 to 20)
#    0.857    0.857    4.286    0.429    2.000    2.857 
#    0.000    1.429    6.286    0.000    0.000    0.000 
#    0.000    0.000    0.000    0.000    0.000    0.000 
#
# Total GULP energy -173554.703711 kJ/mol
# GULP energy per Si atom -12396.764551 kJ/mol
# Density = 2.149597 g / cm^3
# Si number density = 21.545011 Si / 1000 Ang^3
#
#
#
# Elastic Constant Matrix: (Units=GPa)
#
#
# Indices 1 2 3 4 5 6 
#
# 1 145.3073 28.0951 37.0427 1.9402 -3.5708 -11.9403
# 2 28.0951 61.6612 54.4304 -1.9671 -13.4821 -12.6632
# 3 37.0427 54.4304 111.3565 0.1698 -28.1766 -10.7888
# 4 1.9402 -1.9671 0.1698 30.6832 -3.3091 -1.3441
# 5 -3.5708 -13.4821 -28.1766 -3.3091 33.1239 -2.2978
# 6 -11.9403 -12.6632 -10.7888 -1.3441 -2.2978 25.5120
#
#
#
# Elastic Compliance Matrix: (Units=1/GPa)
#
#
# Indices 1 2 3 4 5 6 
#
# 1 0.007847 -0.001892 -0.001887 -0.000689 -0.001475 0.001767
# 2 -0.001892 0.031192 -0.013143 0.002846 0.002248 0.009392
# 3 -0.001887 -0.013143 0.018878 0.000389 0.010652 0.001556
# 4 -0.000689 0.002846 0.000389 0.033507 0.005003 0.003471
# 5 -0.001475 0.002248 0.010652 0.005003 0.041123 0.008897
# 6 0.001767 0.009392 0.001556 0.003471 0.008897 0.046328
#
#
# Mechanical properties :
#
#
# Convention : Reuss Voigt Hill
#
# Bulk Modulus (GPa) = 41.53868 61.94017 51.73942
# Shear Modulus (GPa) = 22.65084 31.11426 26.88255
#
# Velocity S-wave (km/s) = 3.24593 3.80432 3.53617
# Velocity P-wave (km/s) = 5.77667 6.93605 6.38274
#
# Compressibility (1/GPa) = 0.02407395
#
# Stress axis : x y z
#
# Youngs Moduli (GPa) = 127.44083 32.05906 52.97306
#
# Poissons Ratio (x) = 0.06064 0.09994
# Poissons Ratio (y) = 0.24106 0.69623
# Poissons Ratio (z) = 0.24044 0.42136
#
# Static dielectric constant tensor:
#      x y z
#    x 3.810790 -0.162160 -0.083260 
#    y -0.162160 3.739560 -0.002510 
#    z -0.083260 -0.002510 3.737770 
# 
# 
# High freq. dielectric constant tensor:
#      x y z
#    x 1.839580 -0.022490 -0.011160 
#    y -0.022490 1.829600 -0.005980 
#    z -0.011160 -0.005980 1.838520 
# 
# From -- ./inp_files/405317.got.cif
#   From: 2010.06.25/outbox.cif.g09.slc.cpg/sg2_203_cif.got.tgz:405317.got - 2010.06.27 13:26:56.
