data_PCOD8040771
_publ_section_title
;
Structure prediction by ZEFSAII (Michael W. Deem and Ramdas Pophale) SiO2 
 PCOD8040771
Probable space group: P -1
;
_chemical_formula_sum "Si O2"
_cell_formula_units_Z 16
_cell_length_a 16.845763
_cell_length_b 8.930280
_cell_length_c 20.685843
_cell_angle_alpha 150.787330
_cell_angle_beta 32.274367
_cell_angle_gamma 137.361515
_cell_volume 810.958562
_symmetry_space_group_name_H-M "P -1"
_symmetry_group_IT_number 2
_symmetry_cell_setting 'triclinic'
loop_
_space_group_symop_operation_xyz
x,y,z
-x,-y,-z
loop_
_atom_site_type_symbol
_atom_site_label
_atom_site_fract_x
_atom_site_fract_y
_atom_site_fract_z
Si Si1 0.383070 0.669011 0.802646
Si Si2 0.393994 0.075611 0.502545
Si Si3 0.323858 0.245925 0.288182
Si Si4 0.294386 0.222243 0.800540
Si Si5 0.854532 0.199612 0.342761
Si Si6 0.375741 0.564499 0.235438
Si Si7 0.807045 0.737223 0.858507
Si Si8 0.702200 0.441729 0.945019
O O1 0.410379 0.443896 0.636573
O O2 0.537972 0.773790 0.765740
O O3 0.284182 0.503888 0.863281
O O4 0.296419 0.966061 0.948977
O O5 0.538756 0.912834 0.372765
O O6 0.246135 0.989813 0.610213
O O7 0.372761 0.934310 0.391489
O O8 0.193461 0.443894 0.486595
O O9 0.373251 0.385456 0.238072
O O10 0.260083 0.907626 0.193333
O O11 0.176473 0.954422 0.764034
O O12 0.254453 0.337486 0.942652
O O13 0.025131 0.160077 0.230082
O O14 0.239249 0.468025 0.248480
O O15 0.527764 0.477362 0.061476
O O16 0.799392 0.531633 0.850355
#
# Coordination Sequence:
#
# PCOD8040771 Si02
#       8
#     2   2   2   2   2   2   2   2
#     4  11  18  36  62  90 103 144 195 233 277 326
#     4   9  18  35  64  87 101 139 202 239 260 319
#     4  11  19  37  68  81 100 151 207 226 263 331
#     4  10  18  38  66  85 102 146 205 232 259 330
#     4  10  21  38  58  86 115 145 182 242 281 328
#     4  10  20  37  60  87 108 145 191 242 270 323
#     4  12  26  35  51  88 131 145 168 232 306 325
#     4  11  22  37  57  85 114 152 189 230 266 344
#
# _framework density 19.729738999999999
#
# number of rings (size 3 to 8) (size 9 to 14) (size 15 to 20)
#    0.000    1.500    6.250    2.250    0.000    5.000 
#    0.000    5.000    0.000    0.000    0.000    0.000 
#    0.000    0.000    0.000    0.000    0.000    0.000 
#
# Total GULP energy -198348.683491 kJ/mol
# GULP energy per Si atom -12396.792718 kJ/mol
# Density = 1.968483 g / cm^3
# Si number density = 19.729739 Si / 1000 Ang^3
#
#
#
# Elastic Constant Matrix: (Units=GPa)
#
#
# Indices 1 2 3 4 5 6 
#
# 1 73.0872 21.7260 36.2263 10.0310 14.9530 27.9233
# 2 21.7260 35.5590 20.8060 3.9642 8.3654 7.7798
# 3 36.2263 20.8060 85.3166 24.4138 12.9239 11.2898
# 4 10.0310 3.9642 24.4138 19.0783 12.0725 2.7146
# 5 14.9530 8.3654 12.9239 12.0725 29.5999 6.2784
# 6 27.9233 7.7798 11.2898 2.7146 6.2784 29.6170
#
#
#
# Elastic Compliance Matrix: (Units=1/GPa)
#
#
# Indices 1 2 3 4 5 6 
#
# 1 0.028347 -0.007393 -0.007332 0.002558 -0.005611 -0.021034
# 2 -0.007393 0.037995 -0.008374 0.011886 -0.008379 0.000868
# 3 -0.007332 -0.008374 0.024314 -0.030529 0.007692 0.001012
# 4 0.002558 0.011886 -0.030529 0.110721 -0.037299 0.003862
# 5 -0.005611 -0.008379 0.007692 -0.037299 0.051463 -0.002931
# 6 -0.021034 0.000868 0.001012 0.003862 -0.002931 0.053249
#
#
# Mechanical properties :
#
#
# Convention : Reuss Voigt Hill
#
# Bulk Modulus (GPa) = 22.49298 39.05327 30.77312
# Shear Modulus (GPa) = 13.62006 23.33934 18.47970
#
# Velocity S-wave (km/s) = 2.63027 3.44314 3.06378
# Velocity P-wave (km/s) = 4.54419 5.97026 5.30536
#
# Compressibility (1/GPa) = 0.04445831
#
# Stress axis : x y z
#
# Youngs Moduli (GPa) = 35.27670 26.31940 41.12932
#
# Poissons Ratio (x) = 0.19457 0.30158
# Poissons Ratio (y) = 0.26079 0.34440
# Poissons Ratio (z) = 0.25866 0.22039
#
# Static dielectric constant tensor:
#      x y z
#    x 3.552440 0.355080 0.355770 
#    y 0.355080 3.400120 0.357850 
#    z 0.355770 0.357850 3.785140 
# 
# 
# High freq. dielectric constant tensor:
#      x y z
#    x 1.753530 0.023950 0.022450 
#    y 0.023950 1.746330 0.020590 
#    z 0.022450 0.020590 1.771720 
# 
# From -- ./inp_files/180469.got.cif
#   From: 2010.06.25/outbox.cif.g09.slc.cpg/sg2_91_cif.got.tgz:180469.got - 2010.06.27 13:26:56.
