data_PCOD8040599
_publ_section_title
;
Structure prediction by ZEFSAII (Michael W. Deem and Ramdas Pophale) SiO2 
 PCOD8040599
Probable space group: P -1
;
_chemical_formula_sum "Si O2"
_cell_formula_units_Z 16
_cell_length_a 19.307646
_cell_length_b 9.160969
_cell_length_c 19.984976
_cell_angle_alpha 44.389468
_cell_angle_beta 20.664717
_cell_angle_gamma 53.740448
_cell_volume 828.888672
_symmetry_space_group_name_H-M "P -1"
_symmetry_group_IT_number 2
_symmetry_cell_setting 'triclinic'
loop_
_space_group_symop_operation_xyz
x,y,z
-x,-y,-z
loop_
_atom_site_type_symbol
_atom_site_label
_atom_site_fract_x
_atom_site_fract_y
_atom_site_fract_z
Si Si1 0.014195 0.812156 0.199067
Si Si2 0.742935 0.996640 0.537072
Si Si3 0.587195 0.887423 0.117442
Si Si4 0.922158 0.760457 0.938429
Si Si5 0.586897 0.580503 0.601276
Si Si6 0.548772 0.115128 0.280008
Si Si7 0.431762 0.615836 0.585863
Si Si8 0.961898 0.264795 0.642787
O O1 0.825082 0.651810 0.382241
O O2 0.022765 0.716396 0.296836
O O3 0.981176 0.054991 0.152385
O O4 0.213150 0.821643 0.973615
O O5 0.582659 0.849719 0.676025
O O6 0.867182 0.840358 0.505607
O O7 0.621943 0.076233 0.678096
O O8 0.909350 0.212423 0.281735
O O9 0.517368 0.676854 0.200174
O O10 0.723033 0.835048 0.071839
O O11 0.733724 0.108273 0.877034
O O12 0.818016 0.507281 0.138017
O O13 0.464139 0.723949 0.701444
O O14 0.568439 0.602980 0.530783
O O15 0.452320 0.864369 0.471392
O O16 0.500000 0.500000 0.500000
O O17 0.000000 0.500000 0.500000
#
# Coordination Sequence:
#
# PCOD8040599 Si02
#       8
#     2   2   2   2   2   2   2   2
#     4  10  20  38  59  84 121 156 196 241 302 346
#     4  10  18  37  64  81 116 159 192 238 302 345
#     4   9  19  38  59  86 119 155 190 236 295 352
#     4   9  18  36  56  82 114 156 201 241 280 344
#     4  11  23  38  57  86 123 161 197 241 294 340
#     4  12  20  37  60  84 122 163 199 244 296 337
#     4  11  22  38  58  85 122 160 210 250 278 342
#     4  10  21  39  67  96 114 143 199 245 291 372
#
# _framework density 19.302954
#
# number of rings (size 3 to 8) (size 9 to 14) (size 15 to 20)
#    0.000    2.000    6.250    1.125    0.000    4.500 
#    0.000    0.625    0.000    1.500    0.000    0.000 
#    0.000    0.000    0.000    0.000    0.000    0.000 
#
# Total GULP energy -198307.767565 kJ/mol
# GULP energy per Si atom -12394.235473 kJ/mol
# Density = 1.925902 g / cm^3
# Si number density = 19.302954 Si / 1000 Ang^3
#
#
#
# Elastic Constant Matrix: (Units=GPa)
#
#
# Indices 1 2 3 4 5 6 
#
# 1 56.9032 36.9837 38.2750 -14.7553 -5.2980 10.5608
# 2 36.9837 137.7824 85.3106 -9.0330 6.0546 16.1280
# 3 38.2750 85.3106 149.5390 -12.0708 -10.1341 -1.6916
# 4 -14.7553 -9.0330 -12.0708 42.1864 2.5519 -5.8967
# 5 -5.2980 6.0546 -10.1341 2.5519 24.9985 -1.7849
# 6 10.5608 16.1280 -1.6916 -5.8967 -1.7849 17.4542
#
#
#
# Elastic Compliance Matrix: (Units=1/GPa)
#
#
# Indices 1 2 3 4 5 6 
#
# 1 0.026321 -0.002396 -0.004880 0.005444 0.002764 -0.012063
# 2 -0.002396 0.015766 -0.009310 -0.001752 -0.009031 -0.015536
# 3 -0.004880 -0.009310 0.014087 0.001866 0.007765 0.014345
# 4 0.005444 -0.001752 0.001866 0.026818 0.000138 0.007580
# 5 0.002764 -0.009031 0.007765 0.000138 0.046784 0.012256
# 6 -0.012063 -0.015536 0.014345 0.007580 0.012256 0.084152
#
#
# Mechanical properties :
#
#
# Convention : Reuss Voigt Hill
#
# Bulk Modulus (GPa) = 43.47563 73.92926 58.70245
# Shear Modulus (GPa) = 19.62569 29.17150 24.39860
#
# Velocity S-wave (km/s) = 3.19206 3.89169 3.55911
# Velocity P-wave (km/s) = 6.01310 7.65351 6.88236
#
# Compressibility (1/GPa) = 0.02300139
#
# Stress axis : x y z
#
# Youngs Moduli (GPa) = 37.99254 63.42628 70.98861
#
# Poissons Ratio (x) = 0.15199 0.34640
# Poissons Ratio (y) = 0.09104 0.66093
# Poissons Ratio (z) = 0.18539 0.59052
#
# Static dielectric constant tensor:
#      x y z
#    x 3.172140 0.051500 -0.202040 
#    y 0.051500 3.568330 -0.149700 
#    z -0.202040 -0.149700 3.984110 
# 
# 
# High freq. dielectric constant tensor:
#      x y z
#    x 1.707350 0.005490 -0.019620 
#    y 0.005490 1.750750 0.002370 
#    z -0.019620 0.002370 1.771250 
# 
# From -- ./inp_files/222372.got.cif
#   From: 2010.06.25/outbox.cif.g09.slc.cpg/sg2_112_cif.got.tgz:222372.got - 2010.06.27 13:26:56.
