data_PCOD8040418
_publ_section_title
;
Structure prediction by ZEFSAII (Michael W. Deem and Ramdas Pophale) SiO2 
 PCOD8040418
Probable space group: P -1
;
_chemical_formula_sum "Si O2"
_cell_formula_units_Z 14
_cell_length_a 15.841335
_cell_length_b 13.358218
_cell_length_c 9.355967
_cell_angle_alpha 135.336465
_cell_angle_beta 143.703773
_cell_angle_gamma 32.682776
_cell_volume 629.497992
_symmetry_space_group_name_H-M "P -1"
_symmetry_group_IT_number 2
_symmetry_cell_setting 'triclinic'
loop_
_space_group_symop_operation_xyz
x,y,z
-x,-y,-z
loop_
_atom_site_type_symbol
_atom_site_label
_atom_site_fract_x
_atom_site_fract_y
_atom_site_fract_z
Si Si1 0.231091 0.281256 0.859808
Si Si2 0.467432 0.877641 0.677061
Si Si3 0.489567 0.174052 0.638370
Si Si4 0.151112 0.585677 0.595392
Si Si5 0.317859 0.717167 0.476612
Si Si6 0.780580 0.418021 0.015766
Si Si7 0.364036 0.693667 0.828536
O O1 0.206592 0.438251 0.894636
O O2 0.032048 0.333266 0.663282
O O3 0.376415 0.092086 0.776338
O O4 0.317655 0.255533 0.108841
O O5 0.458692 0.821753 0.449712
O O6 0.353008 0.850547 0.599504
O O7 0.278488 0.363662 0.568286
O O8 0.500000 0.000000 0.500000
O O9 0.634214 0.161878 0.929171
O O10 0.084966 0.677248 0.758400
O O11 0.270619 0.629084 0.725369
O O12 0.500000 0.500000 0.500000
O O13 0.249663 0.783533 0.614460
O O14 0.165338 0.736039 0.186376
O O15 0.575250 0.515640 0.897699
#
# Coordination Sequence:
#
# PCOD8040418 Si02
#       7
#     2   2   2   2   2   2   2
#     4  11  24  39  65  92 125 162 211 254 306 364
#     4  11  22  41  65  87 123 169 209 245 311 381
#     4  11  23  39  66  95 124 162 206 254 312 366
#     4  11  23  40  63  96 129 156 203 267 306 351
#     4  10  18  36  66  87 114 165 215 240 294 382
#     4  10  19  39  64  88 121 167 208 242 305 380
#     4  10  20  39  63  90 124 162 205 249 309 370
#
# _framework density 22.239944000000001
#
# number of rings (size 3 to 8) (size 9 to 14) (size 15 to 20)
#    0.000    1.429    2.857    6.429    2.000    0.571 
#    0.000    5.000    0.000    0.000    0.000    0.000 
#    0.000    0.000    0.000    0.000    0.000    0.000 
#
# Total GULP energy -173547.480621 kJ/mol
# GULP energy per Si atom -12396.248616 kJ/mol
# Density = 2.218932 g / cm^3
# Si number density = 22.239944 Si / 1000 Ang^3
#
#
#
# Elastic Constant Matrix: (Units=GPa)
#
#
# Indices 1 2 3 4 5 6 
#
# 1 90.4485 26.6623 75.5904 0.5700 -14.4993 19.6200
# 2 26.6623 44.2924 49.9075 5.5234 5.4404 15.7662
# 3 75.5904 49.9075 158.1697 22.9926 -20.1029 19.0502
# 4 0.5700 5.5234 22.9926 22.2829 -0.9930 3.8211
# 5 -14.4993 5.4404 -20.1029 -0.9930 56.4238 0.3324
# 6 19.6200 15.7662 19.0502 3.8211 0.3324 22.6704
#
#
#
# Elastic Compliance Matrix: (Units=1/GPa)
#
#
# Indices 1 2 3 4 5 6 
#
# 1 0.023964 0.002750 -0.012368 0.014061 0.001820 -0.014656
# 2 0.002750 0.046887 -0.015655 0.008008 -0.009115 -0.023049
# 3 -0.012368 -0.015655 0.019254 -0.016857 0.004846 0.008182
# 4 0.014061 0.008008 -0.016857 0.062245 -0.001986 -0.014035
# 5 0.001820 -0.009115 0.004846 -0.001986 0.020757 0.000722
# 6 -0.014656 -0.023049 0.008182 -0.014035 0.000722 0.068303
#
#
# Mechanical properties :
#
#
# Convention : Reuss Voigt Hill
#
# Bulk Modulus (GPa) = 25.27875 66.35899 45.81887
# Shear Modulus (GPa) = 16.38588 29.65876 23.02232
#
# Velocity S-wave (km/s) = 2.71731 3.65578 3.22091
# Velocity P-wave (km/s) = 4.60826 6.90813 5.87189
#
# Compressibility (1/GPa) = 0.03955892
#
# Stress axis : x y z
#
# Youngs Moduli (GPa) = 41.72980 21.32790 51.93853
#
# Poissons Ratio (x) = -0.05866 0.64236
# Poissons Ratio (y) = -0.11477 0.81311
# Poissons Ratio (z) = 0.51610 0.33389
#
# Static dielectric constant tensor:
#      x y z
#    x 4.012840 0.161390 -0.604320 
#    y 0.161390 3.730190 0.049540 
#    z -0.604320 0.049540 4.987290 
# 
# 
# High freq. dielectric constant tensor:
#      x y z
#    x 1.865210 0.033140 -0.018790 
#    y 0.033140 1.839580 0.013780 
#    z -0.018790 0.013780 1.901230 
# 
# From -- ./inp_files/304229.got.cif
#   From: 2010.06.25/outbox.cif.g09.slc.cpg/sg2_153_cif.got.tgz:304229.got - 2010.06.27 13:26:56.
