data_PCOD8040600
_publ_section_title
;
Structure prediction by ZEFSAII (Michael W. Deem and Ramdas Pophale) SiO2 
 PCOD8040600
Probable space group: P -1
;
_chemical_formula_sum "Si O2"
_cell_formula_units_Z 16
_cell_length_a 13.391038
_cell_length_b 9.069971
_cell_length_c 15.506215
_cell_angle_alpha 27.426580
_cell_angle_beta 72.336024
_cell_angle_gamma 82.692530
_cell_volume 782.038085
_symmetry_space_group_name_H-M "P -1"
_symmetry_group_IT_number 2
_symmetry_cell_setting 'triclinic'
loop_
_space_group_symop_operation_xyz
x,y,z
-x,-y,-z
loop_
_atom_site_type_symbol
_atom_site_label
_atom_site_fract_x
_atom_site_fract_y
_atom_site_fract_z
Si Si1 0.973085 0.232903 0.069674
Si Si2 0.422489 0.605186 0.715225
Si Si3 0.926146 0.305279 0.697576
Si Si4 0.259831 0.899840 0.545548
Si Si5 0.487233 0.291924 0.196419
Si Si6 0.546163 0.638367 0.507522
Si Si7 0.020716 0.645809 0.675760
Si Si8 0.225231 0.308363 0.506747
O O1 0.863401 0.931028 0.280191
O O2 0.075270 0.083248 0.106011
O O3 0.000000 0.500000 0.000000
O O4 0.955464 0.413512 0.892474
O O5 0.297082 0.601909 0.735624
O O6 0.446537 0.444788 0.881968
O O7 0.461752 0.438956 0.708651
O O8 0.500000 0.000000 0.500000
O O9 0.806771 0.358510 0.686284
O O10 0.000000 0.500000 0.500000
O O11 0.978235 0.456967 0.696353
O O12 0.152340 0.718717 0.611026
O O13 0.357374 0.118388 0.343111
O O14 0.232770 0.123854 0.511307
O O15 0.554501 0.029268 0.302680
O O16 0.500000 0.500000 0.000000
O O17 0.500000 0.500000 0.500000
O O18 0.662018 0.580691 0.526416
O O19 0.000000 0.000000 0.500000
#
# Coordination Sequence:
#
# PCOD8040600 Si02
#       8
#     2   2   2   2   2   2   2   2
#     4  11  23  39  62  93 126 164 213 256 303 373
#     4   8  16  34  56  80 110 153 193 239 292 356
#     4  10  23  40  59  89 129 164 204 261 306 363
#     4  10  18  37  64  83 119 168 201 243 316 359
#     4  10  20  36  61  88 116 155 209 253 299 368
#     4  10  20  38  63  88 116 159 203 248 312 366
#     4  12  22  38  62  94 125 165 209 251 306 375
#     4  11  19  41  65  86 126 167 200 259 318 360
#
# _framework density 20.459361000000001
#
# number of rings (size 3 to 8) (size 9 to 14) (size 15 to 20)
#    0.000    2.000    6.250    1.125    0.000    5.000 
#    0.000    3.125    0.000    0.000    0.000    0.000 
#    0.000    0.000    0.000    0.000    0.000    0.000 
#
# Total GULP energy -198231.860846 kJ/mol
# GULP energy per Si atom -12389.491303 kJ/mol
# Density = 2.041279 g / cm^3
# Si number density = 20.459361 Si / 1000 Ang^3
#
#
#
# Elastic Constant Matrix: (Units=GPa)
#
#
# Indices 1 2 3 4 5 6 
#
# 1 171.9754 65.5978 38.7281 1.6933 22.9228 3.4211
# 2 65.5978 163.2479 45.3362 17.5046 23.3420 12.9740
# 3 38.7281 45.3362 81.9651 21.8209 24.7694 -2.8300
# 4 1.6933 17.5046 21.8209 38.4036 2.1251 8.7969
# 5 22.9228 23.3420 24.7694 2.1251 29.2620 3.4279
# 6 3.4211 12.9740 -2.8300 8.7969 3.4279 38.7471
#
#
#
# Elastic Compliance Matrix: (Units=1/GPa)
#
#
# Indices 1 2 3 4 5 6 
#
# 1 0.007460 -0.002271 -0.002141 0.002128 -0.002336 -0.000331
# 2 -0.002271 0.008435 -0.002465 -0.001703 -0.002482 -0.002198
# 3 -0.002141 -0.002465 0.022851 -0.012483 -0.015601 0.006898
# 4 0.002128 -0.001703 -0.012483 0.035473 0.008779 -0.009359
# 5 -0.002336 -0.002482 -0.015601 0.008779 0.051330 -0.006636
# 6 -0.000331 -0.002198 0.006898 -0.009359 -0.006636 0.029789
#
#
# Mechanical properties :
#
#
# Convention : Reuss Voigt Hill
#
# Bulk Modulus (GPa) = 40.01097 79.61250 59.81173
# Shear Modulus (GPa) = 28.18149 39.11763 33.64956
#
# Velocity S-wave (km/s) = 3.71541 4.37735 4.05989
# Velocity P-wave (km/s) = 6.16478 8.03400 7.16065
#
# Compressibility (1/GPa) = 0.02499315
#
# Stress axis : x y z
#
# Youngs Moduli (GPa) = 134.04621 118.55516 43.76173
#
# Poissons Ratio (x) = 0.26924 0.09367
# Poissons Ratio (y) = 0.30442 0.10787
# Poissons Ratio (z) = 0.28693 0.29222
#
# Static dielectric constant tensor:
#      x y z
#    x 4.168530 0.170890 0.536200 
#    y 0.170890 2.922250 -0.249050 
#    z 0.536200 -0.249050 3.529810 
# 
# 
# High freq. dielectric constant tensor:
#      x y z
#    x 1.808880 -0.005300 0.021750 
#    y -0.005300 1.812630 0.021930 
#    z 0.021750 0.021930 1.770430 
# 
# From -- ./inp_files/528033.got.cif
#   From: 2010.06.25/outbox.cif.g09.slc.cpg/sg2_265_cif.got.tgz:528033.got - 2010.06.27 13:26:56.
