data_PCOD8040499
_publ_section_title
;
Structure prediction by ZEFSAII (Michael W. Deem and Ramdas Pophale) SiO2 
 PCOD8040499
Probable space group: P -1
;
_chemical_formula_sum "Si O2"
_cell_formula_units_Z 16
_cell_length_a 9.800309
_cell_length_b 9.121796
_cell_length_c 15.915359
_cell_angle_alpha 36.272113
_cell_angle_beta 68.518224
_cell_angle_gamma 78.970014
_cell_volume 769.190500
_symmetry_space_group_name_H-M "P -1"
_symmetry_group_IT_number 2
_symmetry_cell_setting 'triclinic'
loop_
_space_group_symop_operation_xyz
x,y,z
-x,-y,-z
loop_
_atom_site_type_symbol
_atom_site_label
_atom_site_fract_x
_atom_site_fract_y
_atom_site_fract_z
Si Si1 0.338163 0.365435 0.068066
Si Si2 0.186296 0.822411 0.836860
Si Si3 0.503946 0.674305 0.655086
Si Si4 0.074327 0.163566 0.983971
Si Si5 0.294090 0.064935 0.373846
Si Si6 0.189545 0.744918 0.684264
Si Si7 0.458530 0.248605 0.571938
Si Si8 0.372338 0.143450 0.991290
O O1 0.242234 0.212594 0.237102
O O2 0.500000 0.500000 0.000000
O O3 0.244179 0.562207 0.960324
O O4 0.365615 0.167197 0.082356
O O5 0.132536 0.822914 0.751222
O O6 0.314879 0.055630 0.728340
O O7 0.041064 0.838930 0.913791
O O8 0.612527 0.718362 0.689138
O O9 0.373613 0.845336 0.602748
O O10 0.586550 0.678830 0.545302
O O11 0.401881 0.405994 0.816239
O O12 0.130684 0.453964 0.809370
O O13 0.206483 0.023101 0.051091
O O14 0.000000 0.000000 0.000000
O O15 0.156400 0.909304 0.533657
O O16 0.396419 0.878080 0.400607
O O17 0.500000 0.500000 0.500000
O O18 0.500000 0.000000 0.000000
#
# Coordination Sequence:
#
# PCOD8040499 Si02
#       8
#     2   2   2   2   2   2   2   2
#     4  12  22  38  65 103 129 171 218 276 329 392
#     4  12  22  42  68  91 134 173 228 266 324 400
#     4  10  18  37  59  93 126 165 225 272 318 382
#     4  11  27  42  66  98 130 177 226 274 333 393
#     4  11  20  37  61  94 132 163 225 270 325 388
#     4  10  19  41  62  86 124 178 216 266 314 398
#     4  11  22  32  61  98 130 170 221 275 321 385
#     4  11  25  42  65  94 138 174 218 280 335 387
#
# _framework density 20.801089999999999
#
# number of rings (size 3 to 8) (size 9 to 14) (size 15 to 20)
#    0.000    1.000    7.500    1.125    8.750    0.000 
#    0.000    0.625    0.000    1.500    0.000    0.000 
#    0.000    0.000    0.000    0.000    0.000    0.000 
#
# Total GULP energy -198303.066625 kJ/mol
# GULP energy per Si atom -12393.941664 kJ/mol
# Density = 2.075375 g / cm^3
# Si number density = 20.801090 Si / 1000 Ang^3
#
#
#
# Elastic Constant Matrix: (Units=GPa)
#
#
# Indices 1 2 3 4 5 6 
#
# 1 76.9811 58.1852 29.9872 11.3606 -3.4455 3.5997
# 2 58.1852 144.7102 49.2074 13.1140 -3.5277 12.9114
# 3 29.9872 49.2074 137.7975 27.1448 2.5989 8.3335
# 4 11.3606 13.1140 27.1448 31.4428 4.7840 -8.1780
# 5 -3.4455 -3.5277 2.5989 4.7840 26.2262 1.3966
# 6 3.5997 12.9114 8.3335 -8.1780 1.3966 33.1623
#
#
#
# Elastic Compliance Matrix: (Units=1/GPa)
#
#
# Indices 1 2 3 4 5 6 
#
# 1 0.019347 -0.007043 -0.001041 -0.003529 0.002345 -0.000066
# 2 -0.007043 0.010838 -0.001877 -0.001410 0.001156 -0.003380
# 3 -0.001041 -0.001877 0.010069 -0.008585 0.000382 -0.003820
# 4 -0.003529 -0.001410 -0.008585 0.046329 -0.009047 0.014895
# 5 0.002345 0.001156 0.000382 -0.009047 0.040458 -0.004735
# 6 -0.000066 -0.003380 -0.003820 0.014895 -0.004735 0.036310
#
#
# Mechanical properties :
#
#
# Convention : Reuss Voigt Hill
#
# Bulk Modulus (GPa) = 49.18063 70.47202 59.82632
# Shear Modulus (GPa) = 26.30890 32.97353 29.64122
#
# Velocity S-wave (km/s) = 3.56024 3.98575 3.77899
# Velocity P-wave (km/s) = 6.37142 7.42524 6.91843
#
# Compressibility (1/GPa) = 0.02033321
#
# Stress axis : x y z
#
# Youngs Moduli (GPa) = 51.68666 92.26888 99.31624
#
# Poissons Ratio (x) = 0.64981 0.10335
# Poissons Ratio (y) = 0.36401 0.18644
# Poissons Ratio (z) = 0.05378 0.17321
#
# Static dielectric constant tensor:
#      x y z
#    x 3.262360 0.366590 -0.333000 
#    y 0.366590 3.593250 0.383090 
#    z -0.333000 0.383090 3.974690 
# 
# 
# High freq. dielectric constant tensor:
#      x y z
#    x 1.785210 0.016670 -0.008160 
#    y 0.016670 1.809660 0.013080 
#    z -0.008160 0.013080 1.834080 
# 
# From -- ./inp_files/262959.got.cif
#   From: 2010.06.25/outbox.cif.g09.slc.cpg/sg2_132_cif.got.tgz:262959.got - 2010.06.27 13:26:56.
