data_PCOD8040115
_publ_section_title
;
Structure prediction by ZEFSAII (Michael W. Deem and Ramdas Pophale) SiO2 
 PCOD8040115
Probable space group: P -1
;
_chemical_formula_sum "Si O2"
_cell_formula_units_Z 16
_cell_length_a 14.395418
_cell_length_b 8.330101
_cell_length_c 8.813054
_cell_angle_alpha 63.982323
_cell_angle_beta 139.260059
_cell_angle_gamma 114.739363
_cell_volume 613.091811
_symmetry_space_group_name_H-M "P -1"
_symmetry_group_IT_number 2
_symmetry_cell_setting 'triclinic'
loop_
_space_group_symop_operation_xyz
x,y,z
-x,-y,-z
loop_
_atom_site_type_symbol
_atom_site_label
_atom_site_fract_x
_atom_site_fract_y
_atom_site_fract_z
Si Si1 0.343333 0.826194 0.265174
Si Si2 0.030771 0.910119 0.363752
Si Si3 0.341201 0.569372 0.951235
Si Si4 0.710139 0.807975 0.062830
Si Si5 0.574601 0.760017 0.382919
Si Si6 0.105087 0.665101 0.816632
Si Si7 0.171059 0.290804 0.437796
Si Si8 0.288306 0.848220 0.540021
O O1 0.488214 0.733227 0.448077
O O2 0.323984 0.852194 0.406491
O O3 0.201676 0.712569 0.065463
O O4 0.376174 0.024404 0.142182
O O5 0.082674 0.845444 0.619580
O O6 0.117176 0.832362 0.365284
O O7 0.863499 0.846700 0.152446
O O8 0.057394 0.126083 0.303541
O O9 0.379862 0.370750 0.050106
O O10 0.183907 0.543015 0.850644
O O11 0.340819 0.670797 0.747687
O O12 0.455324 0.698058 0.136474
O O13 0.729178 0.769498 0.279895
O O14 0.710186 0.644217 0.575786
O O15 0.640894 0.970267 0.359600
O O16 0.940365 0.571789 0.702901
#
# Coordination Sequence:
#
# PCOD8040115 Si02
#       8
#     2   2   2   2   2   2   2   2
#     4  11  21  38  66  92 122 159 211 247 311 361
#     4   9  17  35  61  91 118 153 207 247 299 356
#     4  10  23  39  65  90 126 158 208 253 308 358
#     4  11  21  36  65  98 121 154 207 264 300 359
#     4  10  23  41  63  86 122 173 210 244 295 382
#     4   9  17  36  63  86 119 164 200 248 298 373
#     4  10  18  35  64  94 118 155 219 250 293 357
#     4  10  22  38  64  92 121 162 206 255 301 371
#
# _framework density 26.097235000000001
#
# number of rings (size 3 to 8) (size 9 to 14) (size 15 to 20)
#    0.000    2.000    2.500    1.500    3.500    5.500 
#    0.000    0.625   11.000    6.000    0.000    0.000 
#    0.000    0.000    0.000    0.000    0.000    0.000 
#
# Total GULP energy -198228.676619 kJ/mol
# GULP energy per Si atom -12389.292289 kJ/mol
# Density = 2.603784 g / cm^3
# Si number density = 26.097235 Si / 1000 Ang^3
#
#
#
# Elastic Constant Matrix: (Units=GPa)
#
#
# Indices 1 2 3 4 5 6 
#
# 1 186.4684 19.2147 36.5795 14.8948 24.7489 -3.1328
# 2 19.2147 23.8076 18.7046 9.6300 -16.2421 -4.8859
# 3 36.5795 18.7046 47.1386 14.4387 -4.5137 -0.9775
# 4 14.8948 9.6300 14.4387 13.9260 -3.7460 -2.4594
# 5 24.7489 -16.2421 -4.5137 -3.7460 37.2636 4.6031
# 6 -3.1328 -4.8859 -0.9775 -2.4594 4.6031 21.2099
#
#
#
# Elastic Compliance Matrix: (Units=1/GPa)
#
#
# Indices 1 2 3 4 5 6 
#
# 1 0.008860 -0.012564 -0.002685 -0.001070 -0.011885 0.000746
# 2 -0.012564 0.122577 -0.024391 -0.029585 0.054611 0.009974
# 3 -0.002685 -0.024391 0.039629 -0.023904 -0.005745 -0.005714
# 4 -0.001070 -0.029585 -0.023904 0.118269 -0.003995 0.006506
# 5 -0.011885 0.054611 -0.005745 -0.003995 0.057736 -0.002434
# 6 0.000746 0.009974 -0.005714 0.006506 -0.002434 0.050575
#
#
# Mechanical properties :
#
#
# Convention : Reuss Voigt Hill
#
# Bulk Modulus (GPa) = 10.89481 45.15692 28.02586
# Shear Modulus (GPa) = 9.85181 26.67430 18.26305
#
# Velocity S-wave (km/s) = 1.94505 3.20052 2.64826
# Velocity P-wave (km/s) = 3.03777 5.56764 4.48479
#
# Compressibility (1/GPa) = 0.09178684
#
# Stress axis : x y z
#
# Youngs Moduli (GPa) = 112.87260 8.15812 25.23396
#
# Poissons Ratio (x) = 0.10250 0.06774
# Poissons Ratio (y) = 1.41809 0.61549
# Poissons Ratio (z) = 0.30302 0.19899
#
# Static dielectric constant tensor:
#      x y z
#    x 5.535110 -0.115740 0.451910 
#    y -0.115740 4.364890 0.060450 
#    z 0.451910 0.060450 4.240390 
# 
# 
# High freq. dielectric constant tensor:
#      x y z
#    x 2.080330 -0.011470 0.020980 
#    y -0.011470 2.019850 0.016940 
#    z 0.020980 0.016940 2.007770 
# 
# From -- ./inp_files/295019.got.cif
#   From: 2010.06.25/outbox.cif.g09.slc.cpg/sg2_148_cif.got.tgz:295019.got - 2010.06.27 13:26:56.
