data_PCOD8040029
_publ_section_title
;
Structure prediction by ZEFSAII (Michael W. Deem and Ramdas Pophale) SiO2 
 PCOD8040029
Probable space group: P -1
;
_chemical_formula_sum "Si O2"
_cell_formula_units_Z 14
_cell_length_a 8.795718
_cell_length_b 7.671865
_cell_length_c 11.194758
_cell_angle_alpha 82.310287
_cell_angle_beta 62.897108
_cell_angle_gamma 108.582810
_cell_volume 601.553979
_symmetry_space_group_name_H-M "P -1"
_symmetry_group_IT_number 2
_symmetry_cell_setting 'triclinic'
loop_
_space_group_symop_operation_xyz
x,y,z
-x,-y,-z
loop_
_atom_site_type_symbol
_atom_site_label
_atom_site_fract_x
_atom_site_fract_y
_atom_site_fract_z
Si Si1 0.743677 0.954633 0.976370
Si Si2 0.202234 0.381692 0.464244
Si Si3 0.559359 0.349684 0.310912
Si Si4 0.726842 0.908305 0.393258
Si Si5 0.577887 0.973304 0.794106
Si Si6 0.149040 0.241901 0.851475
Si Si7 0.833460 0.262476 0.475351
O O1 0.553050 0.940280 0.106118
O O2 0.802608 0.790467 0.025723
O O3 0.925426 0.161464 0.915118
O O4 0.701501 0.922006 0.853072
O O5 0.410436 0.441911 0.328661
O O6 0.142280 0.178647 0.577209
O O7 0.214292 0.552254 0.535564
O O8 0.057311 0.349287 0.412021
O O9 0.491385 0.218648 0.470367
O O10 0.558837 0.217483 0.212176
O O11 0.763982 0.529905 0.234326
O O12 0.754158 0.878029 0.247142
O O13 0.208954 0.863514 0.620449
O O14 0.722172 0.128514 0.637817
#
# Coordination Sequence:
#
# PCOD8040029 Si02
#       7
#     2   2   2   2   2   2   2
#     4  10  24  38  63  82 117 175 201 242 298 348
#     4   9  19  32  58  97 119 151 196 242 323 349
#     4   9  21  36  62  88 118 153 196 258 305 347
#     4   9  20  35  60  90 120 156 186 256 312 356
#     4  10  21  42  60  87 116 164 211 247 289 359
#     4  11  21  41  58  89 125 156 202 248 299 373
#     4  10  18  35  61  93 118 155 199 257 299 359
#
# _framework density 23.273057000000001
#
# number of rings (size 3 to 8) (size 9 to 14) (size 15 to 20)
#    0.857    1.429    0.000    2.571    2.000    1.143 
#    2.571    2.143    6.286    0.000    0.000    0.000 
#    0.000    0.000    0.000    0.000    0.000    0.000 
#
# Total GULP energy -173485.903817 kJ/mol
# GULP energy per Si atom -12391.850273 kJ/mol
# Density = 2.322009 g / cm^3
# Si number density = 23.273057 Si / 1000 Ang^3
#
#
#
# Elastic Constant Matrix: (Units=GPa)
#
#
# Indices 1 2 3 4 5 6 
#
# 1 38.8289 -9.1308 5.6283 -0.3997 1.8500 12.1826
# 2 -9.1308 90.5737 -10.0550 -4.8064 -8.2237 2.0201
# 3 5.6283 -10.0550 56.2400 5.3774 3.1240 13.4076
# 4 -0.3997 -4.8064 5.3774 25.7750 5.9599 -5.3551
# 5 1.8500 -8.2237 3.1240 5.9599 21.1194 -1.7983
# 6 12.1826 2.0201 13.4076 -5.3551 -1.7983 33.5646
#
#
#
# Elastic Compliance Matrix: (Units=1/GPa)
#
#
# Indices 1 2 3 4 5 6 
#
# 1 0.030147 0.003103 0.000521 -0.000960 -0.002227 -0.011609
# 2 0.003103 0.012013 0.002167 0.000463 0.003747 -0.002440
# 3 0.000521 0.002167 0.021058 -0.005640 -0.001552 -0.009714
# 4 -0.000960 0.000463 -0.005640 0.044397 -0.010657 0.009086
# 5 -0.002227 0.003747 -0.001552 -0.010657 0.052438 0.002312
# 6 -0.011609 -0.002440 -0.009714 0.009086 0.002312 0.039608
#
#
# Mechanical properties :
#
#
# Convention : Reuss Voigt Hill
#
# Bulk Modulus (GPa) = 13.36934 17.61419 15.49177
# Shear Modulus (GPa) = 23.47275 29.37179 26.42227
#
# Velocity S-wave (km/s) = 3.17926 3.55639 3.37310
# Velocity P-wave (km/s) = 4.38565 4.94457 4.67348
#
# Compressibility (1/GPa) = 0.07479799
#
# Stress axis : x y z
#
# Youngs Moduli (GPa) = 33.17101 83.24132 47.48890
#
# Poissons Ratio (x) = -0.25827 -0.02474
# Poissons Ratio (y) = -0.10292 -0.10289
# Poissons Ratio (z) = -0.01728 -0.18035
#
# Static dielectric constant tensor:
#      x y z
#    x 4.119030 0.077160 0.019440 
#    y 0.077160 4.123100 0.054680 
#    z 0.019440 0.054680 4.058270 
# 
# 
# High freq. dielectric constant tensor:
#      x y z
#    x 1.926730 0.007380 0.001310 
#    y 0.007380 1.906850 -0.000690 
#    z 0.001310 -0.000690 1.898990 
# 
# From -- ./inp_files/373800.got.cif
#   From: 2010.06.25/outbox.cif.g09.slc.cpg/sg2_187_cif.got.tgz:373800.got - 2010.06.27 13:26:56.
