data_PCOD8040320
_publ_section_title
;
Structure prediction by ZEFSAII (Michael W. Deem and Ramdas Pophale) SiO2 
 PCOD8040320
Probable space group: P -1
;
_chemical_formula_sum "Si O2"
_cell_formula_units_Z 12
_cell_length_a 9.219447
_cell_length_b 20.163363
_cell_length_c 8.886070
_cell_angle_alpha 34.091449
_cell_angle_beta 58.929665
_cell_angle_gamma 41.921475
_cell_volume 596.097117
_symmetry_space_group_name_H-M "P -1"
_symmetry_group_IT_number 2
_symmetry_cell_setting 'triclinic'
loop_
_space_group_symop_operation_xyz
x,y,z
-x,-y,-z
loop_
_atom_site_type_symbol
_atom_site_label
_atom_site_fract_x
_atom_site_fract_y
_atom_site_fract_z
Si Si1 0.410433 0.438408 0.063069
Si Si2 0.137405 0.034660 0.952484
Si Si3 0.930917 0.602095 0.053364
Si Si4 0.764543 0.070450 0.562584
Si Si5 0.575129 0.930019 0.756647
Si Si6 0.900755 0.376850 0.367511
O O1 0.193922 0.484941 0.179677
O O2 0.591729 0.255032 0.277499
O O3 0.500000 0.500000 0.000000
O O4 0.333236 0.532397 0.768704
O O5 0.977899 0.222762 0.698215
O O6 0.369899 0.958278 0.891406
O O7 0.199092 0.960446 0.222424
O O8 0.000000 0.000000 0.000000
O O9 0.859106 0.497667 0.287091
O O10 0.905849 0.669298 0.770132
O O11 0.780597 0.742510 0.988381
O O12 0.663931 0.999289 0.675339
O O13 0.000000 0.000000 0.500000
O O14 0.500000 0.000000 0.500000
#
# Coordination Sequence:
#
# PCOD8040320 Si02
#       6
#     2   2   2   2   2   2
#     4  10  18  36  61  89 123 164 206 261 316 372
#     4  12  25  43  64  98 134 169 218 269 320 388
#     4   9  19  37  67  90 119 167 214 253 327 379
#     4  12  26  42  64  99 132 172 218 270 321 385
#     4  12  21  41  68  96 128 172 215 266 328 381
#     4   9  19  40  64  88 124 167 212 256 321 379
#
# _framework density 20.130949999999999
#
# number of rings (size 3 to 8) (size 9 to 14) (size 15 to 20)
#    1.000    0.333    1.667    5.500    0.000    0.000 
#    0.000    8.333    0.000    0.000    0.000    0.000 
#    0.000    0.000    0.000    0.000    0.000    0.000 
#
# Total GULP energy -148752.770630 kJ/mol
# GULP energy per Si atom -12396.064219 kJ/mol
# Density = 2.008513 g / cm^3
# Si number density = 20.130950 Si / 1000 Ang^3
#
#
#
# Elastic Constant Matrix: (Units=GPa)
#
#
# Indices 1 2 3 4 5 6 
#
# 1 152.0362 55.1374 2.2334 -8.0252 -14.8038 -0.7428
# 2 55.1374 127.8837 36.0399 -17.5196 -3.0972 -13.5235
# 3 2.2334 36.0399 50.5954 -15.4189 4.1896 -9.9749
# 4 -8.0252 -17.5196 -15.4189 50.2900 6.3838 -2.6989
# 5 -14.8038 -3.0972 4.1896 6.3838 40.5502 -6.4914
# 6 -0.7428 -13.5235 -9.9749 -2.6989 -6.4914 38.5489
#
#
#
# Elastic Compliance Matrix: (Units=1/GPa)
#
#
# Indices 1 2 3 4 5 6 
#
# 1 0.008314 -0.004211 0.002479 0.000305 0.002368 -0.000255
# 2 -0.004211 0.012245 -0.007697 0.001315 0.000367 0.002376
# 3 0.002479 -0.007697 0.028469 0.007074 -0.002984 0.004707
# 4 0.000305 0.001315 0.007074 0.023200 -0.003642 0.003309
# 5 0.002368 0.000367 -0.002984 -0.003642 0.027027 0.003698
# 6 -0.000255 0.002376 0.004707 0.003309 0.003698 0.028842
#
#
# Mechanical properties :
#
#
# Convention : Reuss Voigt Hill
#
# Bulk Modulus (GPa) = 33.14654 57.48187 45.31420
# Shear Modulus (GPa) = 31.84480 41.68478 36.76479
#
# Velocity S-wave (km/s) = 3.98160 4.55541 4.27814
# Velocity P-wave (km/s) = 6.13504 7.50233 6.85287
#
# Compressibility (1/GPa) = 0.03016906
#
# Stress axis : x y z
#
# Youngs Moduli (GPa) = 120.28547 81.66800 35.12582
#
# Poissons Ratio (x) = 0.34389 -0.08708
# Poissons Ratio (y) = 0.50651 0.27038
# Poissons Ratio (z) = -0.29820 0.62863
#
# Static dielectric constant tensor:
#      x y z
#    x 3.817530 0.002490 0.044650 
#    y 0.002490 3.646880 -0.065250 
#    z 0.044650 -0.065250 3.383020 
# 
# 
# High freq. dielectric constant tensor:
#      x y z
#    x 1.803490 0.001790 -0.002580 
#    y 0.001790 1.777080 -0.026750 
#    z -0.002580 -0.026750 1.778590 
# 
# From -- ./inp_files/214085.got.cif
#   From: 2010.06.25/outbox.cif.g09.slc.cpg/sg2_108_cif.got.tgz:214085.got - 2010.06.27 13:26:56.
