data_PCOD8040214
_publ_section_title
;
Structure prediction by ZEFSAII (Michael W. Deem and Ramdas Pophale) SiO2 
 PCOD8040214
Probable space group: P -1
;
_chemical_formula_sum "Si O2"
_cell_formula_units_Z 16
_cell_length_a 12.740417
_cell_length_b 10.292234
_cell_length_c 8.656928
_cell_angle_alpha 52.558678
_cell_angle_beta 97.746259
_cell_angle_gamma 63.374396
_cell_volume 659.896167
_symmetry_space_group_name_H-M "P -1"
_symmetry_group_IT_number 2
_symmetry_cell_setting 'triclinic'
loop_
_space_group_symop_operation_xyz
x,y,z
-x,-y,-z
loop_
_atom_site_type_symbol
_atom_site_label
_atom_site_fract_x
_atom_site_fract_y
_atom_site_fract_z
Si Si1 0.444381 0.873261 0.581222
Si Si2 0.184270 0.760859 0.266068
Si Si3 0.454792 0.257107 0.629501
Si Si4 0.077107 0.671503 0.044733
Si Si5 0.300261 0.907116 0.995590
Si Si6 0.762653 0.789061 0.478874
Si Si7 0.675541 0.391183 0.026532
Si Si8 0.121569 0.926816 0.458840
O O1 0.288250 0.044371 0.507398
O O2 0.500000 0.000000 0.500000
O O3 0.446230 0.803049 0.457295
O O4 0.538875 0.643853 0.865297
O O5 0.339514 0.517109 0.450876
O O6 0.066582 0.798751 0.102855
O O7 0.206578 0.927820 0.100687
O O8 0.132700 0.794785 0.408315
O O9 0.563833 0.131634 0.885271
O O10 0.369977 0.178907 0.635077
O O11 0.101904 0.459220 0.258460
O O12 0.210802 0.593197 0.024947
O O13 0.931098 0.842943 0.790532
O O14 0.359478 0.700248 0.048483
O O15 0.195956 0.134785 0.709888
O O16 0.728472 0.236467 0.301887
O O17 0.000000 0.000000 0.500000
#
# Coordination Sequence:
#
# PCOD8040214 Si02
#       8
#     2   2   2   2   2   2   2   2
#     4  10  18  36  58  83 127 150 189 244 290 352
#     4  10  20  37  60  86 120 151 200 254 292 349
#     4  10  20  38  58  86 125 163 195 232 302 358
#     4   9  18  41  60  84 114 157 199 246 293 346
#     4  11  22  36  56  89 128 158 193 242 297 358
#     4  10  21  36  60  89 124 158 197 238 291 365
#     4  10  20  37  58  91 116 149 204 244 295 345
#     4  10  22  38  65  87 111 153 210 253 291 343
#
# _framework density 24.246238999999999
#
# number of rings (size 3 to 8) (size 9 to 14) (size 15 to 20)
#    0.000    2.000    5.000    1.125    1.750    1.500 
#    2.250    1.250    0.000    0.000    0.000    0.000 
#    0.000    0.000    0.000    0.000    0.000    0.000 
#
# Total GULP energy -198228.266828 kJ/mol
# GULP energy per Si atom -12389.266677 kJ/mol
# Density = 2.419105 g / cm^3
# Si number density = 24.246239 Si / 1000 Ang^3
#
#
#
# Elastic Constant Matrix: (Units=GPa)
#
#
# Indices 1 2 3 4 5 6 
#
# 1 28.2910 24.4078 27.3500 -1.4467 0.8338 -0.0928
# 2 24.4078 127.6913 70.0643 8.1438 -8.1808 -6.9632
# 3 27.3500 70.0643 193.8793 -11.6049 -2.6015 5.9474
# 4 -1.4467 8.1438 -11.6049 40.5832 1.6624 -11.2688
# 5 0.8338 -8.1808 -2.6015 1.6624 34.1256 2.1515
# 6 -0.0928 -6.9632 5.9474 -11.2688 2.1515 20.4850
#
#
#
# Elastic Compliance Matrix: (Units=1/GPa)
#
#
# Indices 1 2 3 4 5 6 
#
# 1 0.045157 -0.006846 -0.003825 0.002162 -0.003174 0.000510
# 2 -0.006846 0.011535 -0.003429 -0.002793 0.002613 0.003075
# 3 -0.003825 -0.003429 0.007120 0.002001 -0.000149 -0.002133
# 4 0.002162 -0.002793 0.002001 0.030262 -0.003018 0.015444
# 5 -0.003174 0.002613 -0.000149 -0.003018 0.030391 -0.003935
# 6 0.000510 0.003075 -0.002133 0.015444 -0.003935 0.059392
#
#
# Mechanical properties :
#
#
# Convention : Reuss Voigt Hill
#
# Bulk Modulus (GPa) = 28.08114 65.94508 47.01311
# Shear Modulus (GPa) = 22.32861 34.24138 28.28500
#
# Velocity S-wave (km/s) = 3.03794 3.76205 3.41922
# Velocity P-wave (km/s) = 4.89002 6.79174 5.91777
#
# Compressibility (1/GPa) = 0.03561109
#
# Stress axis : x y z
#
# Youngs Moduli (GPa) = 22.14501 86.69459 140.45206
#
# Poissons Ratio (x) = 0.59353 0.53722
# Poissons Ratio (y) = 0.15161 0.48162
# Poissons Ratio (z) = 0.08470 0.29728
#
# Static dielectric constant tensor:
#      x y z
#    x 3.947310 -0.050180 -0.012490 
#    y -0.050180 4.530470 0.145760 
#    z -0.012490 0.145760 4.927440 
# 
# 
# High freq. dielectric constant tensor:
#      x y z
#    x 1.927970 -0.003470 -0.007200 
#    y -0.003470 1.964600 0.001540 
#    z -0.007200 0.001540 1.979420 
# 
# From -- ./inp_files/304643.got.cif
#   From: 2010.06.25/outbox.cif.g09.slc.cpg/sg2_153_cif.got.tgz:304643.got - 2010.06.27 13:26:56.
