data_PCOD8040749
_publ_section_title
;
Structure prediction by ZEFSAII (Michael W. Deem and Ramdas Pophale) SiO2 
 PCOD8040749
Probable space group: P -1
;
_chemical_formula_sum "Si O2"
_cell_formula_units_Z 14
_cell_length_a 15.954612
_cell_length_b 9.162876
_cell_length_c 9.702046
_cell_angle_alpha 118.814410
_cell_angle_beta 37.486347
_cell_angle_gamma 97.386395
_cell_volume 665.062620
_symmetry_space_group_name_H-M "P -1"
_symmetry_group_IT_number 2
_symmetry_cell_setting 'triclinic'
loop_
_space_group_symop_operation_xyz
x,y,z
-x,-y,-z
loop_
_atom_site_type_symbol
_atom_site_label
_atom_site_fract_x
_atom_site_fract_y
_atom_site_fract_z
Si Si1 0.386252 0.798560 0.814270
Si Si2 0.651893 0.020184 0.782008
Si Si3 0.351211 0.131945 0.839478
Si Si4 0.264898 0.516664 0.805727
Si Si5 0.462113 0.329576 0.992681
Si Si6 0.928594 0.555865 0.770900
Si Si7 0.806831 0.601434 0.427162
O O1 0.299906 0.689780 0.812599
O O2 0.572551 0.680533 0.490423
O O3 0.316793 0.007711 0.937212
O O4 0.337361 0.838066 0.055508
O O5 0.798261 0.806901 0.500774
O O6 0.623529 0.131792 0.723481
O O7 0.500000 0.000000 0.000000
O O8 0.500000 0.000000 0.500000
O O9 0.376006 0.296027 0.958347
O O10 0.202915 0.225349 0.972815
O O11 0.160912 0.508960 0.810247
O O12 0.165783 0.549601 0.091439
O O13 0.354826 0.375922 0.289606
O O14 0.500000 0.500000 0.000000
O O15 0.000000 0.500000 0.500000
O O16 0.060418 0.526926 0.695609
#
# Coordination Sequence:
#
# PCOD8040749 Si02
#       7
#     2   2   2   2   2   2   2
#     4  11  21  40  66 100 122 165 226 273 313 380
#     4  10  18  38  64  87 128 165 213 261 320 385
#     4  12  24  41  66  96 133 171 220 272 327 387
#     4  11  24  39  68  95 129 169 226 268 316 395
#     4  11  23  37  67 100 130 168 218 276 327 381
#     4  12  25  43  66  95 139 178 208 271 346 390
#     4  11  22  44  63  92 134 176 216 262 330 395
#
# _framework density 21.050649
#
# number of rings (size 3 to 8) (size 9 to 14) (size 15 to 20)
#    0.000    0.857    8.571    0.429    4.000    0.000 
#    0.000    5.000    0.000    0.000    0.000    0.000 
#    0.000    0.000    0.000    0.000    0.000    0.000 
#
# Total GULP energy -173495.221666 kJ/mol
# GULP energy per Si atom -12392.515833 kJ/mol
# Density = 2.100274 g / cm^3
# Si number density = 21.050649 Si / 1000 Ang^3
#
#
#
# Elastic Constant Matrix: (Units=GPa)
#
#
# Indices 1 2 3 4 5 6 
#
# 1 142.2147 66.2478 43.2959 16.8448 -5.1404 -15.6412
# 2 66.2478 136.6513 30.2288 11.9681 -7.0422 -3.7317
# 3 43.2959 30.2288 85.8473 -2.4185 7.2892 -4.0626
# 4 16.8448 11.9681 -2.4185 33.1249 -7.9322 2.1466
# 5 -5.1404 -7.0422 7.2892 -7.9322 33.4218 11.1119
# 6 -15.6412 -3.7317 -4.0626 2.1466 11.1119 34.8541
#
#
#
# Elastic Compliance Matrix: (Units=1/GPa)
#
#
# Indices 1 2 3 4 5 6 
#
# 1 0.011244 -0.004021 -0.004085 -0.005120 -0.001033 0.004784
# 2 -0.004021 0.009798 -0.001702 -0.001017 0.002094 -0.001559
# 3 -0.004085 -0.001702 0.014743 0.002816 -0.003778 0.000734
# 4 -0.005120 -0.001017 0.002816 0.036082 0.009371 -0.007288
# 5 -0.001033 0.002094 -0.003778 0.009371 0.037661 -0.013263
# 6 0.004784 -0.001559 0.000734 -0.007288 -0.013263 0.035434
#
#
# Mechanical properties :
#
#
# Convention : Reuss Voigt Hill
#
# Bulk Modulus (GPa) = 61.85027 71.58425 66.71726
# Shear Modulus (GPa) = 29.41723 35.27621 32.34672
#
# Velocity S-wave (km/s) = 3.74230 4.09807 3.92422
# Velocity P-wave (km/s) = 6.93675 7.51477 7.23154
#
# Compressibility (1/GPa) = 0.01616808
#
# Stress axis : x y z
#
# Youngs Moduli (GPa) = 88.93785 102.05655 67.82877
#
# Poissons Ratio (x) = 0.41042 0.27706
# Poissons Ratio (y) = 0.35766 0.11547
# Poissons Ratio (z) = 0.36329 0.17374
#
# Static dielectric constant tensor:
#      x y z
#    x 4.393380 -0.718520 -0.165840 
#    y -0.718520 4.643610 0.734520 
#    z -0.165840 0.734520 4.343710 
# 
# 
# High freq. dielectric constant tensor:
#      x y z
#    x 1.828700 -0.022000 0.005570 
#    y -0.022000 1.814640 0.006470 
#    z 0.005570 0.006470 1.809250 
# 
# From -- ./inp_files/299431.got.cif
#   From: 2010.06.25/outbox.cif.g09.slc.cpg/sg2_150_cif.got.tgz:299431.got - 2010.06.27 13:26:56.
