data_PCOD8040272
_publ_section_title
;
Structure prediction by ZEFSAII (Michael W. Deem and Ramdas Pophale) SiO2 
 PCOD8040272
Probable space group: P -1
;
_chemical_formula_sum "Si O2"
_cell_formula_units_Z 16
_cell_length_a 13.842704
_cell_length_b 21.853440
_cell_length_c 14.002953
_cell_angle_alpha 20.066667
_cell_angle_beta 147.384199
_cell_angle_gamma 145.271692
_cell_volume 772.546702
_symmetry_space_group_name_H-M "P -1"
_symmetry_group_IT_number 2
_symmetry_cell_setting 'triclinic'
loop_
_space_group_symop_operation_xyz
x,y,z
-x,-y,-z
loop_
_atom_site_type_symbol
_atom_site_label
_atom_site_fract_x
_atom_site_fract_y
_atom_site_fract_z
Si Si1 0.234177 0.626545 0.423066
Si Si2 0.845427 0.436339 0.768708
Si Si3 0.408422 0.653681 0.152827
Si Si4 0.590159 0.590292 0.848765
Si Si5 0.757922 0.830966 0.111719
Si Si6 0.762199 0.402988 0.105231
Si Si7 0.861215 0.007979 0.752242
Si Si8 0.125386 0.266488 0.981546
O O1 0.218695 0.631652 0.288977
O O2 0.444563 0.705012 0.512149
O O3 0.188197 0.425519 0.723971
O O4 0.092354 0.748858 0.165368
O O5 0.741333 0.301685 0.960867
O O6 0.803876 0.635657 0.457298
O O7 0.059464 0.447526 0.947971
O O8 0.500000 0.500000 0.500000
O O9 0.559204 0.832534 0.992162
O O10 0.319229 0.563029 0.114716
O O11 0.500000 0.500000 0.000000
O O12 0.627041 0.437364 0.027811
O O13 0.777946 0.708474 0.870389
O O14 0.920850 0.980568 0.068083
O O15 0.745990 0.868153 0.934614
O O16 0.797199 0.198140 0.434830
O O17 0.826061 0.920856 0.745807
#
# Coordination Sequence:
#
# PCOD8040272 Si02
#       8
#     2   2   2   2   2   2   2   2
#     4  10  19  35  60  84 120 156 208 236 294 347
#     4  10  18  36  60  84 114 154 204 252 286 337
#     4  10  21  36  57  85 115 153 210 252 284 342
#     4  10  21  34  55  87 123 151 204 236 293 360
#     4   9  19  34  53  85 116 160 187 241 300 359
#     4  11  22  37  58  94 117 155 195 253 303 357
#     4  10  21  36  59  84 133 150 186 243 319 362
#     4  10  20  36  57  88 123 163 186 246 296 366
#
# _framework density 20.710722000000001
#
# number of rings (size 3 to 8) (size 9 to 14) (size 15 to 20)
#    0.000    2.000    2.500    1.875    1.750    0.500 
#    2.250    0.000    0.000    1.500    0.000    0.000 
#    0.000    0.000    0.000    0.000    0.000    0.000 
#
# Total GULP energy -198224.426221 kJ/mol
# GULP energy per Si atom -12389.026639 kJ/mol
# Density = 2.066358 g / cm^3
# Si number density = 20.710722 Si / 1000 Ang^3
#
#
#
# Elastic Constant Matrix: (Units=GPa)
#
#
# Indices 1 2 3 4 5 6 
#
# 1 159.4209 65.4724 42.2322 12.0652 -6.8450 -4.1154
# 2 65.4724 94.4463 50.2822 28.7245 -3.9829 -3.5090
# 3 42.2322 50.2822 45.7415 25.1484 2.6800 -0.9292
# 4 12.0652 28.7245 25.1484 32.8882 -2.0597 -5.3547
# 5 -6.8450 -3.9829 2.6800 -2.0597 32.3068 2.1528
# 6 -4.1154 -3.5090 -0.9292 -5.3547 2.1528 43.7185
#
#
#
# Elastic Compliance Matrix: (Units=1/GPa)
#
#
# Indices 1 2 3 4 5 6 
#
# 1 0.009866 -0.004460 -0.008063 0.006782 0.002568 0.001104
# 2 -0.004460 0.028622 -0.025822 -0.003220 0.004473 0.000714
# 3 -0.008063 -0.025822 0.078064 -0.035814 -0.013324 -0.004903
# 4 0.006782 -0.003220 -0.035814 0.059646 0.007376 0.006561
# 5 0.002568 0.004473 -0.013324 0.007376 0.033653 -0.000436
# 6 0.001104 0.000714 -0.004903 0.006561 -0.000436 0.023756
#
#
# Mechanical properties :
#
#
# Convention : Reuss Voigt Hill
#
# Bulk Modulus (GPa) = 25.08750 68.39803 46.74277
# Shear Modulus (GPa) = 15.45192 31.22417 23.33805
#
# Velocity S-wave (km/s) = 2.73442 3.88704 3.36051
# Velocity P-wave (km/s) = 4.70202 7.29675 6.13806
#
# Compressibility (1/GPa) = 0.03986049
#
# Stress axis : x y z
#
# Youngs Moduli (GPa) = 101.36042 34.93834 12.81007
#
# Poissons Ratio (x) = 0.15582 0.10329
# Poissons Ratio (y) = 0.45205 0.33079
# Poissons Ratio (z) = 0.81727 0.90219
#
# Static dielectric constant tensor:
#      x y z
#    x 4.654750 0.389910 -0.217150 
#    y 0.389910 4.423360 0.562070 
#    z -0.217150 0.562070 3.512930 
# 
# 
# High freq. dielectric constant tensor:
#      x y z
#    x 1.821810 0.005460 0.000750 
#    y 0.005460 1.807740 0.038930 
#    z 0.000750 0.038930 1.766900 
# 
# From -- ./inp_files/498767.got.cif
#   From: 2010.06.25/outbox.cif.g09.slc.cpg/sg2_250_cif.got.tgz:498767.got - 2010.06.27 13:26:56.
