data_PCOD8040786
_publ_section_title
;
Structure prediction by ZEFSAII (Michael W. Deem and Ramdas Pophale) SiO2 
 PCOD8040786
Probable space group: P -1
;
_chemical_formula_sum "Si O2"
_cell_formula_units_Z 16
_cell_length_a 10.021845
_cell_length_b 13.349162
_cell_length_c 11.803056
_cell_angle_alpha 88.753544
_cell_angle_beta 124.973608
_cell_angle_gamma 131.470678
_cell_volume 787.829141
_symmetry_space_group_name_H-M "P -1"
_symmetry_group_IT_number 2
_symmetry_cell_setting 'triclinic'
loop_
_space_group_symop_operation_xyz
x,y,z
-x,-y,-z
loop_
_atom_site_type_symbol
_atom_site_label
_atom_site_fract_x
_atom_site_fract_y
_atom_site_fract_z
Si Si1 0.736918 0.047084 0.072697
Si Si2 0.335373 0.209047 0.919919
Si Si3 0.466145 0.070354 0.267842
Si Si4 0.001290 0.776173 0.197745
Si Si5 0.963031 0.677991 0.413056
Si Si6 0.542619 0.329939 0.273382
Si Si7 0.697079 0.610525 0.696780
Si Si8 0.564476 0.455095 0.848341
O O1 0.739059 0.941706 0.140958
O O2 0.707127 0.013148 0.926673
O O3 0.013399 0.239556 0.223275
O O4 0.500000 0.000000 0.000000
O O5 0.071706 0.150206 0.787803
O O6 0.541294 0.343480 0.915672
O O7 0.457610 0.279117 0.102386
O O8 0.521930 0.212838 0.328759
O O9 0.756601 0.158962 0.391381
O O10 0.288517 0.923146 0.274675
O O11 0.032292 0.707437 0.312018
O O12 0.750657 0.624800 0.000975
O O13 0.849828 0.518468 0.412686
O O14 0.733221 0.648314 0.317286
O O15 0.363643 0.320125 0.259156
O O16 0.500000 0.500000 0.500000
O O17 0.687723 0.507972 0.779419
#
# Coordination Sequence:
#
# PCOD8040786 Si02
#       8
#     2   2   2   2   2   2   2   2
#     4  11  25  40  58  83 119 156 191 238 294 341
#     4  10  18  38  67  87 108 150 200 240 284 343
#     4  11  22  34  59  87 122 146 186 245 290 335
#     4  11  17  35  60  90 115 143 190 244 288 337
#     4  10  19  32  55  91 117 142 182 242 293 335
#     4  10  19  36  61  88 111 152 196 235 284 344
#     4  11  23  40  60  83 119 156 197 233 283 349
#     4  10  19  37  63  86 114 151 196 237 284 342
#
# _framework density 20.308973000000002
#
# number of rings (size 3 to 8) (size 9 to 14) (size 15 to 20)
#    0.000    1.500    5.000    2.250    3.500    2.000 
#    0.000    1.250    5.500    0.000    0.000    0.000 
#    0.000    0.000    0.000    0.000    0.000    0.000 
#
# Total GULP energy -198226.990688 kJ/mol
# GULP energy per Si atom -12389.186918 kJ/mol
# Density = 2.026275 g / cm^3
# Si number density = 20.308973 Si / 1000 Ang^3
#
#
#
# Elastic Constant Matrix: (Units=GPa)
#
#
# Indices 1 2 3 4 5 6 
#
# 1 58.7131 40.1315 18.5459 14.2731 9.2957 9.1276
# 2 40.1315 143.1184 37.7750 12.4578 6.1450 23.9587
# 3 18.5459 37.7750 85.9647 12.0430 16.1669 4.7754
# 4 14.2731 12.4578 12.0430 30.6951 13.7103 8.5379
# 5 9.2957 6.1450 16.1669 13.7103 28.6249 2.5822
# 6 9.1276 23.9587 4.7754 8.5379 2.5822 21.0872
#
#
#
# Elastic Compliance Matrix: (Units=1/GPa)
#
#
# Indices 1 2 3 4 5 6 
#
# 1 0.023250 -0.005406 -0.001197 -0.006952 -0.002334 -0.000550
# 2 -0.005406 0.010940 -0.003601 0.001588 0.001593 -0.010112
# 3 -0.001197 -0.003601 0.014800 -0.001549 -0.006699 0.002705
# 4 -0.006952 0.001588 -0.001549 0.048714 -0.019113 -0.015828
# 5 -0.002334 0.001593 -0.006699 -0.019113 0.048057 0.002572
# 6 -0.000550 -0.010112 0.002705 -0.015828 0.002572 0.064630
#
#
# Mechanical properties :
#
#
# Convention : Reuss Voigt Hill
#
# Bulk Modulus (GPa) = 34.98759 53.41123 44.19941
# Shear Modulus (GPa) = 20.80502 28.83769 24.82135
#
# Velocity S-wave (km/s) = 3.20414 3.77231 3.49977
# Velocity P-wave (km/s) = 5.56360 6.73277 6.17592
#
# Compressibility (1/GPa) = 0.02858157
#
# Stress axis : x y z
#
# Youngs Moduli (GPa) = 43.01002 91.40881 67.56804
#
# Poissons Ratio (x) = 0.49418 0.08087
# Poissons Ratio (y) = 0.23252 0.24332
# Poissons Ratio (z) = 0.05148 0.32918
#
# Static dielectric constant tensor:
#      x y z
#    x 3.312360 0.161800 0.081520 
#    y 0.161800 4.287720 -0.034150 
#    z 0.081520 -0.034150 3.621950 
# 
# 
# High freq. dielectric constant tensor:
#      x y z
#    x 1.746800 0.019440 0.017420 
#    y 0.019440 1.817290 -0.001300 
#    z 0.017420 -0.001300 1.783880 
# 
# From -- ./inp_files/434065.got.cif
#   From: 2010.06.25/outbox.cif.g09.slc.cpg/sg2_218_cif.got.tgz:434065.got - 2010.06.27 13:26:56.
