data_PCOD8040610
_publ_section_title
;
Structure prediction by ZEFSAII (Michael W. Deem and Ramdas Pophale) SiO2 
 PCOD8040610
Probable space group: P -1
;
_chemical_formula_sum "Si O2"
_cell_formula_units_Z 16
_cell_length_a 18.368529
_cell_length_b 9.485122
_cell_length_c 8.854418
_cell_angle_alpha 100.132673
_cell_angle_beta 55.386462
_cell_angle_gamma 135.349352
_cell_volume 819.907291
_symmetry_space_group_name_H-M "P -1"
_symmetry_group_IT_number 2
_symmetry_cell_setting 'triclinic'
loop_
_space_group_symop_operation_xyz
x,y,z
-x,-y,-z
loop_
_atom_site_type_symbol
_atom_site_label
_atom_site_fract_x
_atom_site_fract_y
_atom_site_fract_z
Si Si1 0.967548 0.295948 0.505254
Si Si2 0.444302 0.605506 0.783200
Si Si3 0.674133 0.829570 0.108472
Si Si4 0.755380 0.601083 0.512247
Si Si5 0.049752 0.907627 0.224217
Si Si6 0.810650 0.631899 0.784601
Si Si7 0.485077 0.812954 0.467366
Si Si8 0.687172 0.831521 0.733492
O O1 0.981461 0.254302 0.650214
O O2 0.000000 0.500000 0.500000
O O3 0.080302 0.351286 0.283316
O O4 0.817044 0.084346 0.583204
O O5 0.410668 0.397760 0.749470
O O6 0.496017 0.750068 0.603309
O O7 0.558571 0.756571 0.804782
O O8 0.309614 0.518992 0.983101
O O9 0.609613 0.903971 0.237848
O O10 0.667142 0.791230 0.929299
O O11 0.832319 0.011435 0.009917
O O12 0.755195 0.527571 0.663459
O O13 0.657899 0.393872 0.479445
O O14 0.701270 0.696141 0.609048
O O15 0.907020 0.778253 0.292412
O O16 0.114676 0.123903 0.272845
O O17 0.500000 0.000000 0.500000
#
# Coordination Sequence:
#
# PCOD8040610 Si02
#       8
#     2   2   2   2   2   2   2   2
#     4  10  19  31  54  93 125 141 176 245 306 345
#     4  11  22  37  61  88 113 153 204 242 279 348
#     4  10  20  39  65  89 115 146 199 252 291 337
#     4  11  18  38  66  87 115 153 195 238 294 345
#     4   9  18  35  63  92 112 145 193 248 295 341
#     4  10  18  37  64  91 114 143 199 250 289 343
#     4  12  28  42  53  81 129 166 192 236 295 349
#     4  11  19  36  68  94 108 149 201 248 292 341
#
# _framework density 19.514402
#
# number of rings (size 3 to 8) (size 9 to 14) (size 15 to 20)
#    0.000    1.500    6.250    2.250    0.000    4.000 
#    0.000    6.250    0.000    0.000    0.000    0.000 
#    0.000    0.000    0.000    0.000    0.000    0.000 
#
# Total GULP energy -198321.583719 kJ/mol
# GULP energy per Si atom -12395.098982 kJ/mol
# Density = 1.946999 g / cm^3
# Si number density = 19.514402 Si / 1000 Ang^3
#
#
#
# Elastic Constant Matrix: (Units=GPa)
#
#
# Indices 1 2 3 4 5 6 
#
# 1 90.5336 55.7683 60.3153 -5.3955 -24.3494 -10.1945
# 2 55.7683 119.3629 48.4327 -5.6376 -11.0220 -16.7351
# 3 60.3153 48.4327 84.5853 -5.8482 -30.2956 -1.4488
# 4 -5.3955 -5.6376 -5.8482 16.5784 0.3811 -4.6767
# 5 -24.3494 -11.0220 -30.2956 0.3811 40.7791 -1.9400
# 6 -10.1945 -16.7351 -1.4488 -4.6767 -1.9400 33.8714
#
#
#
# Elastic Compliance Matrix: (Units=1/GPa)
#
#
# Indices 1 2 3 4 5 6 
#
# 1 0.024549 -0.005013 -0.012943 0.003040 0.003897 0.005001
# 2 -0.005013 0.013201 -0.004672 0.002690 -0.002683 0.005031
# 3 -0.012943 -0.004672 0.027998 0.002689 0.011595 -0.003971
# 4 0.003040 0.002690 0.002689 0.066393 0.004480 0.011783
# 5 0.003897 -0.002683 0.011595 0.004480 0.034837 0.002958
# 6 0.005001 0.005031 -0.003971 0.011783 0.002958 0.035141
#
#
# Mechanical properties :
#
#
# Convention : Reuss Voigt Hill
#
# Bulk Modulus (GPa) = 48.80347 69.27937 59.04142
# Shear Modulus (GPa) = 19.66904 26.91014 23.28959
#
# Velocity S-wave (km/s) = 3.17823 3.71750 3.45839
# Velocity P-wave (km/s) = 6.20737 7.34882 6.80208
#
# Compressibility (1/GPa) = 0.02049035
#
# Stress axis : x y z
#
# Youngs Moduli (GPa) = 40.73438 75.75323 35.71717
#
# Poissons Ratio (x) = 0.37978 0.46229
# Poissons Ratio (y) = 0.20422 0.16688
# Poissons Ratio (z) = 0.52722 0.35394
#
# Static dielectric constant tensor:
#      x y z
#    x 3.825550 0.110030 -0.635490 
#    y 0.110030 3.298150 -0.167550 
#    z -0.635490 -0.167550 3.745410 
# 
# 
# High freq. dielectric constant tensor:
#      x y z
#    x 1.762770 0.002310 -0.035620 
#    y 0.002310 1.730460 -0.014240 
#    z -0.035620 -0.014240 1.756170 
# 
# From -- ./inp_files/200744.got.cif
#   From: 2010.06.25/outbox.cif.g09.slc.cpg/sg2_101_cif.got.tgz:200744.got - 2010.06.27 13:26:56.
