data_PCOD8040875
_publ_section_title
;
Structure prediction by ZEFSAII (Michael W. Deem and Ramdas Pophale) SiO2 
 PCOD8040875
Probable space group: P -1
;
_chemical_formula_sum "Si O2"
_cell_formula_units_Z 16
_cell_length_a 13.398684
_cell_length_b 9.626893
_cell_length_c 8.986455
_cell_angle_alpha 134.204603
_cell_angle_beta 73.124038
_cell_angle_gamma 98.245828
_cell_volume 792.207635
_symmetry_space_group_name_H-M "P -1"
_symmetry_group_IT_number 2
_symmetry_cell_setting 'triclinic'
loop_
_space_group_symop_operation_xyz
x,y,z
-x,-y,-z
loop_
_atom_site_type_symbol
_atom_site_label
_atom_site_fract_x
_atom_site_fract_y
_atom_site_fract_z
Si Si1 0.345310 0.659038 0.058766
Si Si2 0.699435 0.868625 0.975119
Si Si3 0.472906 0.390714 0.579271
Si Si4 0.128034 0.632655 0.649997
Si Si5 0.500821 0.023753 0.690816
Si Si6 0.916817 0.785450 0.733236
Si Si7 0.199823 0.861818 0.058182
Si Si8 0.322465 0.553258 0.318716
O O1 0.438472 0.794974 0.148429
O O2 0.316206 0.547877 0.137888
O O3 0.381417 0.507764 0.799827
O O4 0.237318 0.776977 0.138243
O O5 0.622777 0.942465 0.194306
O O6 0.698153 0.038269 0.977406
O O7 0.824261 0.819538 0.925794
O O8 0.662665 0.663817 0.779333
O O9 0.500000 0.500000 0.500000
O O10 0.575809 0.345270 0.602328
O O11 0.443522 0.170034 0.396544
O O12 0.094843 0.412933 0.501776
O O13 0.167674 0.686757 0.836041
O O14 0.218172 0.666329 0.515799
O O15 0.028966 0.781812 0.759920
O O16 0.500000 0.000000 0.500000
O O17 0.897391 0.968880 0.763393
#
# Coordination Sequence:
#
# PCOD8040875 Si02
#       8
#     2   2   2   2   2   2   2   2
#     4  12  25  39  56  87 130 156 192 245 295 348
#     4   9  20  37  58  82 114 146 202 240 281 343
#     4  12  25  38  60  85 115 164 202 242 289 342
#     4  10  18  39  66  88 113 150 201 241 301 342
#     4  12  23  38  58  84 120 163 196 237 295 353
#     4   8  20  36  64  90 111 147 198 256 283 342
#     4  10  22  37  60  88 116 153 198 245 284 350
#     4  11  21  39  58  83 123 154 190 245 296 349
#
# _framework density 20.196725000000001
#
# number of rings (size 3 to 8) (size 9 to 14) (size 15 to 20)
#    0.750    0.750    2.500    3.750    1.750    2.000 
#    0.000    0.625    0.000    6.750    0.000    0.000 
#    0.000    0.000    0.000    0.000    0.000    0.000 
#
# Total GULP energy -198221.302184 kJ/mol
# GULP energy per Si atom -12388.831387 kJ/mol
# Density = 2.015076 g / cm^3
# Si number density = 20.196725 Si / 1000 Ang^3
#
#
#
# Elastic Constant Matrix: (Units=GPa)
#
#
# Indices 1 2 3 4 5 6 
#
# 1 79.5326 13.3205 19.4528 0.7403 -7.6956 -17.0992
# 2 13.3205 62.2764 15.5759 8.2835 6.3400 -11.8723
# 3 19.4528 15.5759 69.5314 9.0936 -10.5465 -10.2469
# 4 0.7403 8.2835 9.0936 28.0998 -2.5664 4.5985
# 5 -7.6956 6.3400 -10.5465 -2.5664 29.3160 5.0382
# 6 -17.0992 -11.8723 -10.2469 4.5985 5.0382 25.0390
#
#
#
# Elastic Compliance Matrix: (Units=1/GPa)
#
#
# Indices 1 2 3 4 5 6 
#
# 1 0.015418 -0.001152 -0.002415 -0.000539 0.001883 0.008714
# 2 -0.001152 0.021094 -0.003040 -0.007806 -0.008553 0.011126
# 3 -0.002415 -0.003040 0.017787 -0.004974 0.005293 0.004037
# 4 -0.000539 -0.007806 -0.004974 0.042546 0.006085 -0.015143
# 5 0.001883 -0.008553 0.005293 0.006085 0.040592 -0.009889
# 6 0.008714 0.011126 0.004037 -0.015143 -0.009889 0.057587
#
#
# Mechanical properties :
#
#
# Convention : Reuss Voigt Hill
#
# Bulk Modulus (GPa) = 24.34004 34.22652 29.28328
# Shear Modulus (GPa) = 22.52929 27.35701 24.94315
#
# Velocity S-wave (km/s) = 3.34352 3.68438 3.51808
# Velocity P-wave (km/s) = 5.19453 5.92308 5.57073
#
# Compressibility (1/GPa) = 0.04108456
#
# Stress axis : x y z
#
# Youngs Moduli (GPa) = 64.85955 47.40612 56.22134
#
# Poissons Ratio (x) = 0.05463 0.13577
# Poissons Ratio (y) = 0.07475 0.17090
# Poissons Ratio (z) = 0.15663 0.14411
#
# Static dielectric constant tensor:
#      x y z
#    x 3.589110 0.051590 -0.108420 
#    y 0.051590 3.665100 0.343350 
#    z -0.108420 0.343350 3.690040 
# 
# 
# High freq. dielectric constant tensor:
#      x y z
#    x 1.776370 0.000980 -0.006920 
#    y 0.000980 1.775260 0.031380 
#    z -0.006920 0.031380 1.788400 
# 
# From -- ./inp_files/294211.got.cif
#   From: 2010.06.25/outbox.cif.g09.slc.cpg/sg2_148_cif.got.tgz:294211.got - 2010.06.27 13:26:56.
