data_PCOD8040941
_publ_section_title
;
Structure prediction by ZEFSAII (Michael W. Deem and Ramdas Pophale) SiO2 
 PCOD8040941
Probable space group: P -1
;
_chemical_formula_sum "Si O2"
_cell_formula_units_Z 16
_cell_length_a 11.718448
_cell_length_b 11.508014
_cell_length_c 21.053240
_cell_angle_alpha 31.130158
_cell_angle_beta 40.094031
_cell_angle_gamma 61.772850
_cell_volume 791.866606
_symmetry_space_group_name_H-M "P -1"
_symmetry_group_IT_number 2
_symmetry_cell_setting 'triclinic'
loop_
_space_group_symop_operation_xyz
x,y,z
-x,-y,-z
loop_
_atom_site_type_symbol
_atom_site_label
_atom_site_fract_x
_atom_site_fract_y
_atom_site_fract_z
Si Si1 0.979100 0.308711 0.030121
Si Si2 0.681566 0.131601 0.990034
Si Si3 0.915475 0.092490 0.793120
Si Si4 0.026503 0.767668 0.072538
Si Si5 0.350985 0.576512 0.360804
Si Si6 0.587577 0.206218 0.306344
Si Si7 0.499621 0.336473 0.880370
Si Si8 0.370540 0.657383 0.619568
O O1 0.228035 0.561061 0.793626
O O2 0.878038 0.192840 0.057417
O O3 0.839350 0.385565 0.096163
O O4 0.973134 0.071349 0.180444
O O5 0.633834 0.341039 0.881123
O O6 0.814678 0.060538 0.920156
O O7 0.818652 0.266525 0.931667
O O8 0.462434 0.845152 0.231325
O O9 0.730498 0.946074 0.887265
O O10 0.097079 0.402899 0.558603
O O11 0.787221 0.503237 0.296418
O O12 0.000000 0.000000 0.000000
O O13 0.385456 0.668684 0.229786
O O14 0.451891 0.407540 0.415673
O O15 0.497781 0.392877 0.248719
O O16 0.500000 0.000000 0.500000
O O17 0.479132 0.969557 0.409603
#
# Coordination Sequence:
#
# PCOD8040941 Si02
#       8
#     2   2   2   2   2   2   2   2
#     4  10  20  35  62  90 113 151 195 246 291 334
#     4  11  22  40  57  86 121 160 190 242 301 351
#     4  11  19  36  62  92 116 147 199 250 298 347
#     4  10  18  40  63  83 119 153 197 243 295 340
#     4  11  19  37  60  93 119 141 199 254 293 352
#     4  12  22  40  60  90 121 153 199 242 289 355
#     4  11  24  37  57  83 127 161 186 240 303 349
#     4  10  20  36  60  92 115 144 199 246 288 339
#
# _framework density 20.205425000000002
#
# number of rings (size 3 to 8) (size 9 to 14) (size 15 to 20)
#    0.750    0.500    7.500    1.500    0.000    5.000 
#    2.250    3.125    0.000    0.000    0.000    0.000 
#    0.000    0.000    0.000    0.000    0.000    0.000 
#
# Total GULP energy -198246.787476 kJ/mol
# GULP energy per Si atom -12390.424217 kJ/mol
# Density = 2.015944 g / cm^3
# Si number density = 20.205425 Si / 1000 Ang^3
#
#
#
# Elastic Constant Matrix: (Units=GPa)
#
#
# Indices 1 2 3 4 5 6 
#
# 1 125.6814 10.9346 33.5429 -5.8111 -2.1005 -9.0142
# 2 10.9346 52.3989 11.7578 -4.4359 6.8064 -12.5083
# 3 33.5429 11.7578 110.9691 -13.9154 -23.5676 -2.0055
# 4 -5.8111 -4.4359 -13.9154 30.1462 2.6043 3.9615
# 5 -2.1005 6.8064 -23.5676 2.6043 20.8530 -5.3863
# 6 -9.0142 -12.5083 -2.0055 3.9615 -5.3863 18.7456
#
#
#
# Elastic Compliance Matrix: (Units=1/GPa)
#
#
# Indices 1 2 3 4 5 6 
#
# 1 0.008982 -0.000200 -0.002941 0.000018 -0.001465 0.003446
# 2 -0.000200 0.024451 -0.004235 0.000740 -0.009557 0.012864
# 3 -0.002941 -0.004235 0.014565 0.003824 0.017465 0.001529
# 4 0.000018 0.000740 0.003824 0.036228 -0.002360 -0.007423
# 5 -0.001465 -0.009557 0.017465 -0.002360 0.075333 0.016932
# 6 0.003446 0.012864 0.001529 -0.007423 0.016932 0.070184
#
#
# Mechanical properties :
#
#
# Convention : Reuss Voigt Hill
#
# Bulk Modulus (GPa) = 30.07672 44.61335 37.34503
# Shear Modulus (GPa) = 19.56358 29.46991 24.51674
#
# Velocity S-wave (km/s) = 3.11502 3.82319 3.48713
# Velocity P-wave (km/s) = 5.27784 6.45112 5.89375
#
# Compressibility (1/GPa) = 0.03324831
#
# Stress axis : x y z
#
# Youngs Moduli (GPa) = 111.32921 40.89808 68.65612
#
# Poissons Ratio (x) = 0.00818 0.20189
# Poissons Ratio (y) = 0.02227 0.29073
# Poissons Ratio (z) = 0.32737 0.17319
#
# Static dielectric constant tensor:
#      x y z
#    x 3.716340 0.204680 -0.472600 
#    y 0.204680 3.676810 -0.292970 
#    z -0.472600 -0.292970 3.933990 
# 
# 
# High freq. dielectric constant tensor:
#      x y z
#    x 1.777270 -0.002100 -0.027210 
#    y -0.002100 1.774090 -0.013220 
#    z -0.027210 -0.013220 1.793150 
# 
# From -- ./inp_files/594888.got.cif
#   From: 2010.06.25/outbox.cif.g09.slc.cpg/sg2_298_cif.got.tgz:594888.got - 2010.06.27 13:26:56.
