data_PCOD8040122
_publ_section_title
;
Structure prediction by ZEFSAII (Michael W. Deem and Ramdas Pophale) SiO2 
 PCOD8040122
Probable space group: P -1
;
_chemical_formula_sum "Si O2"
_cell_formula_units_Z 14
_cell_length_a 14.818076
_cell_length_b 9.765311
_cell_length_c 19.059042
_cell_angle_alpha 32.476375
_cell_angle_beta 151.293319
_cell_angle_gamma 141.017363
_cell_volume 703.772449
_symmetry_space_group_name_H-M "P -1"
_symmetry_group_IT_number 2
_symmetry_cell_setting 'triclinic'
loop_
_space_group_symop_operation_xyz
x,y,z
-x,-y,-z
loop_
_atom_site_type_symbol
_atom_site_label
_atom_site_fract_x
_atom_site_fract_y
_atom_site_fract_z
Si Si1 0.428493 0.078901 0.691340
Si Si2 0.458650 0.692544 0.098488
Si Si3 0.867603 0.603623 0.062462
Si Si4 0.308770 0.466204 0.549797
Si Si5 0.888706 0.381675 0.322575
Si Si6 0.725718 0.136636 0.753309
Si Si7 0.613350 0.676103 0.061126
O O1 0.350830 0.312223 0.575595
O O2 0.541762 0.173288 0.657531
O O3 0.244786 0.876382 0.632248
O O4 0.576401 0.965946 0.893957
O O5 0.534566 0.546589 0.278899
O O6 0.550511 0.599825 0.129991
O O7 0.233230 0.582202 0.987682
O O8 0.500000 0.000000 0.000000
O O9 0.851495 0.421985 0.197870
O O10 0.086340 0.705947 0.149639
O O11 0.749356 0.839279 0.892358
O O12 0.300795 0.754838 0.390546
O O13 0.107442 0.352725 0.497090
O O14 0.832229 0.627152 0.222170
O O15 0.500000 0.500000 0.000000
#
# Coordination Sequence:
#
# PCOD8040122 Si02
#       7
#     2   2   2   2   2   2   2
#     4  11  18  37  63  89 117 161 210 249 294 360
#     4  12  22  39  63  94 127 155 198 264 313 345
#     4  10  19  39  62  89 117 166 210 239 296 372
#     4  11  24  35  56  94 129 153 193 258 318 347
#     4  10  19  37  64  89 112 160 217 249 280 364
#     4  10  22  37  63  87 122 166 207 241 293 379
#     4  10  18  35  65  87 109 159 211 240 285 359
#
# _framework density 19.892795
#
# number of rings (size 3 to 8) (size 9 to 14) (size 15 to 20)
#    0.000    1.429    5.714    1.714    0.000    2.286 
#    0.000    0.714    3.143    0.000    0.000    0.000 
#    0.000    0.000    0.000    0.000    0.000    0.000 
#
# Total GULP energy -173536.764374 kJ/mol
# GULP energy per Si atom -12395.483170 kJ/mol
# Density = 1.984752 g / cm^3
# Si number density = 19.892795 Si / 1000 Ang^3
#
#
#
# Elastic Constant Matrix: (Units=GPa)
#
#
# Indices 1 2 3 4 5 6 
#
# 1 94.9037 23.2682 15.4311 8.3341 11.2884 15.1715
# 2 23.2682 90.7069 26.8874 12.5932 1.5640 14.0475
# 3 15.4311 26.8874 77.0085 8.6170 -6.7026 5.5258
# 4 8.3341 12.5932 8.6170 20.6653 -2.8537 6.3210
# 5 11.2884 1.5640 -6.7026 -2.8537 32.7719 -1.5216
# 6 15.1715 14.0475 5.5258 6.3210 -1.5216 28.0517
#
#
#
# Elastic Compliance Matrix: (Units=1/GPa)
#
#
# Indices 1 2 3 4 5 6 
#
# 1 0.012942 -0.001454 -0.001852 -0.002569 -0.005252 -0.005612
# 2 -0.001454 0.013958 -0.003826 -0.005211 -0.001604 -0.004362
# 3 -0.001852 -0.003826 0.015299 -0.003028 0.003723 0.000788
# 4 -0.002569 -0.005211 -0.003028 0.057009 0.005108 -0.007973
# 5 -0.005252 -0.001604 0.003723 0.005108 0.033772 0.003591
# 6 -0.005612 -0.004362 0.000788 -0.007973 0.003591 0.042705
#
#
# Mechanical properties :
#
#
# Convention : Reuss Voigt Hill
#
# Bulk Modulus (GPa) = 35.79800 43.75471 39.77636
# Shear Modulus (GPa) = 25.09261 29.43328 27.26294
#
# Velocity S-wave (km/s) = 3.55546 3.85072 3.70603
# Velocity P-wave (km/s) = 5.90674 6.46636 6.19287
#
# Compressibility (1/GPa) = 0.02793452
#
# Stress axis : x y z
#
# Youngs Moduli (GPa) = 77.26595 71.64165 65.36502
#
# Poissons Ratio (x) = 0.10420 0.12109
# Poissons Ratio (y) = 0.11238 0.25006
# Poissons Ratio (z) = 0.14313 0.27407
#
# Static dielectric constant tensor:
#      x y z
#    x 3.734750 0.089560 0.339880 
#    y 0.089560 3.558130 -0.112160 
#    z 0.339880 -0.112160 3.905570 
# 
# 
# High freq. dielectric constant tensor:
#      x y z
#    x 1.770000 0.013350 0.012770 
#    y 0.013350 1.754990 -0.016640 
#    z 0.012770 -0.016640 1.774280 
# 
# From -- ./inp_files/237510.got.cif
#   From: 2010.06.25/outbox.cif.g09.slc.cpg/sg2_119_cif.got.tgz:237510.got - 2010.06.27 13:26:56.
