data_PCOD8040683
_publ_section_title
;
Structure prediction by ZEFSAII (Michael W. Deem and Ramdas Pophale) SiO2 
 PCOD8040683
Probable space group: P -1
;
_chemical_formula_sum "Si O2"
_cell_formula_units_Z 16
_cell_length_a 24.039214
_cell_length_b 22.722088
_cell_length_c 14.136030
_cell_angle_alpha 150.460977
_cell_angle_beta 20.687880
_cell_angle_gamma 163.152810
_cell_volume 765.960036
_symmetry_space_group_name_H-M "P -1"
_symmetry_group_IT_number 2
_symmetry_cell_setting 'triclinic'
loop_
_space_group_symop_operation_xyz
x,y,z
-x,-y,-z
loop_
_atom_site_type_symbol
_atom_site_label
_atom_site_fract_x
_atom_site_fract_y
_atom_site_fract_z
Si Si1 0.814151 0.386976 0.826777
Si Si2 0.177275 0.803056 0.752764
Si Si3 0.190981 0.409162 0.302440
Si Si4 0.529525 0.623113 0.550201
Si Si5 0.265705 0.009918 0.073369
Si Si6 0.160897 0.258482 0.943078
Si Si7 0.082731 0.104504 0.382856
Si Si8 0.808316 0.809096 0.878864
O O1 0.026076 0.580789 0.686456
O O2 0.977953 0.385633 0.618922
O O3 0.689062 0.405935 0.126480
O O4 0.570763 0.171270 0.852818
O O5 0.500000 0.000000 0.500000
O O6 0.053128 0.806175 0.873265
O O7 0.139261 0.832549 0.958783
O O8 0.082745 0.240316 0.309810
O O9 0.216652 0.373345 0.105873
O O10 0.495001 0.644143 0.179395
O O11 0.500000 0.500000 0.500000
O O12 0.546124 0.581460 0.356838
O O13 0.836197 0.862150 0.410217
O O14 0.297317 0.159195 0.180167
O O15 0.038036 0.865487 0.317604
O O16 0.015850 0.044545 0.905618
O O17 0.207880 0.230736 0.263059
#
# Coordination Sequence:
#
# PCOD8040683 Si02
#       8
#     2   2   2   2   2   2   2   2
#     4  11  24  37  59  93 126 153 201 248 308 358
#     4  12  23  35  56  89 129 154 187 249 312 356
#     4  11  25  40  62  88 120 164 206 253 291 358
#     4  10  18  38  57  89 125 159 193 245 302 369
#     4  10  20  37  58  90 120 152 189 248 304 360
#     4  11  22  39  64  88 116 163 204 244 301 361
#     4   9  19  35  63  85 114 157 199 243 299 354
#     4  10  22  44  62  84 120 163 210 246 296 355
#
# _framework density 20.888818000000001
#
# number of rings (size 3 to 8) (size 9 to 14) (size 15 to 20)
#    0.000    1.500    3.750    1.875    1.750    3.000 
#    0.000    5.625    0.000    3.750    0.000    0.000 
#    0.000    0.000    0.000    0.000    0.000    0.000 
#
# Total GULP energy -198344.572946 kJ/mol
# GULP energy per Si atom -12396.535809 kJ/mol
# Density = 2.084127 g / cm^3
# Si number density = 20.888818 Si / 1000 Ang^3
#
#
#
# Elastic Constant Matrix: (Units=GPa)
#
#
# Indices 1 2 3 4 5 6 
#
# 1 65.5935 8.3303 46.6079 5.7218 -5.0132 -16.0202
# 2 8.3303 63.8053 34.8640 -2.5322 -13.9738 -22.4533
# 3 46.6079 34.8640 114.5717 3.4378 -22.6485 -17.6107
# 4 5.7218 -2.5322 3.4378 28.8662 2.3070 0.1358
# 5 -5.0132 -13.9738 -22.6485 2.3070 38.9054 7.2063
# 6 -16.0202 -22.4533 -17.6107 0.1358 7.2063 29.7067
#
#
#
# Elastic Compliance Matrix: (Units=1/GPa)
#
#
# Indices 1 2 3 4 5 6 
#
# 1 0.025180 0.006263 -0.010680 -0.002998 -0.002897 0.012698
# 2 0.006263 0.025684 -0.007171 0.001586 0.002440 0.017940
# 3 -0.010680 -0.007171 0.015980 -0.000879 0.005987 -0.003155
# 4 -0.002998 0.001586 -0.000879 0.035670 -0.002345 -0.000533
# 5 -0.002897 0.002440 0.005987 -0.002345 0.030489 -0.003554
# 6 0.012698 0.017940 -0.003155 -0.000533 -0.003554 0.053064
#
#
# Mechanical properties :
#
#
# Convention : Reuss Voigt Hill
#
# Bulk Modulus (GPa) = 22.89989 47.06388 34.98189
# Shear Modulus (GPa) = 22.34128 29.77355 26.05742
#
# Velocity S-wave (km/s) = 3.27392 3.77946 3.53573
# Velocity P-wave (km/s) = 5.02772 6.45177 5.78374
#
# Compressibility (1/GPa) = 0.04366833
#
# Stress axis : x y z
#
# Youngs Moduli (GPa) = 39.71339 38.93484 62.57792
#
# Poissons Ratio (x) = -0.24387 0.66835
# Poissons Ratio (y) = -0.24874 0.44876
# Poissons Ratio (z) = 0.42415 0.27921
#
# Static dielectric constant tensor:
#      x y z
#    x 7.531330 1.653300 10.953700 
#    y 1.653300 4.542390 4.635450 
#    z 10.953700 4.635450 35.609810 
# 
# 
# High freq. dielectric constant tensor:
#      x y z
#    x 1.802560 0.010280 0.010550 
#    y 0.010280 1.826560 -0.011370 
#    z 0.010550 -0.011370 1.814510 
# 
# From -- ./inp_files/454358.got.cif
#   From: 2010.06.25/outbox.cif.g09.slc.cpg/sg2_228_cif.got.tgz:454358.got - 2010.06.27 13:26:56.
