data_PCOD8040644
_publ_section_title
;
Structure prediction by ZEFSAII (Michael W. Deem and Ramdas Pophale) SiO2 
 PCOD8040644
Probable space group: P -1
;
_chemical_formula_sum "Si O2"
_cell_formula_units_Z 14
_cell_length_a 13.782316
_cell_length_b 21.680821
_cell_length_c 8.832255
_cell_angle_alpha 46.812421
_cell_angle_beta 136.302584
_cell_angle_gamma 158.631839
_cell_volume 663.683644
_symmetry_space_group_name_H-M "P -1"
_symmetry_group_IT_number 2
_symmetry_cell_setting 'triclinic'
loop_
_space_group_symop_operation_xyz
x,y,z
-x,-y,-z
loop_
_atom_site_type_symbol
_atom_site_label
_atom_site_fract_x
_atom_site_fract_y
_atom_site_fract_z
Si Si1 0.157952 0.673454 0.054432
Si Si2 0.227727 0.402211 0.423911
Si Si3 0.257980 0.548066 0.464337
Si Si4 0.193707 0.738201 0.324055
Si Si5 0.871350 0.903063 0.673399
Si Si6 0.180821 0.951760 0.514651
Si Si7 0.765199 0.052548 0.061053
O O1 0.178677 0.582877 0.197884
O O2 0.143577 0.664681 0.233961
O O3 0.433862 0.863882 0.978091
O O4 0.889675 0.583126 0.838815
O O5 0.500000 0.500000 0.500000
O O6 0.303431 0.484644 0.530441
O O7 0.009477 0.211586 0.521644
O O8 0.539317 0.714082 0.597521
O O9 0.002866 0.404218 0.532783
O O10 0.514133 0.892990 0.477635
O O11 0.133198 0.804917 0.122210
O O12 0.048105 0.911488 0.896130
O O13 0.923294 0.004557 0.685097
O O14 0.000000 0.000000 0.500000
O O15 0.177629 0.922252 0.737063
#
# Coordination Sequence:
#
# PCOD8040644 Si02
#       7
#     2   2   2   2   2   2   2
#     4  11  21  42  65  89 120 173 207 243 302 378
#     4  12  25  41  63  91 128 161 208 253 310 369
#     4  12  25  38  63 101 125 156 201 269 309 350
#     4  11  21  39  67  93 124 157 213 256 303 360
#     4  10  19  36  63  91 121 158 216 250 292 364
#     4  10  19  39  63  86 121 171 204 244 305 372
#     4  10  18  37  67  88 115 167 216 241 291 373
#
# _framework density 21.094387000000001
#
# number of rings (size 3 to 8) (size 9 to 14) (size 15 to 20)
#    0.000    1.143    7.143    3.429    0.000    1.143 
#    0.000    0.000    0.000    1.714    0.000    0.000 
#    0.000    0.000    0.000    0.000    0.000    0.000 
#
# Total GULP energy -173537.785567 kJ/mol
# GULP energy per Si atom -12395.556112 kJ/mol
# Density = 2.104638 g / cm^3
# Si number density = 21.094387 Si / 1000 Ang^3
#
#
#
# Elastic Constant Matrix: (Units=GPa)
#
#
# Indices 1 2 3 4 5 6 
#
# 1 104.4059 42.5249 20.2489 -3.7154 33.2989 -8.6086
# 2 42.5249 103.0255 22.5898 -13.5090 4.7581 4.0951
# 3 20.2489 22.5898 41.5986 0.7721 21.2328 4.8866
# 4 -3.7154 -13.5090 0.7721 28.0920 3.8042 9.4631
# 5 33.2989 4.7581 21.2328 3.8042 34.6893 -2.0512
# 6 -8.6086 4.0951 4.8866 9.4631 -2.0512 39.1112
#
#
#
# Elastic Compliance Matrix: (Units=1/GPa)
#
#
# Indices 1 2 3 4 5 6 
#
# 1 0.018195 -0.007793 0.004758 0.000034 -0.019122 0.003215
# 2 -0.007793 0.015525 -0.009703 0.006342 0.010410 -0.003117
# 3 0.004758 -0.009703 0.042750 0.000487 -0.029749 -0.004956
# 4 0.000034 0.006342 0.000487 0.043438 -0.006649 -0.011576
# 5 -0.019122 0.010410 -0.029749 -0.006649 0.064896 0.003430
# 6 0.003215 -0.003117 -0.004956 -0.011576 0.003430 0.030202
#
#
# Mechanical properties :
#
#
# Convention : Reuss Voigt Hill
#
# Bulk Modulus (GPa) = 19.61045 46.63969 33.12507
# Shear Modulus (GPa) = 19.41893 31.28961 25.35427
#
# Velocity S-wave (km/s) = 3.03739 3.85556 3.47067
# Velocity P-wave (km/s) = 4.64948 6.47908 5.63898
#
# Compressibility (1/GPa) = 0.05099321
#
# Stress axis : x y z
#
# Youngs Moduli (GPa) = 54.96134 64.41119 23.39175
#
# Poissons Ratio (x) = 0.50198 -0.11129
# Poissons Ratio (y) = 0.42833 0.22696
# Poissons Ratio (z) = -0.26148 0.62495
#
# Static dielectric constant tensor:
#      x y z
#    x 4.140700 -0.285530 0.515270 
#    y -0.285530 3.856930 -0.189550 
#    z 0.515270 -0.189550 3.427670 
# 
# 
# High freq. dielectric constant tensor:
#      x y z
#    x 1.836680 -0.002460 0.044560 
#    y -0.002460 1.831910 -0.009890 
#    z 0.044560 -0.009890 1.789870 
# 
# From -- ./inp_files/320019.got.cif
#   From: 2010.06.25/outbox.cif.g09.slc.cpg/sg2_161_cif.got.tgz:320019.got - 2010.06.27 13:26:56.
