data_PCOD8040519
_publ_section_title
;
Structure prediction by ZEFSAII (Michael W. Deem and Ramdas Pophale) SiO2 
 PCOD8040519
Probable space group: P -1
;
_chemical_formula_sum "Si O2"
_cell_formula_units_Z 16
_cell_length_a 8.337865
_cell_length_b 24.587699
_cell_length_c 18.642373
_cell_angle_alpha 20.454521
_cell_angle_beta 41.567877
_cell_angle_gamma 40.088213
_cell_volume 851.692680
_symmetry_space_group_name_H-M "P -1"
_symmetry_group_IT_number 2
_symmetry_cell_setting 'triclinic'
loop_
_space_group_symop_operation_xyz
x,y,z
-x,-y,-z
loop_
_atom_site_type_symbol
_atom_site_label
_atom_site_fract_x
_atom_site_fract_y
_atom_site_fract_z
Si Si1 0.764162 0.340638 0.378062
Si Si2 0.195319 0.399375 0.502987
Si Si3 0.087777 0.357397 0.990703
Si Si4 0.509057 0.956271 0.786770
Si Si5 0.299372 0.746654 0.653473
Si Si6 0.230693 0.029014 0.929572
Si Si7 0.137692 0.438979 0.313575
Si Si8 0.980452 0.142209 0.680895
O O1 0.477068 0.400914 0.426865
O O2 0.887590 0.487817 0.164480
O O3 0.793117 0.283640 0.357177
O O4 0.914471 0.186100 0.565914
O O5 0.183638 0.215937 0.732566
O O6 0.120393 0.486922 0.343394
O O7 0.000000 0.500000 0.500000
O O8 0.989056 0.405054 0.884332
O O9 0.356170 0.225697 0.057315
O O10 0.892057 0.281860 0.188978
O O11 0.688460 0.069734 0.568530
O O12 0.468927 0.968449 0.871816
O O13 0.249678 0.008609 0.763684
O O14 0.573274 0.627814 0.724603
O O15 0.000000 0.000000 0.000000
O O16 0.243358 0.925428 0.126708
O O17 0.990520 0.302970 0.521426
#
# Coordination Sequence:
#
# PCOD8040519 Si02
#       8
#     2   2   2   2   2   2   2   2
#     4  10  22  38  54  86 116 142 186 230 281 332
#     4  11  22  37  58  86 118 142 179 238 276 327
#     4  11  22  34  63  84 105 152 193 229 275 327
#     4  10  20  37  58  82 112 145 196 229 263 334
#     4  10  19  41  57  79 116 148 184 238 282 313
#     4  10  18  37  61  76 111 155 179 215 289 330
#     4   9  19  39  56  84 113 145 190 227 269 338
#     4   9  19  36  61  78 110 158 180 215 280 345
#
# _framework density 18.786118999999999
#
# number of rings (size 3 to 8) (size 9 to 14) (size 15 to 20)
#    0.000    2.000    5.000    1.125    3.500    1.500 
#    2.250    3.125    0.000    0.000    0.000    0.000 
#    0.000    0.000    0.000    0.000    0.000    0.000 
#
# Total GULP energy -198378.520628 kJ/mol
# GULP energy per Si atom -12398.657539 kJ/mol
# Density = 1.874336 g / cm^3
# Si number density = 18.786119 Si / 1000 Ang^3
#
#
#
# Elastic Constant Matrix: (Units=GPa)
#
#
# Indices 1 2 3 4 5 6 
#
# 1 84.8931 21.3035 38.8911 2.2809 18.0130 -2.3305
# 2 21.3035 85.1580 37.1125 8.9616 16.0876 -2.6926
# 3 38.8911 37.1125 115.5277 20.8392 11.7569 -5.4134
# 4 2.2809 8.9616 20.8392 25.1601 -5.3746 -2.3040
# 5 18.0130 16.0876 11.7569 -5.3746 32.9386 -1.7590
# 6 -2.3305 -2.6926 -5.4134 -2.3040 -1.7590 16.5765
#
#
#
# Elastic Compliance Matrix: (Units=1/GPa)
#
#
# Indices 1 2 3 4 5 6 
#
# 1 0.015322 -0.000852 -0.004497 0.001336 -0.006135 0.000082
# 2 -0.000852 0.014951 -0.003145 -0.003998 -0.006363 0.000051
# 3 -0.004497 -0.003145 0.013246 -0.009778 -0.002244 0.001586
# 4 0.001336 -0.003998 -0.009778 0.052507 0.013551 0.005081
# 5 -0.006135 -0.006363 -0.002244 0.013551 0.040022 0.003501
# 6 0.000082 0.000051 0.001586 0.005081 0.003501 0.061942
#
#
# Mechanical properties :
#
#
# Convention : Reuss Voigt Hill
#
# Bulk Modulus (GPa) = 37.69151 53.35477 45.52314
# Shear Modulus (GPa) = 22.33924 27.48648 24.91286
#
# Velocity S-wave (km/s) = 3.45213 3.82923 3.64556
# Velocity P-wave (km/s) = 5.99972 6.92918 6.48113
#
# Compressibility (1/GPa) = 0.02653117
#
# Stress axis : x y z
#
# Youngs Moduli (GPa) = 65.26723 66.88467 75.49195
#
# Poissons Ratio (x) = 0.05699 0.33948
# Poissons Ratio (y) = 0.05561 0.23742
# Poissons Ratio (z) = 0.29350 0.21035
#
# Static dielectric constant tensor:
#      x y z
#    x 3.575960 -0.032540 0.078480 
#    y -0.032540 3.224430 0.251440 
#    z 0.078480 0.251440 3.917650 
# 
# 
# High freq. dielectric constant tensor:
#      x y z
#    x 1.726240 -0.000430 -0.000650 
#    y -0.000430 1.708350 0.012260 
#    z -0.000650 0.012260 1.744060 
# 
# From -- ./inp_files/180582.got.cif
#   From: 2010.06.25/outbox.cif.g09.slc.cpg/sg2_91_cif.got.tgz:180582.got - 2010.06.27 13:26:56.
