data_PCOD8040264
_publ_section_title
;
Structure prediction by ZEFSAII (Michael W. Deem and Ramdas Pophale) SiO2 
 PCOD8040264
Probable space group: P -1
;
_chemical_formula_sum "Si O2"
_cell_formula_units_Z 16
_cell_length_a 12.094603
_cell_length_b 11.716956
_cell_length_c 17.704367
_cell_angle_alpha 139.029912
_cell_angle_beta 140.849722
_cell_angle_gamma 70.099291
_cell_volume 836.885285
_symmetry_space_group_name_H-M "P -1"
_symmetry_group_IT_number 2
_symmetry_cell_setting 'triclinic'
loop_
_space_group_symop_operation_xyz
x,y,z
-x,-y,-z
loop_
_atom_site_type_symbol
_atom_site_label
_atom_site_fract_x
_atom_site_fract_y
_atom_site_fract_z
Si Si1 0.817711 0.225584 0.188674
Si Si2 0.867274 0.797066 0.186204
Si Si3 0.608854 0.941256 0.198261
Si Si4 0.302482 0.217799 0.073306
Si Si5 0.787873 0.467413 0.782612
Si Si6 0.242870 0.669352 0.628491
Si Si7 0.730919 0.347139 0.862755
Si Si8 0.344452 0.963472 0.558416
O O1 0.809094 0.240332 0.282029
O O2 0.044822 0.429278 0.379789
O O3 0.625700 0.223479 0.047185
O O4 0.795591 0.008027 0.048222
O O5 0.766308 0.874312 0.229316
O O6 0.124659 0.933509 0.403891
O O7 0.834703 0.834123 0.101096
O O8 0.749936 0.544120 0.013352
O O9 0.715092 0.182603 0.346319
O O10 0.576753 0.930373 0.265001
O O11 0.291535 0.382835 0.203140
O O12 0.553165 0.330662 0.242463
O O13 0.698685 0.357988 0.762356
O O14 0.691433 0.267032 0.574156
O O15 0.048248 0.630607 0.997329
O O16 0.529252 0.121405 0.675268
#
# Coordination Sequence:
#
# PCOD8040264 Si02
#       8
#     2   2   2   2   2   2   2   2
#     4  10  20  35  59  84 106 146 185 227 277 325
#     4  10  20  35  55  84 115 145 181 226 276 322
#     4  11  21  38  54  81 123 146 175 229 273 332
#     4  10  18  36  60  83 110 137 184 241 270 315
#     4   9  20  37  57  78 111 145 186 235 267 311
#     4  10  20  36  59  83 108 140 189 230 275 325
#     4   9  20  37  55  79 109 147 192 230 261 321
#     4  11  23  35  56  82 115 155 182 213 278 337
#
# _framework density 19.118510000000001
#
# number of rings (size 3 to 8) (size 9 to 14) (size 15 to 20)
#    0.000    2.000    2.500    2.250    0.000    6.500 
#    0.000    2.500    0.000    4.500    0.000    0.000 
#    0.000    0.000    0.000    0.000    0.000    0.000 
#
# Total GULP energy -198410.922323 kJ/mol
# GULP energy per Si atom -12400.682645 kJ/mol
# Density = 1.907500 g / cm^3
# Si number density = 19.118510 Si / 1000 Ang^3
#
#
#
# Elastic Constant Matrix: (Units=GPa)
#
#
# Indices 1 2 3 4 5 6 
#
# 1 71.8150 34.8859 36.8695 3.0524 -5.1138 -12.7011
# 2 34.8859 71.8708 37.3397 5.8776 8.5911 -24.2948
# 3 36.8695 37.3397 112.9442 10.0415 20.0211 -0.2804
# 4 3.0524 5.8776 10.0415 18.2797 -0.9965 -7.6557
# 5 -5.1138 8.5911 20.0211 -0.9965 24.7827 5.5640
# 6 -12.7011 -24.2948 -0.2804 -7.6557 5.5640 28.9688
#
#
#
# Elastic Compliance Matrix: (Units=1/GPa)
#
#
# Indices 1 2 3 4 5 6 
#
# 1 0.023070 -0.009068 -0.007356 0.004236 0.013814 0.000905
# 2 -0.009068 0.031073 -0.005137 0.004429 -0.014134 0.025919
# 3 -0.007356 -0.005137 0.015761 -0.009649 -0.011107 -0.007797
# 4 0.004236 0.004429 -0.009649 0.067517 0.004820 0.022396
# 5 0.013814 -0.014134 -0.011107 0.004820 0.060936 -0.016335
# 6 0.000905 0.025919 -0.007797 0.022396 -0.016335 0.065635
#
#
# Mechanical properties :
#
#
# Convention : Reuss Voigt Hill
#
# Bulk Modulus (GPa) = 37.33805 52.75780 45.04792
# Shear Modulus (GPa) = 15.82078 24.24189 20.03133
#
# Velocity S-wave (km/s) = 2.87977 3.56473 3.24040
# Velocity P-wave (km/s) = 5.53440 6.67818 6.13302
#
# Compressibility (1/GPa) = 0.02678233
#
# Stress axis : x y z
#
# Youngs Moduli (GPa) = 43.34637 32.18212 63.44827
#
# Poissons Ratio (x) = 0.29183 0.46673
# Poissons Ratio (y) = 0.39307 0.32591
# Poissons Ratio (z) = 0.31886 0.16531
#
# Static dielectric constant tensor:
#      x y z
#    x 3.395950 -0.301280 0.004540 
#    y -0.301280 3.443420 0.083210 
#    z 0.004540 0.083210 3.516770 
# 
# 
# High freq. dielectric constant tensor:
#      x y z
#    x 1.728940 -0.020600 0.004700 
#    y -0.020600 1.734290 0.005520 
#    z 0.004700 0.005520 1.746810 
# 
# From -- ./inp_files/428364.got.cif
#   From: 2010.06.25/outbox.cif.g09.slc.cpg/sg2_215_cif.got.tgz:428364.got - 2010.06.27 13:26:56.
