data_PCOD8040862
_publ_section_title
;
Structure prediction by ZEFSAII (Michael W. Deem and Ramdas Pophale) SiO2 
 PCOD8040862
Probable space group: P -1
;
_chemical_formula_sum "Si O2"
_cell_formula_units_Z 14
_cell_length_a 8.728193
_cell_length_b 20.390046
_cell_length_c 16.589415
_cell_angle_alpha 159.528688
_cell_angle_beta 45.760964
_cell_angle_gamma 124.331439
_cell_volume 690.832941
_symmetry_space_group_name_H-M "P -1"
_symmetry_group_IT_number 2
_symmetry_cell_setting 'triclinic'
loop_
_space_group_symop_operation_xyz
x,y,z
-x,-y,-z
loop_
_atom_site_type_symbol
_atom_site_label
_atom_site_fract_x
_atom_site_fract_y
_atom_site_fract_z
Si Si1 0.137985 0.583826 0.106101
Si Si2 0.518507 0.410902 0.520207
Si Si3 0.216271 0.750805 0.915492
Si Si4 0.428063 0.445369 0.165978
Si Si5 0.513396 0.212765 0.543090
Si Si6 0.320179 0.121672 0.347575
Si Si7 0.296833 0.100186 0.752105
O O1 0.304691 0.668168 0.089665
O O2 0.304686 0.387318 0.868673
O O3 0.000000 0.500000 0.000000
O O4 0.954228 0.755706 0.423311
O O5 0.298478 0.564902 0.732695
O O6 0.732839 0.328658 0.286262
O O7 0.589476 0.529753 0.702586
O O8 0.457594 0.223161 0.358464
O O9 0.946077 0.866649 0.161371
O O10 0.360323 0.895911 0.046067
O O11 0.334371 0.670000 0.419737
O O12 0.284505 0.315332 0.037460
O O13 0.402135 0.115267 0.402726
O O14 0.670884 0.047931 0.354906
O O15 0.500000 0.000000 0.500000
#
# Coordination Sequence:
#
# PCOD8040862 Si02
#       7
#     2   2   2   2   2   2   2
#     4   8  15  33  60  86 104 141 195 234 268 332
#     4  10  22  42  61  81 112 156 202 235 277 329
#     4  11  25  36  57  91 117 148 194 240 282 345
#     4   9  20  39  61  80 115 157 190 232 282 343
#     4   8  20  37  58  85 114 147 193 226 284 351
#     4  10  18  39  64  83 111 150 196 244 277 324
#     4  12  25  37  55  90 125 149 180 237 304 344
#
# _framework density 20.265391000000001
#
# number of rings (size 3 to 8) (size 9 to 14) (size 15 to 20)
#    0.857    1.429    1.429    2.143    2.000    2.286 
#    0.000    6.429    0.000    0.000    0.000    0.000 
#    0.000    0.000    0.000    0.000    0.000    0.000 
#
# Total GULP energy -173455.362877 kJ/mol
# GULP energy per Si atom -12389.668777 kJ/mol
# Density = 2.021927 g / cm^3
# Si number density = 20.265391 Si / 1000 Ang^3
#
#
#
# Elastic Constant Matrix: (Units=GPa)
#
#
# Indices 1 2 3 4 5 6 
#
# 1 65.4390 29.8556 30.5561 7.1966 5.1562 -6.9238
# 2 29.8556 69.5208 25.4734 4.5137 1.8152 -11.7737
# 3 30.5561 25.4734 69.9850 2.4069 0.3126 -2.4696
# 4 7.1966 4.5137 2.4069 28.8138 0.1060 2.4759
# 5 5.1562 1.8152 0.3126 0.1060 36.0191 2.8045
# 6 -6.9238 -11.7737 -2.4696 2.4759 2.8045 24.1779
#
#
#
# Elastic Compliance Matrix: (Units=1/GPa)
#
#
# Indices 1 2 3 4 5 6 
#
# 1 0.022581 -0.006020 -0.007376 -0.004378 -0.003132 0.003593
# 2 -0.006020 0.020028 -0.004314 -0.001947 -0.000717 0.007871
# 3 -0.007376 -0.004314 0.018944 0.001150 0.001304 -0.002547
# 4 -0.004378 -0.001947 0.001150 0.036515 0.001070 -0.005948
# 5 -0.003132 -0.000717 0.001304 0.001070 0.028586 -0.004538
# 6 0.003593 0.007871 -0.002547 -0.005948 -0.004538 0.047097
#
#
# Mechanical properties :
#
#
# Convention : Reuss Voigt Hill
#
# Bulk Modulus (GPa) = 38.26567 41.85724 40.06146
# Shear Modulus (GPa) = 22.94809 25.73947 24.34378
#
# Velocity S-wave (km/s) = 3.36873 3.56774 3.46966
# Velocity P-wave (km/s) = 5.83562 6.13768 5.98855
#
# Compressibility (1/GPa) = 0.02613308
#
# Stress axis : x y z
#
# Youngs Moduli (GPa) = 44.28565 49.92978 52.78640
#
# Poissons Ratio (x) = 0.30057 0.38938
# Poissons Ratio (y) = 0.26659 0.22770
# Poissons Ratio (z) = 0.32667 0.21538
#
# Static dielectric constant tensor:
#      x y z
#    x 3.424650 -0.082580 0.174290 
#    y -0.082580 3.338290 0.290910 
#    z 0.174290 0.290910 3.481880 
# 
# 
# High freq. dielectric constant tensor:
#      x y z
#    x 1.778230 0.000500 0.011760 
#    y 0.000500 1.780470 0.012040 
#    z 0.011760 0.012040 1.785650 
# 
# From -- ./inp_files/562694.got.cif
#   From: 2010.06.25/outbox.cif.g09.slc.cpg/sg2_282_cif.got.tgz:562694.got - 2010.06.27 13:26:56.
