data_PCOD8040915
_publ_section_title
;
Structure prediction by ZEFSAII (Michael W. Deem and Ramdas Pophale) SiO2 
 PCOD8040915
Probable space group: P -1
;
_chemical_formula_sum "Si O2"
_cell_formula_units_Z 16
_cell_length_a 12.657350
_cell_length_b 18.389717
_cell_length_c 14.925458
_cell_angle_alpha 30.342083
_cell_angle_beta 46.909366
_cell_angle_gamma 25.522759
_cell_volume 679.244044
_symmetry_space_group_name_H-M "P -1"
_symmetry_group_IT_number 2
_symmetry_cell_setting 'triclinic'
loop_
_space_group_symop_operation_xyz
x,y,z
-x,-y,-z
loop_
_atom_site_type_symbol
_atom_site_label
_atom_site_fract_x
_atom_site_fract_y
_atom_site_fract_z
Si Si1 0.553147 0.422525 0.449424
Si Si2 0.551176 0.869277 0.521467
Si Si3 0.945793 0.338787 0.949406
Si Si4 0.635236 0.036299 0.752875
Si Si5 0.837619 0.993283 0.502228
Si Si6 0.492737 0.466817 0.935040
Si Si7 0.086960 0.022011 0.050567
Si Si8 0.242204 0.189546 0.708032
O O1 0.500000 0.500000 0.500000
O O2 0.509956 0.291048 0.592047
O O3 0.323415 0.708275 0.226718
O O4 0.849920 0.230827 0.455287
O O5 0.836768 0.539145 0.722253
O O6 0.292492 0.983385 0.531439
O O7 0.573452 0.959027 0.330026
O O8 0.500000 0.000000 0.500000
O O9 0.692358 0.520257 0.971221
O O10 0.064213 0.095613 0.089389
O O11 0.183001 0.196313 0.028782
O O12 0.812206 0.924034 0.681631
O O13 0.405938 0.111465 0.782829
O O14 0.658352 0.289183 0.299918
O O15 0.500000 0.500000 0.000000
O O16 0.798297 0.189997 0.013578
O O17 0.143426 0.111247 0.860591
O O18 0.000000 0.500000 0.500000
#
# Coordination Sequence:
#
# PCOD8040915 Si02
#       8
#     2   2   2   2   2   2   2   2
#     4  12  24  40  65 113 141 168 237 298 341 393
#     4  11  25  44  72  98 131 188 244 277 331 426
#     4  11  21  42  71  99 132 185 232 273 353 414
#     4  11  25  43  73  99 138 193 225 278 354 423
#     4  11  22  44  68  94 142 182 226 284 344 418
#     4  10  18  39  70  92 131 184 223 267 344 414
#     4  11  22  42  70 103 145 177 226 295 347 402
#     4  11  24  49  68  96 144 187 226 281 359 414
#
# _framework density 23.555598
#
# number of rings (size 3 to 8) (size 9 to 14) (size 15 to 20)
#    0.000    1.000    6.250    1.875    0.000    3.500 
#    0.000    3.750    0.000    0.000    0.000    0.000 
#    0.000    0.000    0.000    0.000    0.000    0.000 
#
# Total GULP energy -198330.775052 kJ/mol
# GULP energy per Si atom -12395.673441 kJ/mol
# Density = 2.350198 g / cm^3
# Si number density = 23.555598 Si / 1000 Ang^3
#
#
#
# Elastic Constant Matrix: (Units=GPa)
#
#
# Indices 1 2 3 4 5 6 
#
# 1 98.3337 24.5972 20.1367 -10.0319 12.2166 -0.3972
# 2 24.5972 89.8153 31.7319 -18.7876 3.1188 -22.4459
# 3 20.1367 31.7319 100.9867 -11.5022 12.3760 -12.2226
# 4 -10.0319 -18.7876 -11.5022 44.4743 -4.1370 2.8905
# 5 12.2166 3.1188 12.3760 -4.1370 35.3241 -6.7763
# 6 -0.3972 -22.4459 -12.2226 2.8905 -6.7763 34.3388
#
#
#
# Elastic Compliance Matrix: (Units=1/GPa)
#
#
# Indices 1 2 3 4 5 6 
#
# 1 0.011795 -0.003353 -0.001125 0.000802 -0.003928 -0.003298
# 2 -0.003353 0.016601 -0.003173 0.005099 0.003303 0.009906
# 3 -0.001125 -0.003173 0.011793 0.001079 -0.003065 0.001415
# 4 0.000802 0.005099 0.001079 0.025174 0.002236 0.002049
# 5 -0.003928 0.003303 -0.003065 0.002236 0.032086 0.007166
# 6 -0.003298 0.009906 0.001415 0.002049 0.007166 0.037304
#
#
# Mechanical properties :
#
#
# Convention : Reuss Voigt Hill
#
# Bulk Modulus (GPa) = 40.17994 49.11859 44.64926
# Shear Modulus (GPa) = 31.57566 37.00544 34.29055
#
# Velocity S-wave (km/s) = 3.66522 3.96786 3.81954
# Velocity P-wave (km/s) = 5.91661 6.47220 6.20063
#
# Compressibility (1/GPa) = 0.02488804
#
# Stress axis : x y z
#
# Youngs Moduli (GPa) = 84.78181 60.23864 84.79391
#
# Poissons Ratio (x) = 0.20197 0.09538
# Poissons Ratio (y) = 0.28426 0.26903
# Poissons Ratio (z) = 0.09537 0.19112
#
# Static dielectric constant tensor:
#      x y z
#    x 4.244880 -0.198420 0.143830 
#    y -0.198420 4.794640 0.021640 
#    z 0.143830 0.021640 5.184390 
# 
# 
# High freq. dielectric constant tensor:
#      x y z
#    x 1.925800 -0.008690 0.022370 
#    y -0.008690 1.936270 0.009850 
#    z 0.022370 0.009850 1.929340 
# 
# From -- ./inp_files/523433.got.cif
#   From: 2010.06.25/outbox.cif.g09.slc.cpg/sg2_262_cif.got.tgz:523433.got - 2010.06.27 13:26:56.
