data_PCOD8040299
_publ_section_title
;
Structure prediction by ZEFSAII (Michael W. Deem and Ramdas Pophale) SiO2 
 PCOD8040299
Probable space group: P -1
;
_chemical_formula_sum "Si O2"
_cell_formula_units_Z 16
_cell_length_a 18.252858
_cell_length_b 8.653065
_cell_length_c 12.352595
_cell_angle_alpha 57.572260
_cell_angle_beta 27.719538
_cell_angle_gamma 59.771531
_cell_volume 763.934517
_symmetry_space_group_name_H-M "P -1"
_symmetry_group_IT_number 2
_symmetry_cell_setting 'triclinic'
loop_
_space_group_symop_operation_xyz
x,y,z
-x,-y,-z
loop_
_atom_site_type_symbol
_atom_site_label
_atom_site_fract_x
_atom_site_fract_y
_atom_site_fract_z
Si Si1 0.957682 0.173555 0.563496
Si Si2 0.507339 0.267472 0.677804
Si Si3 0.179593 0.276552 0.409052
Si Si4 0.488966 0.902486 0.938337
Si Si5 0.946290 0.526777 0.305271
Si Si6 0.621940 0.431198 0.688931
Si Si7 0.700028 0.357659 0.970332
Si Si8 0.276724 0.609714 0.824799
O O1 0.986686 0.338172 0.384423
O O2 0.783268 0.199095 0.841697
O O3 0.088399 0.150091 0.495653
O O4 0.000000 0.000000 0.500000
O O5 0.588958 0.341667 0.650718
O O6 0.361469 0.405743 0.784515
O O7 0.637453 0.253951 0.417574
O O8 0.439837 0.065300 0.856019
O O9 0.337717 0.179329 0.286529
O O10 0.076316 0.315393 0.635156
O O11 0.207983 0.461115 0.236805
O O12 0.375226 0.732246 0.161386
O O13 0.500000 0.000000 0.000000
O O14 0.791862 0.515891 0.435250
O O15 0.100630 0.585037 0.017674
O O16 0.485909 0.594392 0.833384
O O17 0.719351 0.305357 0.091227
#
# Coordination Sequence:
#
# PCOD8040299 Si02
#       8
#     2   2   2   2   2   2   2   2
#     4  11  22  31  55  89 117 144 189 241 287 332
#     4   9  20  35  59  86 108 153 201 227 281 336
#     4  10  19  36  55  82 112 152 187 230 289 346
#     4   9  19  34  56  79 121 139 185 243 285 324
#     4  11  21  35  57  84 118 149 187 232 292 336
#     4   9  20  34  57  86 113 152 185 238 285 334
#     4   9  17  38  57  77 118 151 192 224 284 346
#     4  10  18  36  61  78 112 161 191 225 276 352
#
# _framework density 20.944203999999999
#
# number of rings (size 3 to 8) (size 9 to 14) (size 15 to 20)
#    0.000    2.250    2.500    1.500    3.500    5.000 
#    0.000    0.625    0.000    0.000    0.000    8.750 
#    0.000    0.000    0.000    0.000    0.000    0.000 
#
# Total GULP energy -198237.354502 kJ/mol
# GULP energy per Si atom -12389.834656 kJ/mol
# Density = 2.089653 g / cm^3
# Si number density = 20.944204 Si / 1000 Ang^3
#
#
#
# Elastic Constant Matrix: (Units=GPa)
#
#
# Indices 1 2 3 4 5 6 
#
# 1 65.9212 18.0119 35.5245 1.6193 -13.1673 9.6020
# 2 18.0119 83.8383 33.6060 15.3905 8.7159 10.0247
# 3 35.5245 33.6060 125.8458 11.7508 -2.4036 0.4496
# 4 1.6193 15.3905 11.7508 25.5783 2.2092 9.0096
# 5 -13.1673 8.7159 -2.4036 2.2092 36.7875 -2.5743
# 6 9.6020 10.0247 0.4496 9.0096 -2.5743 24.0163
#
#
#
# Elastic Compliance Matrix: (Units=1/GPa)
#
#
# Indices 1 2 3 4 5 6 
#
# 1 0.021577 -0.003123 -0.005599 0.005459 0.007175 -0.008497
# 2 -0.003123 0.015827 -0.002829 -0.006392 -0.004909 -0.003433
# 3 -0.005599 -0.002829 0.010694 -0.004595 -0.000013 0.004942
# 4 0.005459 -0.006392 -0.004595 0.051460 -0.001242 -0.018867
# 5 0.007175 -0.004909 -0.000013 -0.001242 0.031197 0.002991
# 6 -0.008497 -0.003433 0.004942 -0.018867 0.002991 0.053774
#
#
# Mechanical properties :
#
#
# Convention : Reuss Voigt Hill
#
# Bulk Modulus (GPa) = 40.00955 49.98780 44.99867
# Shear Modulus (GPa) = 23.15189 29.84060 26.49624
#
# Velocity S-wave (km/s) = 3.32837 3.77870 3.56067
# Velocity P-wave (km/s) = 5.82367 6.55416 6.19969
#
# Compressibility (1/GPa) = 0.02499404
#
# Stress axis : x y z
#
# Youngs Moduli (GPa) = 46.34542 63.18245 93.51411
#
# Poissons Ratio (x) = 0.19733 0.52361
# Poissons Ratio (y) = 0.14475 0.26460
# Poissons Ratio (z) = 0.25950 0.17877
#
# Static dielectric constant tensor:
#      x y z
#    x 3.614400 0.012250 0.019660 
#    y 0.012250 3.665670 0.248660 
#    z 0.019660 0.248660 3.983560 
# 
# 
# High freq. dielectric constant tensor:
#      x y z
#    x 1.809920 0.002950 -0.009810 
#    y 0.002950 1.798840 0.029870 
#    z -0.009810 0.029870 1.815300 
# 
# From -- ./inp_files/345521.got.cif
#   From: 2010.06.25/outbox.cif.g09.slc.cpg/sg2_173_cif.got.tgz:345521.got - 2010.06.27 13:26:56.
