data_PCOD8040100
_publ_section_title
;
Structure prediction by ZEFSAII (Michael W. Deem and Ramdas Pophale) SiO2 
 PCOD8040100
Probable space group: P -1
;
_chemical_formula_sum "Si O2"
_cell_formula_units_Z 16
_cell_length_a 11.504036
_cell_length_b 8.922026
_cell_length_c 15.234923
_cell_angle_alpha 144.633743
_cell_angle_beta 58.218607
_cell_angle_gamma 104.571866
_cell_volume 717.318751
_symmetry_space_group_name_H-M "P -1"
_symmetry_group_IT_number 2
_symmetry_cell_setting 'triclinic'
loop_
_space_group_symop_operation_xyz
x,y,z
-x,-y,-z
loop_
_atom_site_type_symbol
_atom_site_label
_atom_site_fract_x
_atom_site_fract_y
_atom_site_fract_z
Si Si1 0.903399 0.654935 0.192990
Si Si2 0.737277 0.702282 0.578352
Si Si3 0.772976 0.540494 0.825147
Si Si4 0.353984 0.416963 0.821487
Si Si5 0.959040 0.317728 0.185490
Si Si6 0.518428 0.789288 0.156872
Si Si7 0.576500 0.670806 0.799081
Si Si8 0.131087 0.865965 0.251748
O O1 0.731495 0.742446 0.278332
O O2 0.936626 0.449117 0.162146
O O3 0.961159 0.902985 0.315442
O O4 0.000000 0.500000 0.000000
O O5 0.812382 0.437190 0.359840
O O6 0.669209 0.602109 0.640220
O O7 0.616384 0.943160 0.688138
O O8 0.860252 0.830975 0.617323
O O9 0.686515 0.519097 0.761544
O O10 0.825793 0.251998 0.722279
O O11 0.910169 0.627295 0.788523
O O12 0.663084 0.787576 0.047248
O O13 0.461441 0.192548 0.738054
O O14 0.448508 0.543132 0.782498
O O15 0.240798 0.663902 0.041423
O O16 0.000000 0.000000 0.000000
O O17 0.500000 0.500000 0.000000
O O18 0.500000 0.000000 0.000000
#
# Coordination Sequence:
#
# PCOD8040100 Si02
#       8
#     2   2   2   2   2   2   2   2
#     4   9  21  40  68  92 124 181 212 267 327 386
#     4  12  23  39  68 101 130 173 219 276 320 387
#     4  10  20  38  65  94 131 171 206 273 327 382
#     4  10  18  35  63  98 137 165 208 268 329 392
#     4  11  28  47  61  89 139 182 219 263 332 390
#     4  11  17  38  67 101 129 160 214 275 331 381
#     4  12  20  33  63 103 129 170 215 268 323 390
#     4   9  17  37  63  98 128 162 219 265 330 389
#
# _framework density 22.305285999999999
#
# number of rings (size 3 to 8) (size 9 to 14) (size 15 to 20)
#    0.000    1.500    6.250    0.750    1.750    2.500 
#    0.000    5.625    0.000    0.000    0.000    0.000 
#    0.000    0.000    0.000    0.000    0.000    0.000 
#
# Total GULP energy -198317.704869 kJ/mol
# GULP energy per Si atom -12394.856554 kJ/mol
# Density = 2.225452 g / cm^3
# Si number density = 22.305286 Si / 1000 Ang^3
#
#
#
# Elastic Constant Matrix: (Units=GPa)
#
#
# Indices 1 2 3 4 5 6 
#
# 1 168.6817 69.7192 20.4497 -6.2279 -4.9669 3.2897
# 2 69.7192 125.0584 45.2837 -27.4209 -1.5465 13.4499
# 3 20.4497 45.2837 100.8830 -15.9221 -10.6924 1.0231
# 4 -6.2279 -27.4209 -15.9221 23.4317 1.3136 -3.3837
# 5 -4.9669 -1.5465 -10.6924 1.3136 17.0585 -5.8131
# 6 3.2897 13.4499 1.0231 -3.3837 -5.8131 26.7072
#
#
#
# Elastic Compliance Matrix: (Units=1/GPa)
#
#
# Indices 1 2 3 4 5 6 
#
# 1 0.008193 -0.005910 0.000664 -0.004164 0.003314 0.002135
# 2 -0.005910 0.016823 -0.004748 0.014223 -0.006729 -0.007225
# 3 0.000664 -0.004748 0.013471 0.003872 0.009383 0.004326
# 4 -0.004164 0.014223 0.003872 0.061031 -0.002028 0.000493
# 5 0.003314 -0.006729 0.009383 -0.002028 0.071093 0.017838
# 6 0.002135 -0.007225 0.004326 0.000493 0.017838 0.044598
#
#
# Mechanical properties :
#
#
# Convention : Reuss Voigt Hill
#
# Bulk Modulus (GPa) = 54.05724 73.94756 64.00240
# Shear Modulus (GPa) = 20.71579 30.71753 25.71666
#
# Velocity S-wave (km/s) = 3.05083 3.71501 3.39918
# Velocity P-wave (km/s) = 6.05788 7.18514 6.64545
#
# Compressibility (1/GPa) = 0.01849891
#
# Stress axis : x y z
#
# Youngs Moduli (GPa) = 122.06262 59.44340 74.23364
#
# Poissons Ratio (x) = 0.35128 -0.04932
# Poissons Ratio (y) = 0.72134 0.35250
# Poissons Ratio (z) = -0.08110 0.28226
#
# Static dielectric constant tensor:
#      x y z
#    x 4.697110 0.114920 -0.188330 
#    y 0.114920 4.158820 -0.267680 
#    z -0.188330 -0.267680 3.693980 
# 
# 
# High freq. dielectric constant tensor:
#      x y z
#    x 1.889990 0.004450 -0.013300 
#    y 0.004450 1.877190 -0.024500 
#    z -0.013300 -0.024500 1.845690 
# 
# From -- ./inp_files/516371.got.cif
#   From: 2010.06.25/outbox.cif.g09.slc.cpg/sg2_259_cif.got.tgz:516371.got - 2010.06.27 13:26:56.
