data_PCOD8040744
_publ_section_title
;
Structure prediction by ZEFSAII (Michael W. Deem and Ramdas Pophale) SiO2 
 PCOD8040744
Probable space group: P -1
;
_chemical_formula_sum "Si O2"
_cell_formula_units_Z 14
_cell_length_a 15.555892
_cell_length_b 10.030827
_cell_length_c 11.408734
_cell_angle_alpha 93.664782
_cell_angle_beta 152.954681
_cell_angle_gamma 76.643094
_cell_volume 745.980122
_symmetry_space_group_name_H-M "P -1"
_symmetry_group_IT_number 2
_symmetry_cell_setting 'triclinic'
loop_
_space_group_symop_operation_xyz
x,y,z
-x,-y,-z
loop_
_atom_site_type_symbol
_atom_site_label
_atom_site_fract_x
_atom_site_fract_y
_atom_site_fract_z
Si Si1 0.089976 0.666631 0.383284
Si Si2 0.547841 0.812212 0.437353
Si Si3 0.528094 0.343774 0.279038
Si Si4 0.814125 0.449499 0.262549
Si Si5 0.722129 0.366832 0.909612
Si Si6 0.358397 0.139874 0.185538
Si Si7 0.946163 0.582866 0.817982
O O1 0.233951 0.703181 0.466876
O O2 0.200206 0.633791 0.641551
O O3 0.048293 0.525961 0.285710
O O4 0.874545 0.801000 0.139366
O O5 0.367260 0.754471 0.229925
O O6 0.647307 0.817522 0.683318
O O7 0.722999 0.710032 0.558252
O O8 0.454789 0.968830 0.273733
O O9 0.460407 0.471776 0.302739
O O10 0.495350 0.204786 0.280703
O O11 0.391235 0.406433 0.999497
O O12 0.000000 0.500000 0.500000
O O13 0.838013 0.341227 0.175242
O O14 0.882931 0.352596 0.000303
O O15 0.000000 0.500000 0.000000
#
# Coordination Sequence:
#
# PCOD8040744 Si02
#       7
#     2   2   2   2   2   2   2
#     4  12  20  38  66  91 118 156 209 241 303 354
#     4  11  25  40  57  88 132 158 198 244 310 348
#     4  10  21  35  64  92 112 158 201 249 293 351
#     4  10  18  38  63  93 119 150 204 257 291 343
#     4  10  22  37  62  90 119 158 196 253 295 349
#     4  11  24  41  57  88 128 164 191 253 298 366
#     4  12  21  35  61  94 115 154 202 252 287 355
#
# _framework density 18.767256
#
# number of rings (size 3 to 8) (size 9 to 14) (size 15 to 20)
#    0.857    0.286    7.143    0.429    2.000    2.286 
#    0.000    3.571    0.000    4.286    0.000    0.000 
#    0.000    0.000    0.000    0.000    0.000    0.000 
#
# Total GULP energy -173606.562406 kJ/mol
# GULP energy per Si atom -12400.468743 kJ/mol
# Density = 1.872454 g / cm^3
# Si number density = 18.767256 Si / 1000 Ang^3
#
#
#
# Elastic Constant Matrix: (Units=GPa)
#
#
# Indices 1 2 3 4 5 6 
#
# 1 82.6292 33.9622 24.1752 -8.8014 10.5319 19.0477
# 2 33.9622 108.2859 47.0406 -10.1340 8.1886 21.5408
# 3 24.1752 47.0406 60.2711 -11.2011 12.4638 8.2761
# 4 -8.8014 -10.1340 -11.2011 30.9210 6.5511 3.0753
# 5 10.5319 8.1886 12.4638 6.5511 37.4222 9.3797
# 6 19.0477 21.5408 8.2761 3.0753 9.3797 31.8100
#
#
#
# Elastic Compliance Matrix: (Units=1/GPa)
#
#
# Indices 1 2 3 4 5 6 
#
# 1 0.016095 -0.001779 -0.002846 0.004144 -0.002040 -0.007491
# 2 -0.001779 0.016050 -0.011070 0.000996 0.002441 -0.007739
# 3 -0.002846 -0.011070 0.029103 0.007597 -0.008664 0.003449
# 4 0.004144 0.000996 0.007597 0.039168 -0.009217 -0.006202
# 5 -0.002040 0.002441 -0.008664 -0.009217 0.033022 -0.007023
# 6 -0.007491 -0.007739 0.003449 -0.006202 -0.007023 0.042936
#
#
# Mechanical properties :
#
#
# Convention : Reuss Voigt Hill
#
# Bulk Modulus (GPa) = 33.49311 51.28246 42.38779
# Shear Modulus (GPa) = 22.96558 29.76453 26.36505
#
# Velocity S-wave (km/s) = 3.50194 3.98676 3.75219
# Velocity P-wave (km/s) = 5.85122 6.96973 6.43483
#
# Compressibility (1/GPa) = 0.02985688
#
# Stress axis : x y z
#
# Youngs Moduli (GPa) = 62.13258 62.30580 34.36028
#
# Poissons Ratio (x) = 0.11084 0.09781
# Poissons Ratio (y) = 0.11053 0.38037
# Poissons Ratio (z) = 0.17686 0.68973
#
# Static dielectric constant tensor:
#      x y z
#    x 3.441760 0.059260 -0.053230 
#    y 0.059260 3.250560 0.035970 
#    z -0.053230 0.035970 3.481630 
# 
# 
# High freq. dielectric constant tensor:
#      x y z
#    x 1.728370 0.015960 0.003770 
#    y 0.015960 1.703570 0.010850 
#    z 0.003770 0.010850 1.732380 
# 
# From -- ./inp_files/447387.got.cif
#   From: 2010.06.25/outbox.cif.g09.slc.cpg/sg2_224_cif.got.tgz:447387.got - 2010.06.27 13:26:56.
