data_PCOD8040072
_publ_section_title
;
Structure prediction by ZEFSAII (Michael W. Deem and Ramdas Pophale) SiO2 
 PCOD8040072
Probable space group: P -1
;
_chemical_formula_sum "Si O2"
_cell_formula_units_Z 14
_cell_length_a 13.953255
_cell_length_b 10.348932
_cell_length_c 8.736606
_cell_angle_alpha 116.209892
_cell_angle_beta 57.152428
_cell_angle_gamma 140.485479
_cell_volume 673.732394
_symmetry_space_group_name_H-M "P -1"
_symmetry_group_IT_number 2
_symmetry_cell_setting 'triclinic'
loop_
_space_group_symop_operation_xyz
x,y,z
-x,-y,-z
loop_
_atom_site_type_symbol
_atom_site_label
_atom_site_fract_x
_atom_site_fract_y
_atom_site_fract_z
Si Si1 0.865456 0.460270 0.243279
Si Si2 0.708608 0.401109 0.656087
Si Si3 0.342128 0.167437 0.828557
Si Si4 0.617204 0.021880 0.532996
Si Si5 0.751639 0.594023 0.008097
Si Si6 0.582685 0.201920 0.128084
Si Si7 0.056204 0.772630 0.002224
O O1 0.778237 0.471218 0.459948
O O2 0.752159 0.314921 0.120490
O O3 0.929123 0.359378 0.185765
O O4 0.009287 0.688314 0.173330
O O5 0.526022 0.295469 0.771006
O O6 0.726455 0.250808 0.620274
O O7 0.803848 0.586643 0.789069
O O8 0.327951 0.321120 0.882369
O O9 0.284409 0.016720 0.656552
O O10 0.221073 0.012906 0.989811
O O11 0.500000 0.000000 0.500000
O O12 0.531625 0.863780 0.663776
O O13 0.613021 0.366009 0.078497
O O14 0.913866 0.745549 0.045035
O O15 0.500000 0.000000 0.000000
#
# Coordination Sequence:
#
# PCOD8040072 Si02
#       7
#     2   2   2   2   2   2   2
#     4  10  20  40  63  88 116 163 202 250 299 354
#     4  11  20  40  66  89 116 158 210 250 288 353
#     4  11  21  40  63  86 124 166 195 243 310 357
#     4  10  18  35  63  83 115 153 197 238 300 343
#     4  11  25  36  60  93 127 155 199 250 302 360
#     4  11  20  35  60  95 117 145 205 258 289 344
#     4  10  22  39  62  84 125 162 197 242 307 363
#
# _framework density 20.779764
#
# number of rings (size 3 to 8) (size 9 to 14) (size 15 to 20)
#    0.000    1.429    5.714    1.714    0.000    1.143 
#    0.000    0.714    0.000    0.000    0.000    0.000 
#    0.000    0.000    0.000    0.000    0.000    0.000 
#
# Total GULP energy -173440.443396 kJ/mol
# GULP energy per Si atom -12388.603100 kJ/mol
# Density = 2.073247 g / cm^3
# Si number density = 20.779764 Si / 1000 Ang^3
#
#
#
# Elastic Constant Matrix: (Units=GPa)
#
#
# Indices 1 2 3 4 5 6 
#
# 1 48.5426 31.6388 36.4625 0.8953 0.5438 -23.9039
# 2 31.6388 91.1194 52.5237 -22.1025 -2.5747 -29.3389
# 3 36.4625 52.5237 112.5414 -7.0201 5.1558 -18.3155
# 4 0.8953 -22.1025 -7.0201 41.8792 -9.8340 -3.6026
# 5 0.5438 -2.5747 5.1558 -9.8340 23.9478 2.1585
# 6 -23.9039 -29.3389 -18.3155 -3.6026 2.1585 28.6207
#
#
#
# Elastic Compliance Matrix: (Units=1/GPa)
#
#
# Indices 1 2 3 4 5 6 
#
# 1 0.041510 -0.000356 -0.008512 -0.000470 -0.001950 0.028945
# 2 -0.000356 0.029071 -0.008611 0.018521 0.010290 0.025548
# 3 -0.008512 -0.008611 0.014561 -0.003614 -0.004746 -0.006714
# 4 -0.000470 0.018521 -0.003614 0.038735 0.016894 0.019882
# 5 -0.001950 0.010290 -0.004746 0.016894 0.050489 0.004201
# 6 0.028945 0.025548 -0.006714 0.019882 0.004201 0.083192
#
#
# Mechanical properties :
#
#
# Convention : Reuss Voigt Hill
#
# Bulk Modulus (GPa) = 19.92632 54.82816 37.37724
# Shear Modulus (GPa) = 16.16843 27.66142 21.91492
#
# Velocity S-wave (km/s) = 2.79244 3.65248 3.25103
# Velocity P-wave (km/s) = 4.47293 6.65057 5.66733
#
# Compressibility (1/GPa) = 0.05018487
#
# Stress axis : x y z
#
# Youngs Moduli (GPa) = 24.09044 34.39844 68.67495
#
# Poissons Ratio (x) = 0.01225 0.58457
# Poissons Ratio (y) = 0.00858 0.59133
# Poissons Ratio (z) = 0.20506 0.29619
#
# Static dielectric constant tensor:
#      x y z
#    x 3.525780 -0.131450 0.062750 
#    y -0.131450 3.945320 -0.061380 
#    z 0.062750 -0.061380 4.002140 
# 
# 
# High freq. dielectric constant tensor:
#      x y z
#    x 1.785790 -0.009900 0.000390 
#    y -0.009900 1.807870 -0.017910 
#    z 0.000390 -0.017910 1.813110 
# 
# From -- ./inp_files/303839.got.cif
#   From: 2010.06.25/outbox.cif.g09.slc.cpg/sg2_152_cif.got.tgz:303839.got - 2010.06.27 13:26:56.
