data_PCOD8040919
_publ_section_title
;
Structure prediction by ZEFSAII (Michael W. Deem and Ramdas Pophale) SiO2 
 PCOD8040919
Probable space group: P -1
;
_chemical_formula_sum "Si O2"
_cell_formula_units_Z 16
_cell_length_a 9.712559
_cell_length_b 8.262434
_cell_length_c 11.983473
_cell_angle_alpha 104.365648
_cell_angle_beta 63.042069
_cell_angle_gamma 118.455013
_cell_volume 752.984815
_symmetry_space_group_name_H-M "P -1"
_symmetry_group_IT_number 2
_symmetry_cell_setting 'triclinic'
loop_
_space_group_symop_operation_xyz
x,y,z
-x,-y,-z
loop_
_atom_site_type_symbol
_atom_site_label
_atom_site_fract_x
_atom_site_fract_y
_atom_site_fract_z
Si Si1 0.465199 0.179575 0.037532
Si Si2 0.879312 0.800538 0.794615
Si Si3 0.002655 0.203472 0.026972
Si Si4 0.512916 0.187777 0.772653
Si Si5 0.811272 0.818365 0.240138
Si Si6 0.681509 0.517297 0.407829
Si Si7 0.819211 0.491968 0.589769
Si Si8 0.649244 0.223159 0.187033
O O1 0.267264 0.128462 0.122967
O O2 0.579543 0.301280 0.119953
O O3 0.515009 0.270905 0.911368
O O4 0.500000 0.000000 0.000000
O O5 0.898308 0.691029 0.879591
O O6 0.832967 0.668590 0.683698
O O7 0.062153 0.972170 0.741954
O O8 0.817553 0.199613 0.084199
O O9 0.107362 0.286883 0.889808
O O10 0.000000 0.000000 0.000000
O O11 0.362318 0.194188 0.753540
O O12 0.693011 0.306638 0.667704
O O13 0.489865 0.977596 0.756522
O O14 0.782735 0.715876 0.349971
O O15 0.500000 0.500000 0.500000
O O16 0.759755 0.503002 0.491449
O O17 0.683272 0.359464 0.299674
O O18 0.000000 0.500000 0.500000
#
# Coordination Sequence:
#
# PCOD8040919 Si02
#       8
#     2   2   2   2   2   2   2   2
#     4  10  21  38  69 107 132 156 213 276 335 397
#     4  11  22  42  69  96 134 169 209 273 334 382
#     4  10  18  39  71 102 128 163 214 266 333 412
#     4  11  22  44  72  95 132 174 213 265 339 395
#     4  11  22  42  74  95 129 178 212 264 339 395
#     4  12  27  45  63  95 135 176 234 267 302 388
#     4  12  29  44  63  98 133 172 233 274 302 380
#     4  11  23  41  70 102 133 170 211 275 337 384
#
# _framework density 21.248768999999999
#
# number of rings (size 3 to 8) (size 9 to 14) (size 15 to 20)
#    0.000    1.000    5.000    3.750    0.000    7.000 
#    0.000    0.000    0.000    0.000    0.000    0.000 
#    0.000    0.000    0.000    0.000    0.000    0.000 
#
# Total GULP energy -198308.227866 kJ/mol
# GULP energy per Si atom -12394.264242 kJ/mol
# Density = 2.120041 g / cm^3
# Si number density = 21.248769 Si / 1000 Ang^3
#
#
#
# Elastic Constant Matrix: (Units=GPa)
#
#
# Indices 1 2 3 4 5 6 
#
# 1 141.8742 32.0992 50.2721 -15.2498 1.6659 14.5505
# 2 32.0992 49.4470 27.2449 -8.1603 3.9081 7.5831
# 3 50.2721 27.2449 100.7749 -15.1812 9.2198 5.9407
# 4 -15.2498 -8.1603 -15.1812 37.6972 7.4419 3.2176
# 5 1.6659 3.9081 9.2198 7.4419 57.3324 -0.7079
# 6 14.5505 7.5831 5.9407 3.2176 -0.7079 25.6753
#
#
#
# Elastic Compliance Matrix: (Units=1/GPa)
#
#
# Indices 1 2 3 4 5 6 
#
# 1 0.009647 -0.003488 -0.003337 0.002104 0.000172 -0.003924
# 2 -0.003488 0.026403 -0.004467 0.003241 -0.001465 -0.005234
# 3 -0.003337 -0.004467 0.013576 0.003635 -0.002259 -0.000449
# 4 0.002104 0.003241 0.003635 0.031130 -0.004994 -0.007030
# 5 0.000172 -0.001465 -0.002259 -0.004994 0.018573 0.001996
# 6 -0.003924 -0.005234 -0.000449 -0.007030 0.001996 0.043757
#
#
# Mechanical properties :
#
#
# Convention : Reuss Voigt Hill
#
# Bulk Modulus (GPa) = 36.98032 56.81428 46.89730
# Shear Modulus (GPa) = 28.62317 36.30630 32.46473
#
# Velocity S-wave (km/s) = 3.67420 4.13804 3.91300
# Velocity P-wave (km/s) = 5.95323 7.04464 6.52181
#
# Compressibility (1/GPa) = 0.02704141
#
# Stress axis : x y z
#
# Youngs Moduli (GPa) = 103.66298 37.87453 73.65958
#
# Poissons Ratio (x) = 0.13212 0.24578
# Poissons Ratio (y) = 0.36162 0.32904
# Poissons Ratio (z) = 0.34589 0.16919
#
# Static dielectric constant tensor:
#      x y z
#    x 4.187540 0.145620 0.363380 
#    y 0.145620 3.680540 -0.083280 
#    z 0.363380 -0.083280 4.530520 
# 
# 
# High freq. dielectric constant tensor:
#      x y z
#    x 1.853540 0.008590 0.009320 
#    y 0.008590 1.811090 -0.001930 
#    z 0.009320 -0.001930 1.846780 
# 
# From -- ./inp_files/382868.got.cif
#   From: 2010.06.25/outbox.cif.g09.slc.cpg/sg2_192_cif.got.tgz:382868.got - 2010.06.27 13:26:56.
