data_PCOD8040268
_publ_section_title
;
Structure prediction by ZEFSAII (Michael W. Deem and Ramdas Pophale) SiO2 
 PCOD8040268
Probable space group: P -1
;
_chemical_formula_sum "Si O2"
_cell_formula_units_Z 16
_cell_length_a 11.150756
_cell_length_b 8.389545
_cell_length_c 16.108538
_cell_angle_alpha 131.045264
_cell_angle_beta 136.098288
_cell_angle_gamma 77.057114
_cell_volume 692.903172
_symmetry_space_group_name_H-M "P -1"
_symmetry_group_IT_number 2
_symmetry_cell_setting 'triclinic'
loop_
_space_group_symop_operation_xyz
x,y,z
-x,-y,-z
loop_
_atom_site_type_symbol
_atom_site_label
_atom_site_fract_x
_atom_site_fract_y
_atom_site_fract_z
Si Si1 0.797332 0.766012 0.890421
Si Si2 0.686775 0.523926 0.053839
Si Si3 0.162178 0.998521 0.637890
Si Si4 0.700586 0.154235 0.050125
Si Si5 0.725053 0.260630 0.281710
Si Si6 0.520217 0.853680 0.294105
Si Si7 0.386474 0.346338 0.578005
Si Si8 0.777870 0.946859 0.766728
O O1 0.621363 0.502093 0.732729
O O2 0.783385 0.788376 0.792101
O O3 0.784350 0.979612 0.004851
O O4 0.012174 0.804282 0.040617
O O5 0.825758 0.808214 0.220360
O O6 0.770772 0.368580 0.091575
O O7 0.500000 0.500000 0.000000
O O8 0.636266 0.425631 0.900705
O O9 0.347219 0.048032 0.688316
O O10 0.110762 0.755366 0.581707
O O11 0.000000 0.000000 0.500000
O O12 0.790598 0.281393 0.226270
O O13 0.464718 0.999825 0.886717
O O14 0.695753 0.484034 0.368800
O O15 0.640522 0.856084 0.436751
O O16 0.407636 0.006346 0.303445
O O17 0.257439 0.210978 0.387617
#
# Coordination Sequence:
#
# PCOD8040268 Si02
#       8
#     2   2   2   2   2   2   2   2
#     4  10  23  41  66  95 122 170 218 262 314 376
#     4  10  18  36  60  83 121 164 198 247 311 371
#     4  11  24  39  60  96 130 162 206 258 321 383
#     4  10  18  36  64  89 123 161 209 257 308 378
#     4  10  20  36  62  94 122 160 205 255 316 377
#     4  11  22  43  63  89 126 170 209 258 322 376
#     4  11  24  41  67  93 130 168 212 263 318 373
#     4  11  23  45  65  91 130 166 218 265 310 376
#
# _framework density 23.091251
#
# number of rings (size 3 to 8) (size 9 to 14) (size 15 to 20)
#    0.000    1.500    3.750    3.000    3.500    2.500 
#    2.250    1.875    0.000    0.000    0.000    0.000 
#    0.000    0.000    0.000    0.000    0.000    0.000 
#
# Total GULP energy -198270.392393 kJ/mol
# GULP energy per Si atom -12391.899525 kJ/mol
# Density = 2.303869 g / cm^3
# Si number density = 23.091251 Si / 1000 Ang^3
#
#
#
# Elastic Constant Matrix: (Units=GPa)
#
#
# Indices 1 2 3 4 5 6 
#
# 1 44.2922 3.8829 33.4316 -8.7330 -22.9181 -2.4765
# 2 3.8829 74.6771 30.2933 -26.6022 -6.6508 -13.2954
# 3 33.4316 30.2933 120.4653 -22.2935 -30.3232 -1.0462
# 4 -8.7330 -26.6022 -22.2935 34.3780 1.7140 -2.7817
# 5 -22.9181 -6.6508 -30.3232 1.7140 41.0166 -3.3809
# 6 -2.4765 -13.2954 -1.0462 -2.7817 -3.3809 26.0951
#
#
#
# Elastic Compliance Matrix: (Units=1/GPa)
#
#
# Indices 1 2 3 4 5 6 
#
# 1 0.039622 0.008860 -0.005687 0.013218 0.019810 0.012022
# 2 0.008860 0.025166 -0.002937 0.020805 0.007368 0.016717
# 3 -0.005687 -0.002937 0.012824 0.004291 0.005620 -0.000337
# 4 0.013218 0.020805 0.004291 0.052226 0.013342 0.019322
# 5 0.019810 0.007368 0.005620 0.013342 0.041282 0.012630
# 6 0.012022 0.016717 -0.000337 0.019322 0.012630 0.051662
#
#
# Mechanical properties :
#
#
# Convention : Reuss Voigt Hill
#
# Bulk Modulus (GPa) = 12.80680 41.62778 27.21729
# Shear Modulus (GPa) = 20.13396 31.75307 25.94351
#
# Velocity S-wave (km/s) = 2.95605 3.71227 3.35553
# Velocity P-wave (km/s) = 4.14840 6.03666 5.17931
#
# Compressibility (1/GPa) = 0.07808353
#
# Stress axis : x y z
#
# Youngs Moduli (GPa) = 25.23880 39.73674 77.98067
#
# Poissons Ratio (x) = -0.35208 0.44346
# Poissons Ratio (y) = -0.22362 0.22904
# Poissons Ratio (z) = 0.14353 0.11671
#
# Static dielectric constant tensor:
#      x y z
#    x 4.209140 -0.472740 -0.631520 
#    y -0.472740 4.441830 0.861690 
#    z -0.631520 0.861690 5.928160 
# 
# 
# High freq. dielectric constant tensor:
#      x y z
#    x 1.897460 -0.008220 -0.017620 
#    y -0.008220 1.906430 -0.013640 
#    z -0.017620 -0.013640 1.917900 
# 
# From -- ./inp_files/381776.got.cif
#   From: 2010.06.25/outbox.cif.g09.slc.cpg/sg2_191_cif.got.tgz:381776.got - 2010.06.27 13:26:56.
