data_PCOD8040282
_publ_section_title
;
Structure prediction by ZEFSAII (Michael W. Deem and Ramdas Pophale) SiO2 
 PCOD8040282
Probable space group: P -1
;
_chemical_formula_sum "Si O2"
_cell_formula_units_Z 16
_cell_length_a 23.885440
_cell_length_b 7.912477
_cell_length_c 17.451661
_cell_angle_alpha 43.303287
_cell_angle_beta 159.073932
_cell_angle_gamma 135.049645
_cell_volume 802.660138
_symmetry_space_group_name_H-M "P -1"
_symmetry_group_IT_number 2
_symmetry_cell_setting 'triclinic'
loop_
_space_group_symop_operation_xyz
x,y,z
-x,-y,-z
loop_
_atom_site_type_symbol
_atom_site_label
_atom_site_fract_x
_atom_site_fract_y
_atom_site_fract_z
Si Si1 0.796970 0.474504 0.464572
Si Si2 0.376676 0.782352 0.179663
Si Si3 0.831384 0.982713 0.754331
Si Si4 0.945397 0.130128 0.311098
Si Si5 0.386630 0.821937 0.466383
Si Si6 0.668702 0.501264 0.632635
Si Si7 0.527792 0.659084 0.846664
Si Si8 0.862041 0.611968 0.329040
O O1 0.612947 0.509026 0.231929
O O2 0.855477 0.526367 0.436482
O O3 0.911310 0.667621 0.599615
O O4 0.822730 0.197354 0.610791
O O5 0.500043 0.601008 0.367563
O O6 0.338845 0.713384 0.242387
O O7 0.453964 0.067816 0.181460
O O8 0.219415 0.743882 0.937218
O O9 0.795145 0.724677 0.748267
O O10 0.714042 0.007662 0.667100
O O11 0.000000 0.000000 0.000000
O O12 0.905593 0.906885 0.273724
O O13 0.000000 0.000000 0.500000
O O14 0.281995 0.624846 0.342342
O O15 0.485051 0.664808 0.700866
O O16 0.500000 0.000000 0.500000
O O17 0.688549 0.530013 0.099665
O O18 0.000000 0.500000 0.500000
#
# Coordination Sequence:
#
# PCOD8040282 Si02
#       8
#     2   2   2   2   2   2   2   2
#     4  10  20  41  58  86 119 158 203 249 317 360
#     4  10  18  36  60  88 124 165 205 249 305 375
#     4  11  24  41  59  91 133 162 200 258 314 365
#     4   9  20  37  61  84 117 163 202 246 315 372
#     4  11  21  37  61  91 121 160 213 248 296 370
#     4  11  20  36  63  90 123 168 212 242 309 374
#     4  10  20  39  61  86 123 162 198 256 310 360
#     4  10  22  39  62  87 117 156 209 255 303 371
#
# _framework density 19.933717000000001
#
# number of rings (size 3 to 8) (size 9 to 14) (size 15 to 20)
#    0.000    1.750    3.750    1.875    0.000    3.500 
#    4.500    0.625    0.000    0.000    0.000    0.000 
#    0.000    0.000    0.000    0.000    0.000    0.000 
#
# Total GULP energy -198289.205580 kJ/mol
# GULP energy per Si atom -12393.075349 kJ/mol
# Density = 1.988835 g / cm^3
# Si number density = 19.933717 Si / 1000 Ang^3
#
#
#
# Elastic Constant Matrix: (Units=GPa)
#
#
# Indices 1 2 3 4 5 6 
#
# 1 97.1431 39.6948 31.3482 11.2194 0.6147 4.6911
# 2 39.6948 106.9165 32.2495 29.9957 10.0855 3.1997
# 3 31.3482 32.2495 146.5917 20.7805 4.7690 6.1239
# 4 11.2194 29.9957 20.7805 35.2423 0.7421 -2.9534
# 5 0.6147 10.0855 4.7690 0.7421 21.3591 6.9101
# 6 4.6911 3.1997 6.1239 -2.9534 6.9101 31.8552
#
#
#
# Elastic Compliance Matrix: (Units=1/GPa)
#
#
# Indices 1 2 3 4 5 6 
#
# 1 0.012737 -0.004591 -0.001842 0.000750 0.002696 -0.001576
# 2 -0.004591 0.014837 -0.000541 -0.010745 -0.006267 -0.000347
# 3 -0.001842 -0.000541 0.007950 -0.003736 -0.000899 -0.001354
# 4 0.000750 -0.010745 -0.003736 0.039818 0.002971 0.004734
# 5 0.002696 -0.006267 -0.000899 0.002971 0.053319 -0.010886
# 6 -0.001576 -0.000347 -0.001354 0.004734 -0.010886 0.034720
#
#
# Mechanical properties :
#
#
# Convention : Reuss Voigt Hill
#
# Bulk Modulus (GPa) = 46.34693 61.91516 54.13104
# Shear Modulus (GPa) = 27.09744 34.18191 30.63967
#
# Velocity S-wave (km/s) = 3.69097 4.14548 3.92481
# Velocity P-wave (km/s) = 6.43936 7.35128 6.91038
#
# Compressibility (1/GPa) = 0.02157640
#
# Stress axis : x y z
#
# Youngs Moduli (GPa) = 78.51266 67.40088 125.78810
#
# Poissons Ratio (x) = 0.30942 0.23170
# Poissons Ratio (y) = 0.36043 0.06802
# Poissons Ratio (z) = 0.14462 0.03645
#
# Static dielectric constant tensor:
#      x y z
#    x 3.488810 -0.028610 -0.042840 
#    y -0.028610 3.965410 0.229710 
#    z -0.042840 0.229710 4.167900 
# 
# 
# High freq. dielectric constant tensor:
#      x y z
#    x 1.745850 0.006390 -0.013460 
#    y 0.006390 1.784070 0.009280 
#    z -0.013460 0.009280 1.791640 
# 
# From -- ./inp_files/215605.got.cif
#   From: 2010.06.25/outbox.cif.g09.slc.cpg/sg2_108_cif.got.tgz:215605.got - 2010.06.27 13:26:56.
