data_PCOD8040060
_publ_section_title
;
Structure prediction by ZEFSAII (Michael W. Deem and Ramdas Pophale) SiO2 
 PCOD8040060
Probable space group: P -1
;
_chemical_formula_sum "Si O2"
_cell_formula_units_Z 16
_cell_length_a 13.454806
_cell_length_b 5.281258
_cell_length_c 11.415216
_cell_angle_alpha 114.899611
_cell_angle_beta 73.703773
_cell_angle_gamma 99.971535
_cell_volume 704.776310
_symmetry_space_group_name_H-M "P -1"
_symmetry_group_IT_number 2
_symmetry_cell_setting 'triclinic'
loop_
_space_group_symop_operation_xyz
x,y,z
-x,-y,-z
loop_
_atom_site_type_symbol
_atom_site_label
_atom_site_fract_x
_atom_site_fract_y
_atom_site_fract_z
Si Si1 0.854808 0.405244 0.112740
Si Si2 0.899015 0.800813 0.954859
Si Si3 0.635129 0.215586 0.061694
Si Si4 0.218508 0.077203 0.340141
Si Si5 0.716885 0.474950 0.864801
Si Si6 0.911859 0.771946 0.384104
Si Si7 0.034486 0.298898 0.330209
Si Si8 0.587202 0.741416 0.805786
O O1 0.897075 0.592780 0.026512
O O2 0.737539 0.270387 0.117093
O O3 0.859094 0.581091 0.263930
O O4 0.925176 0.132208 0.041728
O O5 0.785089 0.764578 0.925070
O O6 0.978352 0.717414 0.810140
O O7 0.534641 0.286136 0.188062
O O8 0.643451 0.426896 0.991962
O O9 0.612520 0.910421 0.953101
O O10 0.181202 0.091129 0.489129
O O11 0.156473 0.301815 0.326983
O O12 0.343871 0.141912 0.303973
O O13 0.200097 0.766605 0.228921
O O14 0.639941 0.459999 0.774139
O O15 0.975419 0.589936 0.426332
O O16 0.985034 0.020308 0.355213
#
# Coordination Sequence:
#
# PCOD8040060 Si02
#       8
#     2   2   2   2   2   2   2   2
#     4  11  23  42  61  91 132 161 197 252 306 380
#     4  11  21  40  65  91 121 159 199 262 316 349
#     4   9  19  34  60  96 121 152 202 250 317 359
#     4  11  24  40  60  91 125 159 209 258 303 362
#     4  10  18  35  62  91 124 153 195 261 311 353
#     4  12  28  41  62  88 125 175 207 243 306 373
#     4  12  24  43  65  90 117 161 217 266 303 349
#     4  10  18  35  63  91 120 156 200 258 310 355
#
# _framework density 22.702241000000001
#
# number of rings (size 3 to 8) (size 9 to 14) (size 15 to 20)
#    0.000    1.250    2.500    4.875    1.750    3.000 
#    0.000    0.625    0.000    0.750    0.000    0.000 
#    0.000    0.000    0.000    0.000    0.000    0.000 
#
# Total GULP energy -198226.156919 kJ/mol
# GULP energy per Si atom -12389.134807 kJ/mol
# Density = 2.265057 g / cm^3
# Si number density = 22.702241 Si / 1000 Ang^3
#
#
#
# Elastic Constant Matrix: (Units=GPa)
#
#
# Indices 1 2 3 4 5 6 
#
# 1 80.2462 34.5568 30.5342 1.7024 -20.1611 -0.9658
# 2 34.5568 111.2197 36.5474 -4.1420 -8.6485 6.6775
# 3 30.5342 36.5474 98.4616 -5.5301 -26.8663 8.8777
# 4 1.7024 -4.1420 -5.5301 27.6882 4.3677 3.8540
# 5 -20.1611 -8.6485 -26.8663 4.3677 33.7055 -3.1248
# 6 -0.9658 6.6775 8.8777 3.8540 -3.1248 22.7416
#
#
#
# Elastic Compliance Matrix: (Units=1/GPa)
#
#
# Indices 1 2 3 4 5 6 
#
# 1 0.017521 -0.004540 -0.002050 -0.004199 0.008669 0.004780
# 2 -0.004540 0.011514 -0.003264 0.002242 -0.002939 -0.003083
# 3 -0.002050 -0.003264 0.014998 0.001723 0.009297 -0.003998
# 4 -0.004199 0.002242 0.001723 0.039342 -0.006502 -0.009070
# 5 0.008669 -0.002939 0.009297 -0.006502 0.042777 0.004582
# 6 0.004780 -0.003083 -0.003998 -0.009070 0.004582 0.048808
#
#
# Mechanical properties :
#
#
# Convention : Reuss Voigt Hill
#
# Bulk Modulus (GPa) = 41.10894 54.80048 47.95471
# Shear Modulus (GPa) = 24.65767 29.37966 27.01867
#
# Velocity S-wave (km/s) = 3.29923 3.60131 3.45357
# Velocity P-wave (km/s) = 5.71493 6.44079 6.08868
#
# Compressibility (1/GPa) = 0.02432561
#
# Stress axis : x y z
#
# Youngs Moduli (GPa) = 57.07403 86.84766 66.67757
#
# Poissons Ratio (x) = 0.39425 0.13668
# Poissons Ratio (y) = 0.25909 0.21765
# Poissons Ratio (z) = 0.11700 0.28349
#
# Static dielectric constant tensor:
#      x y z
#    x 4.086650 -0.057880 -0.149490 
#    y -0.057880 4.231780 0.018010 
#    z -0.149490 0.018010 4.107170 
# 
# 
# High freq. dielectric constant tensor:
#      x y z
#    x 1.888220 -0.006810 -0.020150 
#    y -0.006810 1.909730 -0.007120 
#    z -0.020150 -0.007120 1.885130 
# 
# From -- ./inp_files/82763.got.cif
#   From: 2010.06.25/outbox.cif.g09.slc.cpg/sg2_42_cif.got.tgz:82763.got - 2010.06.27 13:26:56.
