data_PCOD8040860
_publ_section_title
;
Structure prediction by ZEFSAII (Michael W. Deem and Ramdas Pophale) SiO2 
 PCOD8040860
Probable space group: P -1
;
_chemical_formula_sum "Si O2"
_cell_formula_units_Z 16
_cell_length_a 9.888811
_cell_length_b 14.418506
_cell_length_c 13.875598
_cell_angle_alpha 146.266162
_cell_angle_beta 114.919751
_cell_angle_gamma 89.846257
_cell_volume 720.794031
_symmetry_space_group_name_H-M "P -1"
_symmetry_group_IT_number 2
_symmetry_cell_setting 'triclinic'
loop_
_space_group_symop_operation_xyz
x,y,z
-x,-y,-z
loop_
_atom_site_type_symbol
_atom_site_label
_atom_site_fract_x
_atom_site_fract_y
_atom_site_fract_z
Si Si1 0.424615 0.559017 0.228824
Si Si2 0.304638 0.526510 0.384590
Si Si3 0.003524 0.317578 0.803960
Si Si4 0.214607 0.966373 0.339424
Si Si5 0.481270 0.176390 0.121209
Si Si6 0.954906 0.490933 0.209735
Si Si7 0.072773 0.031664 0.859197
Si Si8 0.730640 0.521685 0.330612
O O1 0.396663 0.578464 0.350105
O O2 0.539081 0.470215 0.179903
O O3 0.558129 0.804484 0.426767
O O4 0.209701 0.381784 0.955626
O O5 0.489347 0.691346 0.658417
O O6 0.167632 0.587975 0.401755
O O7 0.167957 0.259840 0.145355
O O8 0.991328 0.318388 0.685416
O O9 0.807225 0.074286 0.585920
O O10 0.000000 0.500000 0.000000
O O11 0.043529 0.975615 0.272817
O O12 0.166093 0.755225 0.088673
O O13 0.662477 0.359260 0.259878
O O14 0.259549 0.053103 0.902577
O O15 0.500000 0.000000 0.000000
O O16 0.818966 0.463808 0.228911
O O17 0.901784 0.786807 0.650638
#
# Coordination Sequence:
#
# PCOD8040860 Si02
#       8
#     2   2   2   2   2   2   2   2
#     4  11  21  40  66  92 122 165 214 248 301 377
#     4  11  22  43  66  89 123 172 213 250 307 368
#     4  10  18  39  63  92 128 158 208 258 298 370
#     4   9  20  38  66  90 120 166 209 252 301 372
#     4  12  26  41  64  94 129 160 207 261 318 367
#     4  10  22  40  62  93 130 161 201 263 315 354
#     4  10  21  44  63  88 125 166 208 256 298 371
#     4  11  25  43  62  94 130 161 205 262 315 366
#
# _framework density 22.19774
#
# number of rings (size 3 to 8) (size 9 to 14) (size 15 to 20)
#    0.000    1.500    5.000    1.125    1.750    5.000 
#    2.250    2.500    0.000    0.000    0.000    0.000 
#    0.000    0.000    0.000    0.000    0.000    0.000 
#
# Total GULP energy -198296.682542 kJ/mol
# GULP energy per Si atom -12393.542659 kJ/mol
# Density = 2.214722 g / cm^3
# Si number density = 22.197740 Si / 1000 Ang^3
#
#
#
# Elastic Constant Matrix: (Units=GPa)
#
#
# Indices 1 2 3 4 5 6 
#
# 1 144.7054 57.5635 23.1781 7.1909 9.8367 -6.1579
# 2 57.5635 125.8092 45.2181 30.1828 4.1026 15.2088
# 3 23.1781 45.2181 69.9733 28.2444 9.5095 0.9241
# 4 7.1909 30.1828 28.2444 36.5311 1.1969 4.3252
# 5 9.8367 4.1026 9.5095 1.1969 23.8495 5.8299
# 6 -6.1579 15.2088 0.9241 4.3252 5.8299 30.7442
#
#
#
# Elastic Compliance Matrix: (Units=1/GPa)
#
#
# Indices 1 2 3 4 5 6 
#
# 1 0.009408 -0.005251 -0.000040 0.002065 -0.004288 0.005006
# 2 -0.005251 0.014696 -0.005932 -0.005697 0.004282 -0.008154
# 3 -0.000040 -0.005932 0.025562 -0.015262 -0.009901 0.006183
# 4 0.002065 -0.005697 -0.015262 0.043716 0.004846 -0.003378
# 5 -0.004288 0.004282 -0.009901 0.004846 0.049796 -0.012804
# 6 0.005006 -0.008154 0.006183 -0.003378 -0.012804 0.040280
#
#
# Mechanical properties :
#
#
# Convention : Reuss Voigt Hill
#
# Bulk Modulus (GPa) = 36.73798 65.82306 51.28052
# Shear Modulus (GPa) = 23.25825 32.52683 27.89254
#
# Velocity S-wave (km/s) = 3.24045 3.83210 3.54863
# Velocity P-wave (km/s) = 5.53054 7.02121 6.31998
#
# Compressibility (1/GPa) = 0.02721979
#
# Stress axis : x y z
#
# Youngs Moduli (GPa) = 106.29635 68.04556 39.11995
#
# Poissons Ratio (x) = 0.35730 0.00157
# Poissons Ratio (y) = 0.55814 0.23207
# Poissons Ratio (z) = 0.00425 0.40367
#
# Static dielectric constant tensor:
#      x y z
#    x 4.103890 -0.549580 0.382410 
#    y -0.549580 6.141770 -0.515970 
#    z 0.382410 -0.515970 4.292890 
# 
# 
# High freq. dielectric constant tensor:
#      x y z
#    x 1.877400 -0.016630 0.013490 
#    y -0.016630 1.882130 0.021640 
#    z 0.013490 0.021640 1.853320 
# 
# From -- ./inp_files/505938.got.cif
#   From: 2010.06.25/outbox.cif.g09.slc.cpg/sg2_253_cif.got.tgz:505938.got - 2010.06.27 13:26:56.
