data_PCOD8040513
_publ_section_title
;
Structure prediction by ZEFSAII (Michael W. Deem and Ramdas Pophale) SiO2 
 PCOD8040513
Probable space group: P -1
;
_chemical_formula_sum "Si O2"
_cell_formula_units_Z 14
_cell_length_a 8.548788
_cell_length_b 11.638441
_cell_length_c 16.740665
_cell_angle_alpha 44.308109
_cell_angle_beta 68.686917
_cell_angle_gamma 38.773104
_cell_volume 652.667080
_symmetry_space_group_name_H-M "P -1"
_symmetry_group_IT_number 2
_symmetry_cell_setting 'triclinic'
loop_
_space_group_symop_operation_xyz
x,y,z
-x,-y,-z
loop_
_atom_site_type_symbol
_atom_site_label
_atom_site_fract_x
_atom_site_fract_y
_atom_site_fract_z
Si Si1 0.190620 0.547916 0.398019
Si Si2 0.682763 0.262431 0.018334
Si Si3 0.189774 0.488912 0.726675
Si Si4 0.716363 0.990850 0.659616
Si Si5 0.307906 0.131308 0.767885
Si Si6 0.685053 0.266152 0.834535
Si Si7 0.176671 0.742592 0.456617
O O1 0.310776 0.564976 0.295915
O O2 0.049321 0.766766 0.387003
O O3 0.936525 0.636714 0.366942
O O4 0.454612 0.233646 0.530468
O O5 0.589432 0.377622 0.888028
O O6 0.500000 0.500000 0.000000
O O7 0.640531 0.101338 0.119146
O O8 0.008334 0.056575 0.067899
O O9 0.216099 0.281528 0.794252
O O10 0.468412 0.313262 0.810194
O O11 0.121615 0.670185 0.578103
O O12 0.919395 0.699296 0.728029
O O13 0.591174 0.005542 0.754759
O O14 0.910077 0.000254 0.638178
O O15 0.500000 0.500000 0.500000
#
# Coordination Sequence:
#
# PCOD8040513 Si02
#       7
#     2   2   2   2   2   2   2
#     4  10  20  40  63  91 133 171 198 253 302 364
#     4  10  25  48  69  87 114 164 218 262 315 365
#     4  12  23  38  62  98 131 164 201 251 308 373
#     4  11  22  37  61  97 131 165 205 237 311 381
#     4  11  24  41  60  91 132 163 205 264 308 352
#     4  10  22  43  68  91 121 160 214 259 304 361
#     4  10  18  37  60  87 135 167 201 238 296 371
#
# _framework density 21.450445999999999
#
# number of rings (size 3 to 8) (size 9 to 14) (size 15 to 20)
#    0.000    1.429    5.714    0.857    0.000    8.000 
#    0.000    1.429    0.000    0.000    0.000    0.000 
#    0.000    0.000    0.000    0.000    0.000    0.000 
#
# Total GULP energy -173556.289378 kJ/mol
# GULP energy per Si atom -12396.877813 kJ/mol
# Density = 2.140162 g / cm^3
# Si number density = 21.450446 Si / 1000 Ang^3
#
#
#
# Elastic Constant Matrix: (Units=GPa)
#
#
# Indices 1 2 3 4 5 6 
#
# 1 121.3010 52.1932 34.5242 -10.9002 8.2740 21.8097
# 2 52.1932 140.2053 41.5031 -16.1542 5.1042 31.0188
# 3 34.5242 41.5031 68.9239 1.1407 -1.3925 12.6805
# 4 -10.9002 -16.1542 1.1407 30.7083 11.4420 -1.8031
# 5 8.2740 5.1042 -1.3925 11.4420 29.0082 -1.1300
# 6 21.8097 31.0188 12.6805 -1.8031 -1.1300 33.0512
#
#
#
# Elastic Compliance Matrix: (Units=1/GPa)
#
#
# Indices 1 2 3 4 5 6 
#
# 1 0.011799 -0.001094 -0.004561 0.005661 -0.005816 -0.004899
# 2 -0.001094 0.012064 -0.005429 0.007696 -0.005429 -0.008283
# 3 -0.004561 -0.005429 0.020290 -0.007534 0.006207 0.000122
# 4 0.005661 0.007696 -0.007534 0.046735 -0.022009 -0.006271
# 5 -0.005816 -0.005429 0.006207 -0.022009 0.046337 0.006935
# 6 -0.004899 -0.008283 0.000122 -0.006271 0.006935 0.041110
#
#
# Mechanical properties :
#
#
# Convention : Reuss Voigt Hill
#
# Bulk Modulus (GPa) = 45.48835 65.20793 55.34814
# Shear Modulus (GPa) = 24.05773 32.03417 28.04595
#
# Velocity S-wave (km/s) = 3.35259 3.86865 3.61983
# Velocity P-wave (km/s) = 6.01986 7.10075 6.58253
#
# Compressibility (1/GPa) = 0.02198365
#
# Stress axis : x y z
#
# Youngs Moduli (GPa) = 84.75086 82.89259 49.28417
#
# Poissons Ratio (x) = 0.09072 0.22479
# Poissons Ratio (y) = 0.09275 0.26758
# Poissons Ratio (z) = 0.38656 0.45006
#
# Static dielectric constant tensor:
#      x y z
#    x 4.865080 0.644460 -0.020020 
#    y 0.644460 4.262380 0.066620 
#    z -0.020020 0.066620 3.647220 
# 
# 
# High freq. dielectric constant tensor:
#      x y z
#    x 1.846010 0.002360 0.001250 
#    y 0.002360 1.845010 0.013990 
#    z 0.001250 0.013990 1.821030 
# 
# From -- ./inp_files/259792.got.cif
#   From: 2010.06.25/outbox.cif.g09.slc.cpg/sg2_130_cif.got.tgz:259792.got - 2010.06.27 13:26:56.
