data_PCOD8040593
_publ_section_title
;
Structure prediction by ZEFSAII (Michael W. Deem and Ramdas Pophale) SiO2 
 PCOD8040593
Probable space group: P -1
;
_chemical_formula_sum "Si O2"
_cell_formula_units_Z 16
_cell_length_a 9.639170
_cell_length_b 12.071562
_cell_length_c 15.171410
_cell_angle_alpha 28.506652
_cell_angle_beta 101.070128
_cell_angle_gamma 109.976998
_cell_volume 768.444929
_symmetry_space_group_name_H-M "P -1"
_symmetry_group_IT_number 2
_symmetry_cell_setting 'triclinic'
loop_
_space_group_symop_operation_xyz
x,y,z
-x,-y,-z
loop_
_atom_site_type_symbol
_atom_site_label
_atom_site_fract_x
_atom_site_fract_y
_atom_site_fract_z
Si Si1 0.849839 0.218000 0.514552
Si Si2 0.808923 0.603130 0.539377
Si Si3 0.520077 0.278002 0.830940
Si Si4 0.336630 0.839231 0.636266
Si Si5 0.655220 0.423333 0.467073
Si Si6 0.308586 0.307496 0.089674
Si Si7 0.325535 0.028143 0.690927
Si Si8 0.419872 0.627620 0.031240
O O1 0.798447 0.178629 0.434470
O O2 0.746748 0.356027 0.447756
O O3 0.025827 0.395119 0.418185
O O4 0.834210 0.956229 0.745529
O O5 0.689221 0.448029 0.705627
O O6 0.761547 0.474416 0.529467
O O7 0.804364 0.880921 0.350751
O O8 0.381887 0.330016 0.731234
O O9 0.509039 0.358651 0.873970
O O10 0.500000 0.000000 0.000000
O O11 0.500000 0.000000 0.500000
O O12 0.316094 0.998290 0.605176
O O13 0.307671 0.550314 0.865345
O O14 0.492423 0.210908 0.615073
O O15 0.337249 0.357331 0.164435
O O16 0.444003 0.230472 0.120632
O O17 0.299530 0.766220 0.918585
#
# Coordination Sequence:
#
# PCOD8040593 Si02
#       8
#     2   2   2   2   2   2   2   2
#     4  12  24  43  65  92 136 169 207 266 324 385
#     4  11  26  41  59  94 129 170 208 262 333 368
#     4  11  23  40  68  94 122 165 218 266 311 383
#     4  11  21  40  67 100 124 164 221 260 315 377
#     4  11  21  42  65  87 122 172 216 262 308 380
#     4  10  22  36  65  97 124 162 211 265 310 376
#     4  10  20  39  66  89 125 162 212 268 306 377
#     4  10  18  37  63  95 118 155 218 261 305 365
#
# _framework density 20.821272
#
# number of rings (size 3 to 8) (size 9 to 14) (size 15 to 20)
#    0.000    1.250    2.500    5.625    5.250    0.500 
#    4.500    1.875    0.000    0.000    0.000    0.000 
#    0.000    0.000    0.000    0.000    0.000    0.000 
#
# Total GULP energy -198234.808171 kJ/mol
# GULP energy per Si atom -12389.675511 kJ/mol
# Density = 2.077388 g / cm^3
# Si number density = 20.821272 Si / 1000 Ang^3
#
#
#
# Elastic Constant Matrix: (Units=GPa)
#
#
# Indices 1 2 3 4 5 6 
#
# 1 89.2463 27.0788 24.4043 -7.4512 2.7419 18.4802
# 2 27.0788 121.4473 29.0882 6.1196 0.3663 11.4884
# 3 24.4043 29.0882 77.6278 -8.3724 12.1908 3.1493
# 4 -7.4512 6.1196 -8.3724 22.0958 -0.0405 5.4853
# 5 2.7419 0.3663 12.1908 -0.0405 17.5259 -1.1434
# 6 18.4802 11.4884 3.1493 5.4853 -1.1434 34.1472
#
#
#
# Elastic Compliance Matrix: (Units=1/GPa)
#
#
# Indices 1 2 3 4 5 6 
#
# 1 0.014883 -0.002249 -0.002635 0.006667 -0.000966 -0.008159
# 2 -0.002249 0.010006 -0.003967 -0.004800 0.002831 -0.000918
# 3 -0.002635 -0.003967 0.017849 0.007055 -0.011931 -0.000418
# 4 0.006667 -0.004800 0.007055 0.054375 -0.006481 -0.011596
# 5 -0.000966 0.002831 -0.011931 -0.006481 0.065690 0.003911
# 6 -0.008159 -0.000918 -0.000418 -0.011596 0.003911 0.036041
#
#
# Mechanical properties :
#
#
# Convention : Reuss Voigt Hill
#
# Bulk Modulus (GPa) = 39.94245 49.94044 44.94144
# Shear Modulus (GPa) = 22.23298 28.60379 25.41839
#
# Velocity S-wave (km/s) = 3.27127 3.71047 3.49777
# Velocity P-wave (km/s) = 5.78735 6.51108 6.15985
#
# Compressibility (1/GPa) = 0.02503602
#
# Stress axis : x y z
#
# Youngs Moduli (GPa) = 67.18900 99.94199 56.02702
#
# Poissons Ratio (x) = 0.22475 0.14761
# Poissons Ratio (y) = 0.15109 0.22229
# Poissons Ratio (z) = 0.17702 0.39652
#
# Static dielectric constant tensor:
#      x y z
#    x 3.792770 -0.310790 0.381710 
#    y -0.310790 4.003910 -0.132630 
#    z 0.381710 -0.132630 3.900040 
# 
# 
# High freq. dielectric constant tensor:
#      x y z
#    x 1.789010 -0.017540 0.021610 
#    y -0.017540 1.832240 -0.003280 
#    z 0.021610 -0.003280 1.809020 
# 
# From -- ./inp_files/436622.got.cif
#   From: 2010.06.25/outbox.cif.g09.slc.cpg/sg2_219_cif.got.tgz:436622.got - 2010.06.27 13:26:56.
