data_PCOD8040045
_publ_section_title
;
Structure prediction by ZEFSAII (Michael W. Deem and Ramdas Pophale) SiO2 
 PCOD8040045
Probable space group: P -1
;
_chemical_formula_sum "Si O2"
_cell_formula_units_Z 12
_cell_length_a 8.737955
_cell_length_b 7.933043
_cell_length_c 15.126089
_cell_angle_alpha 56.645744
_cell_angle_beta 141.646595
_cell_angle_gamma 118.622946
_cell_volume 541.127929
_symmetry_space_group_name_H-M "P -1"
_symmetry_group_IT_number 2
_symmetry_cell_setting 'triclinic'
loop_
_space_group_symop_operation_xyz
x,y,z
-x,-y,-z
loop_
_atom_site_type_symbol
_atom_site_label
_atom_site_fract_x
_atom_site_fract_y
_atom_site_fract_z
Si Si1 0.279390 0.103649 0.709911
Si Si2 0.897125 0.679572 0.259969
Si Si3 0.250703 0.106266 0.043696
Si Si4 0.613782 0.278200 0.296572
Si Si5 0.546932 0.237830 0.468678
Si Si6 0.823825 0.843296 0.537467
O O1 0.211021 0.208315 0.738414
O O2 0.223500 0.244800 0.558308
O O3 0.566320 0.061825 0.853204
O O4 0.112138 0.884392 0.685684
O O5 0.816198 0.441313 0.298125
O O6 0.191734 0.711502 0.379962
O O7 0.793856 0.761583 0.099615
O O8 0.372570 0.252233 0.133182
O O9 0.000000 0.000000 0.000000
O O10 0.532444 0.355739 0.334726
O O11 0.732554 0.069413 0.426502
O O12 0.331898 0.298658 0.421078
O O13 0.500000 0.000000 0.500000
#
# Coordination Sequence:
#
# PCOD8040045 Si02
#       6
#     2   2   2   2   2   2
#     4  10  20  35  61  86 113 148 198 235 276 338
#     4  12  21  36  62  89 118 146 191 240 290 327
#     4  11  24  41  61  79 114 161 197 227 284 353
#     4  10  21  37  61  87 117 150 185 242 289 336
#     4  10  18  35  62  86 111 154 191 224 277 354
#     4   9  19  37  61  86 115 152 193 227 281 345
#
# _framework density 22.175903999999999
#
# number of rings (size 3 to 8) (size 9 to 14) (size 15 to 20)
#    0.000    1.667    3.333    4.500    0.000    0.000 
#    0.000    1.667   11.000    0.000    0.000    0.000 
#    0.000    0.000    0.000    0.000    0.000    0.000 
#
# Total GULP energy -148738.269388 kJ/mol
# GULP energy per Si atom -12394.855782 kJ/mol
# Density = 2.212543 g / cm^3
# Si number density = 22.175904 Si / 1000 Ang^3
#
#
#
# Elastic Constant Matrix: (Units=GPa)
#
#
# Indices 1 2 3 4 5 6 
#
# 1 101.2517 4.9426 33.4725 5.9789 -0.3777 25.8297
# 2 4.9426 66.9328 30.9045 14.1216 5.6382 22.2359
# 3 33.4725 30.9045 108.6415 21.4163 -15.6805 5.8165
# 4 5.9789 14.1216 21.4163 33.6764 10.1112 3.3561
# 5 -0.3777 5.6382 -15.6805 10.1112 43.3691 7.8961
# 6 25.8297 22.2359 5.8165 3.3561 7.8961 38.1871
#
#
#
# Elastic Compliance Matrix: (Units=1/GPa)
#
#
# Indices 1 2 3 4 5 6 
#
# 1 0.014486 0.005498 -0.005392 -0.000152 -0.000299 -0.012103
# 2 0.005498 0.024212 -0.007077 -0.004527 -0.001692 -0.015992
# 3 -0.005392 -0.007077 0.015438 -0.008643 0.007633 0.004598
# 4 -0.000152 -0.004527 -0.008643 0.040580 -0.012561 0.003086
# 5 -0.000299 -0.001692 0.007633 -0.012561 0.029883 -0.005050
# 6 -0.012103 -0.015992 0.004598 0.003086 -0.005050 0.043758
#
#
# Mechanical properties :
#
#
# Convention : Reuss Voigt Hill
#
# Bulk Modulus (GPa) = 24.87905 46.16280 35.52093
# Shear Modulus (GPa) = 25.54948 36.88027 31.21488
#
# Velocity S-wave (km/s) = 3.39798 4.08251 3.75587
# Velocity P-wave (km/s) = 5.16124 6.56387 5.90435
#
# Compressibility (1/GPa) = 0.04019446
#
# Stress axis : x y z
#
# Youngs Moduli (GPa) = 69.03135 41.30119 64.77331
#
# Poissons Ratio (x) = -0.22709 0.34929
# Poissons Ratio (y) = -0.37956 0.45841
# Poissons Ratio (z) = 0.37225 0.29229
#
# Static dielectric constant tensor:
#      x y z
#    x 6.616560 1.444830 -2.260950 
#    y 1.444830 4.886400 -1.138960 
#    z -2.260950 -1.138960 6.179180 
# 
# 
# High freq. dielectric constant tensor:
#      x y z
#    x 1.899090 0.016500 -0.017930 
#    y 0.016500 1.857110 0.025220 
#    z -0.017930 0.025220 1.858240 
# 
# From -- ./inp_files/159500.got.cif
#   From: 2010.06.25/outbox.cif.g09.slc.cpg/sg2_80_cif.got.tgz:159500.got - 2010.06.27 13:26:56.
