data_PCOD8040726
_publ_section_title
;
Structure prediction by ZEFSAII (Michael W. Deem and Ramdas Pophale) SiO2 
 PCOD8040726
Probable space group: P -1
;
_chemical_formula_sum "Si O2"
_cell_formula_units_Z 16
_cell_length_a 18.121765
_cell_length_b 10.807615
_cell_length_c 8.517604
_cell_angle_alpha 77.206474
_cell_angle_beta 119.398026
_cell_angle_gamma 144.772261
_cell_volume 783.027319
_symmetry_space_group_name_H-M "P -1"
_symmetry_group_IT_number 2
_symmetry_cell_setting 'triclinic'
loop_
_space_group_symop_operation_xyz
x,y,z
-x,-y,-z
loop_
_atom_site_type_symbol
_atom_site_label
_atom_site_fract_x
_atom_site_fract_y
_atom_site_fract_z
Si Si1 0.063401 0.902031 0.592482
Si Si2 0.181064 0.074616 0.330357
Si Si3 0.042097 0.372596 0.957448
Si Si4 0.233993 0.378287 0.097963
Si Si5 0.131653 0.754724 0.889510
Si Si6 0.217351 0.328943 0.741264
Si Si7 0.525757 0.605583 0.264581
Si Si8 0.567010 0.738466 0.930853
O O1 0.089546 0.785982 0.683593
O O2 0.884550 0.719429 0.477343
O O3 0.093806 0.984604 0.425206
O O4 0.175236 0.126077 0.756015
O O5 0.155056 0.164248 0.168736
O O6 0.360592 0.281223 0.504014
O O7 0.107801 0.863276 0.224706
O O8 0.179004 0.440699 0.102934
O O9 0.989977 0.350189 0.080314
O O10 0.110601 0.580290 0.878780
O O11 0.417110 0.582047 0.224278
O O12 0.178341 0.325050 0.876729
O O13 0.308762 0.999472 0.058914
O O14 0.393041 0.572279 0.804605
O O15 0.421984 0.356117 0.167539
O O16 0.614524 0.753899 0.154321
#
# Coordination Sequence:
#
# PCOD8040726 Si02
#       8
#     2   2   2   2   2   2   2   2
#     4  11  21  36  63  95 119 152 199 248 295 353
#     4  12  21  37  63  96 120 148 198 256 299 342
#     4  11  26  42  59  85 120 167 200 242 298 353
#     4  11  23  38  59  90 127 148 197 252 302 347
#     4  11  24  44  61  79 122 169 204 233 294 369
#     4  10  21  36  61  96 122 151 193 247 308 345
#     4  10  20  36  61  96 118 150 191 251 308 345
#     4  10  18  38  62  87 123 156 195 237 295 365
#
# _framework density 20.433515
#
# number of rings (size 3 to 8) (size 9 to 14) (size 15 to 20)
#    0.000    1.250    3.750    3.750    3.500    0.500 
#    0.000    3.750    0.000    3.750    0.000    0.000 
#    0.000    0.000    0.000    0.000    0.000    0.000 
#
# Total GULP energy -198261.955606 kJ/mol
# GULP energy per Si atom -12391.372225 kJ/mol
# Density = 2.038701 g / cm^3
# Si number density = 20.433515 Si / 1000 Ang^3
#
#
#
# Elastic Constant Matrix: (Units=GPa)
#
#
# Indices 1 2 3 4 5 6 
#
# 1 103.5755 56.9245 40.7382 1.1678 16.2409 -6.8922
# 2 56.9245 131.4129 37.4733 0.8014 24.7147 -18.2888
# 3 40.7382 37.4733 84.6251 7.3677 27.2411 -5.4963
# 4 1.1678 0.8014 7.3677 13.8233 0.9555 -2.6252
# 5 16.2409 24.7147 27.2411 0.9555 30.0748 0.6766
# 6 -6.8922 -18.2888 -5.4963 -2.6252 0.6766 27.9513
#
#
#
# Elastic Compliance Matrix: (Units=1/GPa)
#
#
# Indices 1 2 3 4 5 6 
#
# 1 0.014188 -0.004975 -0.005151 0.001641 0.001054 -0.000641
# 2 -0.004975 0.012193 -0.000384 0.001748 -0.007200 0.007015
# 3 -0.005151 -0.000384 0.020179 -0.008890 -0.014942 0.001973
# 4 0.001641 0.001748 -0.008890 0.077964 0.003095 0.007047
# 5 0.001054 -0.007200 -0.014942 0.003095 0.052222 -0.008363
# 6 -0.000641 0.007015 0.001973 0.007047 -0.008363 0.041461
#
#
# Mechanical properties :
#
#
# Convention : Reuss Voigt Hill
#
# Bulk Modulus (GPa) = 39.15173 65.54282 52.34728
# Shear Modulus (GPa) = 20.18244 26.66839 23.42542
#
# Velocity S-wave (km/s) = 3.14620 3.61658 3.38956
# Velocity P-wave (km/s) = 5.69212 7.04168 6.40256
#
# Compressibility (1/GPa) = 0.02554166
#
# Stress axis : x y z
#
# Youngs Moduli (GPa) = 70.47998 82.01101 49.55744
#
# Poissons Ratio (x) = 0.40797 0.25528
# Poissons Ratio (y) = 0.35061 0.01901
# Poissons Ratio (z) = 0.36306 0.03146
#
# Static dielectric constant tensor:
#      x y z
#    x 3.737490 0.149460 0.088460 
#    y 0.149460 3.608080 0.051290 
#    z 0.088460 0.051290 3.801520 
# 
# 
# High freq. dielectric constant tensor:
#      x y z
#    x 1.808290 0.026490 0.012420 
#    y 0.026490 1.767400 0.002120 
#    z 0.012420 0.002120 1.801870 
# 
# From -- ./inp_files/328916.got.cif
#   From: 2010.06.25/outbox.cif.g09.slc.cpg/sg2_165_cif.got.tgz:328916.got - 2010.06.27 13:26:56.
