data_PCOD8040451
_publ_section_title
;
Structure prediction by ZEFSAII (Michael W. Deem and Ramdas Pophale) SiO2 
 PCOD8040451
Probable space group: P -1
;
_chemical_formula_sum "Si O2"
_cell_formula_units_Z 16
_cell_length_a 20.395383
_cell_length_b 12.721827
_cell_length_c 9.065453
_cell_angle_alpha 97.068359
_cell_angle_beta 112.607832
_cell_angle_gamma 27.377419
_cell_volume 856.375439
_symmetry_space_group_name_H-M "P -1"
_symmetry_group_IT_number 2
_symmetry_cell_setting 'triclinic'
loop_
_space_group_symop_operation_xyz
x,y,z
-x,-y,-z
loop_
_atom_site_type_symbol
_atom_site_label
_atom_site_fract_x
_atom_site_fract_y
_atom_site_fract_z
Si Si1 0.278328 0.294991 0.247226
Si Si2 0.025998 0.488576 0.691120
Si Si3 0.306763 0.018899 0.308230
Si Si4 0.308120 0.287249 0.947067
Si Si5 0.943564 0.963914 0.291410
Si Si6 0.332227 0.418317 0.488374
Si Si7 0.808798 0.367421 0.295376
Si Si8 0.883249 0.830497 0.083642
O O1 0.332872 0.098709 0.271862
O O2 0.357102 0.259142 0.441645
O O3 0.065216 0.588956 0.110377
O O4 0.340977 0.261459 0.143249
O O5 0.171840 0.378943 0.815916
O O6 0.100999 0.281360 0.798294
O O7 0.000000 0.500000 0.500000
O O8 0.835169 0.786218 0.647843
O O9 0.516368 0.714009 0.483133
O O10 0.261941 0.997389 0.136986
O O11 0.223151 0.508932 0.843496
O O12 0.500000 0.000000 0.000000
O O13 0.129550 0.728899 0.318874
O O14 0.001153 0.869183 0.497594
O O15 0.837515 0.005182 0.151301
O O16 0.813588 0.242318 0.209838
O O17 0.348780 0.406199 0.679460
#
# Coordination Sequence:
#
# PCOD8040451 Si02
#       8
#     2   2   2   2   2   2   2   2
#     4  10  19  34  50  82 109 147 174 219 274 328
#     4  11  23  33  51  82 113 146 172 223 290 322
#     4  11  19  34  54  79 115 141 181 225 269 330
#     4  12  23  34  55  83 117 137 176 231 277 324
#     4   8  18  37  62  77 102 148 198 213 260 316
#     4   9  19  33  58  77 103 145 192 218 257 320
#     4   9  19  37  60  81 106 143 191 224 260 316
#     4  10  18  37  55  76 110 145 182 220 269 330
#
# _framework density 18.683394
#
# number of rings (size 3 to 8) (size 9 to 14) (size 15 to 20)
#    0.750    1.250    2.500    2.625    3.500    0.000 
#    0.000    3.125    0.000    0.750    0.000    0.000 
#    0.000    0.000    0.000    0.000    0.000    0.000 
#
# Total GULP energy -198226.775392 kJ/mol
# GULP energy per Si atom -12389.173462 kJ/mol
# Density = 1.864087 g / cm^3
# Si number density = 18.683394 Si / 1000 Ang^3
#
#
#
# Elastic Constant Matrix: (Units=GPa)
#
#
# Indices 1 2 3 4 5 6 
#
# 1 97.5793 62.6247 37.1663 6.4350 4.8627 2.2961
# 2 62.6247 83.8800 35.9368 13.6788 5.0104 6.1452
# 3 37.1663 35.9368 67.3455 16.1715 8.9493 2.6031
# 4 6.4350 13.6788 16.1715 24.4749 -2.0237 7.4291
# 5 4.8627 5.0104 8.9493 -2.0237 39.0378 2.5641
# 6 2.2961 6.1452 2.6031 7.4291 2.5641 36.7861
#
#
#
# Elastic Compliance Matrix: (Units=1/GPa)
#
#
# Indices 1 2 3 4 5 6 
#
# 1 0.021265 -0.014567 -0.005577 0.006247 0.000811 0.000183
# 2 -0.014567 0.025811 -0.003678 -0.007789 -0.000960 -0.001502
# 3 -0.005577 -0.003678 0.023654 -0.013231 -0.005094 0.002316
# 4 0.006247 -0.007789 -0.013231 0.055882 0.006803 -0.009912
# 5 0.000811 -0.000960 -0.005094 0.006803 0.027343 -0.002809
# 6 0.000183 -0.001502 0.002316 -0.009912 -0.002809 0.029457
#
#
# Mechanical properties :
#
#
# Convention : Reuss Voigt Hill
#
# Bulk Modulus (GPa) = 43.31842 57.80671 50.56257
# Shear Modulus (GPa) = 20.94221 27.59823 24.27022
#
# Velocity S-wave (km/s) = 3.35162 3.84754 3.60811
# Velocity P-wave (km/s) = 6.18172 7.12358 6.66930
#
# Compressibility (1/GPa) = 0.02308487
#
# Stress axis : x y z
#
# Youngs Moduli (GPa) = 47.02641 38.74304 42.27654
#
# Poissons Ratio (x) = 0.56439 0.23578
# Poissons Ratio (y) = 0.68505 0.15549
# Poissons Ratio (z) = 0.26227 0.14249
#
# Static dielectric constant tensor:
#      x y z
#    x 3.395360 -0.107580 0.028340 
#    y -0.107580 3.563940 0.058240 
#    z 0.028340 0.058240 3.933740 
# 
# 
# High freq. dielectric constant tensor:
#      x y z
#    x 1.702670 -0.009670 0.024770 
#    y -0.009670 1.723140 0.013610 
#    z 0.024770 0.013610 1.716490 
# 
# From -- ./inp_files/333388.got.cif
#   From: 2010.06.25/outbox.cif.g09.slc.cpg/sg2_167_cif.got.tgz:333388.got - 2010.06.27 13:26:56.
