data_PCOD8040111
_publ_section_title
;
Structure prediction by ZEFSAII (Michael W. Deem and Ramdas Pophale) SiO2 
 PCOD8040111
Probable space group: P -1
;
_chemical_formula_sum "Si O2"
_cell_formula_units_Z 14
_cell_length_a 9.235792
_cell_length_b 9.669292
_cell_length_c 20.550971
_cell_angle_alpha 45.610379
_cell_angle_beta 145.856785
_cell_angle_gamma 134.442990
_cell_volume 701.653962
_symmetry_space_group_name_H-M "P -1"
_symmetry_group_IT_number 2
_symmetry_cell_setting 'triclinic'
loop_
_space_group_symop_operation_xyz
x,y,z
-x,-y,-z
loop_
_atom_site_type_symbol
_atom_site_label
_atom_site_fract_x
_atom_site_fract_y
_atom_site_fract_z
Si Si1 0.783363 0.078971 0.930020
Si Si2 0.442993 0.816535 0.702682
Si Si3 0.973461 0.720243 0.912647
Si Si4 0.990718 0.643572 0.684401
Si Si5 0.191749 0.851899 0.812118
Si Si6 0.425711 0.762101 0.317002
Si Si7 0.000304 0.073348 0.565890
O O1 0.713976 0.244098 0.803494
O O2 0.509713 0.899260 0.901614
O O3 0.900494 0.165585 0.013740
O O4 0.000000 0.000000 0.000000
O O5 0.663540 0.717770 0.790072
O O6 0.260363 0.654861 0.739658
O O7 0.254619 0.841165 0.563463
O O8 0.587890 0.035598 0.716984
O O9 0.136408 0.829442 0.874774
O O10 0.000000 0.500000 0.000000
O O11 0.053519 0.650201 0.783531
O O12 0.744087 0.443464 0.641111
O O13 0.926865 0.854860 0.571810
O O14 0.074212 0.032124 0.681626
O O15 0.735546 0.765034 0.421155
#
# Coordination Sequence:
#
# PCOD8040111 Si02
#       7
#     2   2   2   2   2   2   2
#     4  11  20  40  65  87 118 161 210 249 294 358
#     4  11  21  39  59  91 123 159 206 245 298 362
#     4  12  25  40  60  86 127 166 199 248 303 362
#     4   9  18  36  63  93 116 154 199 251 302 354
#     4   9  21  40  59  87 121 159 196 248 309 353
#     4  10  18  35  64  92 120 150 202 259 298 344
#     4   8  20  36  61  91 122 154 198 259 296 356
#
# _framework density 19.952857000000002
#
# number of rings (size 3 to 8) (size 9 to 14) (size 15 to 20)
#    0.857    1.143    2.857    3.000    0.000    4.000 
#    2.571    2.857    0.000    2.571    0.000    0.000 
#    0.000    0.000    0.000    0.000    0.000    0.000 
#
# Total GULP energy -173453.847107 kJ/mol
# GULP energy per Si atom -12389.560508 kJ/mol
# Density = 1.990744 g / cm^3
# Si number density = 19.952857 Si / 1000 Ang^3
#
#
#
# Elastic Constant Matrix: (Units=GPa)
#
#
# Indices 1 2 3 4 5 6 
#
# 1 120.8851 50.3846 65.6168 1.0661 -0.6235 11.0657
# 2 50.3846 118.1348 40.0966 -0.2248 3.8214 28.1320
# 3 65.6168 40.0966 133.4369 13.9101 16.6459 3.3503
# 4 1.0661 -0.2248 13.9101 18.7934 -5.2985 -3.9776
# 5 -0.6235 3.8214 16.6459 -5.2985 35.6261 3.9469
# 6 11.0657 28.1320 3.3503 -3.9776 3.9469 31.0897
#
#
#
# Elastic Compliance Matrix: (Units=1/GPa)
#
#
# Indices 1 2 3 4 5 6 
#
# 1 0.013336 -0.003356 -0.006641 0.005216 0.004573 -0.000908
# 2 -0.003356 0.013089 -0.002084 -0.000154 0.000655 -0.010528
# 3 -0.006641 -0.002084 0.013546 -0.011484 -0.008191 0.002361
# 4 0.005216 -0.000154 -0.011484 0.066880 0.014733 0.006207
# 5 0.004573 0.000655 -0.008191 0.014733 0.034522 -0.003835
# 6 -0.000908 -0.010528 0.002361 0.006207 -0.003835 0.043041
#
#
# Mechanical properties :
#
#
# Convention : Reuss Voigt Hill
#
# Bulk Modulus (GPa) = 63.25386 76.07251 69.66318
# Shear Modulus (GPa) = 23.38119 31.52574 27.45347
#
# Velocity S-wave (km/s) = 3.42690 3.97925 3.71336
# Velocity P-wave (km/s) = 6.88685 7.70204 7.30582
#
# Compressibility (1/GPa) = 0.01580931
#
# Stress axis : x y z
#
# Youngs Moduli (GPa) = 74.98226 76.39934 73.82264
#
# Poissons Ratio (x) = 0.25637 0.49027
# Poissons Ratio (y) = 0.25162 0.15387
# Poissons Ratio (z) = 0.49797 0.15924
#
# Static dielectric constant tensor:
#      x y z
#    x 3.388640 0.290010 -0.068610 
#    y 0.290010 3.171360 0.164860 
#    z -0.068610 0.164860 3.779960 
# 
# 
# High freq. dielectric constant tensor:
#      x y z
#    x 1.762520 0.021140 -0.011450 
#    y 0.021140 1.755040 0.020710 
#    z -0.011450 0.020710 1.791320 
# 
# From -- ./inp_files/517852.got.cif
#   From: 2010.06.25/outbox.cif.g09.slc.cpg/sg2_259_cif.got.tgz:517852.got - 2010.06.27 13:26:56.
