data_PCOD8040656
_publ_section_title
;
Structure prediction by ZEFSAII (Michael W. Deem and Ramdas Pophale) SiO2 
 PCOD8040656
Probable space group: P -1
;
_chemical_formula_sum "Si O2"
_cell_formula_units_Z 14
_cell_length_a 8.839924
_cell_length_b 8.553160
_cell_length_c 11.423015
_cell_angle_alpha 42.669489
_cell_angle_beta 69.598036
_cell_angle_gamma 67.827286
_cell_volume 538.599889
_symmetry_space_group_name_H-M "P -1"
_symmetry_group_IT_number 2
_symmetry_cell_setting 'triclinic'
loop_
_space_group_symop_operation_xyz
x,y,z
-x,-y,-z
loop_
_atom_site_type_symbol
_atom_site_label
_atom_site_fract_x
_atom_site_fract_y
_atom_site_fract_z
Si Si1 0.701231 0.858322 0.741521
Si Si2 0.139247 0.367486 0.394024
Si Si3 0.050534 0.867325 0.742454
Si Si4 0.837930 0.103206 0.054251
Si Si5 0.523585 0.229267 0.944825
Si Si6 0.790131 0.625816 0.379997
Si Si7 0.330128 0.650323 0.625386
O O1 0.623004 0.100370 0.559930
O O2 0.753700 0.657762 0.739040
O O3 0.567469 0.777669 0.903277
O O4 0.857617 0.877474 0.770085
O O5 0.235555 0.436710 0.443278
O O6 0.977839 0.567954 0.312521
O O7 0.076452 0.129376 0.572717
O O8 0.112855 0.774135 0.906836
O O9 0.153268 0.696121 0.713050
O O10 0.711888 0.255657 0.911875
O O11 0.733034 0.903085 0.224795
O O12 0.000000 0.000000 0.000000
O O13 0.459580 0.480546 0.763773
O O14 0.500000 0.000000 0.000000
O O15 0.674554 0.485231 0.419691
#
# Coordination Sequence:
#
# PCOD8040656 Si02
#       7
#     2   2   2   2   2   2   2
#     4  11  22  43  73 101 139 180 222 281 339 395
#     4   9  18  36  65 105 135 175 231 271 324 404
#     4  10  20  39  69 100 136 180 225 272 333 404
#     4  11  25  45  64  93 137 181 226 287 340 402
#     4  12  27  45  67 101 138 176 231 284 341 404
#     4  10  18  37  68 101 133 178 231 270 324 407
#     4  11  22  43  72 101 141 176 224 278 337 405
#
# _framework density 25.993324000000001
#
# number of rings (size 3 to 8) (size 9 to 14) (size 15 to 20)
#    0.000    1.429    4.286    1.714    0.000    2.857 
#    0.000    7.857    0.000    0.000    0.000    0.000 
#    0.000    0.000    0.000    0.000    0.000    0.000 
#
# Total GULP energy -173549.783834 kJ/mol
# GULP energy per Si atom -12396.413131 kJ/mol
# Density = 2.593416 g / cm^3
# Si number density = 25.993324 Si / 1000 Ang^3
#
#
#
# Elastic Constant Matrix: (Units=GPa)
#
#
# Indices 1 2 3 4 5 6 
#
# 1 112.3838 41.6080 56.9567 10.7583 33.6220 -13.1302
# 2 41.6080 106.7021 49.6260 26.8986 16.2882 12.4668
# 3 56.9567 49.6260 118.9628 7.0728 36.2571 -5.1481
# 4 10.7583 26.8986 7.0728 52.1922 -7.3775 9.3096
# 5 33.6220 16.2882 36.2571 -7.3775 37.4442 4.7842
# 6 -13.1302 12.4668 -5.1481 9.3096 4.7842 39.7995
#
#
#
# Elastic Compliance Matrix: (Units=1/GPa)
#
#
# Indices 1 2 3 4 5 6 
#
# 1 0.016839 -0.003450 -0.001534 -0.005187 -0.014354 0.009376
# 2 -0.003450 0.014656 -0.004649 -0.005156 0.000876 -0.005230
# 3 -0.001534 -0.004649 0.015141 -0.001935 -0.012260 0.004835
# 4 -0.005187 -0.005156 -0.001935 0.026791 0.015129 -0.008432
# 5 -0.014354 0.000876 -0.012260 0.015129 0.056224 -0.016893
# 6 0.009376 -0.005230 0.004835 -0.008432 -0.016893 0.034486
#
#
# Mechanical properties :
#
#
# Convention : Reuss Voigt Hill
#
# Bulk Modulus (GPa) = 36.53653 70.49223 53.51438
# Shear Modulus (GPa) = 25.97054 38.54439 32.25746
#
# Velocity S-wave (km/s) = 3.16432 3.85497 3.52659
# Velocity P-wave (km/s) = 5.23805 6.85511 6.10040
#
# Compressibility (1/GPa) = 0.02736987
#
# Stress axis : x y z
#
# Youngs Moduli (GPa) = 59.38608 68.23003 66.04712
#
# Poissons Ratio (x) = 0.23536 0.10134
# Poissons Ratio (y) = 0.20485 0.30707
# Poissons Ratio (z) = 0.09112 0.31721
#
# Static dielectric constant tensor:
#      x y z
#    x 4.550930 0.110780 0.476050 
#    y 0.110780 5.055160 -0.028560 
#    z 0.476050 -0.028560 4.939600 
# 
# 
# High freq. dielectric constant tensor:
#      x y z
#    x 2.030340 0.002330 0.014500 
#    y 0.002330 2.050990 -0.000180 
#    z 0.014500 -0.000180 2.053470 
# 
# From -- ./inp_files/380972.got.cif
#   From: 2010.06.25/outbox.cif.g09.slc.cpg/sg2_191_cif.got.tgz:380972.got - 2010.06.27 13:26:56.
