data_PCOD8040003
_publ_section_title
;
Structure prediction by ZEFSAII (Michael W. Deem and Ramdas Pophale) SiO2 
 PCOD8040003
Probable space group: P -1
;
_chemical_formula_sum "Si O2"
_cell_formula_units_Z 14
_cell_length_a 15.242822
_cell_length_b 12.077195
_cell_length_c 8.836360
_cell_angle_alpha 59.845181
_cell_angle_beta 31.568521
_cell_angle_gamma 63.536590
_cell_volume 735.796748
_symmetry_space_group_name_H-M "P -1"
_symmetry_group_IT_number 2
_symmetry_cell_setting 'triclinic'
loop_
_space_group_symop_operation_xyz
x,y,z
-x,-y,-z
loop_
_atom_site_type_symbol
_atom_site_label
_atom_site_fract_x
_atom_site_fract_y
_atom_site_fract_z
Si Si1 0.841623 0.744339 0.958436
Si Si2 0.309817 0.044385 0.751144
Si Si3 0.314939 0.468463 0.841223
Si Si4 0.926855 0.188734 0.678534
Si Si5 0.168899 0.528404 0.316926
Si Si6 0.006862 0.374166 0.900307
Si Si7 0.911568 0.868843 0.225608
O O1 0.986801 0.818675 0.607138
O O2 0.726625 0.674456 0.052696
O O3 0.937661 0.637930 0.997490
O O4 0.722392 0.843962 0.155796
O O5 0.500000 0.000000 0.500000
O O6 0.271675 0.102404 0.599086
O O7 0.196542 0.926123 0.040694
O O8 0.500000 0.500000 0.500000
O O9 0.313682 0.482274 0.017556
O O10 0.176362 0.560624 0.898878
O O11 0.818579 0.321657 0.766219
O O12 0.080721 0.182726 0.578719
O O13 0.159572 0.446071 0.541660
O O14 0.000000 0.500000 0.500000
O O15 0.988877 0.231648 0.959650
O O16 0.000000 0.000000 0.000000
#
# Coordination Sequence:
#
# PCOD8040003 Si02
#       7
#     2   2   2   2   2   2   2
#     4  11  22  38  61  84 116 154 197 235 278 353
#     4  10  24  39  58  86 119 147 188 251 298 325
#     4  11  22  34  57  89 118 145 189 243 288 328
#     4  11  19  38  63  82 111 157 205 221 280 356
#     4  10  18  35  61  82 114 156 191 230 278 351
#     4  10  19  38  57  84 117 153 198 227 286 339
#     4   9  18  34  61  81 106 158 196 222 274 355
#
# _framework density 19.026993999999998
#
# number of rings (size 3 to 8) (size 9 to 14) (size 15 to 20)
#    0.000    1.714    5.714    0.857    2.000    0.000 
#    0.000    5.714    0.000    0.000    0.000    0.000 
#    0.000    0.000    0.000    0.000    0.000    0.000 
#
# Total GULP energy -173476.892785 kJ/mol
# GULP energy per Si atom -12391.206627 kJ/mol
# Density = 1.898369 g / cm^3
# Si number density = 19.026994 Si / 1000 Ang^3
#
#
#
# Elastic Constant Matrix: (Units=GPa)
#
#
# Indices 1 2 3 4 5 6 
#
# 1 94.0638 35.9958 55.4269 8.6698 14.6309 -12.0021
# 2 35.9958 111.6189 38.7667 3.1610 -5.3910 2.7726
# 3 55.4269 38.7667 131.4229 11.7527 7.1821 -14.0625
# 4 8.6698 3.1610 11.7527 31.0250 -3.0550 1.5845
# 5 14.6309 -5.3910 7.1821 -3.0550 30.5767 -4.8078
# 6 -12.0021 2.7726 -14.0625 1.5845 -4.8078 20.9383
#
#
#
# Elastic Compliance Matrix: (Units=1/GPa)
#
#
# Indices 1 2 3 4 5 6 
#
# 1 0.017273 -0.004363 -0.004631 -0.003658 -0.007376 0.005952
# 2 -0.004363 0.011483 -0.002433 0.001620 0.004084 -0.004840
# 3 -0.004631 -0.002433 0.011129 -0.002973 -0.000291 0.005300
# 4 -0.003658 0.001620 -0.002973 0.035034 0.005333 -0.005735
# 5 -0.007376 0.004084 -0.000291 0.005333 0.038086 0.003377
# 6 0.005952 -0.004840 0.005300 -0.005735 0.003377 0.056581
#
#
# Mechanical properties :
#
#
# Convention : Reuss Voigt Hill
#
# Bulk Modulus (GPa) = 58.71578 66.38718 62.55148
# Shear Modulus (GPa) = 25.23770 30.30241 27.77006
#
# Velocity S-wave (km/s) = 3.64595 3.99507 3.82450
# Velocity P-wave (km/s) = 6.97496 7.49984 7.24216
#
# Compressibility (1/GPa) = 0.01703120
#
# Stress axis : x y z
#
# Youngs Moduli (GPa) = 57.89308 87.08813 89.85756
#
# Poissons Ratio (x) = 0.37992 0.41612
# Poissons Ratio (y) = 0.25256 0.21864
# Poissons Ratio (z) = 0.26810 0.21191
#
# Static dielectric constant tensor:
#      x y z
#    x 4.057920 -0.059660 0.683570 
#    y -0.059660 3.798230 -0.089270 
#    z 0.683570 -0.089270 3.782400 
# 
# 
# High freq. dielectric constant tensor:
#      x y z
#    x 1.737080 0.010650 0.023710 
#    y 0.010650 1.760190 -0.009750 
#    z 0.023710 -0.009750 1.709020 
# 
# From -- ./inp_files/171712.got.cif
#   From: 2010.06.25/outbox.cif.g09.slc.cpg/sg2_86_cif.got.tgz:171712.got - 2010.06.27 13:26:56.
