data_PCOD8040203
_publ_section_title
;
Structure prediction by ZEFSAII (Michael W. Deem and Ramdas Pophale) SiO2 
 PCOD8040203
Probable space group: P -1
;
_chemical_formula_sum "Si O2"
_cell_formula_units_Z 14
_cell_length_a 11.144413
_cell_length_b 18.320618
_cell_length_c 8.983891
_cell_angle_alpha 152.262886
_cell_angle_beta 106.749206
_cell_angle_gamma 61.682418
_cell_volume 711.670880
_symmetry_space_group_name_H-M "P -1"
_symmetry_group_IT_number 2
_symmetry_cell_setting 'triclinic'
loop_
_space_group_symop_operation_xyz
x,y,z
-x,-y,-z
loop_
_atom_site_type_symbol
_atom_site_label
_atom_site_fract_x
_atom_site_fract_y
_atom_site_fract_z
Si Si1 0.981485 0.980173 0.212664
Si Si2 0.101879 0.128364 0.297303
Si Si3 0.413637 0.868092 0.943312
Si Si4 0.597635 0.555707 0.229649
Si Si5 0.505713 0.178617 0.796558
Si Si6 0.232144 0.814083 0.236575
Si Si7 0.304968 0.266108 0.640268
O O1 0.841140 0.079480 0.445495
O O2 0.997059 0.132508 0.398374
O O3 0.119178 0.862659 0.151513
O O4 0.966497 0.847050 0.847907
O O5 0.146570 0.282559 0.624395
O O6 0.243934 0.928754 0.991871
O O7 0.491711 0.740867 0.605367
O O8 0.484835 0.752342 0.910853
O O9 0.422197 0.054046 0.266984
O O10 0.701768 0.596982 0.239735
O O11 0.500000 0.500000 0.000000
O O12 0.696666 0.399580 0.097523
O O13 0.645951 0.136284 0.673651
O O14 0.359420 0.316267 0.903884
O O15 0.500000 0.000000 0.500000
#
# Coordination Sequence:
#
# PCOD8040203 Si02
#       7
#     2   2   2   2   2   2   2
#     4  10  20  39  56  81 112 160 194 230 263 350
#     4   9  19  36  63  81 105 154 203 222 276 337
#     4   9  20  35  60  83 115 146 188 233 289 337
#     4  12  22  35  55  93 121 143 181 243 298 335
#     4  10  18  36  57  88 114 145 189 233 292 339
#     4  11  22  35  56  84 120 149 190 231 287 333
#     4   9  20  37  59  86 118 145 188 234 291 346
#
# _framework density 19.672014999999998
#
# number of rings (size 3 to 8) (size 9 to 14) (size 15 to 20)
#    0.857    1.143    2.857    1.286    0.000    1.714 
#    0.000    1.429    0.000    0.000    0.000    0.000 
#    0.000    0.000    0.000    0.000    0.000    0.000 
#
# Total GULP energy -173452.358124 kJ/mol
# GULP energy per Si atom -12389.454152 kJ/mol
# Density = 1.962724 g / cm^3
# Si number density = 19.672015 Si / 1000 Ang^3
#
#
#
# Elastic Constant Matrix: (Units=GPa)
#
#
# Indices 1 2 3 4 5 6 
#
# 1 111.9732 45.5716 12.0250 -5.4216 31.1715 13.5980
# 2 45.5716 106.8212 32.8398 -18.5827 10.9682 9.5095
# 3 12.0250 32.8398 31.8819 -0.3606 9.7419 2.1697
# 4 -5.4216 -18.5827 -0.3606 31.0463 -1.6633 8.3567
# 5 31.1715 10.9682 9.7419 -1.6633 18.9337 -1.3886
# 6 13.5980 9.5095 2.1697 8.3567 -1.3886 33.1886
#
#
#
# Elastic Compliance Matrix: (Units=1/GPa)
#
#
# Indices 1 2 3 4 5 6 
#
# 1 0.024414 -0.009889 0.014711 -0.001190 -0.042845 -0.009624
# 2 -0.009889 0.021411 -0.023054 0.012528 0.016617 -0.003035
# 3 0.014711 -0.023054 0.063225 -0.012258 -0.044644 -0.002336
# 4 -0.001190 0.012528 -0.012258 0.043059 0.003839 -0.012982
# 5 -0.042845 0.016617 -0.044644 0.003839 0.138541 0.020541
# 6 -0.009624 -0.003035 -0.002336 -0.012982 0.020541 0.039225
#
#
# Mechanical properties :
#
#
# Convention : Reuss Voigt Hill
#
# Bulk Modulus (GPa) = 13.77661 47.94990 30.86326
# Shear Modulus (GPa) = 12.80302 27.31639 20.05971
#
# Velocity S-wave (km/s) = 2.55389 3.73042 3.19675
# Velocity P-wave (km/s) = 3.96420 6.55609 5.41743
#
# Compressibility (1/GPa) = 0.07258679
#
# Stress axis : x y z
#
# Youngs Moduli (GPa) = 40.96021 46.70526 15.81653
#
# Poissons Ratio (x) = 0.46186 -0.23267
# Poissons Ratio (y) = 0.40505 0.36463
# Poissons Ratio (z) = -0.60256 1.07672
#
# Static dielectric constant tensor:
#      x y z
#    x 3.615400 0.006210 0.156960 
#    y 0.006210 4.057700 -0.251800 
#    z 0.156960 -0.251800 3.237200 
# 
# 
# High freq. dielectric constant tensor:
#      x y z
#    x 1.769020 0.004930 0.016650 
#    y 0.004930 1.782820 -0.020290 
#    z 0.016650 -0.020290 1.722200 
# 
# From -- ./inp_files/277196.got.cif
#   From: 2010.06.25/outbox.cif.g09.slc.cpg/sg2_139_cif.got.tgz:277196.got - 2010.06.27 13:26:56.
