data_PCOD8040287
_publ_section_title
;
Structure prediction by ZEFSAII (Michael W. Deem and Ramdas Pophale) SiO2 
 PCOD8040287
Probable space group: P -1
;
_chemical_formula_sum "Si O2"
_cell_formula_units_Z 16
_cell_length_a 15.912143
_cell_length_b 9.399768
_cell_length_c 13.989253
_cell_angle_alpha 116.351375
_cell_angle_beta 31.818631
_cell_angle_gamma 93.374763
_cell_volume 730.504046
_symmetry_space_group_name_H-M "P -1"
_symmetry_group_IT_number 2
_symmetry_cell_setting 'triclinic'
loop_
_space_group_symop_operation_xyz
x,y,z
-x,-y,-z
loop_
_atom_site_type_symbol
_atom_site_label
_atom_site_fract_x
_atom_site_fract_y
_atom_site_fract_z
Si Si1 0.457432 0.587994 0.850153
Si Si2 0.008811 0.886949 0.283448
Si Si3 0.150970 0.938439 0.969446
Si Si4 0.412996 0.269559 0.851430
Si Si5 0.085453 0.482864 0.062068
Si Si6 0.818547 0.355739 0.291078
Si Si7 0.448363 0.117576 0.485381
Si Si8 0.462008 0.705742 0.075350
O O1 0.525694 0.360823 0.742876
O O2 0.579583 0.543595 0.620531
O O3 0.200147 0.766419 0.140020
O O4 0.519742 0.677781 0.897966
O O5 0.981648 0.724751 0.225406
O O6 0.074327 0.963230 0.158649
O O7 0.787822 0.085302 0.605272
O O8 0.191905 0.739533 0.823291
O O9 0.371002 0.889553 0.735024
O O10 0.965226 0.164803 0.167454
O O11 0.380207 0.296806 0.007663
O O12 0.584032 0.010972 0.592550
O O13 0.201487 0.381276 0.024059
O O14 0.901494 0.475945 0.226231
O O15 0.238735 0.362616 0.784489
O O16 0.500000 0.000000 0.500000
O O17 0.500000 0.500000 0.000000
#
# Coordination Sequence:
#
# PCOD8040287 Si02
#       8
#     2   2   2   2   2   2   2   2
#     4  10  22  40  64  86 128 163 208 259 306 358
#     4  11  24  41  63  94 125 160 203 259 321 363
#     4  11  22  36  65  93 126 164 211 249 298 373
#     4   9  18  37  64  89 117 166 209 248 298 366
#     4  10  22  38  61  93 135 161 194 256 319 361
#     4  11  22  38  62  94 124 166 210 246 300 373
#     4  10  18  36  60  90 128 165 197 245 303 366
#     4  10  21  41  69  89 114 162 220 256 300 370
#
# _framework density 21.902681999999999
#
# number of rings (size 3 to 8) (size 9 to 14) (size 15 to 20)
#    0.000    1.750    2.500    4.125    3.500    2.500 
#    2.250    1.250    5.500    0.000    0.000    0.000 
#    0.000    0.000    0.000    0.000    0.000    0.000 
#
# Total GULP energy -198250.658649 kJ/mol
# GULP energy per Si atom -12390.666166 kJ/mol
# Density = 2.185283 g / cm^3
# Si number density = 21.902682 Si / 1000 Ang^3
#
#
#
# Elastic Constant Matrix: (Units=GPa)
#
#
# Indices 1 2 3 4 5 6 
#
# 1 73.3859 19.0194 5.3157 5.2621 18.4997 22.4668
# 2 19.0194 81.5847 24.4999 3.0119 4.3821 18.7260
# 3 5.3157 24.4999 88.7812 14.1719 -0.4355 16.6931
# 4 5.2621 3.0119 14.1719 36.5625 3.6294 1.8273
# 5 18.4997 4.3821 -0.4355 3.6294 32.1186 4.7017
# 6 22.4668 18.7260 16.6931 1.8273 4.7017 26.1968
#
#
#
# Elastic Compliance Matrix: (Units=1/GPa)
#
#
# Indices 1 2 3 4 5 6 
#
# 1 0.021666 -0.001231 0.002649 -0.002228 -0.009456 -0.017537
# 2 -0.001231 0.015201 -0.002662 0.000387 -0.000260 -0.008094
# 3 0.002649 -0.002662 0.014474 -0.005404 0.001020 -0.009398
# 4 -0.002228 0.000387 -0.005404 0.029830 -0.002724 0.003486
# 5 -0.009456 -0.000260 0.001020 -0.002724 0.036757 0.001239
# 6 -0.017537 -0.008094 -0.009398 0.003486 0.001239 0.064521
#
#
# Mechanical properties :
#
#
# Convention : Reuss Voigt Hill
#
# Bulk Modulus (GPa) = 20.46952 37.93577 29.20264
# Shear Modulus (GPa) = 24.84801 31.97004 28.40902
#
# Velocity S-wave (km/s) = 3.37185 3.82467 3.60537
# Velocity P-wave (km/s) = 4.95228 6.07140 5.54017
#
# Compressibility (1/GPa) = 0.04885314
#
# Stress axis : x y z
#
# Youngs Moduli (GPa) = 46.15491 65.78430 69.08717
#
# Poissons Ratio (x) = 0.08099 -0.18302
# Poissons Ratio (y) = 0.05682 0.18394
# Poissons Ratio (z) = -0.12227 0.17514
#
# Static dielectric constant tensor:
#      x y z
#    x 4.507360 0.150010 0.467670 
#    y 0.150010 3.905050 0.333440 
#    z 0.467670 0.333440 4.174490 
# 
# 
# High freq. dielectric constant tensor:
#      x y z
#    x 1.868450 0.001410 0.006810 
#    y 0.001410 1.850420 0.022120 
#    z 0.006810 0.022120 1.849530 
# 
# From -- ./inp_files/351847.got.cif
#   From: 2010.06.25/outbox.cif.g09.slc.cpg/sg2_176_cif.got.tgz:351847.got - 2010.06.27 13:26:56.
