data_PCOD8040174
_publ_section_title
;
Structure prediction by ZEFSAII (Michael W. Deem and Ramdas Pophale) SiO2 
 PCOD8040174
Probable space group: P -1
;
_chemical_formula_sum "Si O2"
_cell_formula_units_Z 16
_cell_length_a 9.879575
_cell_length_b 9.101618
_cell_length_c 9.238254
_cell_angle_alpha 83.987363
_cell_angle_beta 117.264774
_cell_angle_gamma 97.991971
_cell_volume 730.445224
_symmetry_space_group_name_H-M "P -1"
_symmetry_group_IT_number 2
_symmetry_cell_setting 'triclinic'
loop_
_space_group_symop_operation_xyz
x,y,z
-x,-y,-z
loop_
_atom_site_type_symbol
_atom_site_label
_atom_site_fract_x
_atom_site_fract_y
_atom_site_fract_z
Si Si1 0.467126 0.678512 0.994780
Si Si2 0.219549 0.461218 0.000002
Si Si3 0.762584 0.817684 0.287612
Si Si4 0.390972 0.273934 0.495921
Si Si5 0.646594 0.815800 0.825778
Si Si6 0.001152 0.394951 0.648967
Si Si7 0.670903 0.053843 0.032627
Si Si8 0.282743 0.584159 0.318502
O O1 0.388924 0.509594 0.002215
O O2 0.629134 0.712069 0.152433
O O3 0.492259 0.734701 0.835409
O O4 0.326421 0.768138 0.983449
O O5 0.217546 0.288328 0.062386
O O6 0.200819 0.558482 0.124830
O O7 0.090272 0.483454 0.816529
O O8 0.717765 0.820529 0.433569
O O9 0.922680 0.751151 0.346549
O O10 0.780275 0.984475 0.212204
O O11 0.386763 0.173018 0.360921
O O12 0.326254 0.429396 0.419044
O O13 0.564748 0.301891 0.637020
O O14 0.698303 0.981471 0.895589
O O15 0.000000 0.500000 0.500000
O O16 0.830275 0.348472 0.629388
O O17 0.500000 0.000000 0.000000
#
# Coordination Sequence:
#
# PCOD8040174 Si02
#       8
#     2   2   2   2   2   2   2   2
#     4  10  19  34  59  85 105 148 189 222 271 331
#     4  11  20  34  57  80 111 144 185 227 275 324
#     4  10  18  36  56  80 110 148 176 231 273 322
#     4  10  19  33  54  83 114 139 182 234 268 325
#     4   9  18  30  56  85 108 140 181 227 277 317
#     4  12  23  33  53  85 116 144 181 227 284 325
#     4   8  17  35  54  84 108 145 183 224 271 331
#     4  10  22  34  49  84 120 143 173 229 287 322
#
# _framework density 21.904447999999999
#
# number of rings (size 3 to 8) (size 9 to 14) (size 15 to 20)
#    0.000    2.250    5.000    0.750    1.750    0.000 
#    0.000    5.625    0.000    1.500    0.000    0.000 
#    0.000    0.000    0.000    0.000    0.000    0.000 
#
# Total GULP energy -198282.965587 kJ/mol
# GULP energy per Si atom -12392.685349 kJ/mol
# Density = 2.185459 g / cm^3
# Si number density = 21.904448 Si / 1000 Ang^3
#
#
#
# Elastic Constant Matrix: (Units=GPa)
#
#
# Indices 1 2 3 4 5 6 
#
# 1 110.2891 12.4661 29.8710 2.6323 -14.7550 -24.6353
# 2 12.4661 36.8946 20.7341 -3.9271 -3.1153 -19.1191
# 3 29.8710 20.7341 124.0145 4.4852 -20.1373 -17.5471
# 4 2.6323 -3.9271 4.4852 19.9878 -12.7434 2.5152
# 5 -14.7550 -3.1153 -20.1373 -12.7434 36.5371 3.2474
# 6 -24.6353 -19.1191 -17.5471 2.5152 3.2474 26.6346
#
#
#
# Elastic Compliance Matrix: (Units=1/GPa)
#
#
# Indices 1 2 3 4 5 6 
#
# 1 0.012274 0.003284 -0.001170 -0.000087 0.003448 0.012527
# 2 0.003284 0.045929 -0.003661 0.007102 0.002805 0.032582
# 3 -0.001170 -0.003661 0.010024 -0.000292 0.004426 0.002381
# 4 -0.000087 0.007102 -0.000292 0.067631 0.024401 -0.004536
# 5 0.003448 0.002805 0.004426 0.024401 0.039867 0.000955
# 6 0.012527 0.032582 0.002381 -0.004536 0.000955 0.074401
#
#
# Mechanical properties :
#
#
# Convention : Reuss Voigt Hill
#
# Bulk Modulus (GPa) = 15.35324 44.14898 29.75111
# Shear Modulus (GPa) = 18.18638 30.50702 24.34670
#
# Velocity S-wave (km/s) = 2.88455 3.73598 3.33753
# Velocity P-wave (km/s) = 4.25659 6.22969 5.33515
#
# Compressibility (1/GPa) = 0.06513283
#
# Stress axis : x y z
#
# Youngs Moduli (GPa) = 81.47051 21.77261 99.76307
#
# Poissons Ratio (x) = -0.07150 0.11672
# Poissons Ratio (y) = -0.26753 0.36525
# Poissons Ratio (z) = 0.09532 0.07971
#
# Static dielectric constant tensor:
#      x y z
#    x 3.964190 -0.690680 -0.238480 
#    y -0.690680 5.009720 -0.258850 
#    z -0.238480 -0.258850 3.987570 
# 
# 
# High freq. dielectric constant tensor:
#      x y z
#    x 1.846580 -0.033900 -0.026180 
#    y -0.033900 1.840510 -0.014120 
#    z -0.026180 -0.014120 1.854080 
# 
# From -- ./inp_files/187903.got.cif
#   From: 2010.06.25/outbox.cif.g09.slc.cpg/sg2_94_cif.got.tgz:187903.got - 2010.06.27 13:26:56.
