data_PCOD8040714
_publ_section_title
;
Structure prediction by ZEFSAII (Michael W. Deem and Ramdas Pophale) SiO2 
 PCOD8040714
Probable space group: P -1
;
_chemical_formula_sum "Si O2"
_cell_formula_units_Z 14
_cell_length_a 11.674906
_cell_length_b 11.419393
_cell_length_c 10.805169
_cell_angle_alpha 114.656195
_cell_angle_beta 76.299479
_cell_angle_gamma 50.289981
_cell_volume 698.955305
_symmetry_space_group_name_H-M "P -1"
_symmetry_group_IT_number 2
_symmetry_cell_setting 'triclinic'
loop_
_space_group_symop_operation_xyz
x,y,z
-x,-y,-z
loop_
_atom_site_type_symbol
_atom_site_label
_atom_site_fract_x
_atom_site_fract_y
_atom_site_fract_z
Si Si1 0.981934 0.705215 0.552069
Si Si2 0.349659 0.036118 0.897934
Si Si3 0.237665 0.329262 0.511802
Si Si4 0.382774 0.287111 0.093292
Si Si5 0.084575 0.531520 0.899803
Si Si6 0.174981 0.881125 0.302790
Si Si7 0.634490 0.526464 0.048032
O O1 0.788811 0.788876 0.593200
O O2 0.056853 0.592336 0.620022
O O3 0.177123 0.507781 0.322864
O O4 0.903461 0.922907 0.667120
O O5 0.525500 0.839899 0.661937
O O6 0.408289 0.917953 0.962641
O O7 0.332402 0.205016 0.993537
O O8 0.118434 0.200501 0.980307
O O9 0.213396 0.346295 0.673075
O O10 0.424476 0.364543 0.023792
O O11 0.249905 0.477150 0.896517
O O12 0.000000 0.500000 0.000000
O O13 0.400770 0.700104 0.238250
O O14 0.209449 0.738078 0.128540
O O15 0.000000 0.000000 0.500000
#
# Coordination Sequence:
#
# PCOD8040714 Si02
#       7
#     2   2   2   2   2   2   2
#     4  10  19  38  66  92 123 159 217 261 296 370
#     4  10  21  35  62  91 127 161 195 257 316 371
#     4  10  22  37  62  97 123 163 204 256 323 364
#     4  10  18  38  61  93 122 159 210 251 306 376
#     4  12  24  40  59  97 137 158 198 266 324 375
#     4  11  24  41  66  90 121 171 215 258 296 373
#     4  11  24  41  62  93 124 166 212 252 317 368
#
# _framework density 20.029892
#
# number of rings (size 3 to 8) (size 9 to 14) (size 15 to 20)
#    0.000    1.429    4.286    0.857    4.000    1.714 
#    0.000    0.714    0.000    2.571    0.000    0.000 
#    0.000    0.000    0.000    0.000    0.000    0.000 
#
# Total GULP energy -173603.951632 kJ/mol
# GULP energy per Si atom -12400.282259 kJ/mol
# Density = 1.998430 g / cm^3
# Si number density = 20.029892 Si / 1000 Ang^3
#
#
#
# Elastic Constant Matrix: (Units=GPa)
#
#
# Indices 1 2 3 4 5 6 
#
# 1 97.1970 42.8740 36.4064 -1.7276 -2.2104 -6.3742
# 2 42.8740 95.7200 34.4191 -0.7006 9.8576 5.7657
# 3 36.4064 34.4191 77.1853 -1.2697 2.8153 -3.1439
# 4 -1.7276 -0.7006 -1.2697 34.3008 1.4918 4.6042
# 5 -2.2104 9.8576 2.8153 1.4918 31.9004 11.4553
# 6 -6.3742 5.7657 -3.1439 4.6042 11.4553 36.5578
#
#
#
# Elastic Compliance Matrix: (Units=1/GPa)
#
#
# Indices 1 2 3 4 5 6 
#
# 1 0.014476 -0.005236 -0.004480 0.000056 0.002199 0.002268
# 2 -0.005236 0.014796 -0.004089 0.000382 -0.003699 -0.002487
# 3 -0.004480 -0.004089 0.017005 0.000146 -0.001154 0.001669
# 4 0.000056 0.000382 0.000146 0.029677 -0.000179 -0.003719
# 5 0.002199 -0.003699 -0.001154 -0.000179 0.036546 -0.010561
# 6 0.002268 -0.002487 0.001669 -0.003719 -0.010561 0.032063
#
#
# Mechanical properties :
#
#
# Convention : Reuss Voigt Hill
#
# Bulk Modulus (GPa) = 53.56776 55.27792 54.42284
# Shear Modulus (GPa) = 28.02808 30.97866 29.50337
#
# Velocity S-wave (km/s) = 3.74480 3.93698 3.84209
# Velocity P-wave (km/s) = 6.74537 6.95155 6.84923
#
# Compressibility (1/GPa) = 0.01866795
#
# Stress axis : x y z
#
# Youngs Moduli (GPa) = 69.08166 67.58644 58.80758
#
# Poissons Ratio (x) = 0.35385 0.26346
# Poissons Ratio (y) = 0.36168 0.24044
# Poissons Ratio (z) = 0.30949 0.27633
#
# Static dielectric constant tensor:
#      x y z
#    x 3.524600 0.091260 -0.192730 
#    y 0.091260 3.822370 0.106970 
#    z -0.192730 0.106970 3.787160 
# 
# 
# High freq. dielectric constant tensor:
#      x y z
#    x 1.753410 0.005300 -0.020560 
#    y 0.005300 1.776770 0.006980 
#    z -0.020560 0.006980 1.801920 
# 
# From -- ./inp_files/306948.got.cif
#   From: 2010.06.25/outbox.cif.g09.slc.cpg/sg2_154_cif.got.tgz:306948.got - 2010.06.27 13:26:56.
