data_PCOD8040063
_publ_section_title
;
Structure prediction by ZEFSAII (Michael W. Deem and Ramdas Pophale) SiO2 
 PCOD8040063
Probable space group: P -1
;
_chemical_formula_sum "Si O2"
_cell_formula_units_Z 16
_cell_length_a 21.212902
_cell_length_b 7.829170
_cell_length_c 14.300728
_cell_angle_alpha 37.188326
_cell_angle_beta 149.829321
_cell_angle_gamma 145.106672
_cell_volume 650.398929
_symmetry_space_group_name_H-M "P -1"
_symmetry_group_IT_number 2
_symmetry_cell_setting 'triclinic'
loop_
_space_group_symop_operation_xyz
x,y,z
-x,-y,-z
loop_
_atom_site_type_symbol
_atom_site_label
_atom_site_fract_x
_atom_site_fract_y
_atom_site_fract_z
Si Si1 0.012124 0.347091 0.439129
Si Si2 0.771231 0.473320 0.516270
Si Si3 0.644746 0.515075 0.908768
Si Si4 0.681076 0.956872 0.933300
Si Si5 0.700791 0.971966 0.161187
Si Si6 0.524763 0.861270 0.498083
Si Si7 0.960574 0.906042 0.097464
Si Si8 0.009042 0.828527 0.793667
O O1 0.137805 0.358828 0.531162
O O2 0.012292 0.158457 0.615457
O O3 0.865560 0.185505 0.267939
O O4 0.036495 0.704388 0.326881
O O5 0.672587 0.108189 0.536300
O O6 0.676621 0.664465 0.326726
O O7 0.879868 0.526619 0.716910
O O8 0.631985 0.646099 0.938768
O O9 0.537671 0.544383 0.681618
O O10 0.624716 0.155286 0.039519
O O11 0.795750 0.727831 0.968977
O O12 0.604773 0.182694 0.714110
O O13 0.844887 0.175503 0.041351
O O14 0.636527 0.853428 0.027941
O O15 0.500000 0.000000 0.500000
O O16 0.011558 0.197344 0.108824
O O17 0.000000 0.000000 0.000000
#
# Coordination Sequence:
#
# PCOD8040063 Si02
#       8
#     2   2   2   2   2   2   2   2
#     4  10  18  35  62  92 128 153 202 263 319 360
#     4  11  20  38  66  92 121 157 212 257 307 373
#     4   9  21  39  59  83 129 165 196 256 316 365
#     4  10  19  39  64  88 120 165 202 251 319 360
#     4  10  19  37  65  95 119 155 212 262 302 366
#     4  10  23  42  58  85 129 169 199 255 315 374
#     4  10  20  34  55  93 129 160 203 254 310 376
#     4  10  19  37  62  94 118 163 204 261 311 368
#
# _framework density 24.600287999999999
#
# number of rings (size 3 to 8) (size 9 to 14) (size 15 to 20)
#    0.000    2.000    2.500    1.875    0.000    2.000 
#    9.000    6.250    5.500    0.000    0.000    0.000 
#    0.000    0.000    0.000    0.000    0.000    0.000 
#
# Total GULP energy -198212.971621 kJ/mol
# GULP energy per Si atom -12388.310726 kJ/mol
# Density = 2.454430 g / cm^3
# Si number density = 24.600288 Si / 1000 Ang^3
#
#
#
# Elastic Constant Matrix: (Units=GPa)
#
#
# Indices 1 2 3 4 5 6 
#
# 1 97.0549 16.3003 21.6435 13.4064 -17.2663 -11.4468
# 2 16.3003 26.5291 26.3739 3.0117 4.6602 -6.0445
# 3 21.6435 26.3739 162.3431 11.0818 10.4137 -4.4575
# 4 13.4064 3.0117 11.0818 26.1785 -9.4011 -4.5847
# 5 -17.2663 4.6602 10.4137 -9.4011 37.4017 -2.0518
# 6 -11.4468 -6.0445 -4.4575 -4.5847 -2.0518 27.2035
#
#
#
# Elastic Compliance Matrix: (Units=1/GPa)
#
#
# Indices 1 2 3 4 5 6 
#
# 1 0.013904 -0.007828 -0.000752 -0.002610 0.007172 0.004089
# 2 -0.007828 0.052129 -0.006660 -0.000970 -0.008146 0.006420
# 3 -0.000752 -0.006660 0.007691 -0.003241 -0.002543 -0.001274
# 4 -0.002610 -0.000970 -0.003241 0.046493 0.011882 0.006887
# 5 0.007172 -0.008146 -0.002543 0.011882 0.035056 0.005438
# 6 0.004089 0.006420 -0.001274 0.006887 0.005438 0.041269
#
#
# Mechanical properties :
#
#
# Convention : Reuss Voigt Hill
#
# Bulk Modulus (GPa) = 23.12365 46.06247 34.59306
# Shear Modulus (GPa) = 20.70932 32.93070 26.82001
#
# Velocity S-wave (km/s) = 2.90458 3.66270 3.30545
# Velocity P-wave (km/s) = 4.54631 6.05410 5.35356
#
# Compressibility (1/GPa) = 0.04324576
#
# Stress axis : x y z
#
# Youngs Moduli (GPa) = 71.91922 19.18316 130.01546
#
# Poissons Ratio (x) = 0.15016 0.09772
# Poissons Ratio (y) = 0.56297 0.86592
# Poissons Ratio (z) = 0.05406 0.12776
#
# Static dielectric constant tensor:
#      x y z
#    x 4.360260 -0.350350 0.285690 
#    y -0.350350 3.577490 -0.505430 
#    z 0.285690 -0.505430 5.084390 
# 
# 
# High freq. dielectric constant tensor:
#      x y z
#    x 1.965430 -0.001940 0.009660 
#    y -0.001940 1.940540 -0.011900 
#    z 0.009660 -0.011900 2.005340 
# 
# From -- ./inp_files/542360.got.cif
#   From: 2010.06.25/outbox.cif.g09.slc.cpg/sg2_272_cif.got.tgz:542360.got - 2010.06.27 13:26:56.
