data_PCOD8040936
_publ_section_title
;
Structure prediction by ZEFSAII (Michael W. Deem and Ramdas Pophale) SiO2 
 PCOD8040936
Probable space group: P -1
;
_chemical_formula_sum "Si O2"
_cell_formula_units_Z 16
_cell_length_a 7.068355
_cell_length_b 20.879477
_cell_length_c 11.802107
_cell_angle_alpha 33.491347
_cell_angle_beta 134.274377
_cell_angle_gamma 129.513890
_cell_volume 681.706992
_symmetry_space_group_name_H-M "P -1"
_symmetry_group_IT_number 2
_symmetry_cell_setting 'triclinic'
loop_
_space_group_symop_operation_xyz
x,y,z
-x,-y,-z
loop_
_atom_site_type_symbol
_atom_site_label
_atom_site_fract_x
_atom_site_fract_y
_atom_site_fract_z
Si Si1 0.388595 0.158625 0.157954
Si Si2 0.946359 0.481245 0.671532
Si Si3 0.493272 0.399431 0.757756
Si Si4 0.190361 0.259006 0.133751
Si Si5 0.638802 0.887431 0.241437
Si Si6 0.078576 0.914844 0.562303
Si Si7 0.807351 0.790807 0.225853
Si Si8 0.334901 0.707582 0.552844
O O1 0.226681 0.149368 0.223329
O O2 0.614824 0.073100 0.368740
O O3 0.510283 0.299500 0.007161
O O4 0.199533 0.132753 0.006736
O O5 0.200586 0.580743 0.641853
O O6 0.785551 0.464053 0.750807
O O7 0.731589 0.513151 0.438512
O O8 0.063783 0.361709 0.864390
O O9 0.364723 0.335507 0.682950
O O10 0.986300 0.212147 0.217520
O O11 0.468722 0.307771 0.238443
O O12 0.916937 0.927215 0.361950
O O13 0.673589 0.849121 0.185205
O O14 0.475232 0.780674 0.398979
O O15 0.500000 0.000000 0.000000
O O16 0.000000 0.000000 0.500000
O O17 0.110753 0.780855 0.399295
#
# Coordination Sequence:
#
# PCOD8040936 Si02
#       8
#     2   2   2   2   2   2   2   2
#     4  10  21  40  63  92 123 163 207 251 308 361
#     4  10  18  40  62  92 130 164 205 254 301 373
#     4   8  19  37  63  90 130 163 204 251 304 365
#     4  11  22  39  65  92 129 161 204 257 310 369
#     4  11  24  42  65  88 120 164 208 258 311 363
#     4  11  24  43  65  91 123 161 209 259 311 366
#     4   9  20  41  60  88 124 159 205 251 301 364
#     4  10  23  40  60  94 124 164 206 250 313 369
#
# _framework density 23.470493999999999
#
# number of rings (size 3 to 8) (size 9 to 14) (size 15 to 20)
#    0.750    1.250    1.250    1.875    0.000    4.500 
#    6.750    0.625    0.000    0.000    0.000    0.000 
#    0.000    0.000    0.000    0.000    0.000    0.000 
#
# Total GULP energy -198224.291408 kJ/mol
# GULP energy per Si atom -12389.018213 kJ/mol
# Density = 2.341707 g / cm^3
# Si number density = 23.470494 Si / 1000 Ang^3
#
#
#
# Elastic Constant Matrix: (Units=GPa)
#
#
# Indices 1 2 3 4 5 6 
#
# 1 96.1181 29.3377 42.6277 6.4899 13.9599 -19.5439
# 2 29.3377 65.8752 21.7563 8.3624 8.1038 -13.8067
# 3 42.6277 21.7563 106.7837 9.0826 24.3026 -16.0432
# 4 6.4899 8.3624 9.0826 19.5819 -7.8938 4.5948
# 5 13.9599 8.1038 24.3026 -7.8938 49.4689 -2.8556
# 6 -19.5439 -13.8067 -16.0432 4.5948 -2.8556 34.6566
#
#
#
# Elastic Compliance Matrix: (Units=1/GPa)
#
#
# Indices 1 2 3 4 5 6 
#
# 1 0.014749 -0.003445 -0.003491 -0.004015 -0.002195 0.005680
# 2 -0.003445 0.019970 0.000109 -0.010581 -0.003627 0.007167
# 3 -0.003491 0.000109 0.013928 -0.009420 -0.007079 0.005188
# 4 -0.004015 -0.010581 -0.009420 0.073029 0.018049 -0.019036
# 5 -0.002195 -0.003627 -0.007079 0.018049 0.027434 -0.006092
# 6 0.005680 0.007167 0.005188 -0.019036 -0.006092 0.039336
#
#
# Mechanical properties :
#
#
# Convention : Reuss Voigt Hill
#
# Bulk Modulus (GPa) = 28.57791 50.69114 39.63452
# Shear Modulus (GPa) = 23.39019 32.41186 27.90102
#
# Velocity S-wave (km/s) = 3.16029 3.72016 3.45160
# Velocity P-wave (km/s) = 5.05164 6.33226 5.72785
#
# Compressibility (1/GPa) = 0.03499207
#
# Stress axis : x y z
#
# Youngs Moduli (GPa) = 67.80314 50.07468 71.79834
#
# Poissons Ratio (x) = 0.17251 0.25066
# Poissons Ratio (y) = 0.23358 -0.00782
# Poissons Ratio (z) = 0.23671 -0.00545
#
# Static dielectric constant tensor:
#      x y z
#    x 4.212550 0.134760 -0.021590 
#    y 0.134760 3.845760 -0.068960 
#    z -0.021590 -0.068960 4.385730 
# 
# 
# High freq. dielectric constant tensor:
#      x y z
#    x 1.937890 0.008160 0.000780 
#    y 0.008160 1.891100 -0.011780 
#    z 0.000780 -0.011780 1.950320 
# 
# From -- ./inp_files/370362.got.cif
#   From: 2010.06.25/outbox.cif.g09.slc.cpg/sg2_186_cif.got.tgz:370362.got - 2010.06.27 13:26:56.
