data_PCOD8040984
_publ_section_title
;
Structure prediction by ZEFSAII (Michael W. Deem and Ramdas Pophale) SiO2 
 PCOD8040984
Probable space group: P -1
;
_chemical_formula_sum "Si O2"
_cell_formula_units_Z 12
_cell_length_a 9.051271
_cell_length_b 7.314102
_cell_length_c 13.578684
_cell_angle_alpha 134.934641
_cell_angle_beta 132.919851
_cell_angle_gamma 52.202393
_cell_volume 450.679773
_symmetry_space_group_name_H-M "P -1"
_symmetry_group_IT_number 2
_symmetry_cell_setting 'triclinic'
loop_
_space_group_symop_operation_xyz
x,y,z
-x,-y,-z
loop_
_atom_site_type_symbol
_atom_site_label
_atom_site_fract_x
_atom_site_fract_y
_atom_site_fract_z
Si Si1 0.350962 0.679275 0.836308
Si Si2 0.386226 0.733739 0.334625
Si Si3 0.936056 0.933734 0.831984
Si Si4 0.530880 0.790318 0.624340
Si Si5 0.684857 0.872744 0.171157
Si Si6 0.061904 0.451077 0.122309
O O1 0.434409 0.394893 0.712154
O O2 0.131423 0.694751 0.796171
O O3 0.310595 0.919162 0.832768
O O4 0.518178 0.706202 0.004961
O O5 0.479803 0.885827 0.522457
O O6 0.302073 0.482388 0.248777
O O7 0.185768 0.926099 0.266232
O O8 0.770986 0.793990 0.760404
O O9 0.018961 0.158358 0.018034
O O10 0.500000 0.500000 0.500000
O O11 0.367717 0.989330 0.694843
O O12 0.912537 0.671326 0.207162
O O13 0.000000 0.500000 0.000000
#
# Coordination Sequence:
#
# PCOD8040984 Si02
#       6
#     2   2   2   2   2   2
#     4  11  20  41  76  94 129 180 230 261 326 409
#     4  11  22  46  70 101 136 176 219 278 336 398
#     4  11  24  44  72 101 128 181 232 266 328 410
#     4  12  28  44  63 102 148 170 215 288 344 382
#     4  11  21  41  70 102 132 176 218 280 335 388
#     4  10  18  40  72  99 123 174 231 268 319 399
#
# _framework density 26.626445
#
# number of rings (size 3 to 8) (size 9 to 14) (size 15 to 20)
#    0.000    1.000    8.333    1.500    0.000    2.667 
#    0.000    0.000    0.000    0.000    0.000    0.000 
#    0.000    0.000    0.000    0.000    0.000    0.000 
#
# Total GULP energy -148870.892716 kJ/mol
# GULP energy per Si atom -12405.907726 kJ/mol
# Density = 2.656584 g / cm^3
# Si number density = 26.626445 Si / 1000 Ang^3
#
#
#
# Elastic Constant Matrix: (Units=GPa)
#
#
# Indices 1 2 3 4 5 6 
#
# 1 145.0943 45.1612 54.5133 19.6492 -6.3345 -32.8832
# 2 45.1612 69.4727 40.7985 10.4294 -11.3459 -33.6913
# 3 54.5133 40.7985 190.5018 0.5374 -18.6819 -25.8109
# 4 19.6492 10.4294 0.5374 39.6344 -15.6819 -7.3198
# 5 -6.3345 -11.3459 -18.6819 -15.6819 50.7315 13.1660
# 6 -32.8832 -33.6913 -25.8109 -7.3198 13.1660 69.2163
#
#
#
# Elastic Compliance Matrix: (Units=1/GPa)
#
#
# Indices 1 2 3 4 5 6 
#
# 1 0.009773 -0.004024 -0.001874 -0.004269 -0.002196 0.001952
# 2 -0.004024 0.022786 -0.002570 -0.002145 0.000957 0.007812
# 3 -0.001874 -0.002570 0.006576 0.002466 0.002342 0.000126
# 4 -0.004269 -0.002145 0.002466 0.031652 0.009856 -0.000680
# 5 -0.002196 0.000957 0.002342 0.009856 0.024419 -0.003307
# 6 0.001952 0.007812 0.000126 -0.000680 -0.003307 0.019782
#
#
# Mechanical properties :
#
#
# Convention : Reuss Voigt Hill
#
# Bulk Modulus (GPa) = 45.04599 76.22386 60.63493
# Shear Modulus (GPa) = 35.88788 49.55615 42.72201
#
# Velocity S-wave (km/s) = 3.67526 4.31880 4.00996
# Velocity P-wave (km/s) = 5.91308 7.31838 6.65294
#
# Compressibility (1/GPa) = 0.02219953
#
# Stress axis : x y z
#
# Youngs Moduli (GPa) = 102.32130 43.88633 152.07407
#
# Poissons Ratio (x) = 0.17659 0.28494
# Poissons Ratio (y) = 0.41173 0.39085
# Poissons Ratio (z) = 0.19172 0.11279
#
# Static dielectric constant tensor:
#      x y z
#    x 5.458050 0.348160 0.270310 
#    y 0.348160 5.351470 -0.470900 
#    z 0.270310 -0.470900 5.863520 
# 
# 
# High freq. dielectric constant tensor:
#      x y z
#    x 2.095620 0.030250 0.000000 
#    y 0.030250 2.089840 -0.015980 
#    z 0.000000 -0.015980 2.082120 
# 
# From -- ./inp_files/241836.got.cif
#   From: 2010.06.25/outbox.cif.g09.slc.cpg/sg2_121_cif.got.tgz:241836.got - 2010.06.27 13:26:56.
