data_PCOD8040496
_publ_section_title
;
Structure prediction by ZEFSAII (Michael W. Deem and Ramdas Pophale) SiO2 
 PCOD8040496
Probable space group: P -1
;
_chemical_formula_sum "Si O2"
_cell_formula_units_Z 16
_cell_length_a 12.989063
_cell_length_b 15.142115
_cell_length_c 20.405918
_cell_angle_alpha 161.703856
_cell_angle_beta 139.997131
_cell_angle_gamma 46.655991
_cell_volume 793.107040
_symmetry_space_group_name_H-M "P -1"
_symmetry_group_IT_number 2
_symmetry_cell_setting 'triclinic'
loop_
_space_group_symop_operation_xyz
x,y,z
-x,-y,-z
loop_
_atom_site_type_symbol
_atom_site_label
_atom_site_fract_x
_atom_site_fract_y
_atom_site_fract_z
Si Si1 0.323602 0.077893 0.766931
Si Si2 0.365667 0.575932 0.785622
Si Si3 0.323234 0.490170 0.938714
Si Si4 0.161106 0.061304 0.812994
Si Si5 0.801519 0.781842 0.440586
Si Si6 0.367614 0.611476 0.372461
Si Si7 0.364769 0.715821 0.738855
Si Si8 0.514518 0.055486 0.455723
O O1 0.279565 0.289111 0.838701
O O2 0.209410 0.108866 0.794483
O O3 0.293579 0.743820 0.493056
O O4 0.515694 0.151257 0.931706
O O5 0.214947 0.449745 0.671220
O O6 0.300164 0.656325 0.740022
O O7 0.486267 0.353721 0.679547
O O8 0.192130 0.384008 0.742485
O O9 0.500000 0.500000 0.000000
O O10 0.340230 0.825375 0.204050
O O11 0.214533 0.768351 0.658072
O O12 0.966707 0.018408 0.695346
O O13 0.240684 0.336800 0.089375
O O14 0.645397 0.935091 0.479739
O O15 0.546458 0.536280 0.421014
O O16 0.396911 0.881105 0.526799
O O17 0.500000 0.000000 0.000000
#
# Coordination Sequence:
#
# PCOD8040496 Si02
#       8
#     2   2   2   2   2   2   2   2
#     4  12  20  38  64  89 112 158 199 236 297 346
#     4  11  20  36  68  87 108 162 203 236 292 342
#     4  10  19  34  58  87 116 146 198 238 277 356
#     4  11  25  41  55  88 127 153 193 244 302 336
#     4  11  22  37  58  89 123 156 184 249 296 351
#     4  10  20  38  62  87 116 152 206 238 282 355
#     4   9  19  40  61  87 115 150 205 250 270 353
#     4  10  18  37  59  90 114 149 202 238 280 355
#
# _framework density 20.173822000000001
#
# number of rings (size 3 to 8) (size 9 to 14) (size 15 to 20)
#    0.000    1.500    8.750    0.375    0.000    2.000 
#    2.250    0.000    0.000    6.750    0.000    0.000 
#    0.000    0.000    0.000    0.000    0.000    0.000 
#
# Total GULP energy -198293.397322 kJ/mol
# GULP energy per Si atom -12393.337333 kJ/mol
# Density = 2.012791 g / cm^3
# Si number density = 20.173822 Si / 1000 Ang^3
#
#
#
# Elastic Constant Matrix: (Units=GPa)
#
#
# Indices 1 2 3 4 5 6 
#
# 1 73.0622 28.1735 41.8068 -1.4043 5.0737 24.8873
# 2 28.1735 82.1098 29.6439 6.4972 10.0102 21.7956
# 3 41.8068 29.6439 109.6355 -5.6099 -3.1714 1.8173
# 4 -1.4043 6.4972 -5.6099 22.0409 3.2201 6.1506
# 5 5.0737 10.0102 -3.1714 3.2201 31.8376 3.7669
# 6 24.8873 21.7956 1.8173 6.1506 3.7669 27.2455
#
#
#
# Elastic Compliance Matrix: (Units=1/GPa)
#
#
# Indices 1 2 3 4 5 6 
#
# 1 0.029402 0.001151 -0.010790 0.007167 -0.003512 -0.028191
# 2 0.001151 0.018194 -0.005360 -0.002037 -0.004557 -0.014159
# 3 -0.010790 -0.005360 0.014604 0.000617 0.003309 0.012573
# 4 0.007167 -0.002037 0.000617 0.051624 -0.003758 -0.016093
# 5 -0.003512 -0.004557 0.003309 -0.003758 0.033779 0.002810
# 6 -0.028191 -0.014159 0.012573 -0.016093 0.002810 0.076187
#
#
# Mechanical properties :
#
#
# Convention : Reuss Voigt Hill
#
# Bulk Modulus (GPa) = 31.05415 51.56175 41.30795
# Shear Modulus (GPa) = 18.90210 27.23702 23.06956
#
# Velocity S-wave (km/s) = 3.06430 3.67838 3.38529
# Velocity P-wave (km/s) = 5.28646 6.60718 5.98337
#
# Compressibility (1/GPa) = 0.03220182
#
# Stress axis : x y z
#
# Youngs Moduli (GPa) = 34.01173 54.96350 68.47460
#
# Poissons Ratio (x) = -0.06329 0.73887
# Poissons Ratio (y) = -0.03916 0.36701
# Poissons Ratio (z) = 0.36700 0.29459
#
# Static dielectric constant tensor:
#      x y z
#    x 3.539070 0.304620 -0.146410 
#    y 0.304620 4.334270 0.188100 
#    z -0.146410 0.188100 4.045710 
# 
# 
# High freq. dielectric constant tensor:
#      x y z
#    x 1.771070 0.034140 -0.008670 
#    y 0.034140 1.769630 0.013720 
#    z -0.008670 0.013720 1.786960 
# 
# From -- ./inp_files/598201.got.cif
#   From: 2010.06.25/outbox.cif.g09.slc.cpg/sg2_300_cif.got.tgz:598201.got - 2010.06.27 13:26:56.
