data_PCOD8040584
_publ_section_title
;
Structure prediction by ZEFSAII (Michael W. Deem and Ramdas Pophale) SiO2 
 PCOD8040584
Probable space group: P -1
;
_chemical_formula_sum "Si O2"
_cell_formula_units_Z 16
_cell_length_a 9.297682
_cell_length_b 11.619496
_cell_length_c 11.782310
_cell_angle_alpha 50.182310
_cell_angle_beta 125.595246
_cell_angle_gamma 116.199351
_cell_volume 790.174442
_symmetry_space_group_name_H-M "P -1"
_symmetry_group_IT_number 2
_symmetry_cell_setting 'triclinic'
loop_
_space_group_symop_operation_xyz
x,y,z
-x,-y,-z
loop_
_atom_site_type_symbol
_atom_site_label
_atom_site_fract_x
_atom_site_fract_y
_atom_site_fract_z
Si Si1 0.026918 0.609075 0.273345
Si Si2 0.818849 0.325698 0.065706
Si Si3 0.631777 0.374205 0.733797
Si Si4 0.658612 0.706707 0.512992
Si Si5 0.164505 0.344525 0.064257
Si Si6 0.851978 0.298269 0.492081
Si Si7 0.463100 0.168359 0.407872
Si Si8 0.042407 0.841876 0.577850
O O1 0.926213 0.447461 0.362966
O O2 0.219731 0.600420 0.312417
O O3 0.054574 0.709238 0.337309
O O4 0.910582 0.687706 0.077228
O O5 0.017649 0.320371 0.111574
O O6 0.803187 0.207057 0.236695
O O7 0.685075 0.282600 0.926692
O O8 0.769113 0.479290 0.002834
O O9 0.601007 0.544342 0.648623
O O10 0.452290 0.282702 0.661188
O O11 0.612122 0.837373 0.494679
O O12 0.867271 0.721750 0.574346
O O13 0.317113 0.233966 0.218443
O O14 0.639786 0.286807 0.412948
O O15 0.891577 0.153984 0.524976
O O16 0.500000 0.000000 0.500000
O O17 0.000000 0.000000 0.500000
#
# Coordination Sequence:
#
# PCOD8040584 Si02
#       8
#     2   2   2   2   2   2   2   2
#     4  10  20  38  61  89 121 149 197 255 303 343
#     4  10  18  37  63  90 112 152 210 248 284 343
#     4  10  19  35  67  91 112 147 211 257 282 343
#     4  11  20  38  61  90 113 160 204 241 292 352
#     4  10  19  38  62  89 115 155 206 247 285 351
#     4  11  23  38  58  90 126 157 191 247 310 350
#     4  12  24  39  58  89 126 161 197 239 298 365
#     4  12  23  40  61  88 123 162 198 239 299 364
#
# _framework density 20.248694
#
# number of rings (size 3 to 8) (size 9 to 14) (size 15 to 20)
#    0.000    1.250    6.250    1.500    0.000    0.500 
#    0.000    2.500    0.000    0.000    0.000    0.000 
#    0.000    0.000    0.000    0.000    0.000    0.000 
#
# Total GULP energy -198291.551212 kJ/mol
# GULP energy per Si atom -12393.221951 kJ/mol
# Density = 2.020261 g / cm^3
# Si number density = 20.248694 Si / 1000 Ang^3
#
#
#
# Elastic Constant Matrix: (Units=GPa)
#
#
# Indices 1 2 3 4 5 6 
#
# 1 64.0203 20.3461 34.9567 13.6603 4.5172 -16.2766
# 2 20.3461 72.9425 62.2759 15.8513 3.5995 -23.0407
# 3 34.9567 62.2759 145.0580 24.7353 15.4107 -14.5910
# 4 13.6603 15.8513 24.7353 34.7036 -5.0441 5.4513
# 5 4.5172 3.5995 15.4107 -5.0441 29.2512 3.4698
# 6 -16.2766 -23.0407 -14.5910 5.4513 3.4698 38.0598
#
#
#
# Elastic Compliance Matrix: (Units=1/GPa)
#
#
# Indices 1 2 3 4 5 6 
#
# 1 0.021988 0.002600 -0.002862 -0.010455 -0.005418 0.011871
# 2 0.002600 0.028385 -0.009021 -0.010597 -0.002941 0.016623
# 3 -0.002862 -0.009021 0.012830 -0.004674 -0.005947 -0.000555
# 4 -0.010455 -0.010597 -0.004674 0.046684 0.015900 -0.020815
# 5 -0.005418 -0.002941 -0.005947 0.015900 0.042749 -0.012552
# 6 0.011871 0.016623 -0.000555 -0.020815 -0.012552 0.045328
#
#
# Mechanical properties :
#
#
# Convention : Reuss Voigt Hill
#
# Bulk Modulus (GPa) = 22.40378 57.46424 39.93401
# Shear Modulus (GPa) = 21.60673 31.36572 26.48622
#
# Velocity S-wave (km/s) = 3.27014 3.94003 3.62062
# Velocity P-wave (km/s) = 5.03456 7.00995 6.10271
#
# Compressibility (1/GPa) = 0.04463532
#
# Stress axis : x y z
#
# Youngs Moduli (GPa) = 45.47923 35.22967 77.94505
#
# Poissons Ratio (x) = -0.09159 0.22311
# Poissons Ratio (y) = -0.11824 0.70315
# Poissons Ratio (z) = 0.13018 0.31781
#
# Static dielectric constant tensor:
#      x y z
#    x 3.759510 -0.022210 0.062780 
#    y -0.022210 3.664610 0.435130 
#    z 0.062780 0.435130 3.742140 
# 
# 
# High freq. dielectric constant tensor:
#      x y z
#    x 1.782700 -0.013130 0.005070 
#    y -0.013130 1.781240 0.030120 
#    z 0.005070 0.030120 1.780870 
# 
# From -- ./inp_files/257407.got.cif
#   From: 2010.06.25/outbox.cif.g09.slc.cpg/sg2_129_cif.got.tgz:257407.got - 2010.06.27 13:26:56.
