data_PCOD8040525
_publ_section_title
;
Structure prediction by ZEFSAII (Michael W. Deem and Ramdas Pophale) SiO2 
 PCOD8040525
Probable space group: P -1
;
_chemical_formula_sum "Si O2"
_cell_formula_units_Z 16
_cell_length_a 14.620523
_cell_length_b 12.095315
_cell_length_c 12.885778
_cell_angle_alpha 115.078801
_cell_angle_beta 131.451594
_cell_angle_gamma 30.172005
_cell_volume 788.952813
_symmetry_space_group_name_H-M "P -1"
_symmetry_group_IT_number 2
_symmetry_cell_setting 'triclinic'
loop_
_space_group_symop_operation_xyz
x,y,z
-x,-y,-z
loop_
_atom_site_type_symbol
_atom_site_label
_atom_site_fract_x
_atom_site_fract_y
_atom_site_fract_z
Si Si1 0.964106 0.626023 0.323582
Si Si2 0.414984 0.846987 0.764543
Si Si3 0.779547 0.047667 0.552445
Si Si4 0.570924 0.615638 0.389553
Si Si5 0.057281 0.524896 0.951324
Si Si6 0.354939 0.012385 0.276754
Si Si7 0.810893 0.758277 0.531186
Si Si8 0.174787 0.838374 0.662396
O O1 0.963243 0.546314 0.189360
O O2 0.188230 0.524960 0.446506
O O3 0.983289 0.525565 0.405435
O O4 0.715638 0.911166 0.247966
O O5 0.382265 0.804421 0.613937
O O6 0.304187 0.858618 0.779430
O O7 0.689204 0.628658 0.911285
O O8 0.615523 0.231803 0.595791
O O9 0.888395 0.815023 0.551592
O O10 0.010748 0.938456 0.676768
O O11 0.448698 0.793815 0.273995
O O12 0.622486 0.436620 0.316605
O O13 0.854951 0.803309 0.893587
O O14 0.000000 0.500000 0.000000
O O15 0.573256 0.908726 0.358921
O O16 0.259811 0.143855 0.366638
O O17 0.000000 0.000000 0.500000
#
# Coordination Sequence:
#
# PCOD8040525 Si02
#       8
#     2   2   2   2   2   2   2   2
#     4  10  19  35  57  82 113 143 175 236 286 313
#     4  11  22  36  51  81 119 145 180 226 270 332
#     4  10  19  34  57  86 109 144 184 224 279 328
#     4  10  18  37  61  83 110 142 183 234 277 314
#     4  11  21  36  54  81 112 149 187 217 275 344
#     4   8  16  31  54  80 108 142 179 231 276 316
#     4   8  15  30  55  83 106 133 182 231 278 323
#     4  10  21  37  52  84 116 143 184 228 270 322
#
# _framework density 20.280045999999999
#
# number of rings (size 3 to 8) (size 9 to 14) (size 15 to 20)
#    0.000    2.250    2.500    4.125    0.000    2.500 
#    4.500    0.625    0.000    6.750    0.000    0.000 
#    0.000    0.000    0.000    0.000    0.000    0.000 
#
# Total GULP energy -198317.343784 kJ/mol
# GULP energy per Si atom -12394.833987 kJ/mol
# Density = 2.023389 g / cm^3
# Si number density = 20.280046 Si / 1000 Ang^3
#
#
#
# Elastic Constant Matrix: (Units=GPa)
#
#
# Indices 1 2 3 4 5 6 
#
# 1 132.0231 16.7215 47.3125 -17.2381 9.6869 8.9144
# 2 16.7215 64.4234 30.7909 -31.2695 -2.9980 13.8777
# 3 47.3125 30.7909 100.3674 -31.1079 -1.9374 12.0352
# 4 -17.2381 -31.2695 -31.1079 32.4425 -0.4053 -3.9619
# 5 9.6869 -2.9980 -1.9374 -0.4053 26.4621 -3.8238
# 6 8.9144 13.8777 12.0352 -3.9619 -3.8238 23.4861
#
#
#
# Elastic Compliance Matrix: (Units=1/GPa)
#
#
# Indices 1 2 3 4 5 6 
#
# 1 0.009594 0.000310 -0.004067 0.001177 -0.004076 -0.002206
# 2 0.000310 0.033733 0.001294 0.032120 0.002135 -0.014947
# 3 -0.004067 0.001294 0.016587 0.014422 0.002362 -0.004903
# 4 0.001177 0.032120 0.014422 0.074609 0.003431 -0.013672
# 5 -0.004076 0.002135 0.002362 0.003431 0.040656 0.006273
# 6 -0.002206 -0.014947 -0.004903 -0.013672 0.006273 0.053475
#
#
# Mechanical properties :
#
#
# Convention : Reuss Voigt Hill
#
# Bulk Modulus (GPa) = 18.18578 54.05152 36.11865
# Shear Modulus (GPa) = 19.84836 29.94408 24.89622
#
# Velocity S-wave (km/s) = 3.13183 3.84673 3.50754
# Velocity P-wave (km/s) = 4.69730 6.81471 5.85256
#
# Compressibility (1/GPa) = 0.05498801
#
# Stress axis : x y z
#
# Youngs Moduli (GPa) = 104.22808 29.64477 60.28763
#
# Poissons Ratio (x) = -0.00920 0.24521
# Poissons Ratio (y) = -0.03234 -0.07801
# Poissons Ratio (z) = 0.42394 -0.03836
#
# Static dielectric constant tensor:
#      x y z
#    x 3.903780 -0.178960 -0.284310 
#    y -0.178960 3.451570 -0.695370 
#    z -0.284310 -0.695370 3.468750 
# 
# 
# High freq. dielectric constant tensor:
#      x y z
#    x 1.810170 0.002690 -0.003870 
#    y 0.002690 1.792230 -0.029700 
#    z -0.003870 -0.029700 1.754420 
# 
# From -- ./inp_files/455998.got.cif
#   From: 2010.06.25/outbox.cif.g09.slc.cpg/sg2_228_cif.got.tgz:455998.got - 2010.06.27 13:26:56.
