data_PCOD8040583
_publ_section_title
;
Structure prediction by ZEFSAII (Michael W. Deem and Ramdas Pophale) SiO2 
 PCOD8040583
Probable space group: P -1
;
_chemical_formula_sum "Si O2"
_cell_formula_units_Z 16
_cell_length_a 8.691009
_cell_length_b 13.319860
_cell_length_c 16.315906
_cell_angle_alpha 154.617490
_cell_angle_beta 84.366445
_cell_angle_gamma 87.962104
_cell_volume 770.797820
_symmetry_space_group_name_H-M "P -1"
_symmetry_group_IT_number 2
_symmetry_cell_setting 'triclinic'
loop_
_space_group_symop_operation_xyz
x,y,z
-x,-y,-z
loop_
_atom_site_type_symbol
_atom_site_label
_atom_site_fract_x
_atom_site_fract_y
_atom_site_fract_z
Si Si1 0.835328 0.716571 0.655999
Si Si2 0.016256 0.608235 0.819494
Si Si3 0.310666 0.558185 0.654003
Si Si4 0.517292 0.567937 0.796066
Si Si5 0.154896 0.751991 0.386301
Si Si6 0.201825 0.799535 0.077235
Si Si7 0.058100 0.725777 0.193244
Si Si8 0.290828 0.086569 0.015871
O O1 0.690747 0.623852 0.555187
O O2 0.774735 0.836252 0.833509
O O3 0.000000 0.500000 0.500000
O O4 0.865605 0.923609 0.747915
O O5 0.130772 0.622533 0.748468
O O6 0.973212 0.351590 0.633602
O O7 0.850264 0.823495 0.976944
O O8 0.094772 0.641376 0.926122
O O9 0.439511 0.446212 0.636806
O O10 0.351042 0.794994 0.790548
O O11 0.666099 0.354856 0.665696
O O12 0.563741 0.801886 0.930234
O O13 0.389126 0.674819 0.953431
O O14 0.158397 0.668684 0.230101
O O15 0.101356 0.044071 0.615001
O O16 0.178600 0.791576 0.169794
O O17 0.000000 0.500000 0.000000
#
# Coordination Sequence:
#
# PCOD8040583 Si02
#       8
#     2   2   2   2   2   2   2   2
#     4  12  23  36  64  96 123 174 222 252 299 370
#     4  10  18  37  63  88 125 166 207 256 304 366
#     4  11  21  37  59  88 132 169 208 255 311 365
#     4  10  24  43  60  92 136 167 199 266 328 368
#     4  10  23  44  69  94 124 159 207 266 321 377
#     4  11  23  41  66  94 130 165 211 262 317 374
#     4  11  23  44  72  96 119 160 217 263 314 381
#     4  11  21  39  58  88 132 170 211 255 303 369
#
# _framework density 20.757714
#
# number of rings (size 3 to 8) (size 9 to 14) (size 15 to 20)
#    0.000    1.250    5.000    2.250    1.750    1.000 
#    2.250    0.625    0.000    0.000    0.000    0.000 
#    0.000    0.000    0.000    0.000    0.000    0.000 
#
# Total GULP energy -198422.670353 kJ/mol
# GULP energy per Si atom -12401.416897 kJ/mol
# Density = 2.071047 g / cm^3
# Si number density = 20.757714 Si / 1000 Ang^3
#
#
#
# Elastic Constant Matrix: (Units=GPa)
#
#
# Indices 1 2 3 4 5 6 
#
# 1 110.9477 37.3656 33.1801 8.1200 8.4603 -7.5141
# 2 37.3656 94.2802 25.9320 0.7235 1.1302 1.8297
# 3 33.1801 25.9320 87.8354 12.8908 17.6331 -7.7768
# 4 8.1200 0.7235 12.8908 29.9014 -5.1699 -7.0734
# 5 8.4603 1.1302 17.6331 -5.1699 20.2374 -6.1399
# 6 -7.5141 1.8297 -7.7768 -7.0734 -6.1399 29.2762
#
#
#
# Elastic Compliance Matrix: (Units=1/GPa)
#
#
# Indices 1 2 3 4 5 6 
#
# 1 0.011456 -0.003929 -0.002143 -0.002228 -0.002821 0.001487
# 2 -0.003929 0.013176 -0.003886 0.002960 0.004695 -0.001164
# 3 -0.002143 -0.003886 0.018450 -0.010889 -0.018314 -0.001878
# 4 -0.002228 0.002960 -0.010889 0.046236 0.026002 0.012975
# 5 -0.002821 0.004695 -0.018314 0.026002 0.078016 0.016762
# 6 0.001487 -0.001164 -0.001878 0.012975 0.016762 0.040763
#
#
# Mechanical properties :
#
#
# Convention : Reuss Voigt Hill
#
# Bulk Modulus (GPa) = 43.16426 54.00207 48.58316
# Shear Modulus (GPa) = 21.21018 28.98870 25.09944
#
# Velocity S-wave (km/s) = 3.20002 3.74107 3.48107
# Velocity P-wave (km/s) = 5.87307 6.68825 6.29387
#
# Compressibility (1/GPa) = 0.02316732
#
# Stress axis : x y z
#
# Youngs Moduli (GPa) = 87.28933 75.89404 54.20050
#
# Poissons Ratio (x) = 0.29818 0.11613
# Poissons Ratio (y) = 0.34296 0.21062
# Poissons Ratio (z) = 0.18703 0.29492
#
# Static dielectric constant tensor:
#      x y z
#    x 3.783910 -0.044060 0.188590 
#    y -0.044060 3.926730 -0.027300 
#    z 0.188590 -0.027300 3.781510 
# 
# 
# High freq. dielectric constant tensor:
#      x y z
#    x 1.813790 -0.002650 0.010750 
#    y -0.002650 1.817500 -0.001500 
#    z 0.010750 -0.001500 1.802890 
# 
# From -- ./inp_files/299887.got.cif
#   From: 2010.06.25/outbox.cif.g09.slc.cpg/sg2_150_cif.got.tgz:299887.got - 2010.06.27 13:26:56.
