data_PCOD8040935
_publ_section_title
;
Structure prediction by ZEFSAII (Michael W. Deem and Ramdas Pophale) SiO2 
 PCOD8040935
Probable space group: P -1
;
_chemical_formula_sum "Si O2"
_cell_formula_units_Z 14
_cell_length_a 8.968139
_cell_length_b 14.011547
_cell_length_c 10.638524
_cell_angle_alpha 55.937006
_cell_angle_beta 72.965012
_cell_angle_gamma 117.366743
_cell_volume 652.570947
_symmetry_space_group_name_H-M "P -1"
_symmetry_group_IT_number 2
_symmetry_cell_setting 'triclinic'
loop_
_space_group_symop_operation_xyz
x,y,z
-x,-y,-z
loop_
_atom_site_type_symbol
_atom_site_label
_atom_site_fract_x
_atom_site_fract_y
_atom_site_fract_z
Si Si1 0.540401 0.011528 0.682633
Si Si2 0.753010 0.758606 0.046843
Si Si3 0.616569 0.440439 0.517714
Si Si4 0.109979 0.845903 0.083608
Si Si5 0.489548 0.378227 0.328216
Si Si6 0.917272 0.081924 0.688698
Si Si7 0.711944 0.292810 0.231649
O O1 0.358526 0.822836 0.786709
O O2 0.779793 0.080266 0.622353
O O3 0.654232 0.183417 0.449494
O O4 0.377209 0.961459 0.876914
O O5 0.518006 0.687865 0.229911
O O6 0.679074 0.597947 0.111250
O O7 0.981098 0.863333 0.009446
O O8 0.850686 0.908065 0.811168
O O9 0.500000 0.500000 0.500000
O O10 0.527950 0.333626 0.486144
O O11 0.921626 0.625979 0.314015
O O12 0.166286 0.936105 0.136319
O O13 0.548890 0.316230 0.255332
O O14 0.214532 0.271845 0.455538
O O15 0.000000 0.500000 0.000000
#
# Coordination Sequence:
#
# PCOD8040935 Si02
#       7
#     2   2   2   2   2   2   2
#     4  11  27  42  61  95 123 162 214 248 311 375
#     4  10  19  34  63  95 125 159 206 236 298 382
#     4   8  15  32  57  88 121 156 203 230 282 372
#     4  10  18  40  62  91 135 164 193 248 306 374
#     4  10  20  39  65  90 119 163 210 251 301 356
#     4  12  22  37  63 100 133 154 189 264 321 362
#     4  11  25  49  68  79 117 172 219 259 296 361
#
# _framework density 21.453605
#
# number of rings (size 3 to 8) (size 9 to 14) (size 15 to 20)
#    0.000    2.000    4.286    3.429    2.000    2.857 
#    0.000    2.143    0.000    0.000    0.000    0.000 
#    0.000    0.000    0.000    0.000    0.000    0.000 
#
# Total GULP energy -173516.191617 kJ/mol
# GULP energy per Si atom -12394.013687 kJ/mol
# Density = 2.140478 g / cm^3
# Si number density = 21.453605 Si / 1000 Ang^3
#
#
#
# Elastic Constant Matrix: (Units=GPa)
#
#
# Indices 1 2 3 4 5 6 
#
# 1 89.7615 40.1156 29.7462 -8.1275 -1.3930 4.4385
# 2 40.1156 77.5959 37.5463 -12.4781 -2.2176 -12.0806
# 3 29.7462 37.5463 67.8741 -16.3705 -11.4870 2.5150
# 4 -8.1275 -12.4781 -16.3705 28.2220 -4.0703 -8.8849
# 5 -1.3930 -2.2176 -11.4870 -4.0703 19.9051 2.2172
# 6 4.4385 -12.0806 2.5150 -8.8849 2.2172 23.6544
#
#
#
# Elastic Compliance Matrix: (Units=1/GPa)
#
#
# Indices 1 2 3 4 5 6 
#
# 1 0.016177 -0.008910 -0.003049 -0.003975 -0.001473 -0.008617
# 2 -0.008910 0.026987 -0.010183 0.009325 -0.003859 0.020401
# 3 -0.003049 -0.010183 0.027668 0.011679 0.017545 -0.004828
# 4 -0.003975 0.009325 0.011679 0.054866 0.016117 0.023365
# 5 -0.001473 -0.003859 0.017545 0.016117 0.063511 -0.003459
# 6 -0.008617 0.020401 -0.004828 0.023365 -0.003459 0.063925
#
#
# Mechanical properties :
#
#
# Convention : Reuss Voigt Hill
#
# Bulk Modulus (GPa) = 37.67194 50.00531 43.83863
# Shear Modulus (GPa) = 16.32557 22.87786 19.60172
#
# Velocity S-wave (km/s) = 2.76156 3.26910 3.02599
# Velocity P-wave (km/s) = 5.26936 6.13258 5.71729
#
# Compressibility (1/GPa) = 0.02654496
#
# Stress axis : x y z
#
# Youngs Moduli (GPa) = 61.81775 37.05532 36.14327
#
# Poissons Ratio (x) = 0.33018 0.11021
# Poissons Ratio (y) = 0.55082 0.36806
# Poissons Ratio (z) = 0.18850 0.37735
#
# Static dielectric constant tensor:
#      x y z
#    x 3.536520 -0.103100 -0.094180 
#    y -0.103100 3.960790 0.172460 
#    z -0.094180 0.172460 4.705070 
# 
# 
# High freq. dielectric constant tensor:
#      x y z
#    x 1.807320 -0.011370 -0.014690 
#    y -0.011370 1.838550 -0.014100 
#    z -0.014690 -0.014100 1.846560 
# 
# From -- ./inp_files/397028.got.cif
#   From: 2010.06.25/outbox.cif.g09.slc.cpg/sg2_199_cif.got.tgz:397028.got - 2010.06.27 13:26:56.
