data_PCOD8040461
_publ_section_title
;
Structure prediction by ZEFSAII (Michael W. Deem and Ramdas Pophale) SiO2 
 PCOD8040461
Probable space group: P -1
;
_chemical_formula_sum "Si O2"
_cell_formula_units_Z 16
_cell_length_a 11.576301
_cell_length_b 19.079018
_cell_length_c 17.706664
_cell_angle_alpha 30.064517
_cell_angle_beta 27.074477
_cell_angle_gamma 32.300117
_cell_volume 842.596980
_symmetry_space_group_name_H-M "P -1"
_symmetry_group_IT_number 2
_symmetry_cell_setting 'triclinic'
loop_
_space_group_symop_operation_xyz
x,y,z
-x,-y,-z
loop_
_atom_site_type_symbol
_atom_site_label
_atom_site_fract_x
_atom_site_fract_y
_atom_site_fract_z
Si Si1 0.836019 0.208291 0.782615
Si Si2 0.626158 0.377650 0.882651
Si Si3 0.155656 0.402694 0.241334
Si Si4 0.321322 0.328110 0.379383
Si Si5 0.990483 0.877281 0.003635
Si Si6 0.893742 0.132846 0.217979
Si Si7 0.255331 0.281662 0.808525
Si Si8 0.173081 0.803127 0.377316
O O1 0.604673 0.328410 0.854220
O O2 0.750543 0.220409 0.733691
O O3 0.107395 0.248697 0.599353
O O4 0.871267 0.044864 0.947522
O O5 0.743057 0.513854 0.688965
O O6 0.338334 0.430281 0.042194
O O7 0.828154 0.230764 0.939763
O O8 0.333466 0.355247 0.257256
O O9 0.906768 0.547326 0.270930
O O10 0.035725 0.277358 0.401403
O O11 0.611039 0.220137 0.340014
O O12 0.166321 0.885538 0.819069
O O13 0.754969 0.812122 0.174216
O O14 0.030219 0.973273 0.324756
O O15 0.107114 0.222417 0.017803
O O16 0.558581 0.263295 0.668804
#
# Coordination Sequence:
#
# PCOD8040461 Si02
#       8
#     2   2   2   2   2   2   2   2
#     4  10  24  32  53  81 113 140 166 220 267 324
#     4  12  19  37  52  81 112 138 172 213 280 313
#     4  11  20  33  60  80 104 137 181 226 253 308
#     4  11  19  36  55  82 107 134 182 217 267 307
#     4   9  19  33  56  79 102 143 171 221 259 311
#     4   9  18  32  57  81  99 138 172 228 256 299
#     4  10  18  37  57  80 101 141 185 217 256 302
#     4  10  22  35  55  82 106 138 180 221 254 311
#
# _framework density 18.988911999999999
#
# number of rings (size 3 to 8) (size 9 to 14) (size 15 to 20)
#    0.750    1.000    3.750    1.875    1.750    1.500 
#    0.000    0.625    0.000    0.750    0.000    0.000 
#    0.000    0.000    0.000    0.000    0.000    0.000 
#
# Total GULP energy -198316.410570 kJ/mol
# GULP energy per Si atom -12394.775661 kJ/mol
# Density = 1.894569 g / cm^3
# Si number density = 18.988912 Si / 1000 Ang^3
#
#
#
# Elastic Constant Matrix: (Units=GPa)
#
#
# Indices 1 2 3 4 5 6 
#
# 1 47.6743 24.8156 10.2216 2.3394 -8.7768 -7.9574
# 2 24.8156 83.8002 10.6921 -5.3154 -3.7715 -1.8607
# 3 10.2216 10.6921 32.6072 -8.2929 -4.6879 0.2055
# 4 2.3394 -5.3154 -8.2929 26.4593 2.9764 -0.8410
# 5 -8.7768 -3.7715 -4.6879 2.9764 15.8913 2.6105
# 6 -7.9574 -1.8607 0.2055 -0.8410 2.6105 24.8555
#
#
#
# Elastic Compliance Matrix: (Units=1/GPa)
#
#
# Indices 1 2 3 4 5 6 
#
# 1 0.030717 -0.007913 -0.007170 -0.007791 0.013174 0.007654
# 2 -0.007913 0.014597 -0.001735 0.003260 -0.001844 -0.001122
# 3 -0.007170 -0.001735 0.037075 0.011260 0.004927 -0.002868
# 4 -0.007791 0.003260 0.011260 0.043610 -0.008378 0.000012
# 5 0.013174 -0.001844 0.004927 -0.008378 0.073438 -0.003958
# 6 0.007654 -0.001122 -0.002868 0.000012 -0.003958 0.043039
#
#
# Mechanical properties :
#
#
# Convention : Reuss Voigt Hill
#
# Bulk Modulus (GPa) = 20.51161 28.39336 24.45249
# Shear Modulus (GPa) = 17.10214 21.33139 19.21676
#
# Velocity S-wave (km/s) = 3.00432 3.35529 3.18464
# Velocity P-wave (km/s) = 4.78120 5.47683 5.14080
#
# Compressibility (1/GPa) = 0.04875288
#
# Stress axis : x y z
#
# Youngs Moduli (GPa) = 32.55550 68.50956 26.97247
#
# Poissons Ratio (x) = 0.54209 0.19340
# Poissons Ratio (y) = 0.25760 0.04679
# Poissons Ratio (z) = 0.23343 0.11885
#
# Static dielectric constant tensor:
#      x y z
#    x 3.129030 0.097890 -0.090960 
#    y 0.097890 3.417190 -0.262330 
#    z -0.090960 -0.262330 3.386800 
# 
# 
# High freq. dielectric constant tensor:
#      x y z
#    x 1.700650 0.000440 -0.012650 
#    y 0.000440 1.739670 -0.026800 
#    z -0.012650 -0.026800 1.732310 
# 
# From -- ./inp_files/281733.got.cif
#   From: 2010.06.25/outbox.cif.g09.slc.cpg/sg2_141_cif.got.tgz:281733.got - 2010.06.27 13:26:56.
