data_PCOD8040627
_publ_section_title
;
Structure prediction by ZEFSAII (Michael W. Deem and Ramdas Pophale) SiO2 
 PCOD8040627
Probable space group: P -1
;
_chemical_formula_sum "Si O2"
_cell_formula_units_Z 16
_cell_length_a 13.895670
_cell_length_b 19.110676
_cell_length_c 11.036486
_cell_angle_alpha 33.168891
_cell_angle_beta 32.378277
_cell_angle_gamma 30.162463
_cell_volume 723.703813
_symmetry_space_group_name_H-M "P -1"
_symmetry_group_IT_number 2
_symmetry_cell_setting 'triclinic'
loop_
_space_group_symop_operation_xyz
x,y,z
-x,-y,-z
loop_
_atom_site_type_symbol
_atom_site_label
_atom_site_fract_x
_atom_site_fract_y
_atom_site_fract_z
Si Si1 0.619624 0.893134 0.414772
Si Si2 0.776271 0.661378 0.006825
Si Si3 0.991384 0.313010 0.076809
Si Si4 0.772941 0.091498 0.250476
Si Si5 0.324405 0.731279 0.385932
Si Si6 0.163020 0.764168 0.247059
Si Si7 0.101094 0.363596 0.340584
Si Si8 0.911354 0.928409 0.877392
O O1 0.451065 0.891139 0.505928
O O2 0.783821 0.722803 0.533838
O O3 0.747948 0.953689 0.121101
O O4 0.500000 0.000000 0.500000
O O5 0.571692 0.654634 0.270547
O O6 0.745257 0.725864 0.809915
O O7 0.000000 0.500000 0.000000
O O8 0.818047 0.756368 0.924353
O O9 0.770326 0.351799 0.317902
O O10 0.955597 0.465580 0.835284
O O11 0.069110 0.190005 0.068281
O O12 0.721086 0.210523 0.024457
O O13 0.938363 0.920067 0.281855
O O14 0.858281 0.131555 0.220908
O O15 0.309502 0.711999 0.285966
O O16 0.184963 0.907694 0.319210
O O17 0.115895 0.635162 0.448384
#
# Coordination Sequence:
#
# PCOD8040627 Si02
#       8
#     2   2   2   2   2   2   2   2
#     4  12  21  39  69  98 124 162 216 272 325 368
#     4  10  23  42  63  96 124 166 213 266 318 373
#     4  11  26  44  58  90 138 176 211 258 315 387
#     4  10  20  37  62  95 126 154 211 270 318 368
#     4  11  23  41  69  91 124 171 218 264 318 370
#     4  10  18  37  65  96 122 158 209 271 315 372
#     4  11  21  40  64  94 128 164 207 273 321 372
#     4  11  25  41  64  95 129 171 218 261 310 388
#
# _framework density 22.108491999999998
#
# number of rings (size 3 to 8) (size 9 to 14) (size 15 to 20)
#    0.000    1.250    3.750    3.375    0.000    4.000 
#    4.500    0.625    0.000    0.000    0.000    0.000 
#    0.000    0.000    0.000    0.000    0.000    0.000 
#
# Total GULP energy -198397.897233 kJ/mol
# GULP energy per Si atom -12399.868577 kJ/mol
# Density = 2.205817 g / cm^3
# Si number density = 22.108492 Si / 1000 Ang^3
#
#
#
# Elastic Constant Matrix: (Units=GPa)
#
#
# Indices 1 2 3 4 5 6 
#
# 1 119.4639 45.1232 25.5519 4.9458 -35.0719 2.3606
# 2 45.1232 55.8076 18.8093 -7.9135 -15.5369 3.5627
# 3 25.5519 18.8093 94.4787 -5.8298 -26.9474 -10.4201
# 4 4.9458 -7.9135 -5.8298 35.1256 -5.5992 -14.2100
# 5 -35.0719 -15.5369 -26.9474 -5.5992 41.0050 6.2307
# 6 2.3606 3.5627 -10.4201 -14.2100 6.2307 30.2225
#
#
#
# Elastic Compliance Matrix: (Units=1/GPa)
#
#
# Indices 1 2 3 4 5 6 
#
# 1 0.015125 -0.010047 -0.000291 -0.004695 0.008927 -0.004146
# 2 -0.010047 0.028326 -0.001869 0.007831 0.001969 0.000078
# 3 -0.000291 -0.001869 0.014495 0.005910 0.008421 0.006283
# 4 -0.004695 0.007831 0.005910 0.040612 0.005424 0.019458
# 5 0.008927 0.001969 0.008421 0.005424 0.039596 -0.003639
# 6 -0.004146 0.000078 0.006283 0.019458 -0.003639 0.045468
#
#
# Mechanical properties :
#
#
# Convention : Reuss Voigt Hill
#
# Bulk Modulus (GPa) = 29.82257 49.85767 39.84012
# Shear Modulus (GPa) = 22.80903 33.28835 28.04869
#
# Velocity S-wave (km/s) = 3.21547 3.88452 3.56572
# Velocity P-wave (km/s) = 5.22534 6.53603 5.91709
#
# Compressibility (1/GPa) = 0.03353165
#
# Stress axis : x y z
#
# Youngs Moduli (GPa) = 66.11572 35.30363 68.99163
#
# Poissons Ratio (x) = 0.35470 0.02008
# Poissons Ratio (y) = 0.66427 0.12892
# Poissons Ratio (z) = 0.01925 0.06597
#
# Static dielectric constant tensor:
#      x y z
#    x 4.439850 -0.210720 -0.120430 
#    y -0.210720 3.474440 -0.116620 
#    z -0.120430 -0.116620 4.245640 
# 
# 
# High freq. dielectric constant tensor:
#      x y z
#    x 1.873980 -0.017500 -0.016510 
#    y -0.017500 1.824610 -0.013570 
#    z -0.016510 -0.013570 1.887680 
# 
# From -- ./inp_files/457605.got.cif
#   From: 2010.06.25/outbox.cif.g09.slc.cpg/sg2_229_cif.got.tgz:457605.got - 2010.06.27 13:26:56.
