data_PCOD8040960
_publ_section_title
;
Structure prediction by ZEFSAII (Michael W. Deem and Ramdas Pophale) SiO2 
 PCOD8040960
Probable space group: P -1
;
_chemical_formula_sum "Si O2"
_cell_formula_units_Z 16
_cell_length_a 8.248068
_cell_length_b 18.934455
_cell_length_c 11.799678
_cell_angle_alpha 127.137490
_cell_angle_beta 85.646542
_cell_angle_gamma 136.257307
_cell_volume 768.751591
_symmetry_space_group_name_H-M "P -1"
_symmetry_group_IT_number 2
_symmetry_cell_setting 'triclinic'
loop_
_space_group_symop_operation_xyz
x,y,z
-x,-y,-z
loop_
_atom_site_type_symbol
_atom_site_label
_atom_site_fract_x
_atom_site_fract_y
_atom_site_fract_z
Si Si1 0.808525 0.999133 0.021240
Si Si2 0.886394 0.347506 0.363002
Si Si3 0.957743 0.384144 0.839781
Si Si4 0.142396 0.397952 0.617616
Si Si5 0.179418 0.325416 0.196073
Si Si6 0.336562 0.020045 0.509477
Si Si7 0.924334 0.219859 0.868180
Si Si8 0.763437 0.050753 0.316460
O O1 0.459206 0.822044 0.829351
O O2 0.838895 0.029557 0.182390
O O3 0.946781 0.144811 0.084297
O O4 0.000000 0.000000 0.000000
O O5 0.000000 0.500000 0.500000
O O6 0.897549 0.326441 0.473810
O O7 0.110682 0.388346 0.316965
O O8 0.026646 0.345200 0.897906
O O9 0.176279 0.471260 0.802530
O O10 0.604293 0.212207 0.644034
O O11 0.000000 0.500000 0.000000
O O12 0.467797 0.540797 0.671963
O O13 0.013919 0.243211 0.507783
O O14 0.160842 0.325035 0.060712
O O15 0.077555 0.878221 0.290554
O O16 0.200366 0.990048 0.608642
O O17 0.500000 0.000000 0.500000
O O18 0.587108 0.078191 0.803505
#
# Coordination Sequence:
#
# PCOD8040960 Si02
#       8
#     2   2   2   2   2   2   2   2
#     4  12  26  44  68  97 129 172 222 271 330 394
#     4  12  27  43  65  96 132 174 218 273 331 389
#     4  10  21  36  64  97 127 167 219 273 321 382
#     4  12  23  41  67  94 133 174 218 268 326 388
#     4  12  26  40  67  98 134 172 219 273 324 395
#     4   8  16  34  62  86 112 164 212 247 313 382
#     4  10  19  40  63  94 118 173 217 257 327 384
#     4  10  18  40  68  86 123 170 215 259 321 381
#
# _framework density 20.812964000000001
#
# number of rings (size 3 to 8) (size 9 to 14) (size 15 to 20)
#    0.000    1.500    6.250    2.250    3.500    2.500 
#    0.000    0.000    0.000    1.500    0.000    0.000 
#    0.000    0.000    0.000    0.000    0.000    0.000 
#
# Total GULP energy -198300.621756 kJ/mol
# GULP energy per Si atom -12393.788860 kJ/mol
# Density = 2.076559 g / cm^3
# Si number density = 20.812964 Si / 1000 Ang^3
#
#
#
# Elastic Constant Matrix: (Units=GPa)
#
#
# Indices 1 2 3 4 5 6 
#
# 1 76.8935 38.8399 50.1915 -11.1709 -21.5838 10.7683
# 2 38.8399 107.5452 42.6017 -19.7934 -12.5685 9.2169
# 3 50.1915 42.6017 109.6320 -17.9780 -24.5848 4.2939
# 4 -11.1709 -19.7934 -17.9780 49.1221 -3.4652 -2.5359
# 5 -21.5838 -12.5685 -24.5848 -3.4652 29.8340 -0.8717
# 6 10.7683 9.2169 4.2939 -2.5359 -0.8717 25.2643
#
#
#
# Elastic Compliance Matrix: (Units=1/GPa)
#
#
# Indices 1 2 3 4 5 6 
#
# 1 0.022995 -0.003744 -0.006303 0.001756 0.009868 -0.006847
# 2 -0.003744 0.012464 -0.002284 0.003290 0.000977 -0.002199
# 3 -0.006303 -0.002284 0.015117 0.003784 0.007421 0.001587
# 4 0.001756 0.003290 0.003784 0.024079 0.008575 0.000121
# 5 0.009868 0.000977 0.007421 0.008575 0.048084 -0.003304
# 6 -0.006847 -0.002199 0.001587 0.000121 -0.003304 0.042931
#
#
# Mechanical properties :
#
#
# Convention : Reuss Voigt Hill
#
# Bulk Modulus (GPa) = 38.59202 61.92631 50.25916
# Shear Modulus (GPa) = 25.12935 31.67325 28.40130
#
# Velocity S-wave (km/s) = 3.47852 3.90526 3.69805
# Velocity P-wave (km/s) = 5.89203 7.08188 6.51418
#
# Compressibility (1/GPa) = 0.02591209
#
# Stress axis : x y z
#
# Youngs Moduli (GPa) = 43.48840 80.23283 66.14912
#
# Poissons Ratio (x) = 0.30042 0.41696
# Poissons Ratio (y) = 0.16283 0.15110
# Poissons Ratio (z) = 0.27412 0.18327
#
# Static dielectric constant tensor:
#      x y z
#    x 3.456260 0.064790 -0.055190 
#    y 0.064790 4.134180 -0.332960 
#    z -0.055190 -0.332960 4.334390 
# 
# 
# High freq. dielectric constant tensor:
#      x y z
#    x 1.770420 0.001740 -0.009080 
#    y 0.001740 1.828440 -0.012380 
#    z -0.009080 -0.012380 1.836090 
# 
# From -- ./inp_files/405518.got.cif
#   From: 2010.06.25/outbox.cif.g09.slc.cpg/sg2_203_cif.got.tgz:405518.got - 2010.06.27 13:26:56.
