data_PCOD8040514
_publ_section_title
;
Structure prediction by ZEFSAII (Michael W. Deem and Ramdas Pophale) SiO2 
 PCOD8040514
Probable space group: P -1
;
_chemical_formula_sum "Si O2"
_cell_formula_units_Z 16
_cell_length_a 14.061718
_cell_length_b 13.005433
_cell_length_c 8.034625
_cell_angle_alpha 109.447945
_cell_angle_beta 80.573123
_cell_angle_gamma 148.204333
_cell_volume 708.701241
_symmetry_space_group_name_H-M "P -1"
_symmetry_group_IT_number 2
_symmetry_cell_setting 'triclinic'
loop_
_space_group_symop_operation_xyz
x,y,z
-x,-y,-z
loop_
_atom_site_type_symbol
_atom_site_label
_atom_site_fract_x
_atom_site_fract_y
_atom_site_fract_z
Si Si1 0.110212 0.270413 0.900919
Si Si2 0.431224 0.251241 0.507612
Si Si3 0.913247 0.974830 0.355194
Si Si4 0.840149 0.616139 0.687809
Si Si5 0.437221 0.669999 0.824306
Si Si6 0.334476 0.915898 0.947834
Si Si7 0.853101 0.185937 0.745469
Si Si8 0.834800 0.433319 0.353499
O O1 0.085667 0.116048 0.839046
O O2 0.320916 0.490794 0.895011
O O3 0.965786 0.185429 0.767889
O O4 0.078684 0.293056 0.102486
O O5 0.295416 0.196860 0.622282
O O6 0.625398 0.444272 0.654003
O O7 0.466809 0.316833 0.335371
O O8 0.337802 0.039881 0.409188
O O9 0.000000 0.000000 0.500000
O O10 0.034546 0.194941 0.378388
O O11 0.852981 0.500279 0.570332
O O12 0.308435 0.628832 0.737747
O O13 0.592301 0.889950 0.002306
O O14 0.235020 0.760617 0.733978
O O15 0.187357 0.776705 0.065525
O O16 0.500000 0.000000 0.000000
O O17 0.965048 0.368479 0.683990
#
# Coordination Sequence:
#
# PCOD8040514 Si02
#       8
#     2   2   2   2   2   2   2   2
#     4  11  23  40  57  87 128 160 191 253 298 359
#     4  10  20  39  61  87 114 157 203 245 291 343
#     4  12  22  41  65  88 116 159 210 246 294 350
#     4  11  24  40  59  90 128 154 201 244 300 357
#     4   8  18  35  57  85 120 150 198 245 295 344
#     4   9  17  31  59  93 113 146 207 252 286 347
#     4  10  18  37  60  88 116 160 199 245 300 345
#     4   9  16  34  59  84 115 153 197 249 287 347
#
# _framework density 22.576508
#
# number of rings (size 3 to 8) (size 9 to 14) (size 15 to 20)
#    0.000    2.000    2.500    3.000    0.000    2.500 
#    4.500    1.250    0.000    0.000    0.000    0.000 
#    0.000    0.000    0.000    0.000    0.000    0.000 
#
# Total GULP energy -198255.826618 kJ/mol
# GULP energy per Si atom -12390.989164 kJ/mol
# Density = 2.252512 g / cm^3
# Si number density = 22.576508 Si / 1000 Ang^3
#
#
#
# Elastic Constant Matrix: (Units=GPa)
#
#
# Indices 1 2 3 4 5 6 
#
# 1 30.0059 11.9549 9.9522 0.0729 -11.9228 12.3066
# 2 11.9549 107.3854 16.2068 0.6928 0.3535 18.9104
# 3 9.9522 16.2068 104.7810 5.7044 -27.6341 -5.4036
# 4 0.0729 0.6928 5.7044 29.0872 -0.4309 -13.4102
# 5 -11.9228 0.3535 -27.6341 -0.4309 35.0142 -5.9470
# 6 12.3066 18.9104 -5.4036 -13.4102 -5.9470 26.3005
#
#
#
# Elastic Compliance Matrix: (Units=1/GPa)
#
#
# Indices 1 2 3 4 5 6 
#
# 1 0.049615 -0.000169 -0.002872 -0.012174 0.009778 -0.027680
# 2 -0.000169 0.012427 -0.003779 -0.006098 -0.005620 -0.014012
# 3 -0.002872 -0.003779 0.013989 0.002588 0.011995 0.010967
# 4 -0.012174 -0.006098 0.002588 0.051696 0.005069 0.038118
# 5 0.009778 -0.005620 0.011995 0.005069 0.043930 0.014448
# 6 -0.027680 -0.014012 0.010967 0.038118 0.014448 0.086005
#
#
# Mechanical properties :
#
#
# Convention : Reuss Voigt Hill
#
# Bulk Modulus (GPa) = 16.02823 35.37779 25.70301
# Shear Modulus (GPa) = 17.11749 31.68429 24.40089
#
# Velocity S-wave (km/s) = 2.75653 3.75029 3.29113
# Velocity P-wave (km/s) = 4.15285 5.87001 5.08445
#
# Compressibility (1/GPa) = 0.06238993
#
# Stress axis : x y z
#
# Youngs Moduli (GPa) = 20.15538 80.47123 71.48314
#
# Poissons Ratio (x) = 0.01361 0.20532
# Poissons Ratio (y) = 0.00341 0.27013
# Poissons Ratio (z) = 0.05789 0.30410
#
# Static dielectric constant tensor:
#      x y z
#    x 3.776150 0.163750 -0.605980 
#    y 0.163750 4.454890 0.311600 
#    z -0.605980 0.311600 4.442870 
# 
# 
# High freq. dielectric constant tensor:
#      x y z
#    x 1.839840 0.023480 -0.039670 
#    y 0.023480 1.905810 0.011970 
#    z -0.039670 0.011970 1.893000 
# 
# From -- ./inp_files/315746.got.cif
#   From: 2010.06.25/outbox.cif.g09.slc.cpg/sg2_158_cif.got.tgz:315746.got - 2010.06.27 13:26:56.
