data_PCOD8040125
_publ_section_title
;
Structure prediction by ZEFSAII (Michael W. Deem and Ramdas Pophale) SiO2 
 PCOD8040125
Probable space group: P -1
;
_chemical_formula_sum "Si O2"
_cell_formula_units_Z 16
_cell_length_a 15.693087
_cell_length_b 21.291385
_cell_length_c 10.478457
_cell_angle_alpha 152.234373
_cell_angle_beta 138.337226
_cell_angle_gamma 25.158832
_cell_volume 667.277039
_symmetry_space_group_name_H-M "P -1"
_symmetry_group_IT_number 2
_symmetry_cell_setting 'triclinic'
loop_
_space_group_symop_operation_xyz
x,y,z
-x,-y,-z
loop_
_atom_site_type_symbol
_atom_site_label
_atom_site_fract_x
_atom_site_fract_y
_atom_site_fract_z
Si Si1 0.584199 0.623218 0.481568
Si Si2 0.865075 0.320929 0.449236
Si Si3 0.736942 0.267499 0.878142
Si Si4 0.252282 0.874011 0.953146
Si Si5 0.371104 0.933505 0.582539
Si Si6 0.171505 0.851704 0.539269
Si Si7 0.448406 0.174729 0.678825
Si Si8 0.931119 0.354062 0.863106
O O1 0.691954 0.570854 0.642250
O O2 0.547590 0.770093 0.598524
O O3 0.349336 0.750960 0.455145
O O4 0.772713 0.359871 0.182698
O O5 0.929954 0.338993 0.683172
O O6 0.752444 0.270092 0.249475
O O7 0.076516 0.122648 0.251385
O O8 0.734784 0.122192 0.680076
O O9 0.500000 0.500000 0.000000
O O10 0.929994 0.109651 0.705140
O O11 0.467512 0.763496 0.040302
O O12 0.236695 0.870371 0.777098
O O13 0.473156 0.913264 0.536070
O O14 0.174176 0.181409 0.862062
O O15 0.168270 0.693600 0.264104
O O16 0.500000 0.000000 0.500000
O O17 0.199830 0.406542 0.809754
#
# Coordination Sequence:
#
# PCOD8040125 Si02
#       8
#     2   2   2   2   2   2   2   2
#     4  11  20  31  55  89 124 156 186 232 304 356
#     4  10  18  35  65  90 121 154 185 244 301 354
#     4   9  18  30  50  84 126 159 176 224 295 359
#     4  10  19  36  61  89 122 151 202 240 287 349
#     4  10  22  37  53  83 123 152 193 241 290 353
#     4  10  19  32  58  92 122 151 190 236 293 364
#     4  12  25  41  62  84 113 158 209 249 287 345
#     4  10  21  38  61  87 116 156 195 243 294 348
#
# _framework density 23.978045999999999
#
# number of rings (size 3 to 8) (size 9 to 14) (size 15 to 20)
#    0.000    1.750    2.500    3.000    0.000    9.000 
#    0.000    0.000    0.000    3.750    0.000    0.000 
#    0.000    0.000    0.000    0.000    0.000    0.000 
#
# Total GULP energy -198220.317775 kJ/mol
# GULP energy per Si atom -12388.769861 kJ/mol
# Density = 2.392347 g / cm^3
# Si number density = 23.978046 Si / 1000 Ang^3
#
#
#
# Elastic Constant Matrix: (Units=GPa)
#
#
# Indices 1 2 3 4 5 6 
#
# 1 126.1933 26.7307 45.5907 26.8211 -18.9837 21.7738
# 2 26.7307 91.9849 17.6921 33.3357 0.5116 23.0085
# 3 45.5907 17.6921 73.6232 37.1606 -14.6221 -4.5508
# 4 26.8211 33.3357 37.1606 39.6732 -3.5071 -0.0346
# 5 -18.9837 0.5116 -14.6221 -3.5071 32.2483 12.7103
# 6 21.7738 23.0085 -4.5508 -0.0346 12.7103 29.2435
#
#
#
# Elastic Compliance Matrix: (Units=1/GPa)
#
#
# Indices 1 2 3 4 5 6 
#
# 1 0.018241 0.006542 -0.005332 -0.011290 0.017742 -0.027284
# 2 0.006542 0.027438 0.006957 -0.032632 0.015734 -0.032254
# 3 -0.005332 0.006957 0.033436 -0.032823 0.008325 0.000042
# 4 -0.011290 -0.032632 -0.032823 0.088602 -0.027557 0.041055
# 5 0.017742 0.015734 0.008325 -0.027557 0.062231 -0.051375
# 6 -0.027284 -0.032254 0.000042 0.041055 -0.051375 0.102272
#
#
# Mechanical properties :
#
#
# Convention : Reuss Voigt Hill
#
# Bulk Modulus (GPa) = 10.47670 52.42538 31.45104
# Shear Modulus (GPa) = 14.38013 33.68553 24.03283
#
# Velocity S-wave (km/s) = 2.45158 3.75220 3.16932
# Velocity P-wave (km/s) = 3.52028 6.37835 5.15149
#
# Compressibility (1/GPa) = 0.09544994
#
# Stress axis : x y z
#
# Youngs Moduli (GPa) = 54.82112 36.44546 29.90792
#
# Poissons Ratio (x) = -0.23843 0.15946
# Poissons Ratio (y) = -0.35865 -0.20807
# Poissons Ratio (z) = 0.29230 -0.25355
#
# Static dielectric constant tensor:
#      x y z
#    x 3.580050 -0.004210 0.889560 
#    y -0.004210 4.532840 0.920050 
#    z 0.889560 0.920050 1.095630 
# 
# 
# High freq. dielectric constant tensor:
#      x y z
#    x 1.936910 0.025310 -0.044630 
#    y 0.025310 1.971050 0.035050 
#    z -0.044630 0.035050 1.925320 
# 
# From -- ./inp_files/457556.got.cif
#   From: 2010.06.25/outbox.cif.g09.slc.cpg/sg2_229_cif.got.tgz:457556.got - 2010.06.27 13:26:56.
