data_PCOD8040309
_publ_section_title
;
Structure prediction by ZEFSAII (Michael W. Deem and Ramdas Pophale) SiO2 
 PCOD8040309
Probable space group: P -1
;
_chemical_formula_sum "Si O2"
_cell_formula_units_Z 16
_cell_length_a 10.665274
_cell_length_b 23.548270
_cell_length_c 17.141472
_cell_angle_alpha 158.558992
_cell_angle_beta 147.564968
_cell_angle_gamma 33.914420
_cell_volume 822.224626
_symmetry_space_group_name_H-M "P -1"
_symmetry_group_IT_number 2
_symmetry_cell_setting 'triclinic'
loop_
_space_group_symop_operation_xyz
x,y,z
-x,-y,-z
loop_
_atom_site_type_symbol
_atom_site_label
_atom_site_fract_x
_atom_site_fract_y
_atom_site_fract_z
Si Si1 0.884503 0.263054 0.801296
Si Si2 0.913364 0.349410 0.097833
Si Si3 0.566193 0.947124 0.849665
Si Si4 0.885614 0.005456 0.223150
Si Si5 0.658156 0.875571 0.366205
Si Si6 0.537946 0.542276 0.897615
Si Si7 0.233747 0.414531 0.469325
Si Si8 0.654494 0.963517 0.306453
O O1 0.746637 0.388117 0.826455
O O2 0.142777 0.188737 0.806609
O O3 0.748928 0.124072 0.571497
O O4 0.905987 0.362675 0.018214
O O5 0.667973 0.450825 0.136032
O O6 0.152653 0.408060 0.327992
O O7 0.940600 0.168943 0.911480
O O8 0.289899 0.982081 0.778648
O O9 0.678243 0.760985 0.673569
O O10 0.557105 0.007889 0.833167
O O11 0.724018 0.042204 0.106687
O O12 0.058504 0.127203 0.479978
O O13 0.555781 0.923458 0.286986
O O14 0.500000 0.000000 0.500000
O O15 0.640339 0.698637 0.151754
O O16 0.435335 0.514331 0.721233
O O17 0.000000 0.500000 0.500000
#
# Coordination Sequence:
#
# PCOD8040309 Si02
#       8
#     2   2   2   2   2   2   2   2
#     4  11  20  36  59  91 113 150 205 251 289 334
#     4  10  18  36  61  85 116 150 202 248 286 341
#     4  10  19  37  65  89 111 152 208 250 284 339
#     4  10  19  36  64  88 114 154 200 243 292 349
#     4  12  24  41  58  85 128 162 189 237 311 365
#     4  11  22  36  58  86 123 157 191 242 302 356
#     4   9  20  35  57  89 118 150 194 246 292 342
#     4  11  21  37  60  87 119 152 204 247 285 351
#
# _framework density 19.459402000000001
#
# number of rings (size 3 to 8) (size 9 to 14) (size 15 to 20)
#    0.000    1.500    5.000    1.125    0.000    0.500 
#    0.000    1.875    0.000    1.500    0.000    0.000 
#    0.000    0.000    0.000    0.000    0.000    0.000 
#
# Total GULP energy -198351.416783 kJ/mol
# GULP energy per Si atom -12396.963549 kJ/mol
# Density = 1.941511 g / cm^3
# Si number density = 19.459402 Si / 1000 Ang^3
#
#
#
# Elastic Constant Matrix: (Units=GPa)
#
#
# Indices 1 2 3 4 5 6 
#
# 1 66.5713 24.6967 19.1836 -10.4190 -11.9050 13.7413
# 2 24.6967 86.6921 28.6736 -11.6285 -5.8627 -2.7013
# 3 19.1836 28.6736 101.3568 -19.3461 -5.0090 1.4478
# 4 -10.4190 -11.6285 -19.3461 41.6679 2.6897 -12.6416
# 5 -11.9050 -5.8627 -5.0090 2.6897 25.2075 -6.1404
# 6 13.7413 -2.7013 1.4478 -12.6416 -6.1404 20.9499
#
#
#
# Elastic Compliance Matrix: (Units=1/GPa)
#
#
# Indices 1 2 3 4 5 6 
#
# 1 0.021345 -0.005674 -0.002366 -0.002011 0.005020 -0.014311
# 2 -0.005674 0.014920 -0.002365 0.004234 0.002052 0.008966
# 3 -0.002366 -0.002365 0.012029 0.005492 0.001126 0.004060
# 4 -0.002011 0.004234 0.005492 0.033973 0.003077 0.022887
# 5 0.005020 0.002052 0.001126 0.003077 0.045348 0.012043
# 6 -0.014311 0.008966 0.004060 0.022887 0.012043 0.075336
#
#
# Mechanical properties :
#
#
# Convention : Reuss Voigt Hill
#
# Bulk Modulus (GPa) = 36.38598 44.41422 40.40010
# Shear Modulus (GPa) = 21.46629 29.70281 25.58455
#
# Velocity S-wave (km/s) = 3.32495 3.91115 3.62990
# Velocity P-wave (km/s) = 5.78613 6.57798 6.19472
#
# Compressibility (1/GPa) = 0.02748311
#
# Stress axis : x y z
#
# Youngs Moduli (GPa) = 46.84871 67.02380 83.13221
#
# Poissons Ratio (x) = 0.38032 0.19669
# Poissons Ratio (y) = 0.26584 0.19663
# Poissons Ratio (z) = 0.11084 0.15853
#
# Static dielectric constant tensor:
#      x y z
#    x 3.289300 0.001120 -0.385650 
#    y 0.001120 3.717180 -0.355690 
#    z -0.385650 -0.355690 3.910820 
# 
# 
# High freq. dielectric constant tensor:
#      x y z
#    x 1.724460 -0.009150 -0.040320 
#    y -0.009150 1.769940 -0.012650 
#    z -0.040320 -0.012650 1.757720 
# 
# From -- ./inp_files/262418.got.cif
#   From: 2010.06.25/outbox.cif.g09.slc.cpg/sg2_132_cif.got.tgz:262418.got - 2010.06.27 13:26:56.
