data_PCOD8040042
_publ_section_title
;
Structure prediction by ZEFSAII (Michael W. Deem and Ramdas Pophale) SiO2 
 PCOD8040042
Probable space group: P -1
;
_chemical_formula_sum "Si O2"
_cell_formula_units_Z 16
_cell_length_a 8.737676
_cell_length_b 19.589876
_cell_length_c 13.814905
_cell_angle_alpha 159.869996
_cell_angle_beta 82.364927
_cell_angle_gamma 88.809344
_cell_volume 729.506104
_symmetry_space_group_name_H-M "P -1"
_symmetry_group_IT_number 2
_symmetry_cell_setting 'triclinic'
loop_
_space_group_symop_operation_xyz
x,y,z
-x,-y,-z
loop_
_atom_site_type_symbol
_atom_site_label
_atom_site_fract_x
_atom_site_fract_y
_atom_site_fract_z
Si Si1 0.479075 0.720705 0.171339
Si Si2 0.053651 0.443853 0.771631
Si Si3 0.603019 0.121211 0.251616
Si Si4 0.232648 0.208744 0.844705
Si Si5 0.362103 0.349594 0.727118
Si Si6 0.692738 0.657858 0.554192
Si Si7 0.941125 0.081869 0.222420
Si Si8 0.976012 0.333048 0.209400
O O1 0.611598 0.714927 0.067807
O O2 0.580491 0.703123 0.238666
O O3 0.309278 0.947622 0.481089
O O4 0.412638 0.534293 0.921132
O O5 0.155677 0.417895 0.831240
O O6 0.203722 0.424481 0.661877
O O7 0.999853 0.252209 0.492549
O O8 0.892829 0.678922 0.086677
O O9 0.467504 0.136057 0.367027
O O10 0.507103 0.263706 0.353566
O O11 0.735298 0.205956 0.399198
O O12 0.712080 0.867689 0.876562
O O13 0.121123 0.286322 0.054062
O O14 0.779592 0.451451 0.344178
O O15 0.000000 0.000000 0.000000
O O16 0.006625 0.883306 0.027208
O O17 0.000000 0.500000 0.500000
#
# Coordination Sequence:
#
# PCOD8040042 Si02
#       8
#     2   2   2   2   2   2   2   2
#     4  10  22  42  63  90 121 165 209 252 311 357
#     4  10  21  39  60  92 125 159 207 252 306 371
#     4  10  18  35  62  83 124 161 200 245 309 365
#     4  10  22  41  63  89 125 158 206 259 306 370
#     4  10  22  39  64  90 120 165 210 254 304 364
#     4   9  19  36  58  88 122 162 199 248 312 371
#     4  12  21  36  60  90 127 166 201 248 312 376
#     4  11  21  38  62  95 124 162 205 255 316 373
#
# _framework density 21.932645999999998
#
# number of rings (size 3 to 8) (size 9 to 14) (size 15 to 20)
#    0.000    1.750    2.500    2.250    0.000    2.000 
#    0.000    9.375    0.000    0.000    0.000    0.875 
#    0.000    0.000    0.000    0.000    0.000    0.000 
#
# Total GULP energy -198231.621082 kJ/mol
# GULP energy per Si atom -12389.476318 kJ/mol
# Density = 2.188273 g / cm^3
# Si number density = 21.932646 Si / 1000 Ang^3
#
#
#
# Elastic Constant Matrix: (Units=GPa)
#
#
# Indices 1 2 3 4 5 6 
#
# 1 130.0330 45.3681 43.4087 23.9631 -12.2764 -34.6915
# 2 45.3681 95.5555 38.0533 25.8034 -7.6844 -16.1283
# 3 43.4087 38.0533 88.0840 24.2482 -18.8312 -15.4038
# 4 23.9631 25.8034 24.2482 35.2943 -2.6701 -7.5720
# 5 -12.2764 -7.6844 -18.8312 -2.6701 34.9658 -4.2269
# 6 -34.6915 -16.1283 -15.4038 -7.5720 -4.2269 31.9027
#
#
#
# Elastic Compliance Matrix: (Units=1/GPa)
#
#
# Indices 1 2 3 4 5 6 
#
# 1 0.013394 -0.002402 -0.001488 -0.003291 0.004629 0.012464
# 2 -0.002402 0.015012 -0.002937 -0.006850 0.000594 0.002012
# 3 -0.001488 -0.002937 0.018171 -0.007597 0.008644 0.005013
# 4 -0.003291 -0.006850 -0.007597 0.040136 -0.003893 -0.001700
# 5 0.004629 0.000594 0.008644 -0.003893 0.036333 0.013398
# 6 0.012464 0.002012 0.005013 -0.001700 0.013398 0.049709
#
#
# Mechanical properties :
#
#
# Convention : Reuss Voigt Hill
#
# Bulk Modulus (GPa) = 30.37317 63.03696 46.70507
# Shear Modulus (GPa) = 25.33151 32.88875 29.11013
#
# Velocity S-wave (km/s) = 3.40217 3.87658 3.64710
# Velocity P-wave (km/s) = 5.41401 6.98862 6.25109
#
# Compressibility (1/GPa) = 0.03292379
#
# Stress axis : x y z
#
# Youngs Moduli (GPa) = 74.66079 66.61177 55.03319
#
# Poissons Ratio (x) = 0.16000 0.08187
# Poissons Ratio (y) = 0.17933 0.16164
# Poissons Ratio (z) = 0.11106 0.19565
#
# Static dielectric constant tensor:
#      x y z
#    x 4.373200 -0.330360 -0.512010 
#    y -0.330360 4.045340 0.143330 
#    z -0.512010 0.143330 4.142960 
# 
# 
# High freq. dielectric constant tensor:
#      x y z
#    x 1.864500 -0.018170 -0.026030 
#    y -0.018170 1.855050 -0.001380 
#    z -0.026030 -0.001380 1.867040 
# 
# From -- ./inp_files/347663.got.cif
#   From: 2010.06.25/outbox.cif.g09.slc.cpg/sg2_174_cif.got.tgz:347663.got - 2010.06.27 13:26:56.
