data_PCOD8040119
_publ_section_title
;
Structure prediction by ZEFSAII (Michael W. Deem and Ramdas Pophale) SiO2 
 PCOD8040119
Probable space group: P -1
;
_chemical_formula_sum "Si O2"
_cell_formula_units_Z 16
_cell_length_a 7.933418
_cell_length_b 9.169654
_cell_length_c 15.931392
_cell_angle_alpha 44.423948
_cell_angle_beta 108.878180
_cell_angle_gamma 117.335681
_cell_volume 720.618805
_symmetry_space_group_name_H-M "P -1"
_symmetry_group_IT_number 2
_symmetry_cell_setting 'triclinic'
loop_
_space_group_symop_operation_xyz
x,y,z
-x,-y,-z
loop_
_atom_site_type_symbol
_atom_site_label
_atom_site_fract_x
_atom_site_fract_y
_atom_site_fract_z
Si Si1 0.934627 0.181247 0.335912
Si Si2 0.975002 0.120630 0.649997
Si Si3 0.313066 0.287692 0.148410
Si Si4 0.713309 0.656082 0.267699
Si Si5 0.696494 0.471755 0.784316
Si Si6 0.292127 0.816411 0.547043
Si Si7 0.314589 0.695848 0.882227
Si Si8 0.295642 0.916239 0.961836
O O1 0.825285 0.099035 0.438588
O O2 0.839868 0.316590 0.206935
O O3 0.149467 0.344346 0.321681
O O4 0.931102 0.961767 0.378188
O O5 0.812507 0.207987 0.550131
O O6 0.149082 0.310686 0.643511
O O7 0.874724 0.926496 0.780689
O O8 0.372749 0.416952 0.193003
O O9 0.480284 0.214134 0.166932
O O10 0.261465 0.444776 0.008790
O O11 0.492799 0.633828 0.260452
O O12 0.707979 0.423451 0.322416
O O13 0.790467 0.881321 0.129217
O O14 0.800310 0.302220 0.906290
O O15 0.500000 0.000000 0.500000
O O16 0.303617 0.859207 0.888216
O O17 0.500000 0.000000 0.000000
#
# Coordination Sequence:
#
# PCOD8040119 Si02
#       8
#     2   2   2   2   2   2   2   2
#     4  11  22  40  68  94 119 163 220 252 314 379
#     4  11  23  41  65  94 126 163 215 264 313 362
#     4   9  20  36  64  94 128 165 211 253 311 375
#     4  11  22  42  62  91 128 167 205 262 319 363
#     4   9  20  38  64  94 129 165 203 254 318 381
#     4  12  26  46  66  86 126 171 217 264 310 371
#     4  10  18  35  64  95 125 166 209 253 310 383
#     4   9  19  36  61  90 134 163 195 251 321 373
#
# _framework density 22.203140999999999
#
# number of rings (size 3 to 8) (size 9 to 14) (size 15 to 20)
#    0.000    1.750    1.250    3.750    1.750    2.500 
#    4.500    3.125    0.000    0.000    0.000    0.000 
#    0.000    0.000    0.000    0.000    0.000    0.000 
#
# Total GULP energy -198231.712666 kJ/mol
# GULP energy per Si atom -12389.482042 kJ/mol
# Density = 2.215261 g / cm^3
# Si number density = 22.203141 Si / 1000 Ang^3
#
#
#
# Elastic Constant Matrix: (Units=GPa)
#
#
# Indices 1 2 3 4 5 6 
#
# 1 73.0326 24.1024 33.0073 -6.9255 -8.1580 7.5782
# 2 24.1024 96.6085 35.5876 1.7612 2.4372 20.0087
# 3 33.0073 35.5876 80.6412 3.8674 3.7600 4.0625
# 4 -6.9255 1.7612 3.8674 36.0974 4.3705 20.6894
# 5 -8.1580 2.4372 3.7600 4.3705 39.5064 0.0963
# 6 7.5782 20.0087 4.0625 20.6894 0.0963 30.4714
#
#
#
# Elastic Compliance Matrix: (Units=1/GPa)
#
#
# Indices 1 2 3 4 5 6 
#
# 1 0.020045 0.000126 -0.008384 0.010727 0.003770 -0.011245
# 2 0.000126 0.015917 -0.006658 0.009193 -0.001301 -0.015833
# 3 -0.008384 -0.006658 0.018792 -0.008681 -0.002173 0.009853
# 4 0.010727 0.009193 -0.008681 0.057324 -0.003754 -0.046456
# 5 0.003770 -0.001301 -0.002173 -0.003754 0.026787 0.002671
# 6 -0.011245 -0.015833 0.009853 -0.046456 0.002671 0.076232
#
#
# Mechanical properties :
#
#
# Convention : Reuss Voigt Hill
#
# Bulk Modulus (GPa) = 40.12691 48.40853 44.26772
# Shear Modulus (GPa) = 19.74442 31.72070 25.73256
#
# Velocity S-wave (km/s) = 2.98529 3.78386 3.40804
# Velocity P-wave (km/s) = 5.47672 6.39844 5.95544
#
# Compressibility (1/GPa) = 0.02492093
#
# Stress axis : x y z
#
# Youngs Moduli (GPa) = 49.88686 62.82660 53.21443
#
# Poissons Ratio (x) = -0.00790 0.44615
# Poissons Ratio (y) = -0.00627 0.35432
# Poissons Ratio (z) = 0.41825 0.41832
#
# Static dielectric constant tensor:
#      x y z
#    x 3.755710 0.221900 0.166560 
#    y 0.221900 3.871580 -0.037590 
#    z 0.166560 -0.037590 4.373620 
# 
# 
# High freq. dielectric constant tensor:
#      x y z
#    x 1.848900 0.016810 0.027700 
#    y 0.016810 1.869090 -0.004000 
#    z 0.027700 -0.004000 1.884490 
# 
# From -- ./inp_files/558979.got.cif
#   From: 2010.06.25/outbox.cif.g09.slc.cpg/sg2_280_cif.got.tgz:558979.got - 2010.06.27 13:26:56.
