data_PCOD8040000
_publ_section_title
;
Structure prediction by ZEFSAII (Michael W. Deem and Ramdas Pophale) SiO2 
 PCOD8040000
Probable space group: P -1
;
_chemical_formula_sum "Si O2"
_cell_formula_units_Z 16
_cell_length_a 15.304516
_cell_length_b 11.434464
_cell_length_c 17.124110
_cell_angle_alpha 67.630887
_cell_angle_beta 131.857419
_cell_angle_gamma 152.395996
_cell_volume 818.962806
_symmetry_space_group_name_H-M "P -1"
_symmetry_group_IT_number 2
_symmetry_cell_setting 'triclinic'
loop_
_space_group_symop_operation_xyz
x,y,z
-x,-y,-z
loop_
_atom_site_type_symbol
_atom_site_label
_atom_site_fract_x
_atom_site_fract_y
_atom_site_fract_z
Si Si1 0.280545 0.128801 0.944526
Si Si2 0.540486 0.813041 0.225085
Si Si3 0.791539 0.274009 0.155619
Si Si4 0.621550 0.749531 0.432850
Si Si5 0.869020 0.935026 0.687598
Si Si6 0.827700 0.493798 0.779968
Si Si7 0.920698 0.674666 0.167239
Si Si8 0.983579 0.840652 0.002814
O O1 0.216562 0.053628 0.017967
O O2 0.626501 0.469797 0.047460
O O3 0.147420 0.125379 0.829632
O O4 0.142716 0.873008 0.883511
O O5 0.733999 0.916128 0.373948
O O6 0.317930 0.681985 0.177525
O O7 0.346143 0.527205 0.127836
O O8 0.758986 0.119684 0.230692
O O9 0.850525 0.457595 0.195274
O O10 0.086993 0.544791 0.210050
O O11 0.500000 0.000000 0.000000
O O12 0.885186 0.986967 0.591531
O O13 0.440554 0.442052 0.385494
O O14 0.392950 0.626785 0.365276
O O15 0.866106 0.060783 0.705182
O O16 0.068146 0.836932 0.128417
O O17 0.000000 0.000000 0.000000
#
# Coordination Sequence:
#
# PCOD8040000 Si02
#       8
#     2   2   2   2   2   2   2   2
#     4  10  19  34  56  81 114 141 168 228 281 319
#     4   9  19  36  55  77 111 143 183 221 264 319
#     4  12  21  33  55  84 112 145 180 217 272 329
#     4   8  18  38  62  74 102 150 187 217 266 322
#     4  10  18  35  61  80 103 148 182 218 276 322
#     4   8  18  36  55  77 106 146 179 221 260 314
#     4  12  23  33  54  88 116 137 176 228 274 326
#     4  11  19  32  53  81 113 139 171 223 284 314
#
# _framework density 19.536906999999999
#
# number of rings (size 3 to 8) (size 9 to 14) (size 15 to 20)
#    0.750    1.250    5.000    0.375    0.000    1.500 
#    0.000    1.250    5.500    3.000    0.000    0.000 
#    0.000    0.000    0.000    0.000    0.000    0.000 
#
# Total GULP energy -198224.663960 kJ/mol
# GULP energy per Si atom -12389.041497 kJ/mol
# Density = 1.949244 g / cm^3
# Si number density = 19.536907 Si / 1000 Ang^3
#
#
#
# Elastic Constant Matrix: (Units=GPa)
#
#
# Indices 1 2 3 4 5 6 
#
# 1 89.6799 31.6021 31.5766 7.3589 -16.8334 -12.9203
# 2 31.6021 72.4095 34.0493 -17.1825 -12.2282 -13.5443
# 3 31.5766 34.0493 78.2786 -13.3238 -22.9707 -9.3133
# 4 7.3589 -17.1825 -13.3238 25.7243 3.9190 -1.7267
# 5 -16.8334 -12.2282 -22.9707 3.9190 20.4669 7.5301
# 6 -12.9203 -13.5443 -9.3133 -1.7267 7.5301 27.5671
#
#
#
# Elastic Compliance Matrix: (Units=1/GPa)
#
#
# Indices 1 2 3 4 5 6 
#
# 1 0.017927 -0.007884 -0.003579 -0.013544 0.008561 0.000132
# 2 -0.007884 0.024597 -0.004500 0.017480 -0.003465 0.008911
# 3 -0.003579 -0.004500 0.022809 0.006875 0.018996 -0.000941
# 4 -0.013544 0.017480 0.006875 0.059971 -0.008365 0.010604
# 5 0.008561 -0.003465 0.018996 -0.008365 0.081972 -0.014187
# 6 0.000132 0.008911 -0.000941 0.010604 -0.014187 0.044937
#
#
# Mechanical properties :
#
#
# Convention : Reuss Voigt Hill
#
# Bulk Modulus (GPa) = 29.93501 48.31379 39.12440
# Shear Modulus (GPa) = 16.93344 24.29434 20.61389
#
# Velocity S-wave (km/s) = 2.94724 3.53017 3.25179
# Velocity P-wave (km/s) = 5.19010 6.43423 5.84536
#
# Compressibility (1/GPa) = 0.03340570
#
# Stress axis : x y z
#
# Youngs Moduli (GPa) = 55.78272 40.65555 43.84288
#
# Poissons Ratio (x) = 0.32053 0.15693
# Poissons Ratio (y) = 0.43980 0.19729
# Poissons Ratio (z) = 0.19966 0.18295
#
# Static dielectric constant tensor:
#      x y z
#    x 3.475560 -0.081810 -0.271150 
#    y -0.081810 3.463050 -0.194950 
#    z -0.271150 -0.194950 3.457700 
# 
# 
# High freq. dielectric constant tensor:
#      x y z
#    x 1.750840 -0.009770 -0.022100 
#    y -0.009770 1.750050 -0.014530 
#    z -0.022100 -0.014530 1.733930 
# 
# From -- ./inp_files/531132.got.cif
#   From: 2010.06.25/outbox.cif.g09.slc.cpg/sg2_266_cif.got.tgz:531132.got - 2010.06.27 13:26:56.
