data_PCOD8040413
_publ_section_title
;
Structure prediction by ZEFSAII (Michael W. Deem and Ramdas Pophale) SiO2 
 PCOD8040413
Probable space group: P -1
;
_chemical_formula_sum "Si O2"
_cell_formula_units_Z 14
_cell_length_a 13.088176
_cell_length_b 22.398988
_cell_length_c 15.130246
_cell_angle_alpha 161.226620
_cell_angle_beta 142.149693
_cell_angle_gamma 28.266360
_cell_volume 646.856805
_symmetry_space_group_name_H-M "P -1"
_symmetry_group_IT_number 2
_symmetry_cell_setting 'triclinic'
loop_
_space_group_symop_operation_xyz
x,y,z
-x,-y,-z
loop_
_atom_site_type_symbol
_atom_site_label
_atom_site_fract_x
_atom_site_fract_y
_atom_site_fract_z
Si Si1 0.024241 0.117265 0.859902
Si Si2 0.728783 0.835584 0.761188
Si Si3 0.504642 0.784931 0.671394
Si Si4 0.046119 0.437062 0.807588
Si Si5 0.716845 0.644716 0.319018
Si Si6 0.614895 0.588342 0.656006
Si Si7 0.803218 0.903974 0.408238
O O1 0.243524 0.922449 0.673372
O O2 0.086049 0.194874 0.097001
O O3 0.942909 0.977276 0.638638
O O4 0.825293 0.361152 0.009983
O O5 0.650010 0.694091 0.553359
O O6 0.830075 0.701513 0.547382
O O7 0.517792 0.127482 0.008147
O O8 0.614146 0.573073 0.526292
O O9 0.500000 0.000000 0.000000
O O10 0.228914 0.334114 0.712726
O O11 0.190873 0.251377 0.727605
O O12 0.868161 0.417419 0.624540
O O13 0.918622 0.723727 0.148475
O O14 0.450196 0.843072 0.431375
O O15 0.500000 0.500000 0.500000
#
# Coordination Sequence:
#
# PCOD8040413 Si02
#       7
#     2   2   2   2   2   2   2
#     4  10  21  39  64  94 123 159 207 259 307 363
#     4  10  20  39  63  92 127 156 204 260 312 368
#     4   8  17  35  60  88 120 155 199 249 307 361
#     4  11  23  43  66  85 127 174 200 252 317 363
#     4  12  23  41  66  91 126 164 209 251 313 372
#     4  10  18  36  65  93 119 158 212 253 299 369
#     4  11  25  43  62  89 128 166 212 252 302 374
#
# _framework density 21.643121000000001
#
# number of rings (size 3 to 8) (size 9 to 14) (size 15 to 20)
#    0.000    2.000    1.429    5.571    0.000    0.571 
#    2.571    4.286    0.000    0.000    0.000    0.000 
#    0.000    0.000    0.000    0.000    0.000    0.000 
#
# Total GULP energy -173507.238834 kJ/mol
# GULP energy per Si atom -12393.374202 kJ/mol
# Density = 2.159386 g / cm^3
# Si number density = 21.643121 Si / 1000 Ang^3
#
#
#
# Elastic Constant Matrix: (Units=GPa)
#
#
# Indices 1 2 3 4 5 6 
#
# 1 114.6700 20.8561 47.0863 -19.0663 -0.7779 9.5535
# 2 20.8561 93.4721 32.9460 0.8575 1.5911 -8.2993
# 3 47.0863 32.9460 55.9608 -5.5889 2.4823 -2.1033
# 4 -19.0663 0.8575 -5.5889 24.0548 0.7961 5.3356
# 5 -0.7779 1.5911 2.4823 0.7961 33.5378 -0.4439
# 6 9.5535 -8.2993 -2.1033 5.3356 -0.4439 31.2325
#
#
#
# Elastic Compliance Matrix: (Units=1/GPa)
#
#
# Indices 1 2 3 4 5 6 
#
# 1 0.016893 0.000120 -0.013432 0.012025 0.000988 -0.008080
# 2 0.000120 0.014040 -0.008554 -0.003209 0.000095 0.003667
# 3 -0.013432 -0.008554 0.034148 -0.003369 -0.002291 0.004678
# 4 0.012025 -0.003209 -0.003369 0.053547 -0.000775 -0.013916
# 5 0.000988 0.000095 -0.002291 -0.000775 0.030025 0.000128
# 6 -0.008080 0.003667 0.004678 -0.013916 0.000128 0.038158
#
#
# Mechanical properties :
#
#
# Convention : Reuss Voigt Hill
#
# Bulk Modulus (GPa) = 46.83634 51.76440 49.30037
# Shear Modulus (GPa) = 21.03847 28.64598 24.84223
#
# Velocity S-wave (km/s) = 3.12117 3.64202 3.39161
# Velocity P-wave (km/s) = 5.88865 6.45407 6.17783
#
# Compressibility (1/GPa) = 0.02135094
#
# Stress axis : x y z
#
# Youngs Moduli (GPa) = 59.19445 71.22516 29.28397
#
# Poissons Ratio (x) = -0.00857 0.39334
# Poissons Ratio (y) = -0.00713 0.25049
# Poissons Ratio (z) = 0.79509 0.60926
#
# Static dielectric constant tensor:
#      x y z
#    x 4.889770 0.080550 -0.108210 
#    y 0.080550 3.915890 0.106330 
#    z -0.108210 0.106330 3.653210 
# 
# 
# High freq. dielectric constant tensor:
#      x y z
#    x 1.849330 0.004800 0.002080 
#    y 0.004800 1.856320 0.013050 
#    z 0.002080 0.013050 1.822930 
# 
# From -- ./inp_files/524152.got.cif
#   From: 2010.06.25/outbox.cif.g09.slc.cpg/sg2_263_cif.got.tgz:524152.got - 2010.06.27 13:26:56.
