data_PCOD8040137
_publ_section_title
;
Structure prediction by ZEFSAII (Michael W. Deem and Ramdas Pophale) SiO2 
 PCOD8040137
Probable space group: P -1
;
_chemical_formula_sum "Si O2"
_cell_formula_units_Z 16
_cell_length_a 13.679927
_cell_length_b 11.192639
_cell_length_c 8.988668
_cell_angle_alpha 106.856041
_cell_angle_beta 106.495216
_cell_angle_gamma 33.183378
_cell_volume 718.671738
_symmetry_space_group_name_H-M "P -1"
_symmetry_group_IT_number 2
_symmetry_cell_setting 'triclinic'
loop_
_space_group_symop_operation_xyz
x,y,z
-x,-y,-z
loop_
_atom_site_type_symbol
_atom_site_label
_atom_site_fract_x
_atom_site_fract_y
_atom_site_fract_z
Si Si1 0.472811 0.688623 0.165696
Si Si2 0.032397 0.897487 0.216239
Si Si3 0.580700 0.466751 0.675208
Si Si4 0.301722 0.911702 0.875754
Si Si5 0.756511 0.756992 0.910592
Si Si6 0.120035 0.461625 0.826617
Si Si7 0.461694 0.088315 0.676930
Si Si8 0.871476 0.271010 0.130396
O O1 0.409432 0.662059 0.258720
O O2 0.498872 0.804190 0.272872
O O3 0.661267 0.450430 0.099023
O O4 0.325931 0.829853 0.022343
O O5 0.212045 0.700284 0.320126
O O6 0.053213 0.841887 0.035012
O O7 0.876107 0.964680 0.235942
O O8 0.960822 0.112561 0.254786
O O9 0.500000 0.500000 0.500000
O O10 0.471269 0.697035 0.771931
O O11 0.279024 0.082880 0.947256
O O12 0.930994 0.583763 0.815516
O O13 0.589821 0.892984 0.783252
O O14 0.783892 0.621614 0.998383
O O15 0.259115 0.254934 0.698496
O O16 0.082781 0.630505 0.794563
O O17 0.500000 0.000000 0.500000
#
# Coordination Sequence:
#
# PCOD8040137 Si02
#       8
#     2   2   2   2   2   2   2   2
#     4  10  20  40  62  88 119 161 211 248 290 361
#     4  11  21  35  66  88 116 154 205 249 301 348
#     4  12  26  40  56  92 131 158 193 252 317 367
#     4  11  21  40  66  91 118 159 212 248 294 360
#     4  10  22  39  66  92 123 158 206 262 302 354
#     4  10  21  39  62  94 119 153 213 254 305 349
#     4  10  23  40  62  88 127 167 203 248 308 369
#     4  10  18  35  66  92 110 155 206 258 281 354
#
# _framework density 22.263292
#
# number of rings (size 3 to 8) (size 9 to 14) (size 15 to 20)
#    0.000    1.500    3.750    2.250    1.750    2.000 
#    2.250    0.000    5.500    0.000    0.000    0.000 
#    0.000    0.000    0.000    0.000    0.000    0.000 
#
# Total GULP energy -198299.965456 kJ/mol
# GULP energy per Si atom -12393.747841 kJ/mol
# Density = 2.221262 g / cm^3
# Si number density = 22.263292 Si / 1000 Ang^3
#
#
#
# Elastic Constant Matrix: (Units=GPa)
#
#
# Indices 1 2 3 4 5 6 
#
# 1 47.1325 27.4654 13.6052 2.8162 0.7738 -16.8749
# 2 27.4654 116.5021 39.5437 1.7848 11.5855 -25.3437
# 3 13.6052 39.5437 80.4708 7.8552 4.8801 -8.1466
# 4 2.8162 1.7848 7.8552 25.5470 -5.5331 0.0430
# 5 0.7738 11.5855 4.8801 -5.5331 18.2247 -4.3332
# 6 -16.8749 -25.3437 -8.1466 0.0430 -4.3332 29.9861
#
#
#
# Elastic Compliance Matrix: (Units=1/GPa)
#
#
# Indices 1 2 3 4 5 6 
#
# 1 0.028594 -0.003675 -0.001822 -0.001427 0.004295 0.013113
# 2 -0.003675 0.013115 -0.004778 -0.000204 -0.005311 0.006951
# 3 -0.001822 -0.004778 0.015607 -0.004876 -0.002837 -0.001226
# 4 -0.001427 -0.000204 -0.004876 0.044022 0.014808 -0.000224
# 5 0.004295 -0.005311 -0.002837 0.014808 0.064868 0.006510
# 6 0.013113 0.006951 -0.001226 -0.000224 0.006510 0.047211
#
#
# Mechanical properties :
#
#
# Convention : Reuss Voigt Hill
#
# Bulk Modulus (GPa) = 27.19925 45.03710 36.11818
# Shear Modulus (GPa) = 20.30690 25.65097 22.97894
#
# Velocity S-wave (km/s) = 3.02342 3.39804 3.21619
# Velocity P-wave (km/s) = 4.94284 5.97233 5.48181
#
# Compressibility (1/GPa) = 0.03676572
#
# Stress axis : x y z
#
# Youngs Moduli (GPa) = 34.97244 76.24807 64.07556
#
# Poissons Ratio (x) = 0.28023 0.11674
# Poissons Ratio (y) = 0.12853 0.30613
# Poissons Ratio (z) = 0.06372 0.36429
#
# Static dielectric constant tensor:
#      x y z
#    x 4.094410 -0.004370 -0.037420 
#    y -0.004370 4.795860 0.012420 
#    z -0.037420 0.012420 3.534190 
# 
# 
# High freq. dielectric constant tensor:
#      x y z
#    x 1.870060 -0.006850 -0.006540 
#    y -0.006850 1.906190 0.002560 
#    z -0.006540 0.002560 1.826050 
# 
# From -- ./inp_files/308100.got.cif
#   From: 2010.06.25/outbox.cif.g09.slc.cpg/sg2_155_cif.got.tgz:308100.got - 2010.06.27 13:26:56.
