data_PCOD8040678
_publ_section_title
;
Structure prediction by ZEFSAII (Michael W. Deem and Ramdas Pophale) SiO2 
 PCOD8040678
Probable space group: P -1
;
_chemical_formula_sum "Si O2"
_cell_formula_units_Z 12
_cell_length_a 8.251213
_cell_length_b 11.050992
_cell_length_c 18.579625
_cell_angle_alpha 150.642245
_cell_angle_beta 42.132853
_cell_angle_gamma 135.884855
_cell_volume 543.838871
_symmetry_space_group_name_H-M "P -1"
_symmetry_group_IT_number 2
_symmetry_cell_setting 'triclinic'
loop_
_space_group_symop_operation_xyz
x,y,z
-x,-y,-z
loop_
_atom_site_type_symbol
_atom_site_label
_atom_site_fract_x
_atom_site_fract_y
_atom_site_fract_z
Si Si1 0.891656 0.899647 0.111539
Si Si2 0.546468 0.918704 0.700969
Si Si3 0.668287 0.522261 0.554461
Si Si4 0.072055 0.629664 0.150568
Si Si5 0.672436 0.630463 0.176221
Si Si6 0.191476 0.429820 0.305963
O O1 0.750230 0.871154 0.221721
O O2 0.696003 0.960134 0.149011
O O3 0.974211 0.637800 0.928795
O O4 0.130006 0.127960 0.156154
O O5 0.575238 0.768704 0.686971
O O6 0.519013 0.728616 0.543539
O O7 0.789438 0.143314 0.726397
O O8 0.668896 0.512454 0.634533
O O9 0.942954 0.536017 0.439146
O O10 0.816300 0.685020 0.233441
O O11 0.249580 0.610554 0.013004
O O12 0.379003 0.568862 0.255257
#
# Coordination Sequence:
#
# PCOD8040678 Si02
#       6
#     2   2   2   2   2   2
#     4   9  19  35  60  85 108 146 177 234 284 317
#     4  10  18  38  57  77 122 145 178 231 280 329
#     4   9  21  35  59  83 108 157 183 224 273 327
#     4   9  19  37  57  88 108 143 186 230 284 323
#     4   9  20  36  59  88 106 145 186 233 278 319
#     4  10  19  40  59  82 111 143 197 225 267 332
#
# _framework density 22.065359000000001
#
# number of rings (size 3 to 8) (size 9 to 14) (size 15 to 20)
#    1.000    1.667    0.000    1.500    0.000    0.667 
#    0.000   23.333    0.000    0.000    0.000    0.000 
#    0.000    0.000    0.000    0.000    0.000    0.000 
#
# Total GULP energy -148722.743488 kJ/mol
# GULP energy per Si atom -12393.561957 kJ/mol
# Density = 2.201514 g / cm^3
# Si number density = 22.065359 Si / 1000 Ang^3
#
#
#
# Elastic Constant Matrix: (Units=GPa)
#
#
# Indices 1 2 3 4 5 6 
#
# 1 110.0747 18.5070 24.2615 15.8438 -7.4949 10.7529
# 2 18.5070 65.0421 9.3266 -7.8354 5.4280 20.5739
# 3 24.2615 9.3266 31.3941 13.2762 -2.6827 6.8336
# 4 15.8438 -7.8354 13.2762 34.3944 6.8527 0.3432
# 5 -7.4949 5.4280 -2.6827 6.8527 28.2790 14.9392
# 6 10.7529 20.5739 6.8336 0.3432 14.9392 30.6329
#
#
#
# Elastic Compliance Matrix: (Units=1/GPa)
#
#
# Indices 1 2 3 4 5 6 
#
# 1 0.012406 -0.002588 -0.004469 -0.006042 0.007604 -0.005261
# 2 -0.002588 0.021883 -0.005663 0.008716 -0.001168 -0.012054
# 3 -0.004469 -0.005663 0.051122 -0.022370 0.017818 -0.014471
# 4 -0.006042 0.008716 -0.022370 0.046965 -0.023120 0.012006
# 5 0.007604 -0.001168 0.017818 -0.023120 0.064460 -0.037037
# 6 -0.005261 -0.012054 -0.014471 0.012006 -0.037037 0.063743
#
#
# Mechanical properties :
#
#
# Convention : Reuss Voigt Hill
#
# Bulk Modulus (GPa) = 16.67459 34.52233 25.59846
# Shear Modulus (GPa) = 16.33935 28.95563 22.64749
#
# Velocity S-wave (km/s) = 2.72416 3.62645 3.20720
# Velocity P-wave (km/s) = 4.17948 5.76319 5.03400
#
# Compressibility (1/GPa) = 0.05997149
#
# Stress axis : x y z
#
# Youngs Moduli (GPa) = 80.60567 45.69684 19.56113
#
# Poissons Ratio (x) = 0.11824 0.08741
# Poissons Ratio (y) = 0.20857 0.11078
# Poissons Ratio (z) = 0.36021 0.25880
#
# Static dielectric constant tensor:
#      x y z
#    x 4.013960 0.140600 -0.102720 
#    y 0.140600 3.609470 0.311580 
#    z -0.102720 0.311580 3.604820 
# 
# 
# High freq. dielectric constant tensor:
#      x y z
#    x 1.879020 0.013880 -0.009890 
#    y 0.013880 1.842720 0.030290 
#    z -0.009890 0.030290 1.834860 
# 
# From -- ./inp_files/228123.got.cif
#   From: 2010.06.25/outbox.cif.g09.slc.cpg/sg2_115_cif.got.tgz:228123.got - 2010.06.27 13:26:56.
