data_PCOD8040293
_publ_section_title
;
Structure prediction by ZEFSAII (Michael W. Deem and Ramdas Pophale) SiO2 
 PCOD8040293
Probable space group: P -1
;
_chemical_formula_sum "Si O2"
_cell_formula_units_Z 16
_cell_length_a 10.132454
_cell_length_b 9.489319
_cell_length_c 16.476666
_cell_angle_alpha 108.968340
_cell_angle_beta 46.789036
_cell_angle_gamma 73.644454
_cell_volume 744.608625
_symmetry_space_group_name_H-M "P -1"
_symmetry_group_IT_number 2
_symmetry_cell_setting 'triclinic'
loop_
_space_group_symop_operation_xyz
x,y,z
-x,-y,-z
loop_
_atom_site_type_symbol
_atom_site_label
_atom_site_fract_x
_atom_site_fract_y
_atom_site_fract_z
Si Si1 0.373503 0.208718 0.354392
Si Si2 0.456879 0.914058 0.378629
Si Si3 0.633506 0.357154 0.599214
Si Si4 0.562634 0.623030 0.961941
Si Si5 0.190918 0.822886 0.817339
Si Si6 0.992633 0.972079 0.757734
Si Si7 0.092049 0.250087 0.734595
Si Si8 0.221764 0.462439 0.319066
O O1 0.576416 0.200952 0.310192
O O2 0.377780 0.237141 0.260636
O O3 0.074267 0.417676 0.552278
O O4 0.463690 0.987957 0.300906
O O5 0.381279 0.788296 0.372063
O O6 0.738947 0.754032 0.274859
O O7 0.240921 0.131932 0.564581
O O8 0.334418 0.588689 0.747229
O O9 0.793337 0.381388 0.588832
O O10 0.788372 0.238179 0.428241
O O11 0.617840 0.586247 0.836032
O O12 0.830158 0.509852 0.875714
O O13 0.500000 0.500000 0.000000
O O14 0.301523 0.884758 0.129844
O O15 0.020833 0.888981 0.820941
O O16 0.000000 0.000000 0.000000
O O17 0.025545 0.130777 0.779875
#
# Coordination Sequence:
#
# PCOD8040293 Si02
#       8
#     2   2   2   2   2   2   2   2
#     4  10  20  37  65  88 120 169 208 252 304 382
#     4  10  18  36  60  94 120 158 207 256 308 358
#     4  10  23  37  61  97 123 159 207 265 308 368
#     4  10  20  37  62  92 122 166 210 252 303 375
#     4  11  22  41  65  87 123 167 212 254 313 379
#     4  10  19  36  60  89 124 161 207 253 312 358
#     4   9  18  33  59  88 122 161 204 245 304 375
#     4  10  21  39  61  93 124 165 214 247 311 376
#
# _framework density 21.487795999999999
#
# number of rings (size 3 to 8) (size 9 to 14) (size 15 to 20)
#    0.000    2.000    2.500    1.875    0.000    0.500 
#    0.000    1.875    0.000    8.250    0.000    0.000 
#    0.000    0.000    0.000    0.000    0.000    0.000 
#
# Total GULP energy -198287.443032 kJ/mol
# GULP energy per Si atom -12392.965190 kJ/mol
# Density = 2.143889 g / cm^3
# Si number density = 21.487796 Si / 1000 Ang^3
#
#
#
# Elastic Constant Matrix: (Units=GPa)
#
#
# Indices 1 2 3 4 5 6 
#
# 1 55.3689 41.7597 34.3557 5.4065 -17.3931 -5.4653
# 2 41.7597 144.5096 46.8937 -9.3515 1.7116 -19.5885
# 3 34.3557 46.8937 105.7151 11.3217 -10.5752 -12.2747
# 4 5.4065 -9.3515 11.3217 38.3082 -9.6915 -4.0669
# 5 -17.3931 1.7116 -10.5752 -9.6915 36.3938 3.6392
# 6 -5.4653 -19.5885 -12.2747 -4.0669 3.6392 31.1722
#
#
#
# Elastic Compliance Matrix: (Units=1/GPa)
#
#
# Indices 1 2 3 4 5 6 
#
# 1 0.031845 -0.008153 -0.005577 -0.001703 0.013886 -0.003579
# 2 -0.008153 0.011192 -0.002557 0.004064 -0.004650 0.005670
# 3 -0.005577 -0.002557 0.013028 -0.003437 0.000117 0.002083
# 4 -0.001703 0.004064 -0.003437 0.030220 0.005625 0.004188
# 5 0.013886 -0.004650 0.000117 0.005625 0.036258 -0.003941
# 6 -0.003579 0.005670 0.002083 0.004188 -0.003941 0.036842
#
#
# Mechanical properties :
#
#
# Convention : Reuss Voigt Hill
#
# Bulk Modulus (GPa) = 42.56842 61.29019 51.92930
# Shear Modulus (GPa) = 25.02636 33.34714 29.18675
#
# Velocity S-wave (km/s) = 3.41644 3.94370 3.68950
# Velocity P-wave (km/s) = 5.95116 7.02298 6.50917
#
# Compressibility (1/GPa) = 0.02349159
#
# Stress axis : x y z
#
# Youngs Moduli (GPa) = 31.40224 89.34646 76.75867
#
# Poissons Ratio (x) = 0.72840 0.42807
# Poissons Ratio (y) = 0.25601 0.19631
# Poissons Ratio (z) = 0.17512 0.22850
#
# Static dielectric constant tensor:
#      x y z
#    x 3.666080 -0.297060 -0.485430 
#    y -0.297060 4.102920 -0.018880 
#    z -0.485430 -0.018880 3.959860 
# 
# 
# High freq. dielectric constant tensor:
#      x y z
#    x 1.816510 -0.027460 -0.034390 
#    y -0.027460 1.853410 -0.007570 
#    z -0.034390 -0.007570 1.833130 
# 
# From -- ./inp_files/257651.got.cif
#   From: 2010.06.25/outbox.cif.g09.slc.cpg/sg2_129_cif.got.tgz:257651.got - 2010.06.27 13:26:56.
