data_PCOD8040085
_publ_section_title
;
Structure prediction by ZEFSAII (Michael W. Deem and Ramdas Pophale) SiO2 
 PCOD8040085
Probable space group: P -1
;
_chemical_formula_sum "Si O2"
_cell_formula_units_Z 12
_cell_length_a 8.368768
_cell_length_b 12.263386
_cell_length_c 14.168017
_cell_angle_alpha 29.664467
_cell_angle_beta 135.222248
_cell_angle_gamma 126.197330
_cell_volume 505.446980
_symmetry_space_group_name_H-M "P -1"
_symmetry_group_IT_number 2
_symmetry_cell_setting 'triclinic'
loop_
_space_group_symop_operation_xyz
x,y,z
-x,-y,-z
loop_
_atom_site_type_symbol
_atom_site_label
_atom_site_fract_x
_atom_site_fract_y
_atom_site_fract_z
Si Si1 0.736965 0.861992 0.688303
Si Si2 0.728943 0.020082 0.870262
Si Si3 0.378586 0.348671 0.385197
Si Si4 0.059506 0.228337 0.507692
Si Si5 0.707973 0.619219 0.041249
Si Si6 0.499430 0.713495 0.271879
O O1 0.696946 0.671710 0.738780
O O2 0.500000 0.000000 0.500000
O O3 0.823114 0.750230 0.906180
O O4 0.926498 0.009917 0.615594
O O5 0.622597 0.212580 0.610583
O O6 0.648869 0.077281 0.901709
O O7 0.636038 0.790430 0.966629
O O8 0.000000 0.000000 0.000000
O O9 0.190385 0.247030 0.449458
O O10 0.400888 0.615133 0.207966
O O11 0.241801 0.216775 0.679077
O O12 0.889753 0.441440 0.295003
O O13 0.500000 0.500000 0.000000
O O14 0.500000 0.500000 0.500000
#
# Coordination Sequence:
#
# PCOD8040085 Si02
#       6
#     2   2   2   2   2   2
#     4  12  23  40  62  95 126 159 205 255 307 362
#     4  10  18  35  63  90 118 158 207 249 300 362
#     4  10  20  40  64  89 128 162 201 254 309 364
#     4  10  21  41  64  91 124 164 202 251 310 357
#     4  12  23  38  63  94 123 161 207 253 305 362
#     4   8  18  37  64  87 120 167 201 248 311 357
#
# _framework density 23.741361999999999
#
# number of rings (size 3 to 8) (size 9 to 14) (size 15 to 20)
#    0.000    2.000    3.333    3.500    0.000    2.000 
#    0.000    2.500    0.000   22.000    0.000    0.000 
#    0.000    0.000    0.000    0.000    0.000    0.000 
#
# Total GULP energy -148718.272444 kJ/mol
# GULP energy per Si atom -12393.189370 kJ/mol
# Density = 2.368733 g / cm^3
# Si number density = 23.741362 Si / 1000 Ang^3
#
#
#
# Elastic Constant Matrix: (Units=GPa)
#
#
# Indices 1 2 3 4 5 6 
#
# 1 78.2278 75.3568 36.1290 -1.6924 26.4672 1.3746
# 2 75.3568 223.0092 45.0233 -26.1207 28.9601 -18.0956
# 3 36.1290 45.0233 73.2982 -15.3969 22.2534 -2.6282
# 4 -1.6924 -26.1207 -15.3969 24.2970 -4.1128 16.1239
# 5 26.4672 28.9601 22.2534 -4.1128 36.2483 4.1807
# 6 1.3746 -18.0956 -2.6282 16.1239 4.1807 44.4894
#
#
#
# Elastic Compliance Matrix: (Units=1/GPa)
#
#
# Indices 1 2 3 4 5 6 
#
# 1 0.027431 -0.007765 -0.008656 -0.014929 -0.010421 0.001873
# 2 -0.007765 0.007998 0.000724 0.008023 -0.000330 0.000659
# 3 -0.008656 0.000724 0.022386 0.015469 -0.005880 -0.003169
# 4 -0.014929 0.008023 0.015469 0.074910 0.006157 -0.023089
# 5 -0.010421 -0.000330 -0.005880 0.006157 0.040484 -0.006195
# 6 0.001873 0.000659 -0.003169 -0.023089 -0.006195 0.031451
#
#
# Mechanical properties :
#
#
# Convention : Reuss Voigt Hill
#
# Bulk Modulus (GPa) = 37.85002 76.39481 57.12241
# Shear Modulus (GPa) = 20.41983 35.54200 27.98092
#
# Velocity S-wave (km/s) = 2.93592 3.87337 3.43676
# Velocity P-wave (km/s) = 5.24119 7.22854 6.31355
#
# Compressibility (1/GPa) = 0.02642007
#
# Stress axis : x y z
#
# Youngs Moduli (GPa) = 36.45527 125.03294 44.67072
#
# Poissons Ratio (x) = 0.97087 0.38668
# Poissons Ratio (y) = 0.28307 -0.03233
# Poissons Ratio (z) = 0.31557 -0.09050
#
# Static dielectric constant tensor:
#      x y z
#    x 4.477930 -0.130410 0.229320 
#    y -0.130410 5.395530 -0.144360 
#    z 0.229320 -0.144360 4.273060 
# 
# 
# High freq. dielectric constant tensor:
#      x y z
#    x 1.917680 -0.002140 0.020610 
#    y -0.002140 1.967040 -0.005540 
#    z 0.020610 -0.005540 1.926490 
# 
# From -- ./inp_files/497358.got.cif
#   From: 2010.06.25/outbox.cif.g09.slc.cpg/sg2_249_cif.got.tgz:497358.got - 2010.06.27 13:26:56.
