data_PCOD8040062
_publ_section_title
;
Structure prediction by ZEFSAII (Michael W. Deem and Ramdas Pophale) SiO2 
 PCOD8040062
Probable space group: P -1
;
_chemical_formula_sum "Si O2"
_cell_formula_units_Z 16
_cell_length_a 7.815291
_cell_length_b 12.407887
_cell_length_c 14.023397
_cell_angle_alpha 71.234860
_cell_angle_beta 38.093076
_cell_angle_gamma 95.609935
_cell_volume 635.040785
_symmetry_space_group_name_H-M "P -1"
_symmetry_group_IT_number 2
_symmetry_cell_setting 'triclinic'
loop_
_space_group_symop_operation_xyz
x,y,z
-x,-y,-z
loop_
_atom_site_type_symbol
_atom_site_label
_atom_site_fract_x
_atom_site_fract_y
_atom_site_fract_z
Si Si1 0.217832 0.012978 0.518479
Si Si2 0.441087 0.736026 0.217733
Si Si3 0.820730 0.005985 0.241649
Si Si4 0.203256 0.402767 0.844076
Si Si5 0.075229 0.606680 0.225741
Si Si6 0.293582 0.288561 0.196658
Si Si7 0.573448 0.322595 0.253773
Si Si8 0.302924 0.709915 0.492510
O O1 0.537338 0.027568 0.320492
O O2 0.264400 0.160034 0.461611
O O3 0.154515 0.955581 0.670140
O O4 0.855061 0.878153 0.669787
O O5 0.516677 0.621907 0.241226
O O6 0.172997 0.690026 0.260431
O O7 0.261276 0.739821 0.391554
O O8 0.804517 0.890418 0.000304
O O9 0.680631 0.842819 0.327723
O O10 0.371811 0.571840 0.716200
O O11 0.041001 0.339034 0.826669
O O12 0.916615 0.334012 0.073587
O O13 0.759993 0.440744 0.428314
O O14 0.438508 0.635502 0.029709
O O15 0.487967 0.375247 0.182217
O O16 0.973677 0.294362 0.316512
#
# Coordination Sequence:
#
# PCOD8040062 Si02
#       8
#     2   2   2   2   2   2   2   2
#     4  10  18  35  62  92 121 160 209 259 309 362
#     4  12  23  44  65  89 133 166 202 256 313 372
#     4  10  21  37  61  92 123 164 209 252 308 373
#     4  10  23  38  63  94 123 166 205 257 311 367
#     4  11  23  42  65  92 126 162 212 260 304 364
#     4  10  21  37  62  96 124 160 210 258 309 364
#     4  10  19  36  60  94 128 154 208 266 309 356
#     4  11  24  39  64  93 124 170 205 250 315 374
#
# _framework density 25.195231
#
# number of rings (size 3 to 8) (size 9 to 14) (size 15 to 20)
#    0.000    1.500    2.500    3.000    0.000    2.500 
#    0.000    1.250    0.000    2.250    0.000    0.000 
#    0.000    0.000    0.000    0.000    0.000    0.000 
#
# Total GULP energy -198258.670709 kJ/mol
# GULP energy per Si atom -12391.166919 kJ/mol
# Density = 2.513789 g / cm^3
# Si number density = 25.195231 Si / 1000 Ang^3
#
#
#
# Elastic Constant Matrix: (Units=GPa)
#
#
# Indices 1 2 3 4 5 6 
#
# 1 66.6718 13.0574 -9.5457 -1.9492 2.1695 22.5533
# 2 13.0574 63.2888 24.7179 -20.3515 -6.1115 18.3025
# 3 -9.5457 24.7179 92.3349 -21.6504 6.4017 7.3659
# 4 -1.9492 -20.3515 -21.6504 42.4399 8.6791 2.5410
# 5 2.1695 -6.1115 6.4017 8.6791 21.0595 0.4400
# 6 22.5533 18.3025 7.3659 2.5410 0.4400 35.7980
#
#
#
# Elastic Compliance Matrix: (Units=1/GPa)
#
#
# Indices 1 2 3 4 5 6 
#
# 1 0.021073 -0.001294 0.005241 0.005073 -0.005938 -0.013981
# 2 -0.001294 0.024414 -0.003873 0.009391 0.004767 -0.011595
# 3 0.005241 -0.003873 0.015505 0.008601 -0.009817 -0.005002
# 4 0.005073 0.009391 0.008601 0.036526 -0.015210 -0.012173
# 5 -0.005938 0.004767 -0.009817 -0.015210 0.058655 0.003682
# 6 -0.013981 -0.011595 -0.005002 -0.012173 0.003682 0.044519
#
#
# Mechanical properties :
#
#
# Convention : Reuss Voigt Hill
#
# Bulk Modulus (GPa) = 16.35552 30.97276 23.66414
# Shear Modulus (GPa) = 22.63226 32.79722 27.71474
#
# Velocity S-wave (km/s) = 3.00038 3.61185 3.32022
# Velocity P-wave (km/s) = 4.30216 5.45103 4.91032
#
# Compressibility (1/GPa) = 0.06114142
#
# Stress axis : x y z
#
# Youngs Moduli (GPa) = 47.45302 40.96076 64.49520
#
# Poissons Ratio (x) = 0.05300 -0.33805
# Poissons Ratio (y) = 0.06141 0.24977
# Poissons Ratio (z) = -0.24872 0.15863
#
# Static dielectric constant tensor:
#      x y z
#    x 4.187250 0.417210 -0.022280 
#    y 0.417210 4.337300 -0.130210 
#    z -0.022280 -0.130210 4.650120 
# 
# 
# High freq. dielectric constant tensor:
#      x y z
#    x 1.982180 0.033240 0.002200 
#    y 0.033240 1.987770 -0.011790 
#    z 0.002200 -0.011790 2.011680 
# 
# From -- ./inp_files/358833.got.cif
#   From: 2010.06.25/outbox.cif.g09.slc.cpg/sg2_180_cif.got.tgz:358833.got - 2010.06.27 13:26:56.
