data_PCOD8040358
_publ_section_title
;
Structure prediction by ZEFSAII (Michael W. Deem and Ramdas Pophale) SiO2 
 PCOD8040358
Probable space group: P -1
;
_chemical_formula_sum "Si O2"
_cell_formula_units_Z 14
_cell_length_a 20.586547
_cell_length_b 8.968273
_cell_length_c 9.889428
_cell_angle_alpha 55.830628
_cell_angle_beta 45.782559
_cell_angle_gamma 31.926725
_cell_volume 689.814407
_symmetry_space_group_name_H-M "P -1"
_symmetry_group_IT_number 2
_symmetry_cell_setting 'triclinic'
loop_
_space_group_symop_operation_xyz
x,y,z
-x,-y,-z
loop_
_atom_site_type_symbol
_atom_site_label
_atom_site_fract_x
_atom_site_fract_y
_atom_site_fract_z
Si Si1 0.160269 0.792760 0.409063
Si Si2 0.662411 0.793299 0.625267
Si Si3 0.185870 0.369341 0.247051
Si Si4 0.415046 0.917998 0.940465
Si Si5 0.642318 0.316991 0.033455
Si Si6 0.123319 0.070815 0.586262
Si Si7 0.342587 0.783946 0.633977
O O1 0.237472 0.483158 0.473433
O O2 0.231757 0.799396 0.182823
O O3 0.176028 0.873449 0.484650
O O4 0.000000 0.000000 0.500000
O O5 0.712159 0.688963 0.762433
O O6 0.501998 0.965873 0.756275
O O7 0.675830 0.973462 0.460311
O O8 0.140545 0.253067 0.438471
O O9 0.044296 0.705877 0.251972
O O10 0.267346 0.209897 0.070243
O O11 0.500607 0.656116 0.052764
O O12 0.388513 0.843118 0.881584
O O13 0.686770 0.252045 0.157709
O O14 0.224502 0.867967 0.669105
O O15 0.500000 0.500000 0.500000
#
# Coordination Sequence:
#
# PCOD8040358 Si02
#       7
#     2   2   2   2   2   2   2
#     4  11  21  42  68  95 123 162 218 261 299 380
#     4  10  22  36  67  93 124 159 217 254 310 362
#     4  10  18  36  62  92 118 164 214 252 304 371
#     4  10  20  37  66  93 121 161 222 256 297 377
#     4  10  22  39  65  93 124 168 206 257 323 366
#     4  10  21  38  63  88 126 168 205 255 317 366
#     4  11  25  43  62  93 135 165 200 262 326 371
#
# _framework density 20.295314999999999
#
# number of rings (size 3 to 8) (size 9 to 14) (size 15 to 20)
#    0.000    1.714    2.857    2.143    4.000    1.714 
#    0.000    3.571    0.000    0.000    0.000    0.000 
#    0.000    0.000    0.000    0.000    0.000    0.000 
#
# Total GULP energy -173609.236416 kJ/mol
# GULP energy per Si atom -12400.659744 kJ/mol
# Density = 2.024912 g / cm^3
# Si number density = 20.295315 Si / 1000 Ang^3
#
#
#
# Elastic Constant Matrix: (Units=GPa)
#
#
# Indices 1 2 3 4 5 6 
#
# 1 115.7626 36.8571 50.4368 2.7484 16.6201 -6.2692
# 2 36.8571 97.6783 53.6789 22.7267 13.5078 -4.7338
# 3 50.4368 53.6789 94.0962 18.9151 15.7169 -5.6382
# 4 2.7484 22.7267 18.9151 32.9270 -2.4957 -2.4334
# 5 16.6201 13.5078 15.7169 -2.4957 38.4005 1.2863
# 6 -6.2692 -4.7338 -5.6382 -2.4334 1.2863 33.2481
#
#
#
# Elastic Compliance Matrix: (Units=1/GPa)
#
#
# Indices 1 2 3 4 5 6 
#
# 1 0.011971 -0.001894 -0.005613 0.003479 -0.002037 0.001369
# 2 -0.001894 0.016761 -0.006432 -0.007906 -0.002973 0.000475
# 3 -0.005613 -0.006432 0.019247 -0.006352 -0.003631 0.000965
# 4 0.003479 -0.007906 -0.006352 0.039755 0.006421 0.001114
# 5 -0.002037 -0.002973 -0.003631 0.006421 0.029943 -0.002112
# 6 0.001369 0.000475 0.000965 0.001114 -0.002112 0.030730
#
#
# Mechanical properties :
#
#
# Convention : Reuss Voigt Hill
#
# Bulk Modulus (GPa) = 49.75116 65.49806 57.62461
# Shear Modulus (GPa) = 27.32482 32.01940 29.67211
#
# Velocity S-wave (km/s) = 3.67326 3.97630 3.82778
# Velocity P-wave (km/s) = 6.52359 7.30916 6.92752
#
# Compressibility (1/GPa) = 0.02010003
#
# Stress axis : x y z
#
# Youngs Moduli (GPa) = 83.53491 59.66396 51.95673
#
# Poissons Ratio (x) = 0.11298 0.29166
# Poissons Ratio (y) = 0.15818 0.33419
# Poissons Ratio (z) = 0.46892 0.38376
#
# Static dielectric constant tensor:
#      x y z
#    x 4.046440 -0.029160 -0.121110 
#    y -0.029160 3.730110 0.115280 
#    z -0.121110 0.115280 3.147290 
# 
# 
# High freq. dielectric constant tensor:
#      x y z
#    x 1.811180 0.009500 -0.005840 
#    y 0.009500 1.789430 0.024140 
#    z -0.005840 0.024140 1.767550 
# 
# From -- ./inp_files/175890.got.cif
#   From: 2010.06.25/outbox.cif.g09.slc.cpg/sg2_88_cif.got.tgz:175890.got - 2010.06.27 13:26:56.
