data_PCOD8040160
_publ_section_title
;
Structure prediction by ZEFSAII (Michael W. Deem and Ramdas Pophale) SiO2 
 PCOD8040160
Probable space group: P -1
;
_chemical_formula_sum "Si O2"
_cell_formula_units_Z 16
_cell_length_a 7.568225
_cell_length_b 8.502685
_cell_length_c 16.316799
_cell_angle_alpha 107.364256
_cell_angle_beta 99.226463
_cell_angle_gamma 126.678784
_cell_volume 720.797014
_symmetry_space_group_name_H-M "P -1"
_symmetry_group_IT_number 2
_symmetry_cell_setting 'triclinic'
loop_
_space_group_symop_operation_xyz
x,y,z
-x,-y,-z
loop_
_atom_site_type_symbol
_atom_site_label
_atom_site_fract_x
_atom_site_fract_y
_atom_site_fract_z
Si Si1 0.660588 0.233331 0.201063
Si Si2 0.072881 0.774216 0.638023
Si Si3 0.354436 0.441871 0.694283
Si Si4 0.605233 0.243420 0.916324
Si Si5 0.178714 0.160400 0.788653
Si Si6 0.040149 0.426707 0.865347
Si Si7 0.547431 0.383183 0.547922
Si Si8 0.125635 0.904928 0.481229
O O1 0.730269 0.185956 0.283237
O O2 0.515179 0.304341 0.231481
O O3 0.888818 0.433316 0.191475
O O4 0.480179 0.995910 0.102499
O O5 0.175718 0.852674 0.565014
O O6 0.828776 0.506305 0.576414
O O7 0.006369 0.910898 0.695300
O O8 0.357207 0.332720 0.757332
O O9 0.514115 0.440537 0.643097
O O10 0.075334 0.317741 0.623413
O O11 0.362600 0.200420 0.876137
O O12 0.785284 0.341603 0.865931
O O13 0.742398 0.410233 0.028326
O O14 0.018646 0.214293 0.818159
O O15 0.500000 0.500000 0.500000
O O16 0.381597 0.111650 0.484930
O O17 0.000000 0.000000 0.500000
#
# Coordination Sequence:
#
# PCOD8040160 Si02
#       8
#     2   2   2   2   2   2   2   2
#     4  10  24  38  57  86 115 147 190 249 283 340
#     4  11  21  35  57  83 112 151 194 232 286 335
#     4  10  20  37  56  80 116 149 194 236 280 336
#     4  10  22  41  62  86 118 151 186 243 296 348
#     4  10  20  38  62  86 117 151 195 241 281 346
#     4  10  22  41  62  86 117 152 190 233 302 353
#     4  11  19  33  59  78 107 158 193 228 284 336
#     4  10  18  36  53  78 117 150 188 239 280 330
#
# _framework density 22.197651
#
# number of rings (size 3 to 8) (size 9 to 14) (size 15 to 20)
#    0.000    1.750    5.000    0.750    3.500    0.500 
#    0.000    0.625    0.000    7.500    0.000    0.875 
#    0.000    0.000    0.000    0.000    0.000    0.000 
#
# Total GULP energy -198244.488115 kJ/mol
# GULP energy per Si atom -12390.280507 kJ/mol
# Density = 2.214713 g / cm^3
# Si number density = 22.197651 Si / 1000 Ang^3
#
#
#
# Elastic Constant Matrix: (Units=GPa)
#
#
# Indices 1 2 3 4 5 6 
#
# 1 25.4471 4.6032 -2.2913 -2.6906 -1.5253 -1.6776
# 2 4.6032 97.8782 12.9307 1.3865 1.7746 2.8736
# 3 -2.2913 12.9307 56.1621 -6.6448 2.1389 -5.9311
# 4 -2.6906 1.3865 -6.6448 34.9362 0.4674 3.6527
# 5 -1.5253 1.7746 2.1389 0.4674 25.5149 5.1589
# 6 -1.6776 2.8736 -5.9311 3.6527 5.1589 24.8972
#
#
#
# Elastic Compliance Matrix: (Units=1/GPa)
#
#
# Indices 1 2 3 4 5 6 
#
# 1 0.040655 -0.002454 0.002867 0.003454 0.001723 0.002842
# 2 -0.002454 0.010788 -0.002890 -0.000964 -0.000252 -0.001905
# 3 0.002867 -0.002890 0.019647 0.003563 -0.002387 0.005179
# 4 0.003454 -0.000964 0.003563 0.029941 0.000077 -0.003216
# 5 0.001723 -0.000252 -0.002387 0.000077 0.041332 -0.008999
# 6 0.002842 -0.001905 0.005179 -0.003216 -0.008999 0.044147
#
#
# Mechanical properties :
#
#
# Convention : Reuss Voigt Hill
#
# Bulk Modulus (GPa) = 15.12033 23.33028 19.22531
# Shear Modulus (GPa) = 23.41822 28.01932 25.71877
#
# Velocity S-wave (km/s) = 3.25158 3.55669 3.40755
# Velocity P-wave (km/s) = 4.57422 5.23448 4.91545
#
# Compressibility (1/GPa) = 0.06613612
#
# Stress axis : x y z
#
# Youngs Moduli (GPa) = 24.59719 92.69456 50.89772
#
# Poissons Ratio (x) = 0.22750 -0.14592
# Poissons Ratio (y) = 0.06037 0.14708
# Poissons Ratio (z) = -0.07052 0.26786
#
# Static dielectric constant tensor:
#      x y z
#    x 3.093080 -0.582210 -0.185950 
#    y -0.582210 4.132540 0.305670 
#    z -0.185950 0.305670 4.238850 
# 
# 
# High freq. dielectric constant tensor:
#      x y z
#    x 1.838920 -0.011520 -0.007140 
#    y -0.011520 1.887270 0.003680 
#    z -0.007140 0.003680 1.874990 
# 
# From -- ./inp_files/196750.got.cif
#   From: 2010.06.25/outbox.cif.g09.slc.cpg/sg2_99_cif.got.tgz:196750.got - 2010.06.27 13:26:56.
