data_PCOD8040913
_publ_section_title
;
Structure prediction by ZEFSAII (Michael W. Deem and Ramdas Pophale) SiO2 
 PCOD8040913
Probable space group: P -1
;
_chemical_formula_sum "Si O2"
_cell_formula_units_Z 16
_cell_length_a 8.329043
_cell_length_b 9.040012
_cell_length_c 18.820835
_cell_angle_alpha 64.171787
_cell_angle_beta 138.380545
_cell_angle_gamma 128.797373
_cell_volume 732.083758
_symmetry_space_group_name_H-M "P -1"
_symmetry_group_IT_number 2
_symmetry_cell_setting 'triclinic'
loop_
_space_group_symop_operation_xyz
x,y,z
-x,-y,-z
loop_
_atom_site_type_symbol
_atom_site_label
_atom_site_fract_x
_atom_site_fract_y
_atom_site_fract_z
Si Si1 0.852535 0.248865 0.191153
Si Si2 0.855008 0.434852 0.889783
Si Si3 0.777372 0.034906 0.958308
Si Si4 0.945140 0.992780 0.172876
Si Si5 0.283573 0.726977 0.458596
Si Si6 0.711585 0.620195 0.244958
Si Si7 0.461106 0.913960 0.619505
Si Si8 0.934502 0.359463 0.348614
O O1 0.931114 0.100741 0.215284
O O2 0.008753 0.314780 0.305161
O O3 0.943272 0.429969 0.133173
O O4 0.522499 0.147432 0.116992
O O5 0.572091 0.447098 0.791190
O O6 0.786733 0.223243 0.892736
O O7 0.000000 0.500000 0.000000
O O8 0.841566 0.063258 0.057457
O O9 0.000000 0.000000 0.000000
O O10 0.259392 0.037474 0.255664
O O11 0.735374 0.766334 0.160479
O O12 0.396160 0.753977 0.570670
O O13 0.992298 0.733620 0.362897
O O14 0.218472 0.524370 0.446409
O O15 0.508739 0.897725 0.447184
O O16 0.712963 0.436445 0.251104
O O17 0.208395 0.829663 0.610219
#
# Coordination Sequence:
#
# PCOD8040913 Si02
#       8
#     2   2   2   2   2   2   2   2
#     4  12  25  40  61  90 129 163 201 253 307 357
#     4  12  24  41  62  86 121 166 207 250 301 360
#     4  12  27  41  61  91 121 163 207 253 303 362
#     4  11  21  42  61  88 124 162 203 253 306 363
#     4   8  20  37  67  96 114 159 208 250 296 370
#     4   9  21  40  62  85 123 155 207 246 297 362
#     4  10  18  39  70  87 123 159 203 250 311 352
#     4  10  22  37  62  94 120 159 204 251 299 362
#
# _framework density 21.855422999999998
#
# number of rings (size 3 to 8) (size 9 to 14) (size 15 to 20)
#    0.750    0.750    2.500    3.000    3.500    1.500 
#    0.000    0.625    0.000    2.250    0.000    0.000 
#    0.000    0.000    0.000    0.000    0.000    0.000 
#
# Total GULP energy -198380.008594 kJ/mol
# GULP energy per Si atom -12398.750537 kJ/mol
# Density = 2.180568 g / cm^3
# Si number density = 21.855423 Si / 1000 Ang^3
#
#
#
# Elastic Constant Matrix: (Units=GPa)
#
#
# Indices 1 2 3 4 5 6 
#
# 1 68.3917 33.3595 -1.3236 4.0637 -18.3225 10.9943
# 2 33.3595 92.5413 8.3404 3.9397 -9.7467 28.4705
# 3 -1.3236 8.3404 48.9364 11.3407 -18.5967 13.3730
# 4 4.0637 3.9397 11.3407 33.7176 -1.3837 -0.6650
# 5 -18.3225 -9.7467 -18.5967 -1.3837 35.1000 -4.4423
# 6 10.9943 28.4705 13.3730 -0.6650 -4.4423 40.0744
#
#
#
# Elastic Compliance Matrix: (Units=1/GPa)
#
#
# Indices 1 2 3 4 5 6 
#
# 1 0.022389 -0.006207 0.008946 -0.004466 0.014119 -0.003227
# 2 -0.006207 0.016102 0.000064 -0.001349 -0.000026 -0.009783
# 3 0.008946 0.000064 0.034778 -0.012152 0.021120 -0.011966
# 4 -0.004466 -0.001349 -0.012152 0.034272 -0.007030 0.006028
# 5 0.014119 -0.000026 0.021120 -0.007030 0.046016 -0.005918
# 6 -0.003227 -0.009783 -0.011966 0.006028 -0.005918 0.036226
#
#
# Mechanical properties :
#
#
# Convention : Reuss Voigt Hill
#
# Bulk Modulus (GPa) = 12.67852 32.29134 22.48493
# Shear Modulus (GPa) = 23.75633 33.07795 28.41714
#
# Velocity S-wave (km/s) = 3.30051 3.89458 3.60979
# Velocity P-wave (km/s) = 4.50979 5.91868 5.26160
#
# Compressibility (1/GPa) = 0.07887356
#
# Stress axis : x y z
#
# Youngs Moduli (GPa) = 44.66463 62.10264 28.75408
#
# Poissons Ratio (x) = 0.38549 -0.25722
# Poissons Ratio (y) = 0.27724 -0.00184
# Poissons Ratio (z) = -0.39955 -0.00396
#
# Static dielectric constant tensor:
#      x y z
#    x 3.618700 0.256120 -0.012870 
#    y 0.256120 4.065020 0.101600 
#    z -0.012870 0.101600 3.755280 
# 
# 
# High freq. dielectric constant tensor:
#      x y z
#    x 1.834760 0.022400 -0.003160 
#    y 0.022400 1.871280 0.005880 
#    z -0.003160 0.005880 1.844700 
# 
# From -- ./inp_files/503650.got.cif
#   From: 2010.06.25/outbox.cif.g09.slc.cpg/sg2_252_cif.got.tgz:503650.got - 2010.06.27 13:26:56.
