data_PCOD8040841
_publ_section_title
;
Structure prediction by ZEFSAII (Michael W. Deem and Ramdas Pophale) SiO2 
 PCOD8040841
Probable space group: P -1
;
_chemical_formula_sum "Si O2"
_cell_formula_units_Z 16
_cell_length_a 12.130359
_cell_length_b 8.999541
_cell_length_c 17.475646
_cell_angle_alpha 110.132804
_cell_angle_beta 78.771669
_cell_angle_gamma 41.688707
_cell_volume 822.444717
_symmetry_space_group_name_H-M "P -1"
_symmetry_group_IT_number 2
_symmetry_cell_setting 'triclinic'
loop_
_space_group_symop_operation_xyz
x,y,z
-x,-y,-z
loop_
_atom_site_type_symbol
_atom_site_label
_atom_site_fract_x
_atom_site_fract_y
_atom_site_fract_z
Si Si1 0.085172 0.129781 0.560929
Si Si2 0.160859 0.389458 0.185767
Si Si3 0.677579 0.595908 0.958703
Si Si4 0.997396 0.264429 0.213500
Si Si5 0.794251 0.241733 0.012588
Si Si6 0.103704 0.762625 0.544156
Si Si7 0.696086 0.257539 0.799007
Si Si8 0.437522 0.259534 0.552819
O O1 0.898354 0.422188 0.702053
O O2 0.939459 0.312245 0.531689
O O3 0.182119 0.832850 0.511121
O O4 0.325449 0.936190 0.495569
O O5 0.142273 0.510743 0.130219
O O6 0.970368 0.481099 0.228746
O O7 0.430364 0.988839 0.083549
O O8 0.638758 0.487040 0.894907
O O9 0.795687 0.396656 0.987211
O O10 0.745352 0.490695 0.306303
O O11 0.148856 0.069030 0.236454
O O12 0.157786 0.975779 0.079598
O O13 0.553825 0.518605 0.143654
O O14 0.000000 0.000000 0.000000
O O15 0.309281 0.458953 0.523953
O O16 0.839641 0.119838 0.678859
O O17 0.500000 0.000000 0.500000
#
# Coordination Sequence:
#
# PCOD8040841 Si02
#       8
#     2   2   2   2   2   2   2   2
#     4  11  23  42  63  90 125 163 206 251 305 366
#     4  11  19  37  65  87 114 153 203 246 303 353
#     4  10  20  37  64  86 111 154 197 244 294 363
#     4  10  20  38  59  85 117 158 201 244 295 358
#     4  11  22  37  58  90 120 155 194 244 304 357
#     4  10  24  42  62  91 122 165 208 248 303 370
#     4  10  18  39  62  82 114 158 199 239 291 362
#     4  11  23  40  63  90 122 161 205 255 306 354
#
# _framework density 19.454197000000001
#
# number of rings (size 3 to 8) (size 9 to 14) (size 15 to 20)
#    0.000    1.500    5.000    1.125    1.750    0.500 
#    2.250    0.625    0.000    0.000    0.000    0.000 
#    0.000    0.000    0.000    0.000    0.000    0.000 
#
# Total GULP energy -198258.992576 kJ/mol
# GULP energy per Si atom -12391.187036 kJ/mol
# Density = 1.940992 g / cm^3
# Si number density = 19.454197 Si / 1000 Ang^3
#
#
#
# Elastic Constant Matrix: (Units=GPa)
#
#
# Indices 1 2 3 4 5 6 
#
# 1 109.9749 56.1131 34.7073 -5.6228 -20.4267 10.2232
# 2 56.1131 94.0507 20.6292 -3.5111 -7.8515 6.8563
# 3 34.7073 20.6292 92.3809 -1.5489 -10.0285 -2.7153
# 4 -5.6228 -3.5111 -1.5489 22.0438 5.7710 0.0320
# 5 -20.4267 -7.8515 -10.0285 5.7710 30.5173 1.7497
# 6 10.2232 6.8563 -2.7153 0.0320 1.7497 26.2410
#
#
#
# Elastic Compliance Matrix: (Units=1/GPa)
#
#
# Indices 1 2 3 4 5 6 
#
# 1 0.016185 -0.007809 -0.003630 0.000591 0.007816 -0.005163
# 2 -0.007809 0.015412 -0.000695 0.000832 -0.001593 -0.000951
# 3 -0.003630 -0.000695 0.012576 -0.000541 0.001466 0.002800
# 4 0.000591 0.000832 -0.000541 0.047866 -0.008621 0.000013
# 5 0.007816 -0.001593 0.001466 -0.008621 0.039996 -0.005133
# 6 -0.005163 -0.000951 0.002800 0.000013 -0.005133 0.041000
#
#
# Mechanical properties :
#
#
# Convention : Reuss Voigt Hill
#
# Bulk Modulus (GPa) = 50.23965 57.70061 53.97013
# Shear Modulus (GPa) = 24.51729 28.09088 26.30408
#
# Velocity S-wave (km/s) = 3.55386 3.80406 3.68108
# Velocity P-wave (km/s) = 6.53610 7.00133 6.77271
#
# Compressibility (1/GPa) = 0.01990460
#
# Stress axis : x y z
#
# Youngs Moduli (GPa) = 61.78567 64.88658 79.51619
#
# Poissons Ratio (x) = 0.50672 0.28866
# Poissons Ratio (y) = 0.48250 0.05522
# Poissons Ratio (z) = 0.22430 0.04506
#
# Static dielectric constant tensor:
#      x y z
#    x 3.659580 0.334940 -0.391550 
#    y 0.334940 3.586470 -0.162710 
#    z -0.391550 -0.162710 4.165370 
# 
# 
# High freq. dielectric constant tensor:
#      x y z
#    x 1.748420 0.024040 -0.010450 
#    y 0.024040 1.744240 -0.002770 
#    z -0.010450 -0.002770 1.773780 
# 
# From -- ./inp_files/176385.got.cif
#   From: 2010.06.25/outbox.cif.g09.slc.cpg/sg2_89_cif.got.tgz:176385.got - 2010.06.27 13:26:56.
