data_PCOD8040489
_publ_section_title
;
Structure prediction by ZEFSAII (Michael W. Deem and Ramdas Pophale) SiO2 
 PCOD8040489
Probable space group: P -1
;
_chemical_formula_sum "Si O2"
_cell_formula_units_Z 14
_cell_length_a 11.783366
_cell_length_b 12.112224
_cell_length_c 12.069441
_cell_angle_alpha 142.978112
_cell_angle_beta 124.399578
_cell_angle_gamma 43.540070
_cell_volume 714.093606
_symmetry_space_group_name_H-M "P -1"
_symmetry_group_IT_number 2
_symmetry_cell_setting 'triclinic'
loop_
_space_group_symop_operation_xyz
x,y,z
-x,-y,-z
loop_
_atom_site_type_symbol
_atom_site_label
_atom_site_fract_x
_atom_site_fract_y
_atom_site_fract_z
Si Si1 0.769233 0.522185 0.840874
Si Si2 0.128542 0.029964 0.031932
Si Si3 0.521313 0.340445 0.066399
Si Si4 0.405310 0.834315 0.418962
Si Si5 0.353655 0.026187 0.316548
Si Si6 0.188263 0.883769 0.539290
Si Si7 0.075600 0.221909 0.925291
O O1 0.593590 0.687060 0.933172
O O2 0.741905 0.374988 0.620405
O O3 0.900647 0.368366 0.885218
O O4 0.830560 0.653759 0.914586
O O5 0.189214 0.142556 0.242704
O O6 0.040505 0.181541 0.998042
O O7 0.289422 0.794936 0.893314
O O8 0.000000 0.000000 0.000000
O O9 0.453789 0.594332 0.216354
O O10 0.517827 0.225493 0.858059
O O11 0.311481 0.005665 0.403775
O O12 0.283160 0.925265 0.528875
O O13 0.569260 0.828263 0.534272
O O14 0.198607 0.990404 0.744326
O O15 0.000000 0.000000 0.500000
#
# Coordination Sequence:
#
# PCOD8040489 Si02
#       7
#     2   2   2   2   2   2   2
#     4   9  19  36  61  85 104 152 196 231 271 331
#     4  10  24  39  57  84 120 154 178 236 302 330
#     4   9  20  36  58  84 109 150 190 232 282 331
#     4  10  18  37  59  85 111 145 205 227 268 341
#     4   9  21  35  58  83 112 152 187 238 277 329
#     4   9  19  32  57  85 110 143 185 239 274 322
#     4  10  20  38  57  83 118 145 187 235 283 335
#
# _framework density 19.605273
#
# number of rings (size 3 to 8) (size 9 to 14) (size 15 to 20)
#    0.857    1.714    0.000    1.286    6.000    0.571 
#    2.571    5.000    0.000    0.000    0.000    0.000 
#    0.000    0.000    0.000    0.000    0.000    0.000 
#
# Total GULP energy -173475.318001 kJ/mol
# GULP energy per Si atom -12391.094143 kJ/mol
# Density = 1.956065 g / cm^3
# Si number density = 19.605273 Si / 1000 Ang^3
#
#
#
# Elastic Constant Matrix: (Units=GPa)
#
#
# Indices 1 2 3 4 5 6 
#
# 1 142.3260 39.8473 34.6226 0.6164 6.2118 14.4289
# 2 39.8473 53.7277 14.6141 -8.6903 -1.1694 13.6410
# 3 34.6226 14.6141 88.5805 -5.9501 8.0191 16.3730
# 4 0.6164 -8.6903 -5.9501 20.1371 2.3991 -3.4130
# 5 6.2118 -1.1694 8.0191 2.3991 26.6586 3.9746
# 6 14.4289 13.6410 16.3730 -3.4130 3.9746 32.2452
#
#
#
# Elastic Compliance Matrix: (Units=1/GPa)
#
#
# Indices 1 2 3 4 5 6 
#
# 1 0.009799 -0.007149 -0.002759 -0.004075 -0.001367 -0.000222
# 2 -0.007149 0.027632 0.000106 0.010485 0.003067 -0.007812
# 3 -0.002759 0.000106 0.013813 0.003724 -0.003090 -0.005049
# 4 -0.004075 0.010485 0.003724 0.056371 -0.005096 0.002092
# 5 -0.001367 0.003067 -0.003090 -0.005096 0.040037 -0.004591
# 6 -0.000222 -0.007812 -0.005049 0.002092 -0.004591 0.037768
#
#
# Mechanical properties :
#
#
# Convention : Reuss Voigt Hill
#
# Bulk Modulus (GPa) = 31.60625 51.42247 41.51436
# Shear Modulus (GPa) = 23.19417 28.84489 26.01953
#
# Velocity S-wave (km/s) = 3.44329 3.83989 3.64699
# Velocity P-wave (km/s) = 5.65373 6.77831 6.24140
#
# Compressibility (1/GPa) = 0.03163931
#
# Stress axis : x y z
#
# Youngs Moduli (GPa) = 102.05323 36.18990 72.39395
#
# Poissons Ratio (x) = 0.25873 0.19977
# Poissons Ratio (y) = 0.72961 -0.00770
# Poissons Ratio (z) = 0.28161 -0.00385
#
# Static dielectric constant tensor:
#      x y z
#    x 2.759020 0.106300 -0.975940 
#    y 0.106300 3.090040 0.229360 
#    z -0.975940 0.229360 2.826760 
# 
# 
# High freq. dielectric constant tensor:
#      x y z
#    x 1.777800 0.001870 0.007480 
#    y 0.001870 1.720040 -0.000710 
#    z 0.007480 -0.000710 1.766910 
# 
# From -- ./inp_files/427003.got.cif
#   From: 2010.06.25/outbox.cif.g09.slc.cpg/sg2_214_cif.got.tgz:427003.got - 2010.06.27 13:26:56.
