data_PCOD8040751
_publ_section_title
;
Structure prediction by ZEFSAII (Michael W. Deem and Ramdas Pophale) SiO2 
 PCOD8040751
Probable space group: P -1
;
_chemical_formula_sum "Si O2"
_cell_formula_units_Z 14
_cell_length_a 23.043399
_cell_length_b 11.117240
_cell_length_c 8.715921
_cell_angle_alpha 40.510358
_cell_angle_beta 32.788054
_cell_angle_gamma 40.703338
_cell_volume 739.191502
_symmetry_space_group_name_H-M "P -1"
_symmetry_group_IT_number 2
_symmetry_cell_setting 'triclinic'
loop_
_space_group_symop_operation_xyz
x,y,z
-x,-y,-z
loop_
_atom_site_type_symbol
_atom_site_label
_atom_site_fract_x
_atom_site_fract_y
_atom_site_fract_z
Si Si1 0.513783 0.505463 0.284655
Si Si2 0.673149 0.123865 0.134824
Si Si3 0.689513 0.412339 0.564577
Si Si4 0.345475 0.283843 0.385469
Si Si5 0.105319 0.549137 0.564286
Si Si6 0.060233 0.650569 0.920812
Si Si7 0.916059 0.041393 0.789502
O O1 0.500000 0.500000 0.500000
O O2 0.599896 0.295740 0.242277
O O3 0.390950 0.545874 0.443235
O O4 0.559115 0.684430 0.968706
O O5 0.621821 0.945585 0.417340
O O6 0.683341 0.217712 0.854896
O O7 0.798627 0.017992 0.022461
O O8 0.649900 0.598866 0.583749
O O9 0.815658 0.390058 0.242706
O O10 0.224885 0.370724 0.479827
O O11 0.070199 0.624764 0.740707
O O12 0.112631 0.744202 0.275143
O O13 0.008540 0.494296 0.737261
O O14 0.979562 0.870104 0.935197
O O15 0.000000 0.000000 0.500000
#
# Coordination Sequence:
#
# PCOD8040751 Si02
#       7
#     2   2   2   2   2   2   2
#     4  11  25  42  54  72 110 156 193 223 265 323
#     4  11  19  34  60  88 109 138 181 231 275 321
#     4  10  21  35  55  84 116 140 177 232 275 317
#     4  10  19  34  59  87 106 137 182 233 276 317
#     4   9  15  25  47  82 115 135 162 211 275 331
#     4   9  16  25  47  83 115 135 162 214 280 330
#     4  10  15  26  49  86 116 135 162 215 281 331
#
# _framework density 18.939612
#
# number of rings (size 3 to 8) (size 9 to 14) (size 15 to 20)
#    0.000    2.000    7.143    1.714    2.000    2.857 
#    0.000    0.000    0.000    1.714    0.000    0.000 
#    0.000    0.000    0.000    0.000    0.000    0.000 
#
# Total GULP energy -173437.208778 kJ/mol
# GULP energy per Si atom -12388.372056 kJ/mol
# Density = 1.889650 g / cm^3
# Si number density = 18.939612 Si / 1000 Ang^3
#
#
#
# Elastic Constant Matrix: (Units=GPa)
#
#
# Indices 1 2 3 4 5 6 
#
# 1 98.7602 35.6077 64.7061 7.6390 -18.5952 -16.7118
# 2 35.6077 78.9359 32.0039 -18.2380 -13.2775 -5.1714
# 3 64.7061 32.0039 81.6002 -18.0045 -28.4592 -2.2975
# 4 7.6390 -18.2380 -18.0045 35.1792 1.3634 -13.9899
# 5 -18.5952 -13.2775 -28.4592 1.3634 22.5279 4.2887
# 6 -16.7118 -5.1714 -2.2975 -13.9899 4.2887 14.9540
#
#
#
# Elastic Compliance Matrix: (Units=1/GPa)
#
#
# Indices 1 2 3 4 5 6 
#
# 1 0.050922 -0.014357 -0.056148 -0.038412 -0.038545 0.018436
# 2 -0.014357 0.023704 0.014178 0.028837 0.015051 0.016993
# 3 -0.056148 0.014178 0.089345 0.058134 0.073413 -0.010786
# 4 -0.038412 0.028837 0.058134 0.104658 0.040544 0.062260
# 5 -0.038545 0.015051 0.073413 0.040544 0.115901 -0.021901
# 6 0.018436 0.016993 -0.010786 0.062260 -0.021901 0.156221
#
#
# Mechanical properties :
#
#
# Convention : Reuss Voigt Hill
#
# Bulk Modulus (GPa) = 19.48666 58.21464 38.85065
# Shear Modulus (GPa) = 7.45699 22.99745 15.22722
#
# Velocity S-wave (km/s) = 1.98640 3.48839 2.83854
# Velocity P-wave (km/s) = 3.94617 6.85776 5.59469
#
# Compressibility (1/GPa) = 0.05131717
#
# Stress axis : x y z
#
# Youngs Moduli (GPa) = 19.63773 42.18675 11.19259
#
# Poissons Ratio (x) = 0.60566 0.62844
# Poissons Ratio (y) = 0.28193 -0.15869
# Poissons Ratio (z) = 1.10262 -0.59812
#
# Static dielectric constant tensor:
#      x y z
#    x 2.322840 -2.329420 0.764020 
#    y -2.329420 -2.789090 3.419090 
#    z 0.764020 3.419090 1.579960 
# 
# 
# High freq. dielectric constant tensor:
#      x y z
#    x 1.685520 -0.019360 -0.046530 
#    y -0.019360 1.743280 -0.014170 
#    z -0.046530 -0.014170 1.729870 
# 
# From -- ./inp_files/253864.got.cif
#   From: 2010.06.25/outbox.cif.g09.slc.cpg/sg2_127_cif.got.tgz:253864.got - 2010.06.27 13:26:56.
