data_PCOD8040265
_publ_section_title
;
Structure prediction by ZEFSAII (Michael W. Deem and Ramdas Pophale) SiO2 
 PCOD8040265
Probable space group: P -1
;
_chemical_formula_sum "Si O2"
_cell_formula_units_Z 10
_cell_length_a 7.557296
_cell_length_b 15.892262
_cell_length_c 10.513055
_cell_angle_alpha 25.171618
_cell_angle_beta 135.093186
_cell_angle_gamma 135.174978
_cell_volume 369.199847
_symmetry_space_group_name_H-M "P -1"
_symmetry_group_IT_number 2
_symmetry_cell_setting 'triclinic'
loop_
_space_group_symop_operation_xyz
x,y,z
-x,-y,-z
loop_
_atom_site_type_symbol
_atom_site_label
_atom_site_fract_x
_atom_site_fract_y
_atom_site_fract_z
Si Si1 0.313473 0.827140 0.219057
Si Si2 0.273750 0.721842 0.614914
Si Si3 0.898642 0.002155 0.663067
Si Si4 0.155169 0.279121 0.201523
Si Si5 0.763693 0.467698 0.626283
O O1 0.434252 0.806004 0.451302
O O2 0.279947 0.604927 0.442400
O O3 0.500000 0.000000 0.000000
O O4 0.037212 0.889929 0.992028
O O5 0.293762 0.883803 0.517336
O O6 0.981860 0.674892 0.471025
O O7 0.328867 0.509583 0.987519
O O8 0.120589 0.160830 0.479471
O O9 0.734607 0.837809 0.702530
O O10 0.863081 0.288234 0.997804
O O11 0.500000 0.500000 0.500000
#
# Coordination Sequence:
#
# PCOD8040265 Si02
#       5
#     2   2   2   2   2
#     4  11  22  36  55  85 114 146 192 231 268 326
#     4  10  20  36  60  83 110 151 185 222 282 331
#     4  10  18  36  60  83 112 144 183 231 281 327
#     4   8  20  34  60  85 111 145 181 228 281 334
#     4   9  19  35  58  81 111 143 185 226 276 329
#
# _framework density 27.085602999999999
#
# number of rings (size 3 to 8) (size 9 to 14) (size 15 to 20)
#    1.200    1.200    0.000    3.000    0.000    0.000 
#    0.000    1.000    0.000    4.800    0.000    0.000 
#    0.000    0.000    0.000    0.000    0.000    0.000 
#
# Total GULP energy -123933.078237 kJ/mol
# GULP energy per Si atom -12393.307824 kJ/mol
# Density = 2.702395 g / cm^3
# Si number density = 27.085603 Si / 1000 Ang^3
#
#
#
# Elastic Constant Matrix: (Units=GPa)
#
#
# Indices 1 2 3 4 5 6 
#
# 1 102.0642 34.8561 17.1890 -13.5064 3.4732 -48.7853
# 2 34.8561 148.5625 54.3632 -11.1256 6.4639 -36.8390
# 3 17.1890 54.3632 134.8338 3.1212 -10.5322 -30.8072
# 4 -13.5064 -11.1256 3.1212 45.1318 -3.8676 6.8689
# 5 3.4732 6.4639 -10.5322 -3.8676 46.4407 -4.3715
# 6 -48.7853 -36.8390 -30.8072 6.8689 -4.3715 53.4427
#
#
#
# Elastic Compliance Matrix: (Units=1/GPa)
#
#
# Indices 1 2 3 4 5 6 
#
# 1 0.018077 -0.000549 0.001788 0.002661 0.000941 0.016888
# 2 -0.000549 0.009010 -0.002849 0.001565 -0.001375 0.003754
# 3 0.001788 -0.002849 0.009932 -0.001489 0.002940 0.005825
# 4 0.002661 0.001565 -0.001489 0.023587 0.001183 -0.000285
# 5 0.000941 -0.001375 0.002940 0.001183 0.022731 0.003313
# 6 0.016888 0.003754 0.005825 -0.000285 0.003313 0.040381
#
#
# Mechanical properties :
#
#
# Convention : Reuss Voigt Hill
#
# Bulk Modulus (GPa) = 29.58716 66.47524 48.03120
# Shear Modulus (GPa) = 36.17784 47.60649 41.89216
#
# Velocity S-wave (km/s) = 3.65867 4.19696 3.93702
# Velocity P-wave (km/s) = 5.36611 6.93411 6.19988
#
# Compressibility (1/GPa) = 0.03379844
#
# Stress axis : x y z
#
# Youngs Moduli (GPa) = 55.31974 110.98351 100.68103
#
# Poissons Ratio (x) = 0.06095 -0.17997
# Poissons Ratio (y) = 0.03038 0.28682
# Poissons Ratio (z) = -0.09889 0.31617
#
# Static dielectric constant tensor:
#      x y z
#    x 4.694210 0.155290 0.241090 
#    y 0.155290 5.006170 0.141960 
#    z 0.241090 0.141960 5.028270 
# 
# 
# High freq. dielectric constant tensor:
#      x y z
#    x 2.096030 0.014010 0.018930 
#    y 0.014010 2.101990 0.008720 
#    z 0.018930 0.008720 2.089110 
# 
# From -- ./inp_files/24277.got.cif
#   From: 2010.06.25/outbox.cif.g09.slc.cpg/sg2_13_cif.got.tgz:24277.got - 2010.06.27 13:26:56.
