data_PCOD8040618
_publ_section_title
;
Structure prediction by ZEFSAII (Michael W. Deem and Ramdas Pophale) SiO2 
 PCOD8040618
Probable space group: P -1
;
_chemical_formula_sum "Si O2"
_cell_formula_units_Z 12
_cell_length_a 14.140162
_cell_length_b 12.320539
_cell_length_c 15.509463
_cell_angle_alpha 152.794029
_cell_angle_beta 155.835413
_cell_angle_gamma 28.559015
_cell_volume 472.288487
_symmetry_space_group_name_H-M "P -1"
_symmetry_group_IT_number 2
_symmetry_cell_setting 'triclinic'
loop_
_space_group_symop_operation_xyz
x,y,z
-x,-y,-z
loop_
_atom_site_type_symbol
_atom_site_label
_atom_site_fract_x
_atom_site_fract_y
_atom_site_fract_z
Si Si1 0.059135 0.862263 0.227347
Si Si2 0.554892 0.447652 0.332031
Si Si3 0.087637 0.715705 0.835849
Si Si4 0.203803 0.071273 0.771699
Si Si5 0.778352 0.399603 0.315425
Si Si6 0.069311 0.502478 0.840327
O O1 0.348560 0.702984 0.376246
O O2 0.906659 0.816568 0.148614
O O3 0.005271 0.159169 0.375225
O O4 0.975068 0.762647 0.999725
O O5 0.539663 0.446157 0.212159
O O6 0.828230 0.440293 0.573904
O O7 0.548588 0.185746 0.188290
O O8 0.276611 0.659665 0.871718
O O9 0.852863 0.650977 0.558424
O O10 0.204800 0.533223 0.886263
O O11 0.000000 0.000000 0.000000
O O12 0.255074 0.289316 0.909853
O O13 0.000000 0.000000 0.500000
#
# Coordination Sequence:
#
# PCOD8040618 Si02
#       6
#     2   2   2   2   2   2
#     4  11  20  38  64  87 119 158 196 245 301 356
#     4   9  21  39  61  88 121 156 194 247 300 351
#     4  10  18  37  65  82 120 166 191 247 307 338
#     4   9  20  38  57  87 123 154 195 247 296 355
#     4   9  20  38  61  89 123 153 199 253 290 353
#     4  10  20  36  60  87 118 156 199 242 295 352
#
# _framework density 25.408200999999998
#
# number of rings (size 3 to 8) (size 9 to 14) (size 15 to 20)
#    0.000    2.333    1.667    1.500    0.000    3.333 
#    0.000   21.667    0.000    0.000    0.000    0.000 
#    0.000    0.000    0.000    0.000    0.000    0.000 
#
# Total GULP energy -148696.893474 kJ/mol
# GULP energy per Si atom -12391.407789 kJ/mol
# Density = 2.535037 g / cm^3
# Si number density = 25.408201 Si / 1000 Ang^3
#
#
#
# Elastic Constant Matrix: (Units=GPa)
#
#
# Indices 1 2 3 4 5 6 
#
# 1 157.7759 43.7702 39.2531 -2.5594 -16.7322 18.2038
# 2 43.7702 140.0562 22.2113 -1.0325 2.2505 9.1528
# 3 39.2531 22.2113 79.4427 22.4682 -21.6417 9.5854
# 4 -2.5594 -1.0325 22.4682 45.1514 7.1521 -7.9570
# 5 -16.7322 2.2505 -21.6417 7.1521 40.0313 2.0594
# 6 18.2038 9.1528 9.5854 -7.9570 2.0594 40.7888
#
#
#
# Elastic Compliance Matrix: (Units=1/GPa)
#
#
# Indices 1 2 3 4 5 6 
#
# 1 0.008104 -0.001911 -0.003084 0.001272 0.001719 -0.002302
# 2 -0.001911 0.008235 -0.002816 0.002020 -0.003156 0.000220
# 3 -0.003084 -0.002816 0.024699 -0.016362 0.015545 -0.007773
# 4 0.001272 0.002020 -0.016362 0.034630 -0.015147 0.010344
# 5 0.001719 -0.003156 0.015545 -0.015147 0.037427 -0.008556
# 6 -0.002302 0.000220 -0.007773 0.010344 -0.008556 0.029771
#
#
# Mechanical properties :
#
#
# Convention : Reuss Voigt Hill
#
# Bulk Modulus (GPa) = 39.34481 65.30488 52.32485
# Shear Modulus (GPa) = 29.94733 43.33032 36.63883
#
# Velocity S-wave (km/s) = 3.43687 4.13409 3.80150
# Velocity P-wave (km/s) = 5.59179 6.96747 6.31719
#
# Compressibility (1/GPa) = 0.02541631
#
# Stress axis : x y z
#
# Youngs Moduli (GPa) = 123.39488 121.43147 40.48776
#
# Poissons Ratio (x) = 0.23211 0.12485
# Poissons Ratio (y) = 0.23586 0.11400
# Poissons Ratio (z) = 0.38052 0.34191
#
# Static dielectric constant tensor:
#      x y z
#    x 5.170820 0.721900 -0.107810 
#    y 0.721900 4.686920 0.206290 
#    z -0.107810 0.206290 4.748290 
# 
# 
# High freq. dielectric constant tensor:
#      x y z
#    x 2.028810 0.026910 -0.008190 
#    y 0.026910 2.007660 0.002440 
#    z -0.008190 0.002440 2.034120 
# 
# From -- ./inp_files/49601.got.cif
#   From: 2010.06.25/outbox.cif.g09.slc.cpg/sg2_25_cif.got.tgz:49601.got - 2010.06.27 13:26:56.
