data_PCOD8040425
_publ_section_title
;
Structure prediction by ZEFSAII (Michael W. Deem and Ramdas Pophale) SiO2 
 PCOD8040425
Probable space group: P -1
;
_chemical_formula_sum "Si O2"
_cell_formula_units_Z 16
_cell_length_a 20.268167
_cell_length_b 14.941828
_cell_length_c 11.577373
_cell_angle_alpha 50.466952
_cell_angle_beta 152.152463
_cell_angle_gamma 148.886387
_cell_volume 733.355258
_symmetry_space_group_name_H-M "P -1"
_symmetry_group_IT_number 2
_symmetry_cell_setting 'triclinic'
loop_
_space_group_symop_operation_xyz
x,y,z
-x,-y,-z
loop_
_atom_site_type_symbol
_atom_site_label
_atom_site_fract_x
_atom_site_fract_y
_atom_site_fract_z
Si Si1 0.666595 0.793284 0.336158
Si Si2 0.142595 0.229505 0.721611
Si Si3 0.137647 0.205133 0.997820
Si Si4 0.442744 0.029780 0.271143
Si Si5 0.466061 0.653837 0.895138
Si Si6 0.702218 0.003829 0.592222
Si Si7 0.455912 0.632040 0.389188
Si Si8 0.997637 0.795862 0.886014
O O1 0.478598 0.660638 0.048716
O O2 0.508042 0.702010 0.280907
O O3 0.840590 0.799204 0.602574
O O4 0.851680 0.026925 0.416112
O O5 0.281382 0.229700 0.856452
O O6 0.207864 0.240387 0.945200
O O7 0.238994 0.424594 0.687535
O O8 0.384756 0.376863 0.317500
O O9 0.945692 0.181426 0.742716
O O10 0.000000 0.000000 0.000000
O O11 0.500000 0.000000 0.500000
O O12 0.546649 0.019310 0.336734
O O13 0.148035 0.850985 0.960479
O O14 0.576053 0.243635 0.297466
O O15 0.526613 0.784678 0.457010
O O16 0.798902 0.032879 0.845399
O O17 0.172405 0.417846 0.147047
#
# Coordination Sequence:
#
# PCOD8040425 Si02
#       8
#     2   2   2   2   2   2   2   2
#     4  12  21  39  65  98 133 153 207 281 320 369
#     4  11  22  41  65  94 129 166 206 271 323 371
#     4  10  18  36  66  96 124 162 211 261 314 363
#     4  10  24  45  65  87 132 175 215 261 304 395
#     4  11  26  41  63  97 125 171 215 256 332 375
#     4  10  21  40  61  88 131 171 212 251 316 374
#     4  11  22  35  67 103 124 164 213 269 320 369
#     4  11  22  37  65  99 127 165 215 266 319 366
#
# _framework density 21.817530000000001
#
# number of rings (size 3 to 8) (size 9 to 14) (size 15 to 20)
#    0.000    1.250    5.000    2.250    5.250    0.500 
#    0.000    3.750    0.000    0.000    0.000    0.000 
#    0.000    0.000    0.000    0.000    0.000    0.000 
#
# Total GULP energy -198317.537167 kJ/mol
# GULP energy per Si atom -12394.846073 kJ/mol
# Density = 2.176787 g / cm^3
# Si number density = 21.817530 Si / 1000 Ang^3
#
#
#
# Elastic Constant Matrix: (Units=GPa)
#
#
# Indices 1 2 3 4 5 6 
#
# 1 117.1246 45.8768 33.6716 1.0574 15.5606 -4.0926
# 2 45.8768 121.3331 35.4215 4.3025 23.2534 -13.3131
# 3 33.6716 35.4215 49.5602 3.4105 8.9208 -13.4499
# 4 1.0574 4.3025 3.4105 33.5483 3.7721 3.3996
# 5 15.5606 23.2534 8.9208 3.7721 39.6121 -1.0561
# 6 -4.0926 -13.3131 -13.4499 3.3996 -1.0561 24.4558
#
#
#
# Elastic Compliance Matrix: (Units=1/GPa)
#
#
# Indices 1 2 3 4 5 6 
#
# 1 0.011556 -0.002467 -0.006765 0.001180 -0.001770 -0.003370
# 2 -0.002467 0.011946 -0.005094 -0.000726 -0.004742 0.003185
# 3 -0.006765 -0.005094 0.032831 -0.003844 -0.000989 0.014642
# 4 0.001180 -0.000726 -0.003844 0.031199 -0.002323 -0.006749
# 5 -0.001770 -0.004742 -0.000989 -0.002323 0.029119 -0.001842
# 6 -0.003370 0.003185 0.014642 -0.006749 -0.001842 0.050971
#
#
# Mechanical properties :
#
#
# Convention : Reuss Voigt Hill
#
# Bulk Modulus (GPa) = 36.12687 57.55087 46.83887
# Shear Modulus (GPa) = 24.33082 31.05977 27.69530
#
# Velocity S-wave (km/s) = 3.34308 3.77718 3.56674
# Velocity P-wave (km/s) = 5.61214 6.74228 6.20300
#
# Compressibility (1/GPa) = 0.02768023
#
# Stress axis : x y z
#
# Youngs Moduli (GPa) = 86.53680 83.71303 30.45904
#
# Poissons Ratio (x) = 0.20649 0.20607
# Poissons Ratio (y) = 0.21346 0.15516
# Poissons Ratio (z) = 0.58545 0.42643
#
# Static dielectric constant tensor:
#      x y z
#    x 4.641330 0.009900 0.533900 
#    y 0.009900 4.129970 0.304590 
#    z 0.533900 0.304590 4.174290 
# 
# 
# High freq. dielectric constant tensor:
#      x y z
#    x 1.868770 0.007130 0.002470 
#    y 0.007130 1.855770 0.023680 
#    z 0.002470 0.023680 1.819230 
# 
# From -- ./inp_files/471731.got.cif
#   From: 2010.06.25/outbox.cif.g09.slc.cpg/sg2_236_cif.got.tgz:471731.got - 2010.06.27 13:26:56.
