data_PCOD8040795
_publ_section_title
;
Structure prediction by ZEFSAII (Michael W. Deem and Ramdas Pophale) SiO2 
 PCOD8040795
Probable space group: P -1
;
_chemical_formula_sum "Si O2"
_cell_formula_units_Z 12
_cell_length_a 8.912586
_cell_length_b 11.108402
_cell_length_c 14.049641
_cell_angle_alpha 149.443795
_cell_angle_beta 48.912562
_cell_angle_gamma 115.164673
_cell_volume 495.739536
_symmetry_space_group_name_H-M "P -1"
_symmetry_group_IT_number 2
_symmetry_cell_setting 'triclinic'
loop_
_space_group_symop_operation_xyz
x,y,z
-x,-y,-z
loop_
_atom_site_type_symbol
_atom_site_label
_atom_site_fract_x
_atom_site_fract_y
_atom_site_fract_z
Si Si1 0.495406 0.621142 0.219972
Si Si2 0.165077 0.516627 0.864692
Si Si3 0.870235 0.588167 0.397135
Si Si4 0.198960 0.807116 0.732249
Si Si5 0.346657 0.231676 0.928371
Si Si6 0.961448 0.099843 0.338680
O O1 0.599196 0.576378 0.251005
O O2 0.633101 0.731558 0.168456
O O3 0.255485 0.833045 0.462599
O O4 0.509205 0.340278 0.987508
O O5 0.186458 0.342570 0.643212
O O6 0.000000 0.500000 0.000000
O O7 0.076930 0.806321 0.062626
O O8 0.717068 0.456832 0.421912
O O9 0.860555 0.832090 0.629441
O O10 0.112789 0.395798 0.174223
O O11 0.117154 0.747438 0.622992
O O12 0.381964 0.934967 0.733724
O O13 0.000000 0.000000 0.000000
#
# Coordination Sequence:
#
# PCOD8040795 Si02
#       6
#     2   2   2   2   2   2
#     4  10  22  40  63  98 127 157 216 255 311 375
#     4  12  23  42  62  97 131 159 206 268 306 367
#     4  10  21  40  64  94 126 166 215 249 312 376
#     4  10  18  38  68  88 123 172 208 253 310 372
#     4   9  18  39  62  90 129 166 199 266 307 359
#     4  11  23  41  69  92 121 175 202 256 322 363
#
# _framework density 24.206258999999999
#
# number of rings (size 3 to 8) (size 9 to 14) (size 15 to 20)
#    0.000    1.667    5.000    0.500    0.000    3.333 
#    3.000    1.667    0.000    0.000    0.000    0.000 
#    0.000    0.000    0.000    0.000    0.000    0.000 
#
# Total GULP energy -148724.429329 kJ/mol
# GULP energy per Si atom -12393.702444 kJ/mol
# Density = 2.415116 g / cm^3
# Si number density = 24.206259 Si / 1000 Ang^3
#
#
#
# Elastic Constant Matrix: (Units=GPa)
#
#
# Indices 1 2 3 4 5 6 
#
# 1 109.5693 35.2153 14.2719 2.0406 36.5265 -0.9179
# 2 35.2153 128.3832 3.9602 0.6605 21.8033 3.1321
# 3 14.2719 3.9602 46.3849 -5.5020 19.8799 8.5055
# 4 2.0406 0.6605 -5.5020 16.3718 -4.4784 13.4047
# 5 36.5265 21.8033 19.8799 -4.4784 47.7499 -4.3248
# 6 -0.9179 3.1321 8.5055 13.4047 -4.3248 31.5248
#
#
#
# Elastic Compliance Matrix: (Units=1/GPa)
#
#
# Indices 1 2 3 4 5 6 
#
# 1 0.013058 -0.002054 -0.001204 -0.006341 -0.008929 0.002381
# 2 -0.002054 0.008933 0.002102 0.001971 -0.003454 -0.002826
# 3 -0.001204 0.002102 0.035373 0.027086 -0.014333 -0.023271
# 4 -0.006341 0.001971 0.027086 0.118040 -0.001517 -0.058089
# 5 -0.008929 -0.003454 -0.014333 -0.001517 0.036039 0.009539
# 6 0.002381 -0.002826 -0.023271 -0.058089 0.009539 0.064359
#
#
# Mechanical properties :
#
#
# Convention : Reuss Voigt Hill
#
# Bulk Modulus (GPa) = 18.16496 43.47025 30.81760
# Shear Modulus (GPa) = 16.86542 34.52195 25.69369
#
# Velocity S-wave (km/s) = 2.64244 3.78055 3.26152
# Velocity P-wave (km/s) = 4.10250 6.08720 5.19059
#
# Compressibility (1/GPa) = 0.05505105
#
# Stress axis : x y z
#
# Youngs Moduli (GPa) = 76.58033 111.94303 28.27045
#
# Poissons Ratio (x) = 0.22990 0.03405
# Poissons Ratio (y) = 0.15728 -0.05942
# Poissons Ratio (z) = 0.09223 -0.23527
#
# Static dielectric constant tensor:
#      x y z
#    x 4.306460 0.283150 0.446720 
#    y 0.283150 5.442570 0.205480 
#    z 0.446720 0.205480 4.291530 
# 
# 
# High freq. dielectric constant tensor:
#      x y z
#    x 1.950890 0.003420 0.028370 
#    y 0.003420 1.961140 -0.008450 
#    z 0.028370 -0.008450 1.946890 
# 
# From -- ./inp_files/165289.got.cif
#   From: 2010.06.25/outbox.cif.g09.slc.cpg/sg2_83_cif.got.tgz:165289.got - 2010.06.27 13:26:56.
