data_PCOD8040016
_publ_section_title
;
Structure prediction by ZEFSAII (Michael W. Deem and Ramdas Pophale) SiO2 
 PCOD8040016
Probable space group: P -1
;
_chemical_formula_sum "Si O2"
_cell_formula_units_Z 16
_cell_length_a 7.750065
_cell_length_b 16.456875
_cell_length_c 11.947832
_cell_angle_alpha 35.270576
_cell_angle_beta 125.988897
_cell_angle_gamma 131.289815
_cell_volume 656.951344
_symmetry_space_group_name_H-M "P -1"
_symmetry_group_IT_number 2
_symmetry_cell_setting 'triclinic'
loop_
_space_group_symop_operation_xyz
x,y,z
-x,-y,-z
loop_
_atom_site_type_symbol
_atom_site_label
_atom_site_fract_x
_atom_site_fract_y
_atom_site_fract_z
Si Si1 0.652234 0.172435 0.059719
Si Si2 0.615486 0.390704 0.618135
Si Si3 0.076094 0.879249 0.605401
Si Si4 0.020326 0.839221 0.395527
Si Si5 0.517030 0.838933 0.603587
Si Si6 0.726782 0.821177 0.925385
Si Si7 0.503380 0.823837 0.370339
Si Si8 0.954787 0.676529 0.335353
O O1 0.881832 0.230408 0.162304
O O2 0.430787 0.153558 0.067906
O O3 0.610474 0.005339 0.181289
O O4 0.704020 0.303075 0.841673
O O5 0.500000 0.500000 0.500000
O O6 0.430689 0.265409 0.606405
O O7 0.848391 0.493406 0.521733
O O8 0.909661 0.797850 0.527763
O O9 0.334165 0.977163 0.538149
O O10 0.000000 0.000000 0.500000
O O11 0.247213 0.798753 0.535835
O O12 0.872859 0.744289 0.340904
O O13 0.066053 0.016059 0.196877
O O14 0.589422 0.757105 0.827732
O O15 0.586835 0.787904 0.565109
O O16 0.832670 0.704490 0.145212
O O17 0.225917 0.760551 0.330411
#
# Coordination Sequence:
#
# PCOD8040016 Si02
#       8
#     2   2   2   2   2   2   2   2
#     4  11  21  41  67  92 126 167 208 259 312 374
#     4  12  26  41  59  91 138 171 197 256 327 373
#     4  10  19  33  59  95 126 156 204 267 313 359
#     4  10  18  35  61  88 120 159 213 252 304 365
#     4   9  18  36  63  88 116 158 207 266 300 359
#     4  11  17  35  67  95 118 159 214 252 312 362
#     4  10  23  43  67  90 119 165 223 257 303 367
#     4  11  23  37  63  94 124 166 208 260 303 376
#
# _framework density 24.354922999999999
#
# number of rings (size 3 to 8) (size 9 to 14) (size 15 to 20)
#    0.000    1.500    6.250    1.875    0.000    4.000 
#    0.000    1.250    0.000    0.000    0.000    0.000 
#    0.000    0.000    0.000    0.000    0.000    0.000 
#
# Total GULP energy -198238.816019 kJ/mol
# GULP energy per Si atom -12389.926001 kJ/mol
# Density = 2.429949 g / cm^3
# Si number density = 24.354923 Si / 1000 Ang^3
#
#
#
# Elastic Constant Matrix: (Units=GPa)
#
#
# Indices 1 2 3 4 5 6 
#
# 1 28.7837 13.6754 18.5902 4.3104 -8.3354 -17.3702
# 2 13.6754 67.8065 86.6715 21.9935 -3.3755 -12.6894
# 3 18.5902 86.6715 207.0351 31.4571 -20.2701 -1.2995
# 4 4.3104 21.9935 31.4571 44.9728 -1.3832 -6.5600
# 5 -8.3354 -3.3755 -20.2701 -1.3832 22.9728 6.1581
# 6 -17.3702 -12.6894 -1.2995 -6.5600 6.1581 38.0481
#
#
#
# Elastic Compliance Matrix: (Units=1/GPa)
#
#
# Indices 1 2 3 4 5 6 
#
# 1 0.054304 -0.004126 -0.002175 0.001868 0.011444 0.021811
# 2 -0.004126 0.041477 -0.017368 -0.006347 -0.014489 0.012607
# 3 -0.002175 -0.017368 0.013549 -0.001662 0.010752 -0.008349
# 4 0.001868 -0.006347 -0.001662 0.026797 -0.001037 0.003467
# 5 0.011444 -0.014489 0.010752 -0.001037 0.057308 -0.008695
# 6 0.021811 0.012607 -0.008349 0.003467 -0.008695 0.042164
#
#
# Mechanical properties :
#
#
# Convention : Reuss Voigt Hill
#
# Bulk Modulus (GPa) = 16.13153 60.16661 38.14907
# Shear Modulus (GPa) = 16.46894 33.51129 24.99011
#
# Velocity S-wave (km/s) = 2.60322 3.71341 3.20672
# Velocity P-wave (km/s) = 3.95898 6.56838 5.42297
#
# Compressibility (1/GPa) = 0.06199041
#
# Stress axis : x y z
#
# Youngs Moduli (GPa) = 18.41493 24.10985 73.80559
#
# Poissons Ratio (x) = 0.09948 0.16054
# Poissons Ratio (y) = 0.07599 1.28187
# Poissons Ratio (z) = 0.04006 0.41874
#
# Static dielectric constant tensor:
#      x y z
#    x 5.075770 -0.305220 -0.354940 
#    y -0.305220 5.123030 0.676210 
#    z -0.354940 0.676210 4.564620 
# 
# 
# High freq. dielectric constant tensor:
#      x y z
#    x 1.995970 -0.006850 -0.006470 
#    y -0.006850 1.962040 0.045100 
#    z -0.006470 0.045100 1.940760 
# 
# From -- ./inp_files/347458.got.cif
#   From: 2010.06.25/outbox.cif.g09.slc.cpg/sg2_174_cif.got.tgz:347458.got - 2010.06.27 13:26:56.
