data_PCOD8040328
_publ_section_title
;
Structure prediction by ZEFSAII (Michael W. Deem and Ramdas Pophale) SiO2 
 PCOD8040328
Probable space group: P -1
;
_chemical_formula_sum "Si O2"
_cell_formula_units_Z 14
_cell_length_a 17.607410
_cell_length_b 21.227869
_cell_length_c 11.654945
_cell_angle_alpha 147.870054
_cell_angle_beta 149.052438
_cell_angle_gamma 17.995174
_cell_volume 678.642849
_symmetry_space_group_name_H-M "P -1"
_symmetry_group_IT_number 2
_symmetry_cell_setting 'triclinic'
loop_
_space_group_symop_operation_xyz
x,y,z
-x,-y,-z
loop_
_atom_site_type_symbol
_atom_site_label
_atom_site_fract_x
_atom_site_fract_y
_atom_site_fract_z
Si Si1 0.782952 0.254751 0.976416
Si Si2 0.925403 0.908406 0.128029
Si Si3 0.533743 0.985593 0.825156
Si Si4 0.210910 0.533635 0.350930
Si Si5 0.872622 0.928780 0.642196
Si Si6 0.171777 0.322704 0.075779
Si Si7 0.305019 0.709175 0.499492
O O1 0.897492 0.226315 0.961330
O O2 0.757113 0.129479 0.758182
O O3 0.500000 0.500000 0.000000
O O4 0.989084 0.158187 0.190132
O O5 0.089111 0.777952 0.256106
O O6 0.826757 0.108923 0.306878
O O7 0.684180 0.976512 0.921993
O O8 0.741031 0.767832 0.824376
O O9 0.358458 0.015262 0.565814
O O10 0.373260 0.160767 0.984380
O O11 0.133704 0.489964 0.282148
O O12 0.521029 0.337720 0.442864
O O13 0.087483 0.742719 0.542275
O O14 0.097627 0.565822 0.130291
O O15 0.500000 0.500000 0.500000
#
# Coordination Sequence:
#
# PCOD8040328 Si02
#       7
#     2   2   2   2   2   2   2
#     4  11  25  46  64  85 119 168 216 259 298 363
#     4  11  24  39  62  93 126 159 205 255 308 358
#     4  10  20  38  59  96 127 157 199 257 304 369
#     4  10  18  36  61  93 119 166 198 241 307 376
#     4  10  24  41  66  89 117 165 215 250 304 366
#     4   9  19  32  62  92 132 156 194 241 313 374
#     4  11  22  36  60  93 130 160 192 251 312 371
#
# _framework density 20.629408000000002
#
# number of rings (size 3 to 8) (size 9 to 14) (size 15 to 20)
#    0.000    1.714    1.429    2.571    4.000    4.000 
#    0.000    0.714    0.000    0.000    0.000    0.000 
#    0.000    0.000    0.000    0.000    0.000    0.000 
#
# Total GULP energy -173562.143352 kJ/mol
# GULP energy per Si atom -12397.295954 kJ/mol
# Density = 2.058245 g / cm^3
# Si number density = 20.629408 Si / 1000 Ang^3
#
#
#
# Elastic Constant Matrix: (Units=GPa)
#
#
# Indices 1 2 3 4 5 6 
#
# 1 79.5288 25.0024 36.2446 -1.1703 5.3364 -5.7039
# 2 25.0024 101.7037 34.5693 3.8354 3.1654 8.0980
# 3 36.2446 34.5693 107.6382 -6.4440 12.1149 -2.3300
# 4 -1.1703 3.8354 -6.4440 36.4848 -4.7137 2.3536
# 5 5.3364 3.1654 12.1149 -4.7137 16.4789 -3.9040
# 6 -5.7039 8.0980 -2.3300 2.3536 -3.9040 41.4124
#
#
#
# Elastic Compliance Matrix: (Units=1/GPa)
#
#
# Indices 1 2 3 4 5 6 
#
# 1 0.015542 -0.002509 -0.004289 -0.000264 -0.000924 0.002318
# 2 -0.002509 0.011786 -0.003065 -0.001728 -0.000346 -0.002757
# 3 -0.004289 -0.003065 0.012580 0.001524 -0.006838 -0.000015
# 4 -0.000264 -0.001728 0.001524 0.028845 0.007417 -0.000553
# 5 -0.000924 -0.000346 -0.006838 0.007417 0.069546 0.005690
# 6 0.002318 -0.002757 -0.000015 -0.000553 0.005690 0.025573
#
#
# Mechanical properties :
#
#
# Convention : Reuss Voigt Hill
#
# Bulk Modulus (GPa) = 49.54827 53.38926 51.46876
# Shear Modulus (GPa) = 26.27090 31.74553 29.00821
#
# Velocity S-wave (km/s) = 3.57244 3.92707 3.75395
# Velocity P-wave (km/s) = 6.40990 6.81901 6.61762
#
# Compressibility (1/GPa) = 0.02018234
#
# Stress axis : x y z
#
# Youngs Moduli (GPa) = 64.34215 84.84373 79.49409
#
# Poissons Ratio (x) = 0.21284 0.34098
# Poissons Ratio (y) = 0.16141 0.24363
# Poissons Ratio (z) = 0.27598 0.26003
#
# Static dielectric constant tensor:
#      x y z
#    x 3.476880 -0.066040 0.198640 
#    y -0.066040 4.063940 -0.121040 
#    z 0.198640 -0.121040 3.832590 
# 
# 
# High freq. dielectric constant tensor:
#      x y z
#    x 1.779060 0.006670 0.019660 
#    y 0.006670 1.824870 -0.007690 
#    z 0.019660 -0.007690 1.804810 
# 
# From -- ./inp_files/467197.got.cif
#   From: 2010.06.25/outbox.cif.g09.slc.cpg/sg2_234_cif.got.tgz:467197.got - 2010.06.27 13:26:56.
