data_PCOD8040343
_publ_section_title
;
Structure prediction by ZEFSAII (Michael W. Deem and Ramdas Pophale) SiO2 
 PCOD8040343
Probable space group: P -1
;
_chemical_formula_sum "Si O2"
_cell_formula_units_Z 14
_cell_length_a 11.643430
_cell_length_b 14.263002
_cell_length_c 10.532366
_cell_angle_alpha 64.051651
_cell_angle_beta 81.880744
_cell_angle_gamma 29.765244
_cell_volume 659.914114
_symmetry_space_group_name_H-M "P -1"
_symmetry_group_IT_number 2
_symmetry_cell_setting 'triclinic'
loop_
_space_group_symop_operation_xyz
x,y,z
-x,-y,-z
loop_
_atom_site_type_symbol
_atom_site_label
_atom_site_fract_x
_atom_site_fract_y
_atom_site_fract_z
Si Si1 0.029412 0.353620 0.587214
Si Si2 0.790232 0.035716 0.736832
Si Si3 0.614472 0.814271 0.764819
Si Si4 0.760418 0.452513 0.361096
Si Si5 0.955047 0.367786 0.121445
Si Si6 0.926963 0.007833 0.376831
Si Si7 0.464465 0.265831 0.395030
O O1 0.000000 0.500000 0.500000
O O2 0.940588 0.392225 0.438484
O O3 0.835039 0.461315 0.664154
O O4 0.338697 0.066522 0.735213
O O5 0.556026 0.267236 0.728442
O O6 0.677834 0.091624 0.581578
O O7 0.012252 0.949339 0.758328
O O8 0.927362 0.814381 0.889336
O O9 0.557014 0.828735 0.617853
O O10 0.810250 0.754047 0.777427
O O11 0.746174 0.607638 0.934250
O O12 0.797362 0.431875 0.217086
O O13 0.860713 0.260543 0.516583
O O14 0.606222 0.231923 0.292667
O O15 0.000000 0.000000 0.500000
#
# Coordination Sequence:
#
# PCOD8040343 Si02
#       7
#     2   2   2   2   2   2   2
#     4  11  22  35  61  89 114 148 197 240 283 342
#     4  10  21  37  61  89 111 147 198 237 289 334
#     4  11  23  39  56  82 123 154 188 236 291 339
#     4  11  20  36  62  87 115 149 192 242 286 333
#     4  11  23  38  57  83 118 158 189 233 289 352
#     4  10  18  36  62  87 116 146 191 247 282 332
#     4  10  20  37  59  84 114 149 189 240 283 332
#
# _framework density 21.214881999999999
#
# number of rings (size 3 to 8) (size 9 to 14) (size 15 to 20)
#    0.000    1.429    4.286    3.000    0.000    2.857 
#    0.000    4.286    0.000    1.714    0.000    0.000 
#    0.000    0.000    0.000    0.000    0.000    0.000 
#
# Total GULP energy -173459.836665 kJ/mol
# GULP energy per Si atom -12389.988333 kJ/mol
# Density = 2.116660 g / cm^3
# Si number density = 21.214882 Si / 1000 Ang^3
#
#
#
# Elastic Constant Matrix: (Units=GPa)
#
#
# Indices 1 2 3 4 5 6 
#
# 1 92.4583 42.5524 15.5423 -16.3170 -15.5770 -0.3813
# 2 42.5524 140.4535 44.2207 -33.9519 -7.0279 -7.4539
# 3 15.5423 44.2207 36.4590 -19.7925 -15.9903 -9.7459
# 4 -16.3170 -33.9519 -19.7925 30.1268 6.4576 2.3367
# 5 -15.5770 -7.0279 -15.9903 6.4576 28.2471 -4.3391
# 6 -0.3813 -7.4539 -9.7459 2.3367 -4.3391 37.7353
#
#
#
# Elastic Compliance Matrix: (Units=1/GPa)
#
#
# Indices 1 2 3 4 5 6 
#
# 1 0.014391 -0.004916 0.007366 0.004781 0.010088 0.001941
# 2 -0.004916 0.015226 -0.020695 0.003812 -0.012126 -0.004017
# 3 0.007366 -0.020695 0.093055 0.029566 0.048481 0.023764
# 4 0.004781 0.003812 0.029566 0.057312 0.008114 0.005821
# 5 0.010088 -0.012126 0.048481 0.008114 0.066201 0.017338
# 6 0.001941 -0.004017 0.023764 0.005821 0.017338 0.033497
#
#
# Mechanical properties :
#
#
# Convention : Reuss Voigt Hill
#
# Bulk Modulus (GPa) = 11.60333 52.66686 32.13509
# Shear Modulus (GPa) = 14.49700 30.35885 22.42793
#
# Velocity S-wave (km/s) = 2.61692 3.78698 3.25496
# Velocity P-wave (km/s) = 3.82260 6.63332 5.41356
#
# Compressibility (1/GPa) = 0.08618216
#
# Stress axis : x y z
#
# Youngs Moduli (GPa) = 69.48732 65.67627 10.74636
#
# Poissons Ratio (x) = 0.32284 -0.07915
# Poissons Ratio (y) = 0.34157 0.22240
# Poissons Ratio (z) = -0.51182 1.35918
#
# Static dielectric constant tensor:
#      x y z
#    x 4.787580 -0.448660 -0.115850 
#    y -0.448660 4.214330 -0.143540 
#    z -0.115850 -0.143540 3.374880 
# 
# 
# High freq. dielectric constant tensor:
#      x y z
#    x 1.849150 0.001660 -0.004450 
#    y 0.001660 1.845960 -0.019260 
#    z -0.004450 -0.019260 1.779500 
# 
# From -- ./inp_files/267600.got.cif
#   From: 2010.06.25/outbox.cif.g09.slc.cpg/sg2_134_cif.got.tgz:267600.got - 2010.06.27 13:26:56.
