data_PCOD8040670
_publ_section_title
;
Structure prediction by ZEFSAII (Michael W. Deem and Ramdas Pophale) SiO2 
 PCOD8040670
Probable space group: P -1
;
_chemical_formula_sum "Si O2"
_cell_formula_units_Z 12
_cell_length_a 10.247358
_cell_length_b 7.625138
_cell_length_c 12.785270
_cell_angle_alpha 122.065377
_cell_angle_beta 144.659949
_cell_angle_gamma 56.364878
_cell_volume 474.585865
_symmetry_space_group_name_H-M "P -1"
_symmetry_group_IT_number 2
_symmetry_cell_setting 'triclinic'
loop_
_space_group_symop_operation_xyz
x,y,z
-x,-y,-z
loop_
_atom_site_type_symbol
_atom_site_label
_atom_site_fract_x
_atom_site_fract_y
_atom_site_fract_z
Si Si1 0.619162 0.796661 0.283692
Si Si2 0.984686 0.227779 0.609791
Si Si3 0.887270 0.569219 0.059400
Si Si4 0.468612 0.477326 0.674524
Si Si5 0.095079 0.832447 0.920805
Si Si6 0.293864 0.934808 0.404008
O O1 0.809474 0.690003 0.287720
O O2 0.648705 0.642053 0.353561
O O3 0.674400 0.018751 0.436165
O O4 0.365163 0.828896 0.076287
O O5 0.035189 0.229392 0.770478
O O6 0.732517 0.381552 0.480743
O O7 0.000000 0.000000 0.500000
O O8 0.948691 0.387829 0.132805
O O9 0.609923 0.626742 0.874741
O O10 0.000000 0.500000 0.000000
O O11 0.660302 0.316923 0.674668
O O12 0.952180 0.914385 0.748413
O O13 0.000000 0.000000 0.000000
O O14 0.500000 0.000000 0.500000
#
# Coordination Sequence:
#
# PCOD8040670 Si02
#       6
#     2   2   2   2   2   2
#     4  10  23  41  70 100 138 171 225 290 335 399
#     4  12  29  46  65 101 142 186 225 277 349 399
#     4  11  26  45  68 102 140 180 225 280 339 414
#     4  10  23  44  71 101 131 178 232 279 340 403
#     4  11  20  39  73 109 127 173 230 281 340 399
#     4  10  18  37  71 105 129 163 226 279 335 397
#
# _framework density 25.285198999999999
#
# number of rings (size 3 to 8) (size 9 to 14) (size 15 to 20)
#    0.000    1.333    5.000    2.500    2.333    6.667 
#    0.000    0.000    0.000    0.000    0.000    0.000 
#    0.000    0.000    0.000    0.000    0.000    0.000 
#
# Total GULP energy -148714.243982 kJ/mol
# GULP energy per Si atom -12392.853665 kJ/mol
# Density = 2.522765 g / cm^3
# Si number density = 25.285199 Si / 1000 Ang^3
#
#
#
# Elastic Constant Matrix: (Units=GPa)
#
#
# Indices 1 2 3 4 5 6 
#
# 1 124.8434 37.6020 45.3235 -12.7333 -28.2794 -22.1685
# 2 37.6020 79.9068 77.8245 -10.7690 -1.1318 -8.7672
# 3 45.3235 77.8245 202.2687 -7.9084 -15.9462 -13.0286
# 4 -12.7333 -10.7690 -7.9084 50.0861 -13.6388 -1.9799
# 5 -28.2794 -1.1318 -15.9462 -13.6388 20.6269 4.9615
# 6 -22.1685 -8.7672 -13.0286 -1.9799 4.9615 23.2594
#
#
#
# Elastic Compliance Matrix: (Units=1/GPa)
#
#
# Indices 1 2 3 4 5 6 
#
# 1 0.022903 -0.009942 0.003347 0.015846 0.040894 0.012582
# 2 -0.009942 0.025493 -0.009601 -0.004748 -0.022594 -0.000829
# 3 0.003347 -0.009601 0.009233 0.003947 0.013269 0.002249
# 4 0.015846 -0.004748 0.003947 0.036645 0.046655 0.008692
# 5 0.040894 -0.022594 0.013269 0.046655 0.141609 0.011656
# 6 0.012582 -0.000829 0.002249 0.008692 0.011656 0.054186
#
#
# Mechanical properties :
#
#
# Convention : Reuss Voigt Hill
#
# Bulk Modulus (GPa) = 39.62423 80.94654 60.28538
# Shear Modulus (GPa) = 15.11149 35.21241 25.16195
#
# Velocity S-wave (km/s) = 2.44732 3.73582 3.15798
# Velocity P-wave (km/s) = 4.86732 7.11979 6.09845
#
# Compressibility (1/GPa) = 0.02523709
#
# Stress axis : x y z
#
# Youngs Moduli (GPa) = 43.66246 39.22586 108.30384
#
# Poissons Ratio (x) = 0.39000 -0.36253
# Poissons Ratio (y) = 0.43411 1.03985
# Poissons Ratio (z) = -0.14615 0.37662
#
# Static dielectric constant tensor:
#      x y z
#    x 0.000000 0.000000 0.000000 
#    y 0.000000 0.000000 0.000000 
#    z 0.000000 0.000000 0.000000 
# 
# 
# High freq. dielectric constant tensor:
#      x y z
#    x 2.016850 -0.003290 0.012720 
#    y -0.003290 1.980100 0.015840 
#    z 0.012720 0.015840 2.038480 
# 
# From -- ./inp_files/512442.got.cif
#   From: 2010.06.25/outbox.cif.g09.slc.cpg/sg2_257_cif.got.tgz:512442.got - 2010.06.27 13:26:56.
