data_PCOD8040440
_publ_section_title
;
Structure prediction by ZEFSAII (Michael W. Deem and Ramdas Pophale) SiO2 
 PCOD8040440
Probable space group: P -1
;
_chemical_formula_sum "Si O2"
_cell_formula_units_Z 14
_cell_length_a 5.621170
_cell_length_b 9.812713
_cell_length_c 15.345818
_cell_angle_alpha 85.133905
_cell_angle_beta 64.235763
_cell_angle_gamma 111.951584
_cell_volume 675.342883
_symmetry_space_group_name_H-M "P -1"
_symmetry_group_IT_number 2
_symmetry_cell_setting 'triclinic'
loop_
_space_group_symop_operation_xyz
x,y,z
-x,-y,-z
loop_
_atom_site_type_symbol
_atom_site_label
_atom_site_fract_x
_atom_site_fract_y
_atom_site_fract_z
Si Si1 0.218626 0.265386 0.881827
Si Si2 0.114872 0.865621 0.723054
Si Si3 0.014089 0.096153 0.619375
Si Si4 0.286379 0.855845 0.180722
Si Si5 0.412493 0.208152 0.395926
Si Si6 0.489616 0.621734 0.798408
Si Si7 0.757937 0.172157 0.108502
O O1 0.466997 0.205773 0.849242
O O2 0.402981 0.448141 0.841822
O O3 0.976232 0.217826 0.845135
O O4 0.041681 0.208551 0.002937
O O5 0.269811 0.788137 0.640326
O O6 0.239453 0.912133 0.797585
O O7 0.783197 0.734279 0.796168
O O8 0.167730 0.024759 0.663153
O O9 0.261357 0.221633 0.509089
O O10 0.869289 0.179749 0.697188
O O11 0.771817 0.958442 0.609609
O O12 0.454129 0.039374 0.121253
O O13 0.454867 0.345407 0.316117
O O14 0.245371 0.668005 0.874704
#
# Coordination Sequence:
#
# PCOD8040440 Si02
#       7
#     2   2   2   2   2   2   2
#     4  12  29  42  65  96 139 176 207 266 335 380
#     4  10  18  36  68  93 127 155 227 273 310 369
#     4  10  19  37  63  98 121 168 210 279 316 378
#     4  12  25  44  64  97 136 168 218 264 326 391
#     4   9  19  36  67  93 124 158 227 265 323 365
#     4  10  23  42  64  95 128 169 221 268 312 391
#     4  11  23  43  68  92 126 174 226 265 310 381
#
# _framework density 20.73021
#
# number of rings (size 3 to 8) (size 9 to 14) (size 15 to 20)
#    0.000    1.429    4.286    2.571    6.000    0.571 
#    0.000    1.429    0.000    0.000    0.000    0.000 
#    0.000    0.000    0.000    0.000    0.000    0.000 
#
# Total GULP energy -173467.151352 kJ/mol
# GULP energy per Si atom -12390.510811 kJ/mol
# Density = 2.068303 g / cm^3
# Si number density = 20.730210 Si / 1000 Ang^3
#
#
#
# Elastic Constant Matrix: (Units=GPa)
#
#
# Indices 1 2 3 4 5 6 
#
# 1 104.9274 15.7540 12.5639 37.8753 1.7712 -20.1126
# 2 15.7540 72.9115 28.4481 1.5505 2.9221 -19.0497
# 3 12.5639 28.4481 190.5579 -29.7369 -38.9850 -17.0267
# 4 37.8753 1.5505 -29.7369 88.4957 14.4148 -8.1493
# 5 1.7712 2.9221 -38.9850 14.4148 27.1006 3.7579
# 6 -20.1126 -19.0497 -17.0267 -8.1493 3.7579 16.6138
#
#
#
# Elastic Compliance Matrix: (Units=1/GPa)
#
#
# Indices 1 2 3 4 5 6 
#
# 1 0.014237 0.001840 -0.000901 -0.004503 -0.002352 0.016745
# 2 0.001840 0.022467 -0.003004 0.002450 -0.012169 0.028864
# 3 -0.000901 -0.003004 0.008595 0.001682 0.011506 0.002496
# 4 -0.004503 0.002450 0.001682 0.015666 -0.007042 0.008359
# 5 -0.002352 -0.012169 0.011506 -0.007042 0.061774 -0.022435
# 6 0.016745 0.028864 0.002496 0.008359 -0.022435 0.125292
#
#
# Mechanical properties :
#
#
# Convention : Reuss Voigt Hill
#
# Bulk Modulus (GPa) = 24.28953 53.54764 38.91858
# Shear Modulus (GPa) = 18.80534 47.21742 33.01138
#
# Velocity S-wave (km/s) = 3.01515 4.77771 3.99485
# Velocity P-wave (km/s) = 4.88507 7.50481 6.33191
#
# Compressibility (1/GPa) = 0.04117000
#
# Stress axis : x y z
#
# Youngs Moduli (GPa) = 70.24020 44.51065 116.34555
#
# Poissons Ratio (x) = -0.08192 0.10484
# Poissons Ratio (y) = -0.12927 0.34945
# Poissons Ratio (z) = 0.06330 0.13369
#
# Static dielectric constant tensor:
#      x y z
#    x 3.989190 -0.029570 -0.228090 
#    y -0.029570 3.424410 0.056530 
#    z -0.228090 0.056530 4.123300 
# 
# 
# High freq. dielectric constant tensor:
#      x y z
#    x 1.821220 -0.003590 -0.011140 
#    y -0.003590 1.776330 0.003510 
#    z -0.011140 0.003510 1.823040 
# 
# From -- ./inp_files/34279.got.cif
#   From: 2010.06.25/outbox.cif.g09.slc.cpg/sg2_18_cif.got.tgz:34279.got - 2010.06.27 13:26:56.
