data_PCOD8040108
_publ_section_title
;
Structure prediction by ZEFSAII (Michael W. Deem and Ramdas Pophale) SiO2 
 PCOD8040108
Probable space group: P -1
;
_chemical_formula_sum "Si O2"
_cell_formula_units_Z 14
_cell_length_a 9.064387
_cell_length_b 8.448424
_cell_length_c 14.455384
_cell_angle_alpha 54.735436
_cell_angle_beta 102.879637
_cell_angle_gamma 68.925706
_cell_volume 695.847136
_symmetry_space_group_name_H-M "P -1"
_symmetry_group_IT_number 2
_symmetry_cell_setting 'triclinic'
loop_
_space_group_symop_operation_xyz
x,y,z
-x,-y,-z
loop_
_atom_site_type_symbol
_atom_site_label
_atom_site_fract_x
_atom_site_fract_y
_atom_site_fract_z
Si Si1 0.601010 0.999268 0.303148
Si Si2 0.188197 0.936378 0.006892
Si Si3 0.729147 0.602632 0.223200
Si Si4 0.510493 0.409984 0.285096
Si Si5 0.624895 0.570010 0.539181
Si Si6 0.932434 0.747900 0.291348
Si Si7 0.381933 0.132901 0.054268
O O1 0.560620 0.824559 0.403012
O O2 0.809933 0.842546 0.336955
O O3 0.601394 0.163108 0.325256
O O4 0.417586 0.176172 0.149457
O O5 0.352922 0.645564 0.123201
O O6 0.238309 0.066270 0.043654
O O7 0.157380 0.026081 0.867616
O O8 0.000000 0.000000 0.000000
O O9 0.680269 0.435087 0.319750
O O10 0.929275 0.532476 0.314982
O O11 0.590598 0.891998 0.133778
O O12 0.702974 0.619004 0.102008
O O13 0.415747 0.401850 0.366947
O O14 0.500000 0.500000 0.500000
O O15 0.849801 0.363260 0.619339
#
# Coordination Sequence:
#
# PCOD8040108 Si02
#       7
#     2   2   2   2   2   2   2
#     4  11  23  38  58  89 124 152 193 242 293 347
#     4  10  18  35  64  89 117 150 200 239 284 353
#     4   8  16  34  60  83 112 149 195 233 282 349
#     4  11  22  38  60  90 122 150 186 253 303 328
#     4  12  24  41  63  82 115 163 203 236 282 357
#     4  10  21  39  64  87 110 155 207 236 280 354
#     4   8  16  32  57  85 111 153 191 232 280 348
#
# _framework density 20.119361000000001
#
# number of rings (size 3 to 8) (size 9 to 14) (size 15 to 20)
#    0.000    2.000    1.429    6.000    0.000    2.286 
#    0.000    5.000    0.000    0.000    0.000    0.000 
#    0.000    0.000    0.000    0.000    0.000    0.000 
#
# Total GULP energy -173476.701413 kJ/mol
# GULP energy per Si atom -12391.192958 kJ/mol
# Density = 2.007357 g / cm^3
# Si number density = 20.119361 Si / 1000 Ang^3
#
#
#
# Elastic Constant Matrix: (Units=GPa)
#
#
# Indices 1 2 3 4 5 6 
#
# 1 148.3135 44.4711 47.9256 -1.6136 -4.1510 14.5528
# 2 44.4711 86.0077 26.7258 0.9805 -3.5892 3.2651
# 3 47.9256 26.7258 63.5812 6.7268 -9.4069 -1.4008
# 4 -1.6136 0.9805 6.7268 16.2863 4.7729 -3.9598
# 5 -4.1510 -3.5892 -9.4069 4.7729 40.9180 6.7218
# 6 14.5528 3.2651 -1.4008 -3.9598 6.7218 17.5146
#
#
#
# Elastic Compliance Matrix: (Units=1/GPa)
#
#
# Indices 1 2 3 4 5 6 
#
# 1 0.010904 -0.003048 -0.007294 0.002042 0.000362 -0.008753
# 2 -0.003048 0.014394 -0.003769 0.000240 0.000133 -0.000449
# 3 -0.007294 -0.003769 0.024880 -0.011307 0.005283 0.004169
# 4 0.002042 0.000240 -0.011307 0.075333 -0.014431 0.019924
# 5 0.000362 0.000133 0.005283 -0.014431 0.029783 -0.014596
# 6 -0.008753 -0.000449 0.004169 0.019924 -0.014596 0.074891
#
#
# Mechanical properties :
#
#
# Convention : Reuss Voigt Hill
#
# Bulk Modulus (GPa) = 45.54254 59.57192 52.55723
# Shear Modulus (GPa) = 18.81654 26.86245 22.83949
#
# Velocity S-wave (km/s) = 3.06150 3.65794 3.37293
# Velocity P-wave (km/s) = 5.93147 6.89306 6.43026
#
# Compressibility (1/GPa) = 0.02195749
#
# Stress axis : x y z
#
# Youngs Moduli (GPa) = 91.70664 69.47531 40.19373
#
# Poissons Ratio (x) = 0.21174 0.29316
# Poissons Ratio (y) = 0.27949 0.15147
# Poissons Ratio (z) = 0.66888 0.26183
#
# Static dielectric constant tensor:
#      x y z
#    x 3.917000 0.191010 -0.096430 
#    y 0.191010 3.295800 0.327870 
#    z -0.096430 0.327870 3.967040 
# 
# 
# High freq. dielectric constant tensor:
#      x y z
#    x 1.802950 0.021120 -0.012410 
#    y 0.021120 1.738330 0.021380 
#    z -0.012410 0.021380 1.790120 
# 
# From -- ./inp_files/204464.got.cif
#   From: 2010.06.25/outbox.cif.g09.slc.cpg/sg2_103_cif.got.tgz:204464.got - 2010.06.27 13:26:56.
