data_PCOD8040082
_publ_section_title
;
Structure prediction by ZEFSAII (Michael W. Deem and Ramdas Pophale) SiO2 
 PCOD8040082
Probable space group: P -1
;
_chemical_formula_sum "Si O2"
_cell_formula_units_Z 16
_cell_length_a 17.558221
_cell_length_b 8.513805
_cell_length_c 12.666628
_cell_angle_alpha 102.702807
_cell_angle_beta 132.928209
_cell_angle_gamma 115.374492
_cell_volume 793.860054
_symmetry_space_group_name_H-M "P -1"
_symmetry_group_IT_number 2
_symmetry_cell_setting 'triclinic'
loop_
_space_group_symop_operation_xyz
x,y,z
-x,-y,-z
loop_
_atom_site_type_symbol
_atom_site_label
_atom_site_fract_x
_atom_site_fract_y
_atom_site_fract_z
Si Si1 0.033181 0.855773 0.826209
Si Si2 0.397212 0.966091 0.665784
Si Si3 0.666497 0.479763 0.393206
Si Si4 0.456010 0.269107 0.963583
Si Si5 0.964838 0.468459 0.839065
Si Si6 0.413435 0.299679 0.293416
Si Si7 0.289132 0.802335 0.077200
Si Si8 0.857675 0.221202 0.263373
O O1 0.026435 0.752373 0.694277
O O2 0.874503 0.788141 0.657031
O O3 0.995868 0.690841 0.865313
O O4 0.233893 0.175026 0.075466
O O5 0.351748 0.727216 0.619097
O O6 0.234084 0.836986 0.426028
O O7 0.444026 0.131820 0.834902
O O8 0.572164 0.172454 0.785764
O O9 0.545576 0.454425 0.340645
O O10 0.617879 0.424615 0.216100
O O11 0.269797 0.033959 0.815014
O O12 0.500000 0.500000 0.000000
O O13 0.000000 0.500000 0.000000
O O14 0.104065 0.524542 0.917927
O O15 0.500000 0.500000 0.500000
O O16 0.365235 0.056648 0.246404
O O17 0.262481 0.816288 0.930681
O O18 0.000000 0.500000 0.500000
#
# Coordination Sequence:
#
# PCOD8040082 Si02
#       8
#     2   2   2   2   2   2   2   2
#     4   9  19  34  58  87 108 154 211 239 283 372
#     4  10  20  37  63  85 113 163 207 231 293 376
#     4  10  19  38  63  86 115 160 215 239 284 382
#     4  12  23  38  60  95 131 154 191 267 321 342
#     4   9  18  35  56  86 120 143 196 262 295 329
#     4   9  17  34  57  83 118 146 200 254 295 337
#     4   9  19  35  58  89 107 151 218 234 279 375
#     4  10  18  35  63  88 119 160 204 243 294 365
#
# _framework density 20.154685000000001
#
# number of rings (size 3 to 8) (size 9 to 14) (size 15 to 20)
#    0.000    2.500    3.750    2.625    1.750    1.000 
#    4.500    0.625    0.000    0.000    0.000    0.000 
#    0.000    0.000    0.000    0.000    0.000    0.000 
#
# Total GULP energy -198238.648823 kJ/mol
# GULP energy per Si atom -12389.915551 kJ/mol
# Density = 2.010881 g / cm^3
# Si number density = 20.154685 Si / 1000 Ang^3
#
#
#
# Elastic Constant Matrix: (Units=GPa)
#
#
# Indices 1 2 3 4 5 6 
#
# 1 111.1870 34.8841 96.2436 -3.2496 9.5004 20.2060
# 2 34.8841 60.7002 38.8492 -2.6833 2.0280 18.5357
# 3 96.2436 38.8492 198.0909 -3.6768 7.2886 14.1466
# 4 -3.2496 -2.6833 -3.6768 19.6136 3.8668 -3.5411
# 5 9.5004 2.0280 7.2886 3.8668 55.0623 7.2358
# 6 20.2060 18.5357 14.1466 -3.5411 7.2358 20.2354
#
#
#
# Elastic Compliance Matrix: (Units=1/GPa)
#
#
# Indices 1 2 3 4 5 6 
#
# 1 0.018365 -0.002390 -0.007680 -0.000522 -0.000628 -0.010647
# 2 -0.002390 0.025550 -0.002513 -0.001580 0.002605 -0.020468
# 3 -0.007680 -0.002513 0.009020 0.000856 -0.000354 0.003942
# 4 -0.000522 -0.001580 0.000856 0.054232 -0.005457 0.012812
# 5 -0.000628 0.002605 -0.000354 -0.005457 0.019861 -0.009568
# 6 -0.010647 -0.020468 0.003942 0.012812 -0.009568 0.081706
#
#
# Mechanical properties :
#
#
# Convention : Reuss Voigt Hill
#
# Bulk Modulus (GPa) = 36.01224 78.88132 57.44678
# Shear Modulus (GPa) = 20.56293 32.31568 26.43931
#
# Velocity S-wave (km/s) = 3.19761 4.00857 3.62583
# Velocity P-wave (km/s) = 5.61602 7.78767 6.78924
#
# Compressibility (1/GPa) = 0.02776834
#
# Stress axis : x y z
#
# Youngs Moduli (GPa) = 54.45174 39.13953 110.86484
#
# Poissons Ratio (x) = 0.09353 0.85147
# Poissons Ratio (y) = 0.13012 0.27862
# Poissons Ratio (z) = 0.41820 0.09836
#
# Static dielectric constant tensor:
#      x y z
#    x 4.018460 0.197630 0.442340 
#    y 0.197630 3.144450 -0.051910 
#    z 0.442340 -0.051910 3.953260 
# 
# 
# High freq. dielectric constant tensor:
#      x y z
#    x 1.786490 0.026500 0.015220 
#    y 0.026500 1.730390 0.001680 
#    z 0.015220 0.001680 1.809450 
# 
# From -- ./inp_files/461416.got.cif
#   From: 2010.06.25/outbox.cif.g09.slc.cpg/sg2_231_cif.got.tgz:461416.got - 2010.06.27 13:26:56.
