data_PCOD8040807
_publ_section_title
;
Structure prediction by ZEFSAII (Michael W. Deem and Ramdas Pophale) SiO2 
 PCOD8040807
Probable space group: P -1
;
_chemical_formula_sum "Si O2"
_cell_formula_units_Z 14
_cell_length_a 11.843578
_cell_length_b 15.973016
_cell_length_c 8.766315
_cell_angle_alpha 36.251849
_cell_angle_beta 56.191843
_cell_angle_gamma 36.419571
_cell_volume 561.638445
_symmetry_space_group_name_H-M "P -1"
_symmetry_group_IT_number 2
_symmetry_cell_setting 'triclinic'
loop_
_space_group_symop_operation_xyz
x,y,z
-x,-y,-z
loop_
_atom_site_type_symbol
_atom_site_label
_atom_site_fract_x
_atom_site_fract_y
_atom_site_fract_z
Si Si1 0.598481 0.763652 0.200420
Si Si2 0.085123 0.721461 0.303935
Si Si3 0.469231 0.171817 0.190740
Si Si4 0.620007 0.244262 0.400639
Si Si5 0.822214 0.062910 0.217389
Si Si6 0.103307 0.281392 0.798129
Si Si7 0.259081 0.537492 0.015714
O O1 0.763864 0.517647 0.428927
O O2 0.400630 0.846889 0.305816
O O3 0.679500 0.841191 0.119582
O O4 0.559151 0.841752 0.944712
O O5 0.888650 0.818242 0.216540
O O6 0.184315 0.763851 0.057946
O O7 0.025327 0.835859 0.343577
O O8 0.654889 0.131085 0.133496
O O9 0.500000 0.000000 0.500000
O O10 0.286405 0.396099 0.073609
O O11 0.783358 0.061490 0.427094
O O12 0.691307 0.343523 0.262306
O O13 0.406733 0.402958 0.245525
O O14 0.000000 0.500000 0.500000
O O15 0.966997 0.305136 0.991019
#
# Coordination Sequence:
#
# PCOD8040807 Si02
#       7
#     2   2   2   2   2   2   2
#     4  11  23  41  72  96 133 176 231 263 336 401
#     4  10  20  40  71 103 134 177 215 272 329 403
#     4  11  27  43  64  96 134 178 222 287 329 391
#     4  10  18  38  69 102 125 177 222 267 324 406
#     4  10  22  40  68  99 142 171 214 275 337 381
#     4  10  19  36  67 101 130 176 213 269 321 413
#     4  10  19  38  66  96 135 173 219 264 331 396
#
# _framework density 24.927067999999998
#
# number of rings (size 3 to 8) (size 9 to 14) (size 15 to 20)
#    0.000    1.714    4.286    1.714    4.000    2.857 
#    0.000    6.429    0.000    6.857    0.000    0.000 
#    0.000    0.000    0.000    0.000    0.000    0.000 
#
# Total GULP energy -173565.791361 kJ/mol
# GULP energy per Si atom -12397.556526 kJ/mol
# Density = 2.487033 g / cm^3
# Si number density = 24.927068 Si / 1000 Ang^3
#
#
#
# Elastic Constant Matrix: (Units=GPa)
#
#
# Indices 1 2 3 4 5 6 
#
# 1 135.8106 26.9076 65.1536 16.7057 -16.0960 12.5861
# 2 26.9076 115.7828 40.2442 32.8920 -3.6722 20.4961
# 3 65.1536 40.2442 138.0090 30.1919 -11.1413 14.4477
# 4 16.7057 32.8920 30.1919 28.8336 6.2320 -3.8477
# 5 -16.0960 -3.6722 -11.1413 6.2320 35.8024 7.9689
# 6 12.5861 20.4961 14.4477 -3.8477 7.9689 44.9729
#
#
#
# Elastic Compliance Matrix: (Units=1/GPa)
#
#
# Indices 1 2 3 4 5 6 
#
# 1 0.010387 0.001274 -0.003053 -0.006071 0.005810 -0.004056
# 2 0.001274 0.018601 0.002839 -0.029363 0.011664 -0.014325
# 3 -0.003053 0.002839 0.013248 -0.018065 0.007886 -0.007638
# 4 -0.006071 -0.029363 -0.018065 0.103571 -0.037491 0.036389
# 5 0.005810 0.011664 0.007886 -0.037491 0.045330 -0.020715
# 6 -0.004056 -0.014325 -0.007638 0.036389 -0.020715 0.039137
#
#
# Mechanical properties :
#
#
# Convention : Reuss Voigt Hill
#
# Bulk Modulus (GPa) = 22.54479 72.69035 47.61757
# Shear Modulus (GPa) = 20.58136 39.07490 29.82813
#
# Velocity S-wave (km/s) = 2.87655 3.96355 3.46297
# Velocity P-wave (km/s) = 4.48293 7.08314 5.92737
#
# Compressibility (1/GPa) = 0.04435614
#
# Stress axis : x y z
#
# Youngs Moduli (GPa) = 96.27645 53.75964 75.48450
#
# Poissons Ratio (x) = -0.06851 0.23048
# Poissons Ratio (y) = -0.12270 -0.21431
# Poissons Ratio (z) = 0.29397 -0.15263
#
# Static dielectric constant tensor:
#      x y z
#    x 3.552210 -1.114270 -0.658420 
#    y -1.114270 3.710490 -0.101490 
#    z -0.658420 -0.101490 4.191550 
# 
# 
# High freq. dielectric constant tensor:
#      x y z
#    x 1.992080 0.014540 -0.028480 
#    y 0.014540 2.006990 0.003140 
#    z -0.028480 0.003140 1.983230 
# 
# From -- ./inp_files/278631.got.cif
#   From: 2010.06.25/outbox.cif.g09.slc.cpg/sg2_140_cif.got.tgz:278631.got - 2010.06.27 13:26:56.
