data_PCOD8040442
_publ_section_title
;
Structure prediction by ZEFSAII (Michael W. Deem and Ramdas Pophale) SiO2 
 PCOD8040442
Probable space group: P -1
;
_chemical_formula_sum "Si O2"
_cell_formula_units_Z 16
_cell_length_a 12.810634
_cell_length_b 8.625924
_cell_length_c 11.475438
_cell_angle_alpha 132.833043
_cell_angle_beta 126.666734
_cell_angle_gamma 58.082970
_cell_volume 729.507593
_symmetry_space_group_name_H-M "P -1"
_symmetry_group_IT_number 2
_symmetry_cell_setting 'triclinic'
loop_
_space_group_symop_operation_xyz
x,y,z
-x,-y,-z
loop_
_atom_site_type_symbol
_atom_site_label
_atom_site_fract_x
_atom_site_fract_y
_atom_site_fract_z
Si Si1 0.545175 0.223249 0.623059
Si Si2 0.835235 0.132399 0.174747
Si Si3 0.809139 0.764287 0.294550
Si Si4 0.271249 0.501450 0.528410
Si Si5 0.914683 0.723424 0.595757
Si Si6 0.021356 0.279799 0.831712
Si Si7 0.645332 0.391557 0.999299
Si Si8 0.254821 0.789954 0.457225
O O1 0.418018 0.419454 0.635500
O O2 0.624672 0.219941 0.555544
O O3 0.500000 0.000000 0.500000
O O4 0.641693 0.269726 0.813286
O O5 0.805249 0.293663 0.345778
O O6 0.718897 0.203278 0.039114
O O7 0.979812 0.139969 0.217563
O O8 0.855303 0.886533 0.109095
O O9 0.836929 0.814088 0.473556
O O10 0.937229 0.685278 0.257233
O O11 0.719850 0.588234 0.134956
O O12 0.739981 0.013743 0.346346
O O13 0.189505 0.307570 0.388024
O O14 0.278400 0.566551 0.431740
O O15 0.000000 0.500000 0.500000
O O16 0.887075 0.186691 0.691923
O O17 0.000000 0.500000 0.000000
O O18 0.500000 0.500000 0.000000
#
# Coordination Sequence:
#
# PCOD8040442 Si02
#       8
#     2   2   2   2   2   2   2   2
#     4  12  27  47  69 104 144 186 237 290 347 420
#     4  11  22  42  74 104 138 182 239 284 354 414
#     4  12  22  42  73 101 138 188 230 288 351 420
#     4  11  22  44  72 103 136 184 244 279 352 417
#     4  10  18  36  69 106 127 176 236 282 334 419
#     4  12  26  44  66 110 147 178 232 298 357 414
#     4  12  24  45  72 103 140 186 239 285 342 421
#     4  12  25  43  72 102 144 186 230 289 358 417
#
# _framework density 21.932601999999999
#
# number of rings (size 3 to 8) (size 9 to 14) (size 15 to 20)
#    0.000    0.500    6.250    4.500    0.000    1.000 
#    0.000    8.750    0.000    0.000    0.000    0.000 
#    0.000    0.000    0.000    0.000    0.000    0.000 
#
# Total GULP energy -198313.876690 kJ/mol
# GULP energy per Si atom -12394.617293 kJ/mol
# Density = 2.188268 g / cm^3
# Si number density = 21.932602 Si / 1000 Ang^3
#
#
#
# Elastic Constant Matrix: (Units=GPa)
#
#
# Indices 1 2 3 4 5 6 
#
# 1 148.9065 45.8029 34.3889 3.2417 8.7081 16.3377
# 2 45.8029 126.1057 46.9966 -7.3486 4.9716 3.3650
# 3 34.3889 46.9966 103.3368 5.5340 5.5242 4.1858
# 4 3.2417 -7.3486 5.5340 39.2891 -2.6829 -1.2716
# 5 8.7081 4.9716 5.5242 -2.6829 32.5967 -3.3605
# 6 16.3377 3.3650 4.1858 -1.2716 -3.3605 33.0016
#
#
#
# Elastic Compliance Matrix: (Units=1/GPa)
#
#
# Indices 1 2 3 4 5 6 
#
# 1 0.008359 -0.002417 -0.001340 -0.001229 -0.002149 -0.003988
# 2 -0.002417 0.010494 -0.004151 0.002775 0.000056 0.000766
# 3 -0.001340 -0.004151 0.012246 -0.002507 -0.001363 -0.000702
# 4 -0.001229 0.002775 -0.002507 0.026675 0.002726 0.001949
# 5 -0.002149 0.000056 -0.001363 0.002726 0.032174 0.004613
# 6 -0.003988 0.000766 -0.000702 0.001949 0.004613 0.032831
#
#
# Mechanical properties :
#
#
# Convention : Reuss Voigt Hill
#
# Bulk Modulus (GPa) = 65.43268 70.30288 67.86778
# Shear Modulus (GPa) = 34.79725 37.72153 36.25939
#
# Velocity S-wave (km/s) = 3.98748 4.15165 4.07039
# Velocity P-wave (km/s) = 7.14830 7.42329 7.28709
#
# Compressibility (1/GPa) = 0.01528288
#
# Stress axis : x y z
#
# Youngs Moduli (GPa) = 119.63821 95.29538 81.65712
#
# Poissons Ratio (x) = 0.23032 0.10943
# Poissons Ratio (y) = 0.28916 0.33894
# Poissons Ratio (z) = 0.16033 0.39555
#
# Static dielectric constant tensor:
#      x y z
#    x 4.604470 0.357050 0.416220 
#    y 0.357050 4.198040 0.076850 
#    z 0.416220 0.076850 3.940330 
# 
# 
# High freq. dielectric constant tensor:
#      x y z
#    x 1.871060 0.007320 0.009550 
#    y 0.007320 1.879620 0.003050 
#    z 0.009550 0.003050 1.836460 
# 
# From -- ./inp_files/420120.got.cif
#   From: 2010.06.25/outbox.cif.g09.slc.cpg/sg2_211_cif.got.tgz:420120.got - 2010.06.27 13:26:56.
