data_PCOD8040213
_publ_section_title
;
Structure prediction by ZEFSAII (Michael W. Deem and Ramdas Pophale) SiO2 
 PCOD8040213
Probable space group: P -1
;
_chemical_formula_sum "Si O2"
_cell_formula_units_Z 16
_cell_length_a 14.989483
_cell_length_b 7.659930
_cell_length_c 10.438617
_cell_angle_alpha 126.342132
_cell_angle_beta 61.519555
_cell_angle_gamma 78.309507
_cell_volume 617.975585
_symmetry_space_group_name_H-M "P -1"
_symmetry_group_IT_number 2
_symmetry_cell_setting 'triclinic'
loop_
_space_group_symop_operation_xyz
x,y,z
-x,-y,-z
loop_
_atom_site_type_symbol
_atom_site_label
_atom_site_fract_x
_atom_site_fract_y
_atom_site_fract_z
Si Si1 0.542546 0.502229 0.830422
Si Si2 0.750939 0.503865 0.393464
Si Si3 0.115915 0.872155 0.471755
Si Si4 0.240731 0.957566 0.701089
Si Si5 0.683862 0.455201 0.016636
Si Si6 0.682429 0.728507 0.803165
Si Si7 0.561540 0.076602 0.271253
Si Si8 0.895705 0.414268 0.009728
O O1 0.552261 0.745171 0.904960
O O2 0.694118 0.188267 0.547265
O O3 0.500000 0.500000 0.000000
O O4 0.419786 0.568796 0.858012
O O5 0.717903 0.723454 0.627471
O O6 0.861217 0.459151 0.203907
O O7 0.605093 0.654249 0.491088
O O8 0.819419 0.179386 0.258993
O O9 0.249266 0.760538 0.249846
O O10 0.170406 0.571350 0.368704
O O11 0.000000 0.000000 0.500000
O O12 0.056027 0.119518 0.733510
O O13 0.367938 0.846225 0.655508
O O14 0.125677 0.316628 0.921742
O O15 0.594115 0.791222 0.178851
O O16 0.800645 0.362656 0.994729
O O17 0.627179 0.005665 0.050808
#
# Coordination Sequence:
#
# PCOD8040213 Si02
#       8
#     2   2   2   2   2   2   2   2
#     4  11  18  33  56  86 123 146 180 249 304 336
#     4  11  22  36  57  88 126 153 192 248 303 346
#     4   9  18  36  61  85 113 160 206 241 287 349
#     4  10  23  37  59  90 122 155 200 246 285 358
#     4   9  18  34  62  91 117 156 202 245 290 358
#     4  10  22  36  59  90 121 155 197 249 297 353
#     4  10  18  36  58  83 120 159 193 238 302 354
#     4  10  21  38  63  86 116 166 205 231 293 354
#
# _framework density 25.890989999999999
#
# number of rings (size 3 to 8) (size 9 to 14) (size 15 to 20)
#    0.000    2.000    2.500    3.000    0.000    3.500 
#    0.000    2.500    0.000   27.750    0.000    0.000 
#    0.000    0.000    0.000    0.000    0.000    0.000 
#
# Total GULP energy -198252.718088 kJ/mol
# GULP energy per Si atom -12390.794881 kJ/mol
# Density = 2.583206 g / cm^3
# Si number density = 25.890990 Si / 1000 Ang^3
#
#
#
# Elastic Constant Matrix: (Units=GPa)
#
#
# Indices 1 2 3 4 5 6 
#
# 1 37.5375 21.2236 7.6214 -2.6026 4.2511 8.0724
# 2 21.2236 91.1187 41.8004 -16.7755 -7.8125 3.1955
# 3 7.6214 41.8004 143.9910 -19.6158 -5.7668 13.0323
# 4 -2.6026 -16.7755 -19.6158 38.0952 -11.3756 2.1457
# 5 4.2511 -7.8125 -5.7668 -11.3756 41.3361 0.0312
# 6 8.0724 3.1955 13.0323 2.1457 0.0312 28.6650
#
#
#
# Elastic Compliance Matrix: (Units=1/GPa)
#
#
# Indices 1 2 3 4 5 6 
#
# 1 0.033885 -0.008980 0.001079 -0.002272 -0.005650 -0.008856
# 2 -0.008980 0.016117 -0.003303 0.006245 0.005226 0.001761
# 3 0.001079 -0.003303 0.008819 0.003865 0.001562 -0.004236
# 4 -0.002272 0.006245 0.003865 0.034503 0.011452 -0.004409
# 5 -0.005650 0.005226 0.001562 0.011452 0.029131 -0.000591
# 6 -0.008856 0.001761 -0.004236 -0.004409 -0.000591 0.039440
#
#
# Mechanical properties :
#
#
# Convention : Reuss Voigt Hill
#
# Bulk Modulus (GPa) = 27.46183 45.99311 36.72747
# Shear Modulus (GPa) = 25.45304 35.08604 30.26954
#
# Velocity S-wave (km/s) = 3.13882 3.68522 3.42294
# Velocity P-wave (km/s) = 4.87504 5.99254 5.46244
#
# Compressibility (1/GPa) = 0.03641417
#
# Stress axis : x y z
#
# Youngs Moduli (GPa) = 29.51179 62.04447 113.38945
#
# Poissons Ratio (x) = 0.55714 -0.12234
# Poissons Ratio (y) = 0.26501 0.37452
# Poissons Ratio (z) = -0.03184 0.20493
#
# Static dielectric constant tensor:
#      x y z
#    x 5.390770 -0.292810 -0.030500 
#    y -0.292810 4.412780 -0.190950 
#    z -0.030500 -0.190950 5.205610 
# 
# 
# High freq. dielectric constant tensor:
#      x y z
#    x 2.049010 -0.032430 0.005320 
#    y -0.032430 2.010520 -0.001200 
#    z 0.005320 -0.001200 2.051980 
# 
# From -- ./inp_files/461626.got.cif
#   From: 2010.06.25/outbox.cif.g09.slc.cpg/sg2_231_cif.got.tgz:461626.got - 2010.06.27 13:26:56.
