data_PCOD8040285
_publ_section_title
;
Structure prediction by ZEFSAII (Michael W. Deem and Ramdas Pophale) SiO2 
 PCOD8040285
Probable space group: P -1
;
_chemical_formula_sum "Si O2"
_cell_formula_units_Z 14
_cell_length_a 17.786024
_cell_length_b 8.660457
_cell_length_c 11.076967
_cell_angle_alpha 130.973367
_cell_angle_beta 30.452563
_cell_angle_gamma 132.344900
_cell_volume 626.196080
_symmetry_space_group_name_H-M "P -1"
_symmetry_group_IT_number 2
_symmetry_cell_setting 'triclinic'
loop_
_space_group_symop_operation_xyz
x,y,z
-x,-y,-z
loop_
_atom_site_type_symbol
_atom_site_label
_atom_site_fract_x
_atom_site_fract_y
_atom_site_fract_z
Si Si1 0.556542 0.934658 0.262379
Si Si2 0.341554 0.823799 0.983788
Si Si3 0.071570 0.426024 0.168196
Si Si4 0.079409 0.319331 0.837346
Si Si5 0.828373 0.910326 0.007170
Si Si6 0.251772 0.839825 0.526586
Si Si7 0.652735 0.844248 0.662134
O O1 0.689230 0.825896 0.059939
O O2 0.410589 0.782939 0.313197
O O3 0.500000 0.000000 0.500000
O O4 0.632480 0.140847 0.177915
O O5 0.477284 0.727728 0.799720
O O6 0.170169 0.670902 0.170148
O O7 0.355331 0.051435 0.142914
O O8 0.884987 0.383445 0.407136
O O9 0.118026 0.336315 0.933599
O O10 0.113195 0.293307 0.152129
O O11 0.245844 0.324950 0.550156
O O12 0.000000 0.500000 0.000000
O O13 0.962012 0.092191 0.849663
O O14 0.781942 0.007537 0.244397
O O15 0.266841 0.966430 0.445394
#
# Coordination Sequence:
#
# PCOD8040285 Si02
#       7
#     2   2   2   2   2   2   2
#     4   9  19  37  60  87 119 167 201 254 307 363
#     4  10  23  38  64  92 124 162 209 253 314 374
#     4  11  20  37  61  96 118 155 217 257 301 369
#     4  11  21  37  63  92 124 164 212 256 302 364
#     4  10  18  36  60  89 126 154 205 262 304 356
#     4   9  17  36  61  83 123 164 197 251 316 352
#     4  10  20  42  61  87 130 166 199 257 316 365
#
# _framework density 22.357215
#
# number of rings (size 3 to 8) (size 9 to 14) (size 15 to 20)
#    0.000    2.000    2.857    1.714    0.000    1.143 
#   10.286    2.857    3.143    2.571    0.000    0.000 
#    0.000    0.000    0.000    0.000    0.000    0.000 
#
# Total GULP energy -173457.382163 kJ/mol
# GULP energy per Si atom -12389.813012 kJ/mol
# Density = 2.230633 g / cm^3
# Si number density = 22.357215 Si / 1000 Ang^3
#
#
#
# Elastic Constant Matrix: (Units=GPa)
#
#
# Indices 1 2 3 4 5 6 
#
# 1 118.5827 45.7442 42.6210 -3.8426 -34.4624 -2.6428
# 2 45.7442 89.7936 22.4117 -26.3894 -18.1073 2.0975
# 3 42.6210 22.4117 79.4315 -4.3300 -28.1175 1.4304
# 4 -3.8426 -26.3894 -4.3300 31.8637 -0.4667 -10.8532
# 5 -34.4624 -18.1073 -28.1175 -0.4667 44.6989 -6.2363
# 6 -2.6428 2.0975 1.4304 -10.8532 -6.2363 27.4029
#
#
#
# Elastic Compliance Matrix: (Units=1/GPa)
#
#
# Indices 1 2 3 4 5 6 
#
# 1 0.013736 -0.005628 -0.003757 -0.002629 0.006245 0.002331
# 2 -0.005628 0.020227 -0.000082 0.018264 0.004867 0.006254
# 3 -0.003757 -0.000082 0.017746 0.002586 0.008494 0.001675
# 4 -0.002629 0.018264 0.002586 0.054233 0.010650 0.022117
# 5 0.006245 0.004867 0.008494 0.010650 0.036324 0.012271
# 6 0.002331 0.006254 0.001675 0.022117 0.012271 0.047703
#
#
# Mechanical properties :
#
#
# Convention : Reuss Voigt Hill
#
# Bulk Modulus (GPa) = 30.51046 56.59572 43.55309
# Shear Modulus (GPa) = 22.74510 32.59517 27.67013
#
# Velocity S-wave (km/s) = 3.19305 3.82242 3.52182
# Velocity P-wave (km/s) = 5.22212 6.69705 6.00504
#
# Compressibility (1/GPa) = 0.03277565
#
# Stress axis : x y z
#
# Youngs Moduli (GPa) = 72.80185 49.43944 56.35087
#
# Poissons Ratio (x) = 0.27823 0.21172
# Poissons Ratio (y) = 0.40971 0.00460
# Poissons Ratio (z) = 0.27353 0.00403
#
# Static dielectric constant tensor:
#      x y z
#    x 4.402020 0.067350 -0.398950 
#    y 0.067350 3.604480 -0.494920 
#    z -0.398950 -0.494920 4.228810 
# 
# 
# High freq. dielectric constant tensor:
#      x y z
#    x 1.893200 0.001380 -0.017250 
#    y 0.001380 1.834680 -0.038480 
#    z -0.017250 -0.038480 1.871440 
# 
# From -- ./inp_files/171291.got.cif
#   From: 2010.06.25/outbox.cif.g09.slc.cpg/sg2_86_cif.got.tgz:171291.got - 2010.06.27 13:26:56.
