data_PCOD8040888
_publ_section_title
;
Structure prediction by ZEFSAII (Michael W. Deem and Ramdas Pophale) SiO2 
 PCOD8040888
Probable space group: P -1
;
_chemical_formula_sum "Si O2"
_cell_formula_units_Z 16
_cell_length_a 15.004136
_cell_length_b 9.057618
_cell_length_c 8.659853
_cell_angle_alpha 121.472174
_cell_angle_beta 59.511716
_cell_angle_gamma 80.846532
_cell_volume 706.554451
_symmetry_space_group_name_H-M "P -1"
_symmetry_group_IT_number 2
_symmetry_cell_setting 'triclinic'
loop_
_space_group_symop_operation_xyz
x,y,z
-x,-y,-z
loop_
_atom_site_type_symbol
_atom_site_label
_atom_site_fract_x
_atom_site_fract_y
_atom_site_fract_z
Si Si1 0.204723 0.517235 0.598288
Si Si2 0.526386 0.291386 0.785169
Si Si3 0.173602 0.092815 0.050515
Si Si4 0.261128 0.166460 0.565238
Si Si5 0.053856 0.132593 0.855361
Si Si6 0.919331 0.276721 0.494239
Si Si7 0.382721 0.650696 0.579099
Si Si8 0.726878 0.655890 0.037809
O O1 0.252555 0.279126 0.473801
O O2 0.153374 0.559999 0.493792
O O3 0.324689 0.527391 0.504829
O O4 0.095183 0.682899 0.904683
O O5 0.579159 0.266808 0.553761
O O6 0.399661 0.301486 0.899045
O O7 0.631524 0.085000 0.677706
O O8 0.500000 0.500000 0.000000
O O9 0.063015 0.212255 0.341674
O O10 0.109900 0.061833 0.939894
O O11 0.232826 0.219670 0.031811
O O12 0.283096 0.856863 0.881383
O O13 0.124279 0.216128 0.746759
O O14 0.296440 0.270738 0.724805
O O15 0.079783 0.930157 0.632594
O O16 0.842408 0.405319 0.786140
O O17 0.500000 0.500000 0.500000
#
# Coordination Sequence:
#
# PCOD8040888 Si02
#       8
#     2   2   2   2   2   2   2   2
#     4  11  21  38  65  98 119 166 216 262 304 367
#     4  12  25  46  65  88 128 174 213 251 319 388
#     4  10  20  39  65  94 123 168 209 257 315 368
#     4  11  23  40  63  94 131 164 206 261 324 374
#     4  10  18  39  67  88 126 169 210 250 311 379
#     4  11  20  41  69  94 125 166 217 260 306 376
#     4  12  23  40  67  93 128 163 214 258 315 376
#     4  11  23  38  65  92 127 169 207 256 318 375
#
# _framework density 22.645106999999999
#
# number of rings (size 3 to 8) (size 9 to 14) (size 15 to 20)
#    0.000    1.000    5.000    4.125    1.750    0.000 
#    2.250    1.875    0.000    0.000    0.000    0.000 
#    0.000    0.000    0.000    0.000    0.000    0.000 
#
# Total GULP energy -198467.486703 kJ/mol
# GULP energy per Si atom -12404.217919 kJ/mol
# Density = 2.259357 g / cm^3
# Si number density = 22.645107 Si / 1000 Ang^3
#
#
#
# Elastic Constant Matrix: (Units=GPa)
#
#
# Indices 1 2 3 4 5 6 
#
# 1 97.3024 23.1896 28.8475 8.5145 -23.4997 17.8297
# 2 23.1896 90.8871 19.4763 25.6578 -10.2634 -0.8742
# 3 28.8475 19.4763 103.2633 25.7732 -12.4985 0.7981
# 4 8.5145 25.6578 25.7732 34.0515 5.5858 -6.9557
# 5 -23.4997 -10.2634 -12.4985 5.5858 41.9495 2.6989
# 6 17.8297 -0.8742 0.7981 -6.9557 2.6989 31.5941
#
#
#
# Elastic Compliance Matrix: (Units=1/GPa)
#
#
# Indices 1 2 3 4 5 6 
#
# 1 0.015851 -0.001088 -0.001512 -0.005838 0.009651 -0.011047
# 2 -0.001088 0.015545 0.001611 -0.014129 0.005722 -0.002596
# 3 -0.001512 0.001611 0.013627 -0.012594 0.005457 -0.002685
# 4 -0.005838 -0.014129 -0.012594 0.057765 -0.019303 0.017588
# 5 0.009651 0.005722 0.005457 -0.019303 0.035659 -0.012722
# 6 -0.011047 -0.002596 -0.002685 0.017588 -0.012722 0.042841
#
#
# Mechanical properties :
#
#
# Convention : Reuss Voigt Hill
#
# Bulk Modulus (GPa) = 23.23185 48.27552 35.75369
# Shear Modulus (GPa) = 25.30181 36.18165 30.74173
#
# Velocity S-wave (km/s) = 3.34626 4.00155 3.68848
# Velocity P-wave (km/s) = 5.02109 6.53563 5.82777
#
# Compressibility (1/GPa) = 0.04304435
#
# Stress axis : x y z
#
# Youngs Moduli (GPa) = 63.08789 64.32901 73.38398
#
# Poissons Ratio (x) = 0.07002 0.11096
# Poissons Ratio (y) = 0.06867 -0.11824
# Poissons Ratio (z) = 0.09540 -0.10365
#
# Static dielectric constant tensor:
#      x y z
#    x 4.030160 0.180960 -0.254610 
#    y 0.180960 4.017130 0.159260 
#    z -0.254610 0.159260 4.346180 
# 
# 
# High freq. dielectric constant tensor:
#      x y z
#    x 1.889090 0.025780 -0.019540 
#    y 0.025780 1.883980 0.015130 
#    z -0.019540 0.015130 1.895410 
# 
# From -- ./inp_files/186161.got.cif
#   From: 2010.06.25/outbox.cif.g09.slc.cpg/sg2_94_cif.got.tgz:186161.got - 2010.06.27 13:26:56.
