data_PCOD8040221
_publ_section_title
;
Structure prediction by ZEFSAII (Michael W. Deem and Ramdas Pophale) SiO2 
 PCOD8040221
Probable space group: P -1
;
_chemical_formula_sum "Si O2"
_cell_formula_units_Z 16
_cell_length_a 13.883648
_cell_length_b 8.688803
_cell_length_c 8.699289
_cell_angle_alpha 132.381490
_cell_angle_beta 74.185971
_cell_angle_gamma 98.214310
_cell_volume 744.604373
_symmetry_space_group_name_H-M "P -1"
_symmetry_group_IT_number 2
_symmetry_cell_setting 'triclinic'
loop_
_space_group_symop_operation_xyz
x,y,z
-x,-y,-z
loop_
_atom_site_type_symbol
_atom_site_label
_atom_site_fract_x
_atom_site_fract_y
_atom_site_fract_z
Si Si1 0.373209 0.929245 0.175818
Si Si2 0.965700 0.064822 0.759003
Si Si3 0.456821 0.275331 0.199589
Si Si4 0.855844 0.635476 0.081015
Si Si5 0.294457 0.988663 0.576554
Si Si6 0.213274 0.713745 0.915852
Si Si7 0.621406 0.291260 0.401266
Si Si8 0.114731 0.754258 0.389635
O O1 0.358244 0.018842 0.414010
O O2 0.372061 0.117360 0.177311
O O3 0.480946 0.797148 0.028266
O O4 0.284392 0.783378 0.070673
O O5 0.902181 0.094264 0.648625
O O6 0.047554 0.238404 0.842451
O O7 0.880036 0.113788 0.959109
O O8 0.018868 0.830485 0.592153
O O9 0.533915 0.260309 0.298721
O O10 0.406004 0.503269 0.346859
O O11 0.833984 0.498183 0.148382
O O12 0.759164 0.792380 0.199356
O O13 0.878522 0.489479 0.822519
O O14 0.369070 0.907987 0.625138
O O15 0.216474 0.809006 0.465883
O O16 0.273198 0.676826 0.707981
#
# Coordination Sequence:
#
# PCOD8040221 Si02
#       8
#     2   2   2   2   2   2   2   2
#     4  10  19  37  60  85 109 145 192 235 282 337
#     4   9  17  31  60  83 113 152 194 229 262 331
#     4   9  21  41  58  79 113 145 191 238 281 343
#     4  10  19  34  59  87 118 147 192 231 273 327
#     4  11  21  35  59  88 115 148 184 236 283 333
#     4  10  18  36  58  85 113 152 191 229 274 339
#     4  10  22  39  57  81 115 149 186 235 291 337
#     4   9  17  33  50  87 117 140 185 234 268 319
#
# _framework density 21.487921
#
# number of rings (size 3 to 8) (size 9 to 14) (size 15 to 20)
#    0.000    2.250    2.500    2.250    0.000    1.000 
#    9.000    2.500    0.000    3.750    0.000    0.000 
#    0.000    0.000    0.000    0.000    0.000    0.000 
#
# Total GULP energy -198291.443557 kJ/mol
# GULP energy per Si atom -12393.215222 kJ/mol
# Density = 2.143901 g / cm^3
# Si number density = 21.487921 Si / 1000 Ang^3
#
#
#
# Elastic Constant Matrix: (Units=GPa)
#
#
# Indices 1 2 3 4 5 6 
#
# 1 60.0092 23.5131 38.8316 -3.2688 -24.2775 0.1849
# 2 23.5131 53.9940 42.0470 7.6167 -18.6357 -4.4805
# 3 38.8316 42.0470 137.1802 27.1636 -39.1979 -5.2377
# 4 -3.2688 7.6167 27.1636 26.5292 -0.5940 -5.6662
# 5 -24.2775 -18.6357 -39.1979 -0.5940 38.9883 4.6840
# 6 0.1849 -4.4805 -5.2377 -5.6662 4.6840 25.9353
#
#
#
# Elastic Compliance Matrix: (Units=1/GPa)
#
#
# Indices 1 2 3 4 5 6 
#
# 1 0.026507 -0.006025 -0.005263 0.010232 0.008686 -0.001626
# 2 -0.006025 0.026792 -0.004647 -0.003089 0.004056 0.002326
# 3 -0.005263 -0.004647 0.016655 -0.016779 0.011365 -0.003120
# 4 0.010232 -0.003089 -0.016779 0.059129 -0.012415 0.011165
# 5 0.008686 0.004056 0.011365 -0.012415 0.045187 -0.007939
# 6 -0.001626 0.002326 -0.003120 0.011165 -0.007939 0.042214
#
#
# Mechanical properties :
#
#
# Convention : Reuss Voigt Hill
#
# Bulk Modulus (GPa) = 26.25852 51.10742 38.68297
# Shear Modulus (GPa) = 19.15367 28.07666 23.61516
#
# Velocity S-wave (km/s) = 2.98882 3.61865 3.31871
# Velocity P-wave (km/s) = 4.91502 6.42615 5.72070
#
# Compressibility (1/GPa) = 0.03808287
#
# Stress axis : x y z
#
# Youngs Moduli (GPa) = 37.72636 37.32490 60.04347
#
# Poissons Ratio (x) = 0.22489 0.31599
# Poissons Ratio (y) = 0.22731 0.27903
# Poissons Ratio (z) = 0.19854 0.17345
#
# Static dielectric constant tensor:
#      x y z
#    x 3.856790 0.133200 -0.486010 
#    y 0.133200 3.374680 0.187370 
#    z -0.486010 0.187370 4.431780 
# 
# 
# High freq. dielectric constant tensor:
#      x y z
#    x 1.840810 0.016010 -0.025970 
#    y 0.016010 1.792190 0.016970 
#    z -0.025970 0.016970 1.861140 
# 
# From -- ./inp_files/299628.got.cif
#   From: 2010.06.25/outbox.cif.g09.slc.cpg/sg2_150_cif.got.tgz:299628.got - 2010.06.27 13:26:56.
