data_PCOD8040898
_publ_section_title
;
Structure prediction by ZEFSAII (Michael W. Deem and Ramdas Pophale) SiO2 
 PCOD8040898
Probable space group: P -1
;
_chemical_formula_sum "Si O2"
_cell_formula_units_Z 16
_cell_length_a 21.225184
_cell_length_b 18.047075
_cell_length_c 11.239058
_cell_angle_alpha 151.056289
_cell_angle_beta 32.095934
_cell_angle_gamma 159.847330
_cell_volume 709.267888
_symmetry_space_group_name_H-M "P -1"
_symmetry_group_IT_number 2
_symmetry_cell_setting 'triclinic'
loop_
_space_group_symop_operation_xyz
x,y,z
-x,-y,-z
loop_
_atom_site_type_symbol
_atom_site_label
_atom_site_fract_x
_atom_site_fract_y
_atom_site_fract_z
Si Si1 0.427926 0.257506 0.276370
Si Si2 0.507388 0.410885 0.743702
Si Si3 0.164944 0.025284 0.585525
Si Si4 0.570201 0.209117 0.521753
Si Si5 0.286026 0.682746 0.149842
Si Si6 0.347250 0.167608 0.009884
Si Si7 0.986370 0.612767 0.444520
Si Si8 0.023373 0.220349 0.067686
O O1 0.500000 0.500000 0.500000
O O2 0.262874 0.074145 0.375244
O O3 0.360644 0.141979 0.090817
O O4 0.592214 0.302305 0.113106
O O5 0.306504 0.191481 0.700099
O O6 0.582139 0.318873 0.534035
O O7 0.636448 0.631018 0.752926
O O8 0.500000 0.500000 0.000000
O O9 0.049821 0.065070 0.806665
O O10 0.028994 0.750711 0.450443
O O11 0.775036 0.342553 0.402464
O O12 0.418870 0.927820 0.354102
O O13 0.513323 0.253188 0.789818
O O14 0.200718 0.484106 0.104739
O O15 0.126788 0.609851 0.227585
O O16 0.151160 0.910994 0.919173
O O17 0.020889 0.765579 0.710572
#
# Coordination Sequence:
#
# PCOD8040898 Si02
#       8
#     2   2   2   2   2   2   2   2
#     4  12  26  48  69  98 145 199 232 282 353 432
#     4  10  18  39  68 102 136 178 229 286 348 406
#     4  12  24  47  69 102 146 191 235 284 348 429
#     4  11  24  44  74 109 142 180 234 303 364 403
#     4  12  26  47  72 110 142 184 236 297 362 412
#     4  11  23  42  73 104 144 186 237 293 351 418
#     4  12  25  45  73 107 144 178 237 299 359 413
#     4  12  24  42  73 111 141 178 239 302 352 417
#
# _framework density 22.558471999999998
#
# number of rings (size 3 to 8) (size 9 to 14) (size 15 to 20)
#    0.000    0.500    5.000    4.500    1.750    2.000 
#    0.000    0.625    0.000    0.000    0.000    0.000 
#    0.000    0.000    0.000    0.000    0.000    0.000 
#
# Total GULP energy -198427.464456 kJ/mol
# GULP energy per Si atom -12401.716528 kJ/mol
# Density = 2.250713 g / cm^3
# Si number density = 22.558472 Si / 1000 Ang^3
#
#
#
# Elastic Constant Matrix: (Units=GPa)
#
#
# Indices 1 2 3 4 5 6 
#
# 1 97.5816 28.4663 30.8051 -12.7008 -13.3132 9.7491
# 2 28.4663 68.5593 6.6292 -4.3355 0.3489 26.7475
# 3 30.8051 6.6292 88.2511 -22.1094 -24.4148 5.9671
# 4 -12.7008 -4.3355 -22.1094 34.3900 2.8440 -4.0863
# 5 -13.3132 0.3489 -24.4148 2.8440 32.0968 -3.4604
# 6 9.7491 26.7475 5.9671 -4.0863 -3.4604 41.5879
#
#
#
# Elastic Compliance Matrix: (Units=1/GPa)
#
#
# Indices 1 2 3 4 5 6 
#
# 1 0.013442 -0.005751 -0.002829 0.002311 0.003440 0.001467
# 2 -0.005751 0.022140 -0.000017 -0.000590 -0.004019 -0.013281
# 3 -0.002829 -0.000017 0.017915 0.009511 0.011612 0.000004
# 4 0.002311 -0.000590 0.009511 0.035824 0.005287 0.002433
# 5 0.003440 -0.004019 0.011612 0.005287 0.041430 0.004079
# 6 0.001467 -0.013281 0.000004 0.002433 0.004079 0.032821
#
#
# Mechanical properties :
#
#
# Convention : Reuss Voigt Hill
#
# Bulk Modulus (GPa) = 27.54628 42.91035 35.22832
# Shear Modulus (GPa) = 25.92451 34.18105 30.05278
#
# Velocity S-wave (km/s) = 3.39368 3.89681 3.65391
# Velocity P-wave (km/s) = 5.25297 6.26976 5.78375
#
# Compressibility (1/GPa) = 0.03630254
#
# Stress axis : x y z
#
# Youngs Moduli (GPa) = 74.39313 45.16654 55.81955
#
# Poissons Ratio (x) = 0.25977 0.15790
# Poissons Ratio (y) = 0.42787 0.00095
# Poissons Ratio (z) = 0.21044 0.00077
#
# Static dielectric constant tensor:
#      x y z
#    x 4.416890 -0.140570 -0.291660 
#    y -0.140570 4.162490 -0.005090 
#    z -0.291660 -0.005090 4.128170 
# 
# 
# High freq. dielectric constant tensor:
#      x y z
#    x 1.892190 -0.001370 -0.021490 
#    y -0.001370 1.899440 0.005550 
#    z -0.021490 0.005550 1.873290 
# 
# From -- ./inp_files/472472.got.cif
#   From: 2010.06.25/outbox.cif.g09.slc.cpg/sg2_237_cif.got.tgz:472472.got - 2010.06.27 13:26:56.
