data_PCOD8040529
_publ_section_title
;
Structure prediction by ZEFSAII (Michael W. Deem and Ramdas Pophale) SiO2 
 PCOD8040529
Probable space group: P -1
;
_chemical_formula_sum "Si O2"
_cell_formula_units_Z 16
_cell_length_a 14.391049
_cell_length_b 8.467053
_cell_length_c 9.308941
_cell_angle_alpha 114.845943
_cell_angle_beta 51.876364
_cell_angle_gamma 113.885364
_cell_volume 792.733794
_symmetry_space_group_name_H-M "P -1"
_symmetry_group_IT_number 2
_symmetry_cell_setting 'triclinic'
loop_
_space_group_symop_operation_xyz
x,y,z
-x,-y,-z
loop_
_atom_site_type_symbol
_atom_site_label
_atom_site_fract_x
_atom_site_fract_y
_atom_site_fract_z
Si Si1 0.156680 0.241977 0.203562
Si Si2 0.064855 0.190210 0.566106
Si Si3 0.364173 0.638684 0.778024
Si Si4 0.584974 0.559094 0.076533
Si Si5 0.983272 0.791620 0.937262
Si Si6 0.237801 0.261870 0.678299
Si Si7 0.456983 0.171311 0.553451
Si Si8 0.143629 0.821045 0.041386
O O1 0.122103 0.305182 0.418183
O O2 0.167429 0.034876 0.111007
O O3 0.281817 0.359222 0.076918
O O4 0.043474 0.275350 0.225980
O O5 0.178660 0.179371 0.555380
O O6 0.963903 0.268932 0.779984
O O7 0.000000 0.000000 0.500000
O O8 0.408737 0.603414 0.882783
O O9 0.322404 0.457290 0.657643
O O10 0.470775 0.752256 0.627748
O O11 0.262290 0.753159 0.940459
O O12 0.526948 0.698631 0.275647
O O13 0.500000 0.500000 0.000000
O O14 0.862942 0.705842 0.103469
O O15 0.099728 0.749834 0.894363
O O16 0.000000 0.000000 0.000000
O O17 0.316483 0.128108 0.620656
O O18 0.500000 0.000000 0.500000
#
# Coordination Sequence:
#
# PCOD8040529 Si02
#       8
#     2   2   2   2   2   2   2   2
#     4  10  18  37  61  85 120 162 197 247 305 361
#     4   9  20  36  60  88 121 159 197 243 305 364
#     4  11  23  40  64  89 124 159 206 259 306 366
#     4  11  24  42  62  90 128 161 203 257 320 356
#     4   9  17  32  61  83 114 156 202 244 299 357
#     4  10  20  39  62  86 120 159 202 252 307 351
#     4  11  24  43  66  92 118 164 217 252 300 380
#     4   9  20  38  60  89 118 156 209 243 300 367
#
# _framework density 20.183320999999999
#
# number of rings (size 3 to 8) (size 9 to 14) (size 15 to 20)
#    0.000    2.000    2.500    3.000    5.250    2.000 
#    4.500    1.875    0.000    0.000    0.000    0.000 
#    0.000    0.000    0.000    0.000    0.000    0.000 
#
# Total GULP energy -198234.593998 kJ/mol
# GULP energy per Si atom -12389.662125 kJ/mol
# Density = 2.013738 g / cm^3
# Si number density = 20.183321 Si / 1000 Ang^3
#
#
#
# Elastic Constant Matrix: (Units=GPa)
#
#
# Indices 1 2 3 4 5 6 
#
# 1 150.7062 27.7791 50.9470 7.2916 35.0623 1.4038
# 2 27.7791 53.5240 20.5820 -16.2650 7.8155 -7.3524
# 3 50.9470 20.5820 95.6648 -14.2214 20.5472 -9.1603
# 4 7.2916 -16.2650 -14.2214 32.1624 -4.1944 -2.1897
# 5 35.0623 7.8155 20.5472 -4.1944 37.0502 1.4618
# 6 1.4038 -7.3524 -9.1603 -2.1897 1.4618 27.5360
#
#
#
# Elastic Compliance Matrix: (Units=1/GPa)
#
#
# Indices 1 2 3 4 5 6 
#
# 1 0.011938 -0.006609 -0.005069 -0.009634 -0.008009 -0.004401
# 2 -0.006609 0.028040 0.000522 0.016745 0.001581 0.009245
# 3 -0.005069 0.000522 0.015595 0.008319 -0.003273 0.006421
# 4 -0.009634 0.016745 0.008319 0.046945 0.005846 0.011153
# 5 -0.008009 0.001581 -0.003273 0.005846 0.036782 -0.001746
# 6 -0.004401 0.009245 0.006421 0.011153 -0.001746 0.042125
#
#
# Mechanical properties :
#
#
# Convention : Reuss Voigt Hill
#
# Bulk Modulus (GPa) = 30.06552 55.39012 42.72782
# Shear Modulus (GPa) = 23.27489 32.72218 27.99854
#
# Velocity S-wave (km/s) = 3.39953 4.03084 3.72857
# Velocity P-wave (km/s) = 5.50796 7.01189 6.30493
#
# Compressibility (1/GPa) = 0.03326069
#
# Stress axis : x y z
#
# Youngs Moduli (GPa) = 83.76843 35.66288 64.12328
#
# Poissons Ratio (x) = 0.23570 0.32504
# Poissons Ratio (y) = 0.55364 -0.03347
# Poissons Ratio (z) = 0.42462 -0.01861
#
# Static dielectric constant tensor:
#      x y z
#    x 4.068350 -0.041440 0.228900 
#    y -0.041440 3.513970 -0.351740 
#    z 0.228900 -0.351740 3.993570 
# 
# 
# High freq. dielectric constant tensor:
#      x y z
#    x 1.800870 0.000940 0.006520 
#    y 0.000940 1.768010 -0.028430 
#    z 0.006520 -0.028430 1.783610 
# 
# From -- ./inp_files/274084.got.cif
#   From: 2010.06.25/outbox.cif.g09.slc.cpg/sg2_138_cif.got.tgz:274084.got - 2010.06.27 13:26:56.
