data_PCOD8040402
_publ_section_title
;
Structure prediction by ZEFSAII (Michael W. Deem and Ramdas Pophale) SiO2 
 PCOD8040402
Probable space group: P -1
;
_chemical_formula_sum "Si O2"
_cell_formula_units_Z 16
_cell_length_a 12.081675
_cell_length_b 14.600581
_cell_length_c 9.461584
_cell_angle_alpha 105.386502
_cell_angle_beta 45.102767
_cell_angle_gamma 132.809334
_cell_volume 790.146411
_symmetry_space_group_name_H-M "P -1"
_symmetry_group_IT_number 2
_symmetry_cell_setting 'triclinic'
loop_
_space_group_symop_operation_xyz
x,y,z
-x,-y,-z
loop_
_atom_site_type_symbol
_atom_site_label
_atom_site_fract_x
_atom_site_fract_y
_atom_site_fract_z
Si Si1 0.367392 0.638851 0.873630
Si Si2 0.877570 0.851334 0.518897
Si Si3 0.515751 0.950050 0.609507
Si Si4 0.984788 0.387792 0.693446
Si Si5 0.739776 0.338343 0.317300
Si Si6 0.131131 0.359934 0.033859
Si Si7 0.989200 0.230145 0.402801
Si Si8 0.064710 0.794907 0.110894
O O1 0.627549 0.773789 0.670958
O O2 0.232988 0.599714 0.833647
O O3 0.245796 0.651349 0.105987
O O4 0.353694 0.521860 0.884769
O O5 0.866482 0.776974 0.633195
O O6 0.020759 0.870015 0.269763
O O7 0.000000 0.000000 0.500000
O O8 0.749006 0.075515 0.528410
O O9 0.500000 0.000000 0.500000
O O10 0.492884 0.826201 0.540219
O O11 0.324030 0.900971 0.871604
O O12 0.998783 0.322661 0.784743
O O13 0.208380 0.555512 0.570112
O O14 0.971359 0.325742 0.532254
O O15 0.921348 0.336855 0.183285
O O16 0.123883 0.303777 0.166455
O O17 0.109851 0.273648 0.892085
#
# Coordination Sequence:
#
# PCOD8040402 Si02
#       8
#     2   2   2   2   2   2   2   2
#     4  11  20  38  66  88 125 161 203 242 305 365
#     4  11  27  41  57  90 130 165 197 249 304 371
#     4  11  20  36  66  91 117 160 199 251 302 353
#     4  10  20  37  67  95 116 157 207 263 293 347
#     4  10  18  36  64  95 117 152 212 250 290 355
#     4  10  19  39  67  90 120 154 206 262 292 351
#     4  11  24  40  62  95 128 150 206 257 310 353
#     4  10  20  40  65  89 115 159 212 242 301 363
#
# _framework density 20.249410999999998
#
# number of rings (size 3 to 8) (size 9 to 14) (size 15 to 20)
#    0.000    1.500    6.250    1.500    1.750    4.000 
#    0.000    0.625    2.750    0.000    0.000    0.000 
#    0.000    0.000    0.000    0.000    0.000    0.000 
#
# Total GULP energy -198243.601783 kJ/mol
# GULP energy per Si atom -12390.225111 kJ/mol
# Density = 2.020332 g / cm^3
# Si number density = 20.249411 Si / 1000 Ang^3
#
#
#
# Elastic Constant Matrix: (Units=GPa)
#
#
# Indices 1 2 3 4 5 6 
#
# 1 63.7676 18.9240 25.1263 8.7828 14.3902 0.3893
# 2 18.9240 168.4114 45.8898 3.1305 0.5918 -2.3414
# 3 25.1263 45.8898 53.3369 2.2379 16.8640 -4.0365
# 4 8.7828 3.1305 2.2379 27.7552 2.1309 0.2068
# 5 14.3902 0.5918 16.8640 2.1309 34.1159 -4.3373
# 6 0.3893 -2.3414 -4.0365 0.2068 -4.3373 29.8972
#
#
#
# Elastic Compliance Matrix: (Units=1/GPa)
#
#
# Indices 1 2 3 4 5 6 
#
# 1 0.020737 0.000008 -0.008248 -0.005531 -0.004580 -0.002009
# 2 0.000008 0.008192 -0.008285 -0.000566 0.003999 0.000107
# 3 -0.008248 -0.008285 0.033961 0.001788 -0.013004 0.002145
# 4 -0.005531 -0.000566 0.001788 0.037771 -0.000916 -0.000125
# 5 -0.004580 0.003999 -0.013004 -0.000916 0.038189 0.004164
# 6 -0.002009 0.000107 0.002145 -0.000125 0.004164 0.034377
#
#
# Mechanical properties :
#
#
# Convention : Reuss Voigt Hill
#
# Bulk Modulus (GPa) = 33.51035 51.71066 42.61050
# Shear Modulus (GPa) = 23.12424 31.39206 27.25815
#
# Velocity S-wave (km/s) = 3.38297 3.94162 3.67293
# Velocity P-wave (km/s) = 5.64305 6.80496 6.25106
#
# Compressibility (1/GPa) = 0.02984153
#
# Stress axis : x y z
#
# Youngs Moduli (GPa) = 48.22287 122.06445 29.44538
#
# Poissons Ratio (x) = -0.00101 0.24286
# Poissons Ratio (y) = -0.00040 0.24395
# Poissons Ratio (z) = 0.39774 1.01129
#
# Static dielectric constant tensor:
#      x y z
#    x 3.635490 -0.051400 0.252470 
#    y -0.051400 4.397270 -0.161350 
#    z 0.252470 -0.161350 3.849090 
# 
# 
# High freq. dielectric constant tensor:
#      x y z
#    x 1.781630 0.000790 0.017180 
#    y 0.000790 1.814280 -0.004050 
#    z 0.017180 -0.004050 1.756870 
# 
# From -- ./inp_files/251714.got.cif
#   From: 2010.06.25/outbox.cif.g09.slc.cpg/sg2_126_cif.got.tgz:251714.got - 2010.06.27 13:26:56.
