data_PCOD8040015
_publ_section_title
;
Structure prediction by ZEFSAII (Michael W. Deem and Ramdas Pophale) SiO2 
 PCOD8040015
Probable space group: P -1
;
_chemical_formula_sum "Si O2"
_cell_formula_units_Z 16
_cell_length_a 9.565719
_cell_length_b 11.745955
_cell_length_c 14.604603
_cell_angle_alpha 42.274836
_cell_angle_beta 128.813152
_cell_angle_gamma 107.628078
_cell_volume 818.565325
_symmetry_space_group_name_H-M "P -1"
_symmetry_group_IT_number 2
_symmetry_cell_setting 'triclinic'
loop_
_space_group_symop_operation_xyz
x,y,z
-x,-y,-z
loop_
_atom_site_type_symbol
_atom_site_label
_atom_site_fract_x
_atom_site_fract_y
_atom_site_fract_z
Si Si1 0.364112 0.023148 0.718822
Si Si2 0.421950 0.147985 0.259493
Si Si3 0.403787 0.894958 0.086976
Si Si4 0.599699 0.489230 0.423777
Si Si5 0.907985 0.048217 0.200476
Si Si6 0.017272 0.378929 0.991854
Si Si7 0.748511 0.588090 0.597729
Si Si8 0.683854 0.176472 0.511480
O O1 0.547034 0.062493 0.815545
O O2 0.230954 0.213395 0.512195
O O3 0.449017 0.876319 0.763604
O O4 0.240974 0.945315 0.783524
O O5 0.541998 0.207614 0.350423
O O6 0.374521 0.963665 0.364535
O O7 0.227045 0.306994 0.078739
O O8 0.482992 0.684562 0.223593
O O9 0.182169 0.970671 0.925363
O O10 0.500000 0.000000 0.000000
O O11 0.769801 0.501256 0.555204
O O12 0.465264 0.394949 0.475081
O O13 0.677870 0.362152 0.445462
O O14 0.100294 0.894124 0.390997
O O15 0.951295 0.230898 0.103409
O O16 0.891107 0.470140 0.799823
O O17 0.000000 0.500000 0.000000
#
# Coordination Sequence:
#
# PCOD8040015 Si02
#       8
#     2   2   2   2   2   2   2   2
#     4  10  21  40  60  88 121 152 192 241 296 349
#     4  10  22  37  58  84 121 154 195 244 290 341
#     4   9  19  37  60  87 119 157 187 240 300 344
#     4  10  18  35  61  88 114 152 200 240 286 348
#     4  10  22  38  61  87 118 158 192 240 298 343
#     4  11  23  39  60  87 118 156 200 239 287 352
#     4  10  20  35  62  88 114 152 196 244 288 342
#     4  10  21  37  57  89 115 158 197 238 291 350
#
# _framework density 19.546393999999999
#
# number of rings (size 3 to 8) (size 9 to 14) (size 15 to 20)
#    0.000    2.000    2.500    0.750    3.500    1.500 
#    0.000   11.250    0.000    0.000    0.000    0.000 
#    0.000    0.000    0.000    0.000    0.000    0.000 
#
# Total GULP energy -198227.004119 kJ/mol
# GULP energy per Si atom -12389.187757 kJ/mol
# Density = 1.950191 g / cm^3
# Si number density = 19.546394 Si / 1000 Ang^3
#
#
#
# Elastic Constant Matrix: (Units=GPa)
#
#
# Indices 1 2 3 4 5 6 
#
# 1 95.2554 41.1517 40.1349 3.1744 7.4695 -9.1439
# 2 41.1517 103.7028 46.7394 3.8596 10.5531 -15.7437
# 3 40.1349 46.7394 111.4722 13.5156 7.7121 -5.8073
# 4 3.1744 3.8596 13.5156 27.0265 9.8695 -2.3807
# 5 7.4695 10.5531 7.7121 9.8695 25.0198 1.0639
# 6 -9.1439 -15.7437 -5.8073 -2.3807 1.0639 27.0630
#
#
#
# Elastic Compliance Matrix: (Units=1/GPa)
#
#
# Indices 1 2 3 4 5 6 
#
# 1 0.013758 -0.003395 -0.003454 0.001646 -0.002352 0.002169
# 2 -0.003395 0.014463 -0.004502 0.003082 -0.005203 0.006776
# 3 -0.003454 -0.004502 0.012637 -0.005946 0.001451 -0.001655
# 4 0.001646 0.003082 -0.005946 0.046659 -0.018615 0.005909
# 5 -0.002352 -0.005203 0.001451 -0.018615 0.050063 -0.007116
# 6 0.002169 0.006776 -0.001655 0.005909 -0.007116 0.042070
#
#
# Mechanical properties :
#
#
# Convention : Reuss Voigt Hill
#
# Bulk Modulus (GPa) = 55.08272 62.94248 59.01260
# Shear Modulus (GPa) = 23.99177 27.98218 25.98697
#
# Velocity S-wave (km/s) = 3.50727 3.78772 3.65019
# Velocity P-wave (km/s) = 6.68153 7.16942 6.92977
#
# Compressibility (1/GPa) = 0.01815451
#
# Stress axis : x y z
#
# Youngs Moduli (GPa) = 72.68520 69.14170 79.13579
#
# Poissons Ratio (x) = 0.23477 0.27330
# Poissons Ratio (y) = 0.24680 0.35630
# Poissons Ratio (z) = 0.25103 0.31131
#
# Static dielectric constant tensor:
#      x y z
#    x 3.449820 0.112420 0.086270 
#    y 0.112420 3.934590 0.311340 
#    z 0.086270 0.311340 3.821700 
# 
# 
# High freq. dielectric constant tensor:
#      x y z
#    x 1.735120 0.005100 -0.005560 
#    y 0.005100 1.770760 0.008320 
#    z -0.005560 0.008320 1.765310 
# 
# From -- ./inp_files/187420.got.cif
#   From: 2010.06.25/outbox.cif.g09.slc.cpg/sg2_94_cif.got.tgz:187420.got - 2010.06.27 13:26:56.
