data_PCOD8040971
_publ_section_title
;
Structure prediction by ZEFSAII (Michael W. Deem and Ramdas Pophale) SiO2 
 PCOD8040971
Probable space group: P -1
;
_chemical_formula_sum "Si O2"
_cell_formula_units_Z 16
_cell_length_a 15.277001
_cell_length_b 8.631989
_cell_length_c 15.685536
_cell_angle_alpha 47.976950
_cell_angle_beta 151.835956
_cell_angle_gamma 131.307472
_cell_volume 710.706765
_symmetry_space_group_name_H-M "P -1"
_symmetry_group_IT_number 2
_symmetry_cell_setting 'triclinic'
loop_
_space_group_symop_operation_xyz
x,y,z
-x,-y,-z
loop_
_atom_site_type_symbol
_atom_site_label
_atom_site_fract_x
_atom_site_fract_y
_atom_site_fract_z
Si Si1 0.064475 0.065403 0.767337
Si Si2 0.497641 0.265685 0.058448
Si Si3 0.744050 0.452677 0.052744
Si Si4 0.522036 0.130873 0.555532
Si Si5 0.580588 0.503523 0.351113
Si Si6 0.137860 0.045843 0.020992
Si Si7 0.713296 0.206670 0.429640
Si Si8 0.945089 0.815997 0.590141
O O1 0.042721 0.957868 0.882413
O O2 0.941453 0.255918 0.592854
O O3 0.283079 0.146395 0.900162
O O4 0.967119 0.901336 0.673304
O O5 0.619637 0.280929 0.072017
O O6 0.600761 0.168915 0.258443
O O7 0.500000 0.500000 0.000000
O O8 0.784242 0.701709 0.022463
O O9 0.941262 0.376765 0.242859
O O10 0.621374 0.436383 0.866392
O O11 0.550607 0.375633 0.462075
O O12 0.500000 0.000000 0.500000
O O13 0.333191 0.033635 0.482056
O O14 0.697745 0.082450 0.777159
O O15 0.649543 0.379402 0.374428
O O16 0.728411 0.717366 0.418861
O O17 0.000000 0.000000 0.000000
O O18 0.000000 0.000000 0.500000
#
# Coordination Sequence:
#
# PCOD8040971 Si02
#       8
#     2   2   2   2   2   2   2   2
#     4  12  26  43  67 103 139 183 230 284 349 411
#     4  12  22  41  67 105 131 168 242 296 348 399
#     4  12  24  45  73 100 136 187 233 293 348 411
#     4  10  18  40  69 104 133 167 226 290 346 404
#     4  11  23  43  70 103 134 181 235 282 348 416
#     4  12  22  43  75 106 138 175 234 300 351 403
#     4  11  22  41  73 101 136 172 232 299 348 401
#     4  12  29  47  64 100 149 194 231 275 351 429
#
# _framework density 22.512801
#
# number of rings (size 3 to 8) (size 9 to 14) (size 15 to 20)
#    0.000    0.500    6.250    4.500    0.000    3.500 
#    0.000    3.125    0.000    0.000    0.000    0.000 
#    0.000    0.000    0.000    0.000    0.000    0.000 
#
# Total GULP energy -198240.047307 kJ/mol
# GULP energy per Si atom -12390.002957 kJ/mol
# Density = 2.246156 g / cm^3
# Si number density = 22.512801 Si / 1000 Ang^3
#
#
#
# Elastic Constant Matrix: (Units=GPa)
#
#
# Indices 1 2 3 4 5 6 
#
# 1 87.7166 23.3079 24.4310 4.0175 -26.6839 15.3461
# 2 23.3079 86.5242 29.6928 8.6105 -27.7685 18.5773
# 3 24.4310 29.6928 144.2212 7.3233 -20.9547 0.0595
# 4 4.0175 8.6105 7.3233 37.8384 3.4473 -3.8581
# 5 -26.6839 -27.7685 -20.9547 3.4473 37.6198 -0.7714
# 6 15.3461 18.5773 0.0595 -3.8581 -0.7714 33.8617
#
#
#
# Elastic Compliance Matrix: (Units=1/GPa)
#
#
# Indices 1 2 3 4 5 6 
#
# 1 0.016982 0.002608 -0.001229 -0.004337 0.013493 -0.009312
# 2 0.002608 0.020080 -0.001874 -0.007234 0.016031 -0.012654
# 3 -0.001229 -0.001874 0.007910 -0.001028 0.002276 0.001506
# 4 -0.004337 -0.007234 -0.001028 0.030727 -0.011617 0.009173
# 5 0.013493 0.016031 0.002276 -0.011617 0.050008 -0.015098
# 6 -0.009312 -0.012654 0.001506 0.009173 -0.015098 0.041393
#
#
# Mechanical properties :
#
#
# Convention : Reuss Voigt Hill
#
# Bulk Modulus (GPa) = 22.73655 52.59171 37.66413
# Shear Modulus (GPa) = 27.35963 37.93267 32.64615
#
# Velocity S-wave (km/s) = 3.48989 4.10925 3.81217
# Velocity P-wave (km/s) = 5.13424 6.77688 6.01193
#
# Compressibility (1/GPa) = 0.04398205
#
# Stress axis : x y z
#
# Youngs Moduli (GPa) = 58.88612 49.80114 126.42050
#
# Poissons Ratio (x) = -0.12991 0.15541
# Poissons Ratio (y) = -0.15360 0.23693
# Poissons Ratio (z) = 0.07239 0.09333
#
# Static dielectric constant tensor:
#      x y z
#    x 4.055410 0.297640 0.053600 
#    y 0.297640 3.876670 0.042140 
#    z 0.053600 0.042140 4.532790 
# 
# 
# High freq. dielectric constant tensor:
#      x y z
#    x 1.881370 0.023560 -0.011090 
#    y 0.023560 1.858420 0.008930 
#    z -0.011090 0.008930 1.918340 
# 
# From -- ./inp_files/274227.got.cif
#   From: 2010.06.25/outbox.cif.g09.slc.cpg/sg2_138_cif.got.tgz:274227.got - 2010.06.27 13:26:56.
