data_PCOD8040978
_publ_section_title
;
Structure prediction by ZEFSAII (Michael W. Deem and Ramdas Pophale) SiO2 
 PCOD8040978
Probable space group: P -1
;
_chemical_formula_sum "Si O2"
_cell_formula_units_Z 16
_cell_length_a 29.281436
_cell_length_b 17.423566
_cell_length_c 23.302460
_cell_angle_alpha 22.111118
_cell_angle_beta 169.595924
_cell_angle_gamma 159.148754
_cell_volume 759.232096
_symmetry_space_group_name_H-M "P -1"
_symmetry_group_IT_number 2
_symmetry_cell_setting 'triclinic'
loop_
_space_group_symop_operation_xyz
x,y,z
-x,-y,-z
loop_
_atom_site_type_symbol
_atom_site_label
_atom_site_fract_x
_atom_site_fract_y
_atom_site_fract_z
Si Si1 0.207490 0.011536 0.175929
Si Si2 0.114459 0.060771 0.829485
Si Si3 0.109844 0.618956 0.869002
Si Si4 0.325132 0.276679 0.314382
Si Si5 0.329774 0.689211 0.383219
Si Si6 0.453840 0.061192 0.735077
Si Si7 0.463795 0.286674 0.200505
Si Si8 0.248848 0.222629 0.757141
O O1 0.389805 0.186868 0.323738
O O2 0.230890 0.126055 0.063591
O O3 0.284412 0.793674 0.422944
O O4 0.884215 0.915629 0.850847
O O5 0.155338 0.091088 0.791295
O O6 0.346846 0.257323 0.011745
O O7 0.822694 0.059707 0.489243
O O8 0.148202 0.836241 0.045383
O O9 0.850451 0.511785 0.663173
O O10 0.024095 0.776262 0.611312
O O11 0.187877 0.445427 0.048308
O O12 0.364224 0.752235 0.128062
O O13 0.584684 0.391303 0.515604
O O14 0.414699 0.172305 0.551508
O O15 0.597554 0.888941 0.017653
O O16 0.545886 0.536243 0.145267
#
# Coordination Sequence:
#
# PCOD8040978 Si02
#       8
#     2   2   2   2   2   2   2   2
#     4  10  18  40  70 100 130 165 217 273 324 389
#     4  11  24  43  68  99 139 169 213 272 336 392
#     4  12  26  46  69  94 133 175 231 274 313 385
#     4  12  22  43  71 101 127 173 223 271 326 388
#     4  11  23  41  72 102 129 173 217 273 330 389
#     4  12  27  44  67  97 134 178 223 273 324 384
#     4  10  19  40  70  97 134 172 206 272 336 387
#     4  12  25  46  66  98 135 175 214 275 337 387
#
# _framework density 21.073924999999999
#
# number of rings (size 3 to 8) (size 9 to 14) (size 15 to 20)
#    0.000    0.750    6.250    2.250    0.000    3.500 
#    0.000    0.000    0.000    0.000    0.000    0.000 
#    0.000    0.000    0.000    0.000    0.000    0.000 
#
# Total GULP energy -198370.512787 kJ/mol
# GULP energy per Si atom -12398.157049 kJ/mol
# Density = 2.102596 g / cm^3
# Si number density = 21.073925 Si / 1000 Ang^3
#
#
#
# Elastic Constant Matrix: (Units=GPa)
#
#
# Indices 1 2 3 4 5 6 
#
# 1 66.5577 35.3883 0.5718 -20.3388 36.7579 26.0440
# 2 35.3883 51.6835 29.4447 16.8541 -22.3098 -14.6221
# 3 0.5718 29.4447 87.2260 7.6937 -6.9155 -3.7527
# 4 -20.3388 16.8541 7.6937 23.9110 4.2238 -6.9330
# 5 36.7579 -22.3098 -6.9155 4.2238 32.4188 -1.0424
# 6 26.0440 -14.6221 -3.7527 -6.9330 -1.0424 18.7124
#
#
#
# Elastic Compliance Matrix: (Units=1/GPa)
#
#
# Indices 1 2 3 4 5 6 
#
# 1 -0.001293 0.010736 -0.001853 -0.007596 0.009692 0.007543
# 2 0.010736 0.003656 -0.003262 0.006458 -0.011548 -0.010991
# 3 -0.001853 -0.003262 0.013219 -0.003659 0.003200 0.001503
# 4 -0.007596 0.006458 -0.003659 0.039209 0.008129 0.029865
# 5 0.009692 -0.011548 0.003200 0.008129 0.010947 -0.018250
# 6 0.007543 -0.010991 0.001503 0.029865 -0.018250 0.044703
#
#
# Mechanical properties :
#
#
# Convention : Reuss Voigt Hill
#
# Bulk Modulus (GPa) = 37.28115 37.36408 37.32262
# Shear Modulus (GPa) = 46.23633 24.34595 35.29114
#
# Velocity S-wave (km/s) = 4.68910 3.40260 4.09667
# Velocity P-wave (km/s) = 6.85901 5.76242 6.33449
#
# Compressibility (1/GPa) = 0.02682321
#
# Stress axis : x y z
#
# Youngs Moduli (GPa) = -773.14575 273.54156 75.64809
#
# Poissons Ratio (x) = -2.93677 0.14015
# Poissons Ratio (y) = 8.30057 0.24680
# Poissons Ratio (z) = -1.43242 0.89243
#
# Static dielectric constant tensor:
#      x y z
#    x 4.027800 -0.053150 -0.048750 
#    y -0.053150 3.606040 0.019240 
#    z -0.048750 0.019240 3.881380 
# 
# 
# High freq. dielectric constant tensor:
#      x y z
#    x 1.839370 -0.001830 -0.007920 
#    y -0.001830 1.810320 0.006440 
#    z -0.007920 0.006440 1.831260 
# 
# From -- ./inp_files/206210.got.cif
#   From: 2010.06.25/outbox.cif.g09.slc.cpg/sg2_104_cif.got.tgz:206210.got - 2010.06.27 13:26:56.
