data_PCOD8040760
_publ_section_title
;
Structure prediction by ZEFSAII (Michael W. Deem and Ramdas Pophale) SiO2 
 PCOD8040760
Probable space group: P -1
;
_chemical_formula_sum "Si O2"
_cell_formula_units_Z 16
_cell_length_a 6.225225
_cell_length_b 14.564710
_cell_length_c 9.149854
_cell_angle_alpha 101.810235
_cell_angle_beta 109.355007
_cell_angle_gamma 90.820111
_cell_volume 763.111497
_symmetry_space_group_name_H-M "P -1"
_symmetry_group_IT_number 2
_symmetry_cell_setting 'triclinic'
loop_
_space_group_symop_operation_xyz
x,y,z
-x,-y,-z
loop_
_atom_site_type_symbol
_atom_site_label
_atom_site_fract_x
_atom_site_fract_y
_atom_site_fract_z
Si Si1 0.053156 0.095404 0.130201
Si Si2 0.482113 0.816823 0.642017
Si Si3 0.939498 0.093726 0.440953
Si Si4 0.385065 0.616145 0.123341
Si Si5 0.003102 0.293368 0.064377
Si Si6 0.166962 0.660638 0.654264
Si Si7 0.446597 0.422673 0.166893
Si Si8 0.244441 0.276029 0.570453
O O1 0.325480 0.115853 0.212491
O O2 0.968180 0.180929 0.042483
O O3 0.939423 0.086511 0.261781
O O4 0.000000 0.000000 0.000000
O O5 0.310973 0.884936 0.548153
O O6 0.317473 0.760027 0.702887
O O7 0.592487 0.742485 0.536394
O O8 0.127010 0.175776 0.563605
O O9 0.000000 0.000000 0.500000
O O10 0.338428 0.523196 0.186356
O O11 0.606513 0.679255 0.250081
O O12 0.427213 0.582650 0.959886
O O13 0.163235 0.676150 0.093719
O O14 0.263261 0.332134 0.103326
O O15 0.947145 0.344952 0.216347
O O16 0.352376 0.581829 0.664736
O O17 0.955058 0.654146 0.489900
#
# Coordination Sequence:
#
# PCOD8040760 Si02
#       8
#     2   2   2   2   2   2   2   2
#     4  11  23  37  62  95 118 159 216 248 305 371
#     4  10  19  40  61  79 121 160 193 253 302 357
#     4  10  23  41  60  87 124 163 204 254 313 365
#     4  10  24  37  59  94 123 156 208 250 312 364
#     4  11  20  40  61  85 124 162 200 250 306 364
#     4  10  18  38  65  81 116 164 200 241 307 361
#     4  10  21  40  62  86 123 165 197 258 306 361
#     4  10  21  38  60  89 118 159 203 248 303 368
#
# _framework density 20.966792999999999
#
# number of rings (size 3 to 8) (size 9 to 14) (size 15 to 20)
#    0.000    1.750    5.000    0.375    0.000    8.000 
#    0.000    2.500    0.000    0.000    0.000    0.000 
#    0.000    0.000    0.000    0.000    0.000    0.000 
#
# Total GULP energy -198237.902605 kJ/mol
# GULP energy per Si atom -12389.868913 kJ/mol
# Density = 2.091907 g / cm^3
# Si number density = 20.966793 Si / 1000 Ang^3
#
#
#
# Elastic Constant Matrix: (Units=GPa)
#
#
# Indices 1 2 3 4 5 6 
#
# 1 93.3197 32.5805 22.4183 -19.4173 25.1228 -15.3962
# 2 32.5805 139.6689 39.8332 -26.0907 17.3427 -21.6997
# 3 22.4183 39.8332 58.4322 -6.6138 29.9819 -11.3609
# 4 -19.4173 -26.0907 -6.6138 36.0030 -4.6919 11.8631
# 5 25.1228 17.3427 29.9819 -4.6919 31.8044 -12.2916
# 6 -15.3962 -21.6997 -11.3609 11.8631 -12.2916 31.0129
#
#
#
# Elastic Compliance Matrix: (Units=1/GPa)
#
#
# Indices 1 2 3 4 5 6 
#
# 1 0.015317 -0.001550 0.002275 0.005877 -0.012468 0.000163
# 2 -0.001550 0.010686 -0.008066 0.004792 0.005255 0.004002
# 3 0.002275 -0.008066 0.039500 -0.000724 -0.036356 -0.004177
# 4 0.005877 0.004792 -0.000724 0.036967 -0.005035 -0.010131
# 5 -0.012468 0.005255 -0.036356 -0.005035 0.078625 0.017257
# 6 0.000163 0.004002 -0.004177 -0.010131 0.017257 0.044311
#
#
# Mechanical properties :
#
#
# Convention : Reuss Voigt Hill
#
# Bulk Modulus (GPa) = 19.67715 53.45385 36.56550
# Shear Modulus (GPa) = 19.45309 32.87000 26.16155
#
# Velocity S-wave (km/s) = 3.04929 3.96374 3.53620
# Velocity P-wave (km/s) = 4.66935 6.81895 5.84384
#
# Compressibility (1/GPa) = 0.05082037
#
# Stress axis : x y z
#
# Youngs Moduli (GPa) = 65.28740 93.57756 25.31636
#
# Poissons Ratio (x) = 0.14509 -0.05759
# Poissons Ratio (y) = 0.10123 0.20419
# Poissons Ratio (z) = -0.14851 0.75477
#
# Static dielectric constant tensor:
#      x y z
#    x 4.194380 -0.357720 0.352600 
#    y -0.357720 4.076050 -0.411600 
#    z 0.352600 -0.411600 3.561150 
# 
# 
# High freq. dielectric constant tensor:
#      x y z
#    x 1.832990 -0.004950 0.020400 
#    y -0.004950 1.823280 -0.023320 
#    z 0.020400 -0.023320 1.791380 
# 
# From -- ./inp_files/46224.got.cif
#   From: 2010.06.25/outbox.cif.g09.slc.cpg/sg2_24_cif.got.tgz:46224.got - 2010.06.27 13:26:56.
