data_PCOD8040210
_publ_section_title
;
Structure prediction by ZEFSAII (Michael W. Deem and Ramdas Pophale) SiO2 
 PCOD8040210
Probable space group: P -1
;
_chemical_formula_sum "Si O2"
_cell_formula_units_Z 16
_cell_length_a 9.147128
_cell_length_b 8.849576
_cell_length_c 15.260622
_cell_angle_alpha 46.508808
_cell_angle_beta 66.988571
_cell_angle_gamma 60.841743
_cell_volume 779.613015
_symmetry_space_group_name_H-M "P -1"
_symmetry_group_IT_number 2
_symmetry_cell_setting 'triclinic'
loop_
_space_group_symop_operation_xyz
x,y,z
-x,-y,-z
loop_
_atom_site_type_symbol
_atom_site_label
_atom_site_fract_x
_atom_site_fract_y
_atom_site_fract_z
Si Si1 0.178614 0.344607 0.301100
Si Si2 0.611645 0.254394 0.551377
Si Si3 0.861904 0.939663 0.730153
Si Si4 0.662674 0.408829 0.057032
Si Si5 0.978053 0.250031 0.921979
Si Si6 0.833758 0.683873 0.996043
Si Si7 0.546964 0.102219 0.320291
Si Si8 0.194579 0.967312 0.566158
O O1 0.177187 0.248721 0.242244
O O2 0.063046 0.602869 0.217564
O O3 0.373176 0.304874 0.297149
O O4 0.108450 0.204080 0.443064
O O5 0.500000 0.500000 0.500000
O O6 0.736864 0.177502 0.635503
O O7 0.491154 0.105219 0.630641
O O8 0.728750 0.222549 0.449541
O O9 0.822338 0.902887 0.855035
O O10 0.056920 0.916159 0.679254
O O11 0.662136 0.188887 0.194504
O O12 0.500000 0.500000 0.000000
O O13 0.820780 0.346646 0.982574
O O14 0.676914 0.594816 0.050008
O O15 0.146169 0.265685 0.925640
O O16 0.000000 0.000000 0.000000
O O17 0.000000 0.500000 0.000000
O O18 0.647991 0.022283 0.418134
#
# Coordination Sequence:
#
# PCOD8040210 Si02
#       8
#     2   2   2   2   2   2   2   2
#     4  10  18  36  58  81 113 148 189 231 281 343
#     4  10  21  39  54  86 121 146 176 237 298 333
#     4  10  18  38  62  83 104 153 199 228 270 349
#     4  11  19  39  64  84 110 152 199 238 275 347
#     4  11  23  39  55  86 122 151 185 244 298 328
#     4  10  19  36  63  83 110 153 199 234 278 346
#     4  10  20  37  62  84 108 152 197 230 278 347
#     4  10  20  36  64  82 106 150 201 228 272 347
#
# _framework density 20.523002999999999
#
# number of rings (size 3 to 8) (size 9 to 14) (size 15 to 20)
#    0.000    2.000    3.750    5.250    0.000    0.000 
#    9.000    1.250    0.000    0.000    0.000    0.000 
#    0.000    0.000    0.000    0.000    0.000    0.000 
#
# Total GULP energy -198267.680630 kJ/mol
# GULP energy per Si atom -12391.730039 kJ/mol
# Density = 2.047629 g / cm^3
# Si number density = 20.523003 Si / 1000 Ang^3
#
#
#
# Elastic Constant Matrix: (Units=GPa)
#
#
# Indices 1 2 3 4 5 6 
#
# 1 135.4930 39.4899 38.9625 -15.3096 11.1850 14.9048
# 2 39.4899 51.7327 38.9877 -26.5403 7.6782 4.9054
# 3 38.9625 38.9877 108.3619 -17.1241 11.9522 -1.7327
# 4 -15.3096 -26.5403 -17.1241 29.5741 -4.2406 1.1750
# 5 11.1850 7.6782 11.9522 -4.2406 42.6633 1.2743
# 6 14.9048 4.9054 -1.7327 1.1750 1.2743 22.7180
#
#
#
# Elastic Compliance Matrix: (Units=1/GPa)
#
#
# Indices 1 2 3 4 5 6 
#
# 1 0.010302 -0.007054 -0.001411 -0.001760 -0.001056 -0.005193
# 2 -0.007054 0.053584 -0.010739 0.038508 -0.000668 -0.009715
# 3 -0.001411 -0.010739 0.013396 -0.003062 -0.001890 0.004531
# 4 -0.001760 0.038508 -0.003062 0.066307 0.001305 -0.010897
# 5 -0.001056 -0.000668 -0.001890 0.001305 0.024518 -0.000750
# 6 -0.005193 -0.009715 0.004531 -0.010897 -0.000750 0.050474
#
#
# Mechanical properties :
#
#
# Convention : Reuss Voigt Hill
#
# Bulk Modulus (GPa) = 25.72396 58.94084 42.33240
# Shear Modulus (GPa) = 18.52212 30.86760 24.69486
#
# Velocity S-wave (km/s) = 3.00743 3.88241 3.47259
# Velocity P-wave (km/s) = 4.96195 6.99137 6.06219
#
# Compressibility (1/GPa) = 0.03887426
#
# Stress axis : x y z
#
# Youngs Moduli (GPa) = 97.07181 18.66219 74.64652
#
# Poissons Ratio (x) = 0.13165 0.10530
# Poissons Ratio (y) = 0.68477 0.80164
# Poissons Ratio (z) = 0.13693 0.20042
#
# Static dielectric constant tensor:
#      x y z
#    x 4.567690 0.376890 0.361510 
#    y 0.376890 3.269550 -0.116600 
#    z 0.361510 -0.116600 4.147100 
# 
# 
# High freq. dielectric constant tensor:
#      x y z
#    x 1.823690 0.011730 0.011670 
#    y 0.011730 1.731110 -0.002800 
#    z 0.011670 -0.002800 1.819420 
# 
# From -- ./inp_files/216830.got.cif
#   From: 2010.06.25/outbox.cif.g09.slc.cpg/sg2_109_cif.got.tgz:216830.got - 2010.06.27 13:26:56.
