data_PCOD8040296
_publ_section_title
;
Structure prediction by ZEFSAII (Michael W. Deem and Ramdas Pophale) SiO2 
 PCOD8040296
Probable space group: P -1
;
_chemical_formula_sum "Si O2"
_cell_formula_units_Z 16
_cell_length_a 14.848772
_cell_length_b 13.134940
_cell_length_c 8.064029
_cell_angle_alpha 98.811995
_cell_angle_beta 69.441967
_cell_angle_gamma 150.314936
_cell_volume 689.064363
_symmetry_space_group_name_H-M "P -1"
_symmetry_group_IT_number 2
_symmetry_cell_setting 'triclinic'
loop_
_space_group_symop_operation_xyz
x,y,z
-x,-y,-z
loop_
_atom_site_type_symbol
_atom_site_label
_atom_site_fract_x
_atom_site_fract_y
_atom_site_fract_z
Si Si1 0.157157 0.061455 0.867355
Si Si2 0.158205 0.349312 0.218920
Si Si3 0.502586 0.702088 0.816234
Si Si4 0.795609 0.077853 0.967275
Si Si5 0.823617 0.415716 0.601361
Si Si6 0.239765 0.577342 0.722186
Si Si7 0.426740 0.957084 0.723218
Si Si8 0.561947 0.538132 0.780865
O O1 0.374366 0.314239 0.740856
O O2 0.186467 0.019900 0.000384
O O3 0.062263 0.906667 0.739802
O O4 0.000000 0.000000 0.000000
O O5 0.107748 0.420917 0.300003
O O6 0.255585 0.374616 0.314510
O O7 0.308116 0.489135 0.000718
O O8 0.410790 0.657626 0.691645
O O9 0.621921 0.706220 0.705130
O O10 0.648376 0.925578 0.863629
O O11 0.706666 0.066081 0.168124
O O12 0.012271 0.327257 0.840903
O O13 0.742177 0.385717 0.474578
O O14 0.634270 0.175631 0.746944
O O15 0.000000 0.500000 0.500000
O O16 0.294499 0.736334 0.822000
O O17 0.500000 0.000000 0.500000
O O18 0.500000 0.500000 0.000000
#
# Coordination Sequence:
#
# PCOD8040296 Si02
#       8
#     2   2   2   2   2   2   2   2
#     4  12  19  32  64 100 128 164 217 264 316 381
#     4  11  21  39  65  95 128 172 216 262 316 384
#     4  11  21  38  67  97 128 165 214 271 320 377
#     4  12  22  39  66  98 130 168 214 270 325 378
#     4  11  26  47  65  92 132 176 218 266 324 394
#     4  11  26  42  64  96 132 167 218 269 328 379
#     4  10  24  43  63  89 130 171 217 266 323 387
#     4  10  18  36  60  99 129 163 210 267 311 379
#
# _framework density 23.219892000000002
#
# number of rings (size 3 to 8) (size 9 to 14) (size 15 to 20)
#    0.000    1.000    7.500    0.375    5.250    1.500 
#    0.000    0.625    0.000    6.750    0.000    0.000 
#    0.000    0.000    0.000    0.000    0.000    0.000 
#
# Total GULP energy -198238.156050 kJ/mol
# GULP energy per Si atom -12389.884753 kJ/mol
# Density = 2.316704 g / cm^3
# Si number density = 23.219892 Si / 1000 Ang^3
#
#
#
# Elastic Constant Matrix: (Units=GPa)
#
#
# Indices 1 2 3 4 5 6 
#
# 1 113.6411 41.9659 1.0433 3.7442 9.9527 1.9259
# 2 41.9659 198.3748 16.9834 7.8997 -6.0741 2.1487
# 3 1.0433 16.9834 9.6460 -1.7317 2.3157 -0.3756
# 4 3.7442 7.8997 -1.7317 23.6637 -0.4650 -0.0588
# 5 9.9527 -6.0741 2.3157 -0.4650 25.6556 5.6842
# 6 1.9259 2.1487 -0.3756 -0.0588 5.6842 45.0567
#
#
#
# Elastic Compliance Matrix: (Units=1/GPa)
#
#
# Indices 1 2 3 4 5 6 
#
# 1 0.010218 -0.002720 0.004852 -0.000454 -0.005139 0.000381
# 2 -0.002720 0.007028 -0.013602 -0.002833 0.004084 -0.000851
# 3 0.004852 -0.013602 0.133889 0.013231 -0.017794 0.003820
# 4 -0.000454 -0.002833 0.013231 0.044226 -0.000987 0.000447
# 5 -0.005139 0.004084 -0.017794 -0.000987 0.044807 -0.005777
# 6 0.000381 -0.000851 0.003820 0.000447 -0.005777 0.022980
#
#
# Mechanical properties :
#
#
# Convention : Reuss Voigt Hill
#
# Bulk Modulus (GPa) = 7.80067 49.07188 28.43628
# Shear Modulus (GPa) = 15.20581 36.31981 25.76281
#
# Velocity S-wave (km/s) = 2.56180 3.95925 3.33455
# Velocity P-wave (km/s) = 3.48098 6.48693 5.20565
#
# Compressibility (1/GPa) = 0.12819404
#
# Stress axis : x y z
#
# Youngs Moduli (GPa) = 97.86425 142.28654 7.46885
#
# Poissons Ratio (x) = 0.38708 -0.03624
# Poissons Ratio (y) = 0.26623 0.10159
# Poissons Ratio (z) = -0.47480 1.93540
#
# Static dielectric constant tensor:
#      x y z
#    x 4.712400 -0.275140 0.012660 
#    y -0.275140 5.455080 0.058250 
#    z 0.012660 0.058250 3.537670 
# 
# 
# High freq. dielectric constant tensor:
#      x y z
#    x 1.931770 -0.006360 -0.008170 
#    y -0.006360 1.952580 0.006840 
#    z -0.008170 0.006840 1.855120 
# 
# From -- ./inp_files/307703.got.cif
#   From: 2010.06.25/outbox.cif.g09.slc.cpg/sg2_154_cif.got.tgz:307703.got - 2010.06.27 13:26:56.
