data_PCOD8040234
_publ_section_title
;
Structure prediction by ZEFSAII (Michael W. Deem and Ramdas Pophale) SiO2 
 PCOD8040234
Probable space group: P -1
;
_chemical_formula_sum "Si O2"
_cell_formula_units_Z 12
_cell_length_a 6.602760
_cell_length_b 22.583032
_cell_length_c 7.143589
_cell_angle_alpha 38.606516
_cell_angle_beta 101.865297
_cell_angle_gamma 91.443953
_cell_volume 634.229753
_symmetry_space_group_name_H-M "P -1"
_symmetry_group_IT_number 2
_symmetry_cell_setting 'triclinic'
loop_
_space_group_symop_operation_xyz
x,y,z
-x,-y,-z
loop_
_atom_site_type_symbol
_atom_site_label
_atom_site_fract_x
_atom_site_fract_y
_atom_site_fract_z
Si Si1 0.349914 0.384029 0.781708
Si Si2 0.560657 0.020007 0.755327
Si Si3 0.582963 0.458157 0.317175
Si Si4 0.670948 0.202075 0.217060
Si Si5 0.974798 0.291100 0.841263
Si Si6 0.679206 0.860159 0.891375
O O1 0.397640 0.428731 0.479167
O O2 0.324969 0.462338 0.747888
O O3 0.128937 0.350786 0.820426
O O4 0.542167 0.292198 0.094664
O O5 0.708480 0.100044 0.590372
O O6 0.351615 0.063705 0.479608
O O7 0.684742 0.917843 0.942731
O O8 0.500000 0.000000 0.000000
O O9 0.771058 0.365186 0.536972
O O10 0.500000 0.500000 0.000000
O O11 0.519452 0.193630 0.027024
O O12 0.895748 0.222630 0.149168
O O13 0.099937 0.219735 0.881718
#
# Coordination Sequence:
#
# PCOD8040234 Si02
#       6
#     2   2   2   2   2   2
#     4   9  19  38  56  77 115 146 178 223 277 324
#     4   9  17  36  56  77 109 147 181 225 270 318
#     4  10  21  37  58  82 108 146 184 225 270 325
#     4   8  17  34  55  79 108 148 176 221 275 315
#     4  10  18  36  59  81 112 149 180 222 280 326
#     4   8  18  35  54  75 111 146 178 223 272 321
#
# _framework density 18.920589
#
# number of rings (size 3 to 8) (size 9 to 14) (size 15 to 20)
#    1.000    2.000    0.000    0.500    0.000    1.333 
#    9.000    5.833    0.000    0.000    0.000    0.000 
#    0.000    0.000    0.000    0.000    0.000    0.000 
#
# Total GULP energy -148672.865361 kJ/mol
# GULP energy per Si atom -12389.405447 kJ/mol
# Density = 1.887752 g / cm^3
# Si number density = 18.920589 Si / 1000 Ang^3
#
#
#
# Elastic Constant Matrix: (Units=GPa)
#
#
# Indices 1 2 3 4 5 6 
#
# 1 117.7300 44.8847 53.5903 -3.5672 -23.0830 -1.6234
# 2 44.8847 127.0889 77.6270 -10.9238 -9.8757 -19.3902
# 3 53.5903 77.6270 86.5002 4.4639 -17.6294 -0.7331
# 4 -3.5672 -10.9238 4.4639 31.6244 -0.1046 -2.3119
# 5 -23.0830 -9.8757 -17.6294 -0.1046 27.1449 -12.5908
# 6 -1.6234 -19.3902 -0.7331 -2.3119 -12.5908 19.8416
#
#
#
# Elastic Compliance Matrix: (Units=1/GPa)
#
#
# Indices 1 2 3 4 5 6 
#
# 1 0.015244 0.007350 -0.013000 0.007536 0.016039 0.019006
# 2 0.007350 0.039696 -0.036267 0.023784 0.022910 0.055364
# 3 -0.013000 -0.036267 0.050448 -0.024488 -0.012713 -0.045562
# 4 0.007536 0.023784 -0.024488 0.047105 0.017759 0.039712
# 5 0.016039 0.022910 -0.012713 0.017759 0.088372 0.081378
# 6 0.019006 0.055364 -0.045562 0.039712 0.081378 0.160642
#
#
# Mechanical properties :
#
#
# Convention : Reuss Voigt Hill
#
# Bulk Modulus (GPa) = 46.39138 75.94702 61.16920
# Shear Modulus (GPa) = 10.15178 26.06999 18.11088
#
# Velocity S-wave (km/s) = 2.31886 3.71599 3.09723
# Velocity P-wave (km/s) = 5.63398 7.65757 6.72236
#
# Compressibility (1/GPa) = 0.02155573
#
# Stress axis : x y z
#
# Youngs Moduli (GPa) = 65.59812 25.19132 19.82250
#
# Poissons Ratio (x) = -0.18517 0.25769
# Poissons Ratio (y) = -0.48217 0.71890
# Poissons Ratio (z) = 0.85276 0.91361
#
# Static dielectric constant tensor:
#      x y z
#    x 3.302680 -0.023270 -0.179190 
#    y -0.023270 3.544420 -0.439210 
#    z -0.179190 -0.439210 3.220280 
# 
# 
# High freq. dielectric constant tensor:
#      x y z
#    x 1.719650 -0.004280 -0.015550 
#    y -0.004280 1.741720 -0.037640 
#    z -0.015550 -0.037640 1.706230 
# 
# From -- ./inp_files/11873.got.cif
#   From: 2010.06.25/outbox.cif.g09.slc.cpg/sg2_6_cif.got.tgz:11873.got - 2010.06.27 13:26:56.
