data_PCOD8040536
_publ_section_title
;
Structure prediction by ZEFSAII (Michael W. Deem and Ramdas Pophale) SiO2 
 PCOD8040536
Probable space group: P -1
;
_chemical_formula_sum "Si O2"
_cell_formula_units_Z 16
_cell_length_a 16.856070
_cell_length_b 11.016737
_cell_length_c 11.044984
_cell_angle_alpha 42.369565
_cell_angle_beta 60.868709
_cell_angle_gamma 94.030885
_cell_volume 824.667856
_symmetry_space_group_name_H-M "P -1"
_symmetry_group_IT_number 2
_symmetry_cell_setting 'triclinic'
loop_
_space_group_symop_operation_xyz
x,y,z
-x,-y,-z
loop_
_atom_site_type_symbol
_atom_site_label
_atom_site_fract_x
_atom_site_fract_y
_atom_site_fract_z
Si Si1 0.522411 0.832258 0.005378
Si Si2 0.604789 0.312528 0.311650
Si Si3 0.918014 0.738429 0.175747
Si Si4 0.380889 0.327456 0.117813
Si Si5 0.183948 0.009864 0.693639
Si Si6 0.310203 0.843460 0.814589
Si Si7 0.264674 0.536411 0.285304
Si Si8 0.336313 0.605898 0.519921
O O1 0.418908 0.778952 0.029447
O O2 0.450004 0.674748 0.302035
O O3 0.583134 0.739910 0.974184
O O4 0.642079 0.148289 0.698118
O O5 0.664546 0.206479 0.300593
O O6 0.657799 0.441858 0.309114
O O7 0.446896 0.080078 0.606843
O O8 0.648002 0.516211 0.026239
O O9 0.829413 0.503631 0.514410
O O10 0.811240 0.666977 0.213221
O O11 0.000000 0.000000 0.000000
O O12 0.022995 0.771124 0.996572
O O13 0.243951 0.059748 0.478640
O O14 0.500000 0.500000 0.000000
O O15 0.238399 0.283482 0.491612
O O16 0.233111 0.920112 0.809655
O O17 0.231830 0.586866 0.146327
#
# Coordination Sequence:
#
# PCOD8040536 Si02
#       8
#     2   2   2   2   2   2   2   2
#     4  10  19  35  59  88 119 155 190 252 313 346
#     4  11  21  34  56  95 124 151 197 252 305 352
#     4   9  22  41  63  81 118 168 202 241 300 365
#     4  12  20  35  60  89 125 158 198 246 299 360
#     4  11  21  36  59  89 116 162 202 238 296 358
#     4  11  20  33  61  93 122 152 198 251 299 364
#     4  10  18  37  61  88 118 153 201 246 297 354
#     4  10  21  37  61  86 121 156 199 252 302 353
#
# _framework density 19.401751999999998
#
# number of rings (size 3 to 8) (size 9 to 14) (size 15 to 20)
#    0.000    1.500    5.000    0.750    0.000    1.000 
#    0.000    3.125    5.500    0.000    0.000    0.000 
#    0.000    0.000    0.000    0.000    0.000    0.000 
#
# Total GULP energy -198260.778793 kJ/mol
# GULP energy per Si atom -12391.298675 kJ/mol
# Density = 1.935759 g / cm^3
# Si number density = 19.401752 Si / 1000 Ang^3
#
#
#
# Elastic Constant Matrix: (Units=GPa)
#
#
# Indices 1 2 3 4 5 6 
#
# 1 98.9647 43.3862 51.1328 9.3728 12.1317 4.9435
# 2 43.3862 97.8976 34.5218 13.6570 -4.9354 6.1246
# 3 51.1328 34.5218 82.7351 19.6089 -11.3618 -4.5334
# 4 9.3728 13.6570 19.6089 35.8761 -0.3529 -0.6436
# 5 12.1317 -4.9354 -11.3618 -0.3529 30.3846 1.0576
# 6 4.9435 6.1246 -4.5334 -0.6436 1.0576 35.8546
#
#
#
# Elastic Compliance Matrix: (Units=1/GPa)
#
#
# Indices 1 2 3 4 5 6 
#
# 1 0.021342 -0.005620 -0.013960 0.003993 -0.014495 -0.003248
# 2 -0.005620 0.013865 -0.001091 -0.003207 0.004117 -0.001910
# 3 -0.013960 -0.001091 0.025779 -0.009797 0.014757 0.004759
# 4 0.003993 -0.003207 -0.009797 0.033345 -0.005375 -0.000484
# 5 -0.014495 0.004117 0.014757 -0.005375 0.044762 0.001744
# 6 -0.003248 -0.001910 0.004759 -0.000484 0.001744 0.029206
#
#
# Mechanical properties :
#
#
# Convention : Reuss Voigt Hill
#
# Bulk Modulus (GPa) = 50.90663 59.74210 55.32436
# Shear Modulus (GPa) = 23.12785 30.46017 26.79401
#
# Velocity S-wave (km/s) = 3.45635 3.96658 3.72023
# Velocity P-wave (km/s) = 6.49797 7.19982 6.85788
#
# Compressibility (1/GPa) = 0.01964381
#
# Stress axis : x y z
#
# Youngs Moduli (GPa) = 46.85513 72.12572 38.79135
#
# Poissons Ratio (x) = 0.40537 0.54153
# Poissons Ratio (y) = 0.26334 0.04231
# Poissons Ratio (z) = 0.65410 0.07867
#
# Static dielectric constant tensor:
#      x y z
#    x 3.343290 -0.079570 -0.111250 
#    y -0.079570 3.670310 0.346630 
#    z -0.111250 0.346630 3.939240 
# 
# 
# High freq. dielectric constant tensor:
#      x y z
#    x 1.724060 -0.000990 0.008290 
#    y -0.000990 1.754960 0.023100 
#    z 0.008290 0.023100 1.753860 
# 
# From -- ./inp_files/266743.got.cif
#   From: 2010.06.25/outbox.cif.g09.slc.cpg/sg2_134_cif.got.tgz:266743.got - 2010.06.27 13:26:56.
