data_PCOD8040549
_publ_section_title
;
Structure prediction by ZEFSAII (Michael W. Deem and Ramdas Pophale) SiO2 
 PCOD8040549
Probable space group: P -1
;
_chemical_formula_sum "Si O2"
_cell_formula_units_Z 16
_cell_length_a 19.511492
_cell_length_b 26.268542
_cell_length_c 14.303419
_cell_angle_alpha 159.678944
_cell_angle_beta 150.968639
_cell_angle_gamma 19.785724
_cell_volume 859.784894
_symmetry_space_group_name_H-M "P -1"
_symmetry_group_IT_number 2
_symmetry_cell_setting 'triclinic'
loop_
_space_group_symop_operation_xyz
x,y,z
-x,-y,-z
loop_
_atom_site_type_symbol
_atom_site_label
_atom_site_fract_x
_atom_site_fract_y
_atom_site_fract_z
Si Si1 0.624117 0.844062 0.294067
Si Si2 0.451135 0.867895 0.450583
Si Si3 0.247644 0.753278 0.223625
Si Si4 0.085704 0.146585 0.624770
Si Si5 0.019975 0.466406 0.214646
Si Si6 0.642000 0.506897 0.727753
Si Si7 0.668902 0.573573 0.368677
Si Si8 0.276169 0.522386 0.019136
O O1 0.863600 0.665868 0.300955
O O2 0.500000 0.000000 0.500000
O O3 0.567617 0.965496 0.339069
O O4 0.546672 0.738051 0.001048
O O5 0.610144 0.741069 0.508700
O O6 0.229585 0.003339 0.462189
O O7 0.519996 0.692328 0.156916
O O8 0.469545 0.664627 0.341436
O O9 0.187182 0.719259 0.189274
O O10 0.086596 0.002870 0.445096
O O11 0.231014 0.643722 0.933419
O O12 0.859922 0.337288 0.644743
O O13 0.145164 0.248748 0.931151
O O14 0.174419 0.469211 0.446215
O O15 0.888507 0.484768 0.171628
O O16 0.500000 0.500000 0.500000
O O17 0.663176 0.450580 0.764551
#
# Coordination Sequence:
#
# PCOD8040549 Si02
#       8
#     2   2   2   2   2   2   2   2
#     4  10  19  39  60  77 111 154 182 230 281 328
#     4  10  18  37  62  79 109 149 189 224 278 331
#     4   9  18  36  58  80 117 149 181 225 294 326
#     4   9  21  38  57  80 117 146 179 236 282 331
#     4  10  21  36  57  86 116 141 191 240 273 326
#     4  10  22  39  53  82 118 142 184 236 277 331
#     4   9  20  36  57  87 115 144 190 237 268 339
#     4   9  19  38  59  79 116 149 185 233 276 331
#
# _framework density 18.609306
#
# number of rings (size 3 to 8) (size 9 to 14) (size 15 to 20)
#    0.000    2.750    2.500    0.750    0.000    9.000 
#    9.000    0.625    0.000    0.000    0.000    0.000 
#    0.000    0.000    0.000    0.000    0.000    0.000 
#
# Total GULP energy -198245.269100 kJ/mol
# GULP energy per Si atom -12390.329319 kJ/mol
# Density = 1.856695 g / cm^3
# Si number density = 18.609306 Si / 1000 Ang^3
#
#
#
# Elastic Constant Matrix: (Units=GPa)
#
#
# Indices 1 2 3 4 5 6 
#
# 1 67.5287 8.2016 16.6882 4.5029 4.0197 -6.0702
# 2 8.2016 71.6449 58.1177 -18.2934 2.8637 -3.9286
# 3 16.6882 58.1177 108.5425 -6.4899 9.9711 -6.9496
# 4 4.5029 -18.2934 -6.4899 47.1421 -0.4425 4.7226
# 5 4.0197 2.8637 9.9711 -0.4425 30.0091 16.7722
# 6 -6.0702 -3.9286 -6.9496 4.7226 16.7722 25.0903
#
#
#
# Elastic Compliance Matrix: (Units=1/GPa)
#
#
# Indices 1 2 3 4 5 6 
#
# 1 0.016556 -0.001193 -0.000933 -0.003094 -0.006633 0.008576
# 2 -0.001193 0.028547 -0.015460 0.009719 0.006058 -0.005980
# 3 -0.000933 -0.015460 0.019036 -0.004457 -0.010740 0.010644
# 4 -0.003094 0.009719 -0.004457 0.025723 0.006882 -0.009903
# 5 -0.006633 0.006058 -0.010740 0.006882 0.063949 -0.047674
# 6 0.008576 -0.005980 0.010644 -0.009903 -0.047674 0.077676
#
#
# Mechanical properties :
#
#
# Convention : Reuss Voigt Hill
#
# Bulk Modulus (GPa) = 34.52244 45.97015 40.24629
# Shear Modulus (GPa) = 18.09534 31.42887 24.76210
#
# Velocity S-wave (km/s) = 3.12169 4.11406 3.65174
# Velocity P-wave (km/s) = 5.62002 6.87922 6.28126
#
# Compressibility (1/GPa) = 0.02896666
#
# Stress axis : x y z
#
# Youngs Moduli (GPa) = 60.40050 35.03025 52.53228
#
# Poissons Ratio (x) = 0.04178 0.04903
# Poissons Ratio (y) = 0.07205 0.81214
# Poissons Ratio (z) = 0.05638 0.54156
#
# Static dielectric constant tensor:
#      x y z
#    x 3.444690 -0.015720 -0.088210 
#    y -0.015720 3.167820 0.152100 
#    z -0.088210 0.152100 3.257220 
# 
# 
# High freq. dielectric constant tensor:
#      x y z
#    x 1.721430 0.003750 -0.001410 
#    y 0.003750 1.700260 0.026590 
#    z -0.001410 0.026590 1.726560 
# 
# From -- ./inp_files/311264.got.cif
#   From: 2010.06.25/outbox.cif.g09.slc.cpg/sg2_156_cif.got.tgz:311264.got - 2010.06.27 13:26:56.
