data_PCOD8040543
_publ_section_title
;
Structure prediction by ZEFSAII (Michael W. Deem and Ramdas Pophale) SiO2 
 PCOD8040543
Probable space group: P -1
;
_chemical_formula_sum "Si O2"
_cell_formula_units_Z 14
_cell_length_a 8.729306
_cell_length_b 10.158709
_cell_length_c 16.653511
_cell_angle_alpha 108.153882
_cell_angle_beta 150.285460
_cell_angle_gamma 80.242926
_cell_volume 679.362628
_symmetry_space_group_name_H-M "P -1"
_symmetry_group_IT_number 2
_symmetry_cell_setting 'triclinic'
loop_
_space_group_symop_operation_xyz
x,y,z
-x,-y,-z
loop_
_atom_site_type_symbol
_atom_site_label
_atom_site_fract_x
_atom_site_fract_y
_atom_site_fract_z
Si Si1 0.257294 0.572483 0.357877
Si Si2 0.550557 0.798383 0.982634
Si Si3 0.762721 0.099685 0.845374
Si Si4 0.658548 0.024342 0.949896
Si Si5 0.912917 0.402784 0.018617
Si Si6 0.651219 0.518838 0.158367
Si Si7 0.309986 0.854073 0.350686
O O1 0.500000 0.500000 0.500000
O O2 0.415672 0.726009 0.421891
O O3 0.016049 0.592362 0.323740
O O4 0.099262 0.472053 0.194652
O O5 0.927971 0.830274 0.177281
O O6 0.371445 0.833736 0.988415
O O7 0.464471 0.891468 0.886765
O O8 0.406260 0.638600 0.859441
O O9 0.983642 0.247455 0.006904
O O10 0.580314 0.140559 0.691968
O O11 0.533125 0.032145 0.802235
O O12 0.975821 0.989191 0.894306
O O13 0.531903 0.385280 0.853523
O O14 0.000000 0.500000 0.000000
O O15 0.500000 0.500000 0.000000
O O16 0.500000 0.000000 0.500000
#
# Coordination Sequence:
#
# PCOD8040543 Si02
#       7
#     2   2   2   2   2   2   2
#     4  11  24  40  63  99 129 165 213 270 322 363
#     4  10  18  37  61  91 119 159 217 250 309 380
#     4  10  20  36  59  90 119 161 212 250 315 372
#     4   9  19  31  57  89 120 143 198 267 294 364
#     4  11  19  38  69  89 121 164 216 259 306 383
#     4  10  19  36  66  91 115 167 217 250 304 386
#     4  11  23  40  60  86 128 173 208 258 324 388
#
# _framework density 20.607552999999999
#
# number of rings (size 3 to 8) (size 9 to 14) (size 15 to 20)
#    0.000    1.714    4.286    2.571    0.000    6.857 
#    0.000    1.429    3.143    0.000    0.000    0.000 
#    0.000    0.000    0.000    0.000    0.000    0.000 
#
# Total GULP energy -173439.688964 kJ/mol
# GULP energy per Si atom -12388.549212 kJ/mol
# Density = 2.056065 g / cm^3
# Si number density = 20.607553 Si / 1000 Ang^3
#
#
#
# Elastic Constant Matrix: (Units=GPa)
#
#
# Indices 1 2 3 4 5 6 
#
# 1 130.8524 31.4731 38.7829 -20.8778 -20.6574 11.7616
# 2 31.4731 119.1521 41.3410 -10.5776 -14.3665 15.8894
# 3 38.7829 41.3410 66.1358 -6.3540 -11.0856 10.4974
# 4 -20.8778 -10.5776 -6.3540 33.0075 -0.2587 -4.9301
# 5 -20.6574 -14.3665 -11.0856 -0.2587 24.2150 -6.0475
# 6 11.7616 15.8894 10.4974 -4.9301 -6.0475 39.5646
#
#
#
# Elastic Compliance Matrix: (Units=1/GPa)
#
#
# Indices 1 2 3 4 5 6 
#
# 1 0.011224 0.000193 -0.004810 0.006262 0.007501 -0.000211
# 2 0.000193 0.011372 -0.006047 0.002305 0.003623 -0.002179
# 3 -0.004810 -0.006047 0.022264 -0.000956 0.002027 -0.001858
# 4 0.006262 0.002305 -0.000956 0.035318 0.007398 0.002998
# 5 0.007501 0.003623 0.002027 0.007398 0.052014 0.004649
# 6 -0.000211 -0.002179 -0.001858 0.002998 0.004649 0.027790
#
#
# Mechanical properties :
#
#
# Convention : Reuss Voigt Hill
#
# Bulk Modulus (GPa) = 42.49618 59.92604 51.21111
# Shear Modulus (GPa) = 26.43370 32.99363 29.71367
#
# Velocity S-wave (km/s) = 3.58539 4.00565 3.80133
# Velocity P-wave (km/s) = 6.14870 7.10890 6.64616
#
# Compressibility (1/GPa) = 0.02353153
#
# Stress axis : x y z
#
# Youngs Moduli (GPa) = 89.09679 87.93685 44.91644
#
# Poissons Ratio (x) = -0.01694 0.21603
# Poissons Ratio (y) = -0.01716 0.27160
# Poissons Ratio (z) = 0.42852 0.53173
#
# Static dielectric constant tensor:
#      x y z
#    x 12.803520 -3.219510 0.662110 
#    y -3.219510 5.396660 -0.647680 
#    z 0.662110 -0.647680 3.296480 
# 
# 
# High freq. dielectric constant tensor:
#      x y z
#    x 1.826660 0.011010 -0.019690 
#    y 0.011010 1.830310 -0.013510 
#    z -0.019690 -0.013510 1.735930 
# 
# From -- ./inp_files/207630.got.cif
#   From: 2010.06.25/outbox.cif.g09.slc.cpg/sg2_104_cif.got.tgz:207630.got - 2010.06.27 13:26:56.
