data_PCOD8040401
_publ_section_title
;
Structure prediction by ZEFSAII (Michael W. Deem and Ramdas Pophale) SiO2 
 PCOD8040401
Probable space group: P -1
;
_chemical_formula_sum "Si O2"
_cell_formula_units_Z 16
_cell_length_a 14.927260
_cell_length_b 8.798723
_cell_length_c 11.875845
_cell_angle_alpha 137.329737
_cell_angle_beta 112.639453
_cell_angle_gamma 45.807113
_cell_volume 731.401596
_symmetry_space_group_name_H-M "P -1"
_symmetry_group_IT_number 2
_symmetry_cell_setting 'triclinic'
loop_
_space_group_symop_operation_xyz
x,y,z
-x,-y,-z
loop_
_atom_site_type_symbol
_atom_site_label
_atom_site_fract_x
_atom_site_fract_y
_atom_site_fract_z
Si Si1 0.913322 0.110429 0.690209
Si Si2 0.562011 0.664449 0.350914
Si Si3 0.931413 0.271880 0.031407
Si Si4 0.022028 0.282764 0.682303
Si Si5 0.504146 0.179295 0.238930
Si Si6 0.645967 0.590968 0.107456
Si Si7 0.363345 0.593868 0.221206
Si Si8 0.693205 0.270284 0.400618
O O1 0.776379 0.196319 0.676651
O O2 0.910382 0.339577 0.736024
O O3 0.998236 0.784297 0.491539
O O4 0.960022 0.122789 0.841512
O O5 0.620774 0.521870 0.178902
O O6 0.442578 0.692683 0.348006
O O7 0.676764 0.456567 0.383852
O O8 0.500000 0.000000 0.500000
O O9 0.991603 0.428548 0.159349
O O10 0.780431 0.521381 0.127239
O O11 0.000000 0.000000 0.000000
O O12 0.156792 0.981144 0.633418
O O13 0.445180 0.249561 0.119984
O O14 0.640049 0.103481 0.255823
O O15 0.389670 0.502663 0.414130
O O16 0.526781 0.926851 0.188857
O O17 0.651894 0.379012 0.906287
#
# Coordination Sequence:
#
# PCOD8040401 Si02
#       8
#     2   2   2   2   2   2   2   2
#     4  10  24  43  69  98 124 177 221 265 323 381
#     4  11  23  37  62  94 129 169 204 258 328 392
#     4  11  26  45  66  97 135 171 219 272 323 389
#     4  11  22  45  71  91 133 172 223 272 316 382
#     4  10  18  36  64  94 119 163 209 254 326 375
#     4  11  22  40  61  94 127 171 199 264 337 368
#     4  10  22  40  60  94 134 157 217 263 310 396
#     4  10  20  35  63  95 121 163 217 257 308 388
#
# _framework density 21.875806999999998
#
# number of rings (size 3 to 8) (size 9 to 14) (size 15 to 20)
#    0.000    1.500    3.750    1.125    3.500    0.500 
#    0.000    7.500    0.000    0.000    0.000    0.000 
#    0.000    0.000    0.000    0.000    0.000    0.000 
#
# Total GULP energy -198245.196043 kJ/mol
# GULP energy per Si atom -12390.324753 kJ/mol
# Density = 2.182602 g / cm^3
# Si number density = 21.875807 Si / 1000 Ang^3
#
#
#
# Elastic Constant Matrix: (Units=GPa)
#
#
# Indices 1 2 3 4 5 6 
#
# 1 90.4537 22.5946 43.3551 -10.7333 -3.4706 19.7371
# 2 22.5946 93.1211 45.4226 -5.1156 -2.9343 30.0321
# 3 43.3551 45.4226 83.8125 -14.5953 0.5043 11.9315
# 4 -10.7333 -5.1156 -14.5953 32.1836 8.7403 -1.6749
# 5 -3.4706 -2.9343 0.5043 8.7403 36.8112 -2.3834
# 6 19.7371 30.0321 11.9315 -1.6749 -2.3834 27.5914
#
#
#
# Elastic Compliance Matrix: (Units=1/GPa)
#
#
# Indices 1 2 3 4 5 6 
#
# 1 0.017595 0.004906 -0.009599 0.001318 0.000987 -0.013610
# 2 0.004906 0.022748 -0.011880 -0.001704 0.001346 -0.023120
# 3 -0.009599 -0.011880 0.023116 0.006761 -0.003130 0.009941
# 4 0.001318 -0.001704 0.006761 0.036681 -0.008849 -0.000549
# 5 0.000987 0.001346 -0.003130 -0.008849 0.029588 0.001201
# 6 -0.013610 -0.023120 0.009941 -0.000549 0.001201 0.066915
#
#
# Mechanical properties :
#
#
# Convention : Reuss Voigt Hill
#
# Bulk Modulus (GPa) = 32.98918 54.45909 43.72414
# Shear Modulus (GPa) = 20.84252 29.71822 25.28037
#
# Velocity S-wave (km/s) = 3.09004 3.68978 3.40315
# Velocity P-wave (km/s) = 5.27675 6.56516 5.95590
#
# Compressibility (1/GPa) = 0.03031297
#
# Stress axis : x y z
#
# Youngs Moduli (GPa) = 56.83464 43.95969 43.25949
#
# Poissons Ratio (x) = -0.21566 0.41526
# Poissons Ratio (y) = -0.27883 0.51391
# Poissons Ratio (z) = 0.54557 0.52223
#
# Static dielectric constant tensor:
#      x y z
#    x 4.090290 0.113000 -0.170820 
#    y 0.113000 4.006020 -0.387530 
#    z -0.170820 -0.387530 3.986540 
# 
# 
# High freq. dielectric constant tensor:
#      x y z
#    x 1.860440 0.006990 -0.004830 
#    y 0.006990 1.853890 -0.024490 
#    z -0.004830 -0.024490 1.859960 
# 
# From -- ./inp_files/238524.got.cif
#   From: 2010.06.25/outbox.cif.g09.slc.cpg/sg2_120_cif.got.tgz:238524.got - 2010.06.27 13:26:56.
