data_PCOD8040469
_publ_section_title
;
Structure prediction by ZEFSAII (Michael W. Deem and Ramdas Pophale) SiO2 
 PCOD8040469
Probable space group: P -1
;
_chemical_formula_sum "Si O2"
_cell_formula_units_Z 16
_cell_length_a 18.023865
_cell_length_b 9.360925
_cell_length_c 8.288677
_cell_angle_alpha 87.449727
_cell_angle_beta 77.698492
_cell_angle_gamma 36.989452
_cell_volume 803.084870
_symmetry_space_group_name_H-M "P -1"
_symmetry_group_IT_number 2
_symmetry_cell_setting 'triclinic'
loop_
_space_group_symop_operation_xyz
x,y,z
-x,-y,-z
loop_
_atom_site_type_symbol
_atom_site_label
_atom_site_fract_x
_atom_site_fract_y
_atom_site_fract_z
Si Si1 0.029539 0.317233 0.888941
Si Si2 0.585225 0.357702 0.308835
Si Si3 0.323083 0.772615 0.302980
Si Si4 0.775072 0.265629 0.373965
Si Si5 0.881736 0.996621 0.853448
Si Si6 0.075810 0.748407 0.244962
Si Si7 0.242084 0.107703 0.589256
Si Si8 0.148404 0.560114 0.576524
O O1 0.103835 0.255206 0.697676
O O2 0.903092 0.420805 0.877099
O O3 0.110581 0.079420 0.968050
O O4 0.000000 0.500000 0.000000
O O5 0.500000 0.500000 0.500000
O O6 0.479167 0.531323 0.205819
O O7 0.691399 0.324857 0.262358
O O8 0.658410 0.092735 0.303929
O O9 0.285091 0.693002 0.430866
O O10 0.248218 0.875776 0.164134
O O11 0.282059 0.980241 0.405076
O O12 0.773593 0.439657 0.357479
O O13 0.921878 0.990213 0.320408
O O14 0.004573 0.759436 0.702565
O O15 0.870365 0.186337 0.859022
O O16 0.141751 0.620193 0.391801
O O17 0.234992 0.287895 0.567585
#
# Coordination Sequence:
#
# PCOD8040469 Si02
#       8
#     2   2   2   2   2   2   2   2
#     4  12  23  34  49  80 117 140 169 213 268 325
#     4   8  17  34  56  76 106 134 181 219 257 304
#     4  10  18  37  58  78 102 138 186 220 249 316
#     4   9  15  32  55  77 103 133 175 216 260 307
#     4  11  21  34  54  82 105 141 177 212 266 321
#     4  11  20  35  53  77 111 139 174 217 265 315
#     4  10  20  35  52  81 110 138 168 222 269 303
#     4  11  19  31  57  83 107 135 171 223 274 308
#
# _framework density 19.923173999999999
#
# number of rings (size 3 to 8) (size 9 to 14) (size 15 to 20)
#    0.000    2.000    6.250    1.125    1.750    1.000 
#    0.000    6.250    0.000    0.000    0.000    1.750 
#    0.000    0.000    0.000    0.000    0.000    0.000 
#
# Total GULP energy -198209.686766 kJ/mol
# GULP energy per Si atom -12388.105423 kJ/mol
# Density = 1.987783 g / cm^3
# Si number density = 19.923174 Si / 1000 Ang^3
#
#
#
# Elastic Constant Matrix: (Units=GPa)
#
#
# Indices 1 2 3 4 5 6 
#
# 1 129.5027 76.8140 16.3540 -6.7069 6.4145 9.0282
# 2 76.8140 103.6632 8.6222 -5.0549 -0.8072 18.9669
# 3 16.3540 8.6222 24.4538 -12.9896 2.2071 4.4134
# 4 -6.7069 -5.0549 -12.9896 21.6476 3.8051 1.9143
# 5 6.4145 -0.8072 2.2071 3.8051 22.7012 -3.3735
# 6 9.0282 18.9669 4.4134 1.9143 -3.3735 45.0632
#
#
#
# Elastic Compliance Matrix: (Units=1/GPa)
#
#
# Indices 1 2 3 4 5 6 
#
# 1 0.015180 -0.011161 -0.007331 -0.001913 -0.003325 0.002207
# 2 -0.011161 0.018910 0.003371 0.003149 0.002074 -0.006032
# 3 -0.007331 0.003371 0.071295 0.044571 -0.013675 -0.009850
# 4 -0.001913 0.003149 0.044571 0.077141 -0.018088 -0.009939
# 5 -0.003325 0.002074 -0.013675 -0.018088 0.050267 0.005664
# 6 0.002207 -0.006032 -0.009850 -0.009939 0.005664 0.026099
#
#
# Mechanical properties :
#
#
# Convention : Reuss Voigt Hill
#
# Bulk Modulus (GPa) = 13.30794 51.24446 32.27620
# Shear Modulus (GPa) = 15.91445 28.27101 22.09273
#
# Velocity S-wave (km/s) = 2.82936 3.77105 3.33362
# Velocity P-wave (km/s) = 4.16747 6.68864 5.57251
#
# Compressibility (1/GPa) = 0.07514309
#
# Stress axis : x y z
#
# Youngs Moduli (GPa) = 65.87786 52.88206 14.02624
#
# Poissons Ratio (x) = 0.59023 0.10282
# Poissons Ratio (y) = 0.73528 -0.04728
# Poissons Ratio (z) = 0.48292 -0.17827
#
# Static dielectric constant tensor:
#      x y z
#    x 4.498490 -0.203940 0.170020 
#    y -0.203940 4.045420 0.036350 
#    z 0.170020 0.036350 3.409540 
# 
# 
# High freq. dielectric constant tensor:
#      x y z
#    x 1.782490 0.008580 0.004920 
#    y 0.008580 1.755450 -0.006620 
#    z 0.004920 -0.006620 1.750880 
# 
# From -- ./inp_files/295463.got.cif
#   From: 2010.06.25/outbox.cif.g09.slc.cpg/sg2_148_cif.got.tgz:295463.got - 2010.06.27 13:26:56.
