data_PCOD8040093
_publ_section_title
;
Structure prediction by ZEFSAII (Michael W. Deem and Ramdas Pophale) SiO2 
 PCOD8040093
Probable space group: P -1
;
_chemical_formula_sum "Si O2"
_cell_formula_units_Z 14
_cell_length_a 8.957468
_cell_length_b 14.999532
_cell_length_c 8.370946
_cell_angle_alpha 90.668286
_cell_angle_beta 114.460608
_cell_angle_gamma 38.585401
_cell_volume 533.421404
_symmetry_space_group_name_H-M "P -1"
_symmetry_group_IT_number 2
_symmetry_cell_setting 'triclinic'
loop_
_space_group_symop_operation_xyz
x,y,z
-x,-y,-z
loop_
_atom_site_type_symbol
_atom_site_label
_atom_site_fract_x
_atom_site_fract_y
_atom_site_fract_z
Si Si1 0.803832 0.399298 0.050631
Si Si2 0.920240 0.095653 0.315416
Si Si3 0.643087 0.358327 0.406154
Si Si4 0.239929 0.079836 0.077481
Si Si5 0.878084 0.734345 0.249843
Si Si6 0.708814 0.198947 0.717818
Si Si7 0.305959 0.370341 0.851626
O O1 0.700495 0.462022 0.818639
O O2 0.500000 0.500000 0.000000
O O3 0.895554 0.448710 0.181306
O O4 0.086719 0.195455 0.172578
O O5 0.884023 0.213349 0.368515
O O6 0.583341 0.224242 0.097059
O O7 0.000000 0.000000 0.500000
O O8 0.186463 0.950999 0.294842
O O9 0.589567 0.308121 0.513802
O O10 0.788431 0.381671 0.542916
O O11 0.594487 0.879939 0.257651
O O12 0.249365 0.158136 0.960992
O O13 0.024833 0.098068 0.923026
O O14 0.926104 0.606285 0.243831
O O15 0.434194 0.324443 0.728186
#
# Coordination Sequence:
#
# PCOD8040093 Si02
#       7
#     2   2   2   2   2   2   2
#     4  11  23  43  67  91 125 173 212 253 310 390
#     4   9  18  33  58  91 121 161 212 256 291 377
#     4   9  22  40  64  92 127 162 214 259 317 367
#     4  10  21  39  65  91 129 162 208 250 327 364
#     4  10  22  39  66  97 125 162 207 270 314 364
#     4  10  18  35  63  93 116 167 217 254 294 381
#     4  11  21  37  67  91 124 165 218 251 316 372
#
# _framework density 26.245667000000001
#
# number of rings (size 3 to 8) (size 9 to 14) (size 15 to 20)
#    0.000    2.000    2.857    0.429    2.000    2.857 
#    0.000    3.571    3.143    0.000    0.000    0.000 
#    0.000    0.000    0.000    0.000    0.000    0.000 
#
# Total GULP energy -173530.417179 kJ/mol
# GULP energy per Si atom -12395.029799 kJ/mol
# Density = 2.618593 g / cm^3
# Si number density = 26.245667 Si / 1000 Ang^3
#
#
#
# Elastic Constant Matrix: (Units=GPa)
#
#
# Indices 1 2 3 4 5 6 
#
# 1 52.6812 -19.4843 6.6068 14.5420 19.1386 8.8122
# 2 -19.4843 126.4243 4.2245 24.8437 17.1138 17.4880
# 3 6.6068 4.2245 58.6546 14.2833 -5.3119 0.8370
# 4 14.5420 24.8437 14.2833 38.8308 -0.0819 11.8642
# 5 19.1386 17.1138 -5.3119 -0.0819 33.9183 12.2121
# 6 8.8122 17.4880 0.8370 11.8642 12.2121 39.7925
#
#
#
# Elastic Compliance Matrix: (Units=1/GPa)
#
#
# Indices 1 2 3 4 5 6 
#
# 1 0.046296 0.017376 -0.002948 -0.027915 -0.035972 0.001536
# 2 0.017376 0.016391 -0.000721 -0.016597 -0.018028 -0.000555
# 3 -0.002948 -0.000721 0.019252 -0.005760 0.004729 0.000831
# 4 -0.027915 -0.016597 -0.005760 0.052131 0.027038 -0.010243
# 5 -0.035972 -0.018028 0.004729 0.027038 0.063968 -0.011903
# 6 0.001536 -0.000555 0.000831 -0.010243 -0.011903 0.031724
#
#
# Mechanical properties :
#
#
# Convention : Reuss Voigt Hill
#
# Bulk Modulus (GPa) = 9.14469 24.49488 16.81979
# Shear Modulus (GPa) = 20.93825 38.93586 29.93706
#
# Velocity S-wave (km/s) = 2.82756 3.85582 3.38101
# Velocity P-wave (km/s) = 3.76191 5.40151 4.65448
#
# Compressibility (1/GPa) = 0.10935304
#
# Stress axis : x y z
#
# Youngs Moduli (GPa) = 21.60034 61.01037 51.94244
#
# Poissons Ratio (x) = -1.06013 0.15313
# Poissons Ratio (y) = -0.37533 0.03744
# Poissons Ratio (z) = 0.06368 0.04398
#
# Static dielectric constant tensor:
#      x y z
#    x 4.697200 0.257190 -0.431350 
#    y 0.257190 6.002020 0.097020 
#    z -0.431350 0.097020 4.856970 
# 
# 
# High freq. dielectric constant tensor:
#      x y z
#    x 2.036950 0.004280 -0.023000 
#    y 0.004280 2.087760 0.012990 
#    z -0.023000 0.012990 2.022230 
# 
# From -- ./inp_files/207950.got.cif
#   From: 2010.06.25/outbox.cif.g09.slc.cpg/sg2_104_cif.got.tgz:207950.got - 2010.06.27 13:26:56.
