data_PCOD8040846
_publ_section_title
;
Structure prediction by ZEFSAII (Michael W. Deem and Ramdas Pophale) SiO2 
 PCOD8040846
Probable space group: P -1
;
_chemical_formula_sum "Si O2"
_cell_formula_units_Z 16
_cell_length_a 16.558703
_cell_length_b 9.223034
_cell_length_c 14.110799
_cell_angle_alpha 60.379926
_cell_angle_beta 149.172323
_cell_angle_gamma 96.941819
_cell_volume 702.672052
_symmetry_space_group_name_H-M "P -1"
_symmetry_group_IT_number 2
_symmetry_cell_setting 'triclinic'
loop_
_space_group_symop_operation_xyz
x,y,z
-x,-y,-z
loop_
_atom_site_type_symbol
_atom_site_label
_atom_site_fract_x
_atom_site_fract_y
_atom_site_fract_z
Si Si1 0.844162 0.719063 0.175054
Si Si2 0.619235 0.211685 0.143260
Si Si3 0.397339 0.090804 0.667812
Si Si4 0.899658 0.854850 0.006034
Si Si5 0.330448 0.171352 0.355379
Si Si6 0.623553 0.555593 0.369703
Si Si7 0.521205 0.374867 0.469544
Si Si8 0.196703 0.593605 0.694870
O O1 0.775145 0.829971 0.966278
O O2 0.888557 0.486840 0.291631
O O3 0.054227 0.673779 0.431188
O O4 0.656521 0.893803 0.005484
O O5 0.503031 0.288130 0.899943
O O6 0.447795 0.382004 0.996553
O O7 0.812679 0.210363 0.336953
O O8 0.711701 0.966424 0.351881
O O9 0.351827 0.088975 0.511194
O O10 0.319556 0.328243 0.544263
O O11 0.147062 0.699576 0.337173
O O12 0.887233 0.761748 0.923746
O O13 0.766028 0.124835 0.785003
O O14 0.334899 0.369504 0.292891
O O15 0.500000 0.000000 0.500000
O O16 0.476080 0.526176 0.284825
O O17 0.500000 0.500000 0.500000
#
# Coordination Sequence:
#
# PCOD8040846 Si02
#       8
#     2   2   2   2   2   2   2   2
#     4  10  18  39  62  89 122 164 211 265 311 380
#     4  10  22  39  63  95 125 166 211 265 323 374
#     4  11  22  42  63  89 132 172 209 267 318 377
#     4  11  23  39  64  96 126 168 214 257 324 384
#     4  10  21  40  65  91 121 170 217 256 314 381
#     4  12  24  41  62  94 133 167 210 266 323 375
#     4  11  22  43  64  93 126 169 214 262 318 374
#     4   9  20  35  63  91 121 164 218 261 313 376
#
# _framework density 22.770223999999999
#
# number of rings (size 3 to 8) (size 9 to 14) (size 15 to 20)
#    0.000    1.500    5.000    0.750    1.750    3.500 
#    2.250    1.875    0.000    0.000    0.000    0.000 
#    0.000    0.000    0.000    0.000    0.000    0.000 
#
# Total GULP energy -198211.365105 kJ/mol
# GULP energy per Si atom -12388.210319 kJ/mol
# Density = 2.271840 g / cm^3
# Si number density = 22.770224 Si / 1000 Ang^3
#
#
#
# Elastic Constant Matrix: (Units=GPa)
#
#
# Indices 1 2 3 4 5 6 
#
# 1 109.6344 47.8453 30.4467 -2.0970 -41.8771 12.7594
# 2 47.8453 139.0341 37.7430 8.1571 -14.7234 14.4301
# 3 30.4467 37.7430 59.8814 7.6818 -19.1811 7.7372
# 4 -2.0970 8.1571 7.6818 30.8191 1.8832 -5.3493
# 5 -41.8771 -14.7234 -19.1811 1.8832 39.7707 -2.5421
# 6 12.7594 14.4301 7.7372 -5.3493 -2.5421 30.6810
#
#
#
# Elastic Compliance Matrix: (Units=1/GPa)
#
#
# Indices 1 2 3 4 5 6 
#
# 1 0.017867 -0.003760 -0.000968 0.000756 0.016669 -0.003905
# 2 -0.003760 0.009816 -0.004522 -0.001999 -0.002569 -0.002474
# 3 -0.000968 -0.004522 0.024227 -0.006137 0.009032 -0.003902
# 4 0.000756 -0.001999 -0.006137 0.036222 -0.004098 0.008149
# 5 0.016669 -0.002569 0.009032 -0.004098 0.045982 -0.004906
# 6 -0.003905 -0.002474 -0.003902 0.008149 -0.004906 0.037380
#
#
# Mechanical properties :
#
#
# Convention : Reuss Voigt Hill
#
# Bulk Modulus (GPa) = 29.93081 60.06891 44.99986
# Shear Modulus (GPa) = 24.85976 33.08849 28.97413
#
# Velocity S-wave (km/s) = 3.30777 3.81615 3.57102
# Velocity P-wave (km/s) = 5.26894 6.77164 6.06699
#
# Compressibility (1/GPa) = 0.03341039
#
# Stress axis : x y z
#
# Youngs Moduli (GPa) = 55.97012 101.87597 41.27695
#
# Poissons Ratio (x) = 0.38300 0.03994
# Poissons Ratio (y) = 0.21042 0.18666
# Poissons Ratio (z) = 0.05416 0.46070
#
# Static dielectric constant tensor:
#      x y z
#    x 4.226510 0.380920 -0.140200 
#    y 0.380920 4.541530 0.343490 
#    z -0.140200 0.343490 4.162640 
# 
# 
# High freq. dielectric constant tensor:
#      x y z
#    x 1.900330 0.018060 -0.018900 
#    y 0.018060 1.893630 0.007070 
#    z -0.018900 0.007070 1.876090 
# 
# From -- ./inp_files/507997.got.cif
#   From: 2010.06.25/outbox.cif.g09.slc.cpg/sg2_254_cif.got.tgz:507997.got - 2010.06.27 13:26:56.
