data_PCOD8040048
_publ_section_title
;
Structure prediction by ZEFSAII (Michael W. Deem and Ramdas Pophale) SiO2 
 PCOD8040048
Probable space group: P -1
;
_chemical_formula_sum "Si O2"
_cell_formula_units_Z 16
_cell_length_a 13.417478
_cell_length_b 20.735451
_cell_length_c 9.462477
_cell_angle_alpha 69.505774
_cell_angle_beta 78.808035
_cell_angle_gamma 20.393444
_cell_volume 783.479377
_symmetry_space_group_name_H-M "P -1"
_symmetry_group_IT_number 2
_symmetry_cell_setting 'triclinic'
loop_
_space_group_symop_operation_xyz
x,y,z
-x,-y,-z
loop_
_atom_site_type_symbol
_atom_site_label
_atom_site_fract_x
_atom_site_fract_y
_atom_site_fract_z
Si Si1 0.922724 0.710902 0.327311
Si Si2 0.765101 0.593123 0.730480
Si Si3 0.305068 0.923201 0.383900
Si Si4 0.809388 0.556839 0.318786
Si Si5 0.661740 0.589521 0.050455
Si Si6 0.784316 0.866759 0.792931
Si Si7 0.862404 0.319623 0.902092
Si Si8 0.241739 0.758264 0.899004
O O1 0.997302 0.612230 0.251853
O O2 0.087408 0.579091 0.525820
O O3 0.067795 0.693539 0.262536
O O4 0.551231 0.954304 0.270220
O O5 0.421986 0.810835 0.581632
O O6 0.885777 0.593995 0.686943
O O7 0.743115 0.589716 0.902966
O O8 0.599956 0.738881 0.337923
O O9 0.193398 0.072425 0.335123
O O10 0.038411 0.048521 0.283415
O O11 0.614358 0.662348 0.151457
O O12 0.945965 0.353678 0.179867
O O13 0.329479 0.765965 0.969528
O O14 0.848302 0.838570 0.962246
O O15 0.542157 0.553373 0.875578
O O16 0.845767 0.247724 0.965360
#
# Coordination Sequence:
#
# PCOD8040048 Si02
#       8
#     2   2   2   2   2   2   2   2
#     4  11  18  35  61  87 110 145 199 232 282 331
#     4  11  20  39  58  87 112 153 188 235 282 341
#     4  10  20  37  66  79 112 152 195 236 273 330
#     4  11  23  38  55  87 124 149 176 242 294 336
#     4  11  24  37  58  84 124 151 182 230 296 336
#     4  10  18  35  62  87 108 145 195 240 274 332
#     4   9  18  32  58  90 108 142 192 250 270 317
#     4   9  19  36  56  84 115 145 195 233 276 330
#
# _framework density 20.421724999999999
#
# number of rings (size 3 to 8) (size 9 to 14) (size 15 to 20)
#    0.000    1.750    5.000    2.250    0.000    1.500 
#    0.000    0.625    0.000    0.000    0.000    0.000 
#    0.000    0.000    0.000    0.000    0.000    0.000 
#
# Total GULP energy -198352.254224 kJ/mol
# GULP energy per Si atom -12397.015889 kJ/mol
# Density = 2.037524 g / cm^3
# Si number density = 20.421725 Si / 1000 Ang^3
#
#
#
# Elastic Constant Matrix: (Units=GPa)
#
#
# Indices 1 2 3 4 5 6 
#
# 1 60.8267 11.4072 21.6453 2.4579 6.6618 -17.7846
# 2 11.4072 33.2826 25.9607 -10.4024 -4.9066 -13.9348
# 3 21.6453 25.9607 92.2885 -4.7798 8.1237 -4.9003
# 4 2.4579 -10.4024 -4.7798 32.6831 -0.0659 4.1099
# 5 6.6618 -4.9066 8.1237 -0.0659 24.6092 -5.6647
# 6 -17.7846 -13.9348 -4.9003 4.1099 -5.6647 30.4721
#
#
#
# Elastic Compliance Matrix: (Units=1/GPa)
#
#
# Indices 1 2 3 4 5 6 
#
# 1 0.022009 -0.000584 -0.004401 -0.004006 -0.001855 0.012066
# 2 -0.000584 0.064986 -0.018117 0.014442 0.025885 0.029328
# 3 -0.004401 -0.018117 0.017270 -0.001701 -0.010377 -0.009776
# 4 -0.004006 0.014442 -0.001701 0.035242 0.004643 0.000103
# 5 -0.001855 0.025885 -0.010377 0.004643 0.053994 0.018497
# 6 0.012066 0.029328 -0.009776 0.000103 0.018497 0.055123
#
#
# Mechanical properties :
#
#
# Convention : Reuss Voigt Hill
#
# Bulk Modulus (GPa) = 17.22326 33.82492 25.52409
# Shear Modulus (GPa) = 15.91433 26.04519 20.97976
#
# Velocity S-wave (km/s) = 2.79459 3.57510 3.20867
# Velocity P-wave (km/s) = 4.34340 5.80008 5.12377
#
# Compressibility (1/GPa) = 0.05806103
#
# Stress axis : x y z
#
# Youngs Moduli (GPa) = 45.43680 15.38789 57.90274
#
# Poissons Ratio (x) = 0.00899 0.25484
# Poissons Ratio (y) = 0.02653 1.04902
# Poissons Ratio (z) = 0.19998 0.27878
#
# Static dielectric constant tensor:
#      x y z
#    x 3.648550 -0.226540 -0.093530 
#    y -0.226540 3.474320 -0.259180 
#    z -0.093530 -0.259180 3.825270 
# 
# 
# High freq. dielectric constant tensor:
#      x y z
#    x 1.782230 -0.019560 -0.011450 
#    y -0.019560 1.771120 -0.019290 
#    z -0.011450 -0.019290 1.800450 
# 
# From -- ./inp_files/205552.got.cif
#   From: 2010.06.25/outbox.cif.g09.slc.cpg/sg2_103_cif.got.tgz:205552.got - 2010.06.27 13:26:56.
