data_PCOD8040709
_publ_section_title
;
Structure prediction by ZEFSAII (Michael W. Deem and Ramdas Pophale) SiO2 
 PCOD8040709
Probable space group: P -1
;
_chemical_formula_sum "Si O2"
_cell_formula_units_Z 14
_cell_length_a 18.120991
_cell_length_b 14.882114
_cell_length_c 12.034490
_cell_angle_alpha 48.100396
_cell_angle_beta 149.967078
_cell_angle_gamma 153.060278
_cell_volume 654.002841
_symmetry_space_group_name_H-M "P -1"
_symmetry_group_IT_number 2
_symmetry_cell_setting 'triclinic'
loop_
_space_group_symop_operation_xyz
x,y,z
-x,-y,-z
loop_
_atom_site_type_symbol
_atom_site_label
_atom_site_fract_x
_atom_site_fract_y
_atom_site_fract_z
Si Si1 0.804865 0.020320 0.150399
Si Si2 0.392977 0.329157 0.663274
Si Si3 0.418880 0.289434 0.051249
Si Si4 0.057699 0.256606 0.588880
Si Si5 0.741204 0.187605 0.074022
Si Si6 0.514483 0.758037 0.356332
Si Si7 0.685334 0.745226 0.800017
O O1 0.676458 0.841130 0.221559
O O2 0.708596 0.088184 0.000649
O O3 0.668951 0.901433 0.950652
O O4 0.130021 0.234406 0.389140
O O5 0.485085 0.350845 0.641745
O O6 0.634888 0.571066 0.839720
O O7 0.731162 0.536394 0.219398
O O8 0.417356 0.299970 0.172925
O O9 0.210102 0.239079 0.758714
O O10 0.012467 0.319996 0.376694
O O11 0.781149 0.027265 0.476564
O O12 0.747381 0.334240 0.929529
O O13 0.500000 0.000000 0.000000
O O14 0.508660 0.702969 0.518368
O O15 0.000000 0.000000 0.000000
#
# Coordination Sequence:
#
# PCOD8040709 Si02
#       7
#     2   2   2   2   2   2   2
#     4  11  19  37  65  93 114 155 215 251 288 355
#     4  11  21  37  65  90 115 161 211 253 287 352
#     4  11  21  35  61  93 121 157 203 249 298 352
#     4  10  18  38  61  88 120 154 207 249 293 345
#     4  10  20  38  61  89 125 154 202 255 301 351
#     4  11  22  41  60  92 127 159 199 248 308 362
#     4  12  24  38  58  92 131 158 193 252 312 360
#
# _framework density 21.406635000000001
#
# number of rings (size 3 to 8) (size 9 to 14) (size 15 to 20)
#    0.000    1.143    5.714    3.857    0.000    0.000 
#    0.000    7.857    0.000    0.000    0.000    0.000 
#    0.000    0.000    0.000    0.000    0.000    0.000 
#
# Total GULP energy -173466.252512 kJ/mol
# GULP energy per Si atom -12390.446608 kJ/mol
# Density = 2.135791 g / cm^3
# Si number density = 21.406635 Si / 1000 Ang^3
#
#
#
# Elastic Constant Matrix: (Units=GPa)
#
#
# Indices 1 2 3 4 5 6 
#
# 1 140.6489 30.9605 53.0556 -4.3314 -9.4912 -32.1173
# 2 30.9605 62.1906 27.1510 10.6498 2.3551 -17.9972
# 3 53.0556 27.1510 100.7024 -18.1552 -6.5961 -11.7426
# 4 -4.3314 10.6498 -18.1552 40.9200 -2.6932 -3.0778
# 5 -9.4912 2.3551 -6.5961 -2.6932 32.3615 -5.4403
# 6 -32.1173 -17.9972 -11.7426 -3.0778 -5.4403 25.3475
#
#
#
# Elastic Compliance Matrix: (Units=1/GPa)
#
#
# Indices 1 2 3 4 5 6 
#
# 1 0.012649 -0.000500 -0.004220 0.001090 0.005504 0.015031
# 2 -0.000500 0.024180 -0.006492 -0.008442 -0.001899 0.012095
# 3 -0.004220 -0.006492 0.015426 0.008185 0.002858 -0.001202
# 4 0.001090 -0.008442 0.008185 0.031087 0.005899 0.004220
# 5 0.005504 -0.001899 0.002858 0.005899 0.036326 0.015462
# 6 0.015031 0.012095 -0.001202 0.004220 0.015462 0.070359
#
#
# Mechanical properties :
#
#
# Convention : Reuss Voigt Hill
#
# Bulk Modulus (GPa) = 33.52065 58.43067 45.97566
# Shear Modulus (GPa) = 22.48249 32.55078 27.51663
#
# Velocity S-wave (km/s) = 3.24428 3.90371 3.58917
# Velocity P-wave (km/s) = 5.45223 6.90460 6.22094
#
# Compressibility (1/GPa) = 0.02983236
#
# Stress axis : x y z
#
# Youngs Moduli (GPa) = 79.05743 41.35592 64.82403
#
# Poissons Ratio (x) = 0.02068 0.27354
# Poissons Ratio (y) = 0.03954 0.42083
# Poissons Ratio (z) = 0.33360 0.26848
#
# Static dielectric constant tensor:
#      x y z
#    x 3.896820 -0.140980 -0.044180 
#    y -0.140980 4.031050 -0.002530 
#    z -0.044180 -0.002530 4.366550 
# 
# 
# High freq. dielectric constant tensor:
#      x y z
#    x 1.832400 -0.003560 -0.014750 
#    y -0.003560 1.832080 0.009580 
#    z -0.014750 0.009580 1.828720 
# 
# From -- ./inp_files/298609.got.cif
#   From: 2010.06.25/outbox.cif.g09.slc.cpg/sg2_150_cif.got.tgz:298609.got - 2010.06.27 13:26:56.
