data_PCOD8040410
_publ_section_title
;
Structure prediction by ZEFSAII (Michael W. Deem and Ramdas Pophale) SiO2 
 PCOD8040410
Probable space group: P -1
;
_chemical_formula_sum "Si O2"
_cell_formula_units_Z 16
_cell_length_a 10.662122
_cell_length_b 22.536166
_cell_length_c 16.630605
_cell_angle_alpha 21.537134
_cell_angle_beta 33.129387
_cell_angle_gamma 41.980477
_cell_volume 789.026146
_symmetry_space_group_name_H-M "P -1"
_symmetry_group_IT_number 2
_symmetry_cell_setting 'triclinic'
loop_
_space_group_symop_operation_xyz
x,y,z
-x,-y,-z
loop_
_atom_site_type_symbol
_atom_site_label
_atom_site_fract_x
_atom_site_fract_y
_atom_site_fract_z
Si Si1 0.869561 0.804148 0.487681
Si Si2 0.771795 0.712463 0.074336
Si Si3 0.763408 0.395801 0.725433
Si Si4 0.027980 0.995386 0.666636
Si Si5 0.695513 0.536625 0.049861
Si Si6 0.972917 0.266641 0.247193
Si Si7 0.747716 0.358850 0.591742
Si Si8 0.550616 0.028749 0.343731
O O1 0.065008 0.754790 0.387149
O O2 0.980492 0.950458 0.304450
O O3 0.686555 0.879932 0.433070
O O4 0.744131 0.649690 0.801933
O O5 0.798099 0.523484 0.304539
O O6 0.505896 0.737436 0.175953
O O7 0.913331 0.787876 0.825757
O O8 0.889934 0.809561 0.966869
O O9 0.573876 0.488085 0.751777
O O10 0.759194 0.406920 0.617857
O O11 0.000000 0.500000 0.500000
O O12 0.714035 0.203717 0.018659
O O13 0.883464 0.105176 0.551523
O O14 0.292090 0.016707 0.459955
O O15 0.759124 0.358206 0.224206
O O16 0.833865 0.615271 0.953940
O O17 0.500000 0.000000 0.500000
#
# Coordination Sequence:
#
# PCOD8040410 Si02
#       8
#     2   2   2   2   2   2   2   2
#     4  10  21  41  67  90 128 174 214 259 315 385
#     4  11  22  38  63  98 132 168 203 271 330 381
#     4  12  25  43  65  95 131 174 214 263 329 380
#     4  10  21  37  68  94 122 171 222 256 318 382
#     4  10  19  39  66  91 122 173 213 254 316 383
#     4  10  18  36  65  89 127 158 219 263 305 373
#     4  11  25  41  60  95 142 161 206 273 332 374
#     4  10  20  42  68  86 123 173 215 262 303 386
#
# _framework density 20.278162999999999
#
# number of rings (size 3 to 8) (size 9 to 14) (size 15 to 20)
#    0.000    1.500    6.250    0.375    3.500    1.000 
#    4.500    1.250    0.000    0.000    0.000    0.000 
#    0.000    0.000    0.000    0.000    0.000    0.000 
#
# Total GULP energy -198340.554152 kJ/mol
# GULP energy per Si atom -12396.284635 kJ/mol
# Density = 2.023201 g / cm^3
# Si number density = 20.278163 Si / 1000 Ang^3
#
#
#
# Elastic Constant Matrix: (Units=GPa)
#
#
# Indices 1 2 3 4 5 6 
#
# 1 60.1004 22.1757 40.5549 -0.9553 -3.9917 -12.7391
# 2 22.1757 130.4942 38.1597 6.6388 -7.3059 -30.4483
# 3 40.5549 38.1597 67.0278 4.8060 -17.7128 -10.2432
# 4 -0.9553 6.6388 4.8060 26.5496 -1.1015 6.0478
# 5 -3.9917 -7.3059 -17.7128 -1.1015 35.0917 -0.8842
# 6 -12.7391 -30.4483 -10.2432 6.0478 -0.8842 37.3869
#
#
#
# Elastic Compliance Matrix: (Units=1/GPa)
#
#
# Indices 1 2 3 4 5 6 
#
# 1 0.030675 0.001556 -0.020479 0.002910 -0.006294 0.005489
# 2 0.001556 0.011326 -0.005874 -0.003717 -0.000326 0.008739
# 3 -0.020479 -0.005874 0.034396 -0.004641 0.013632 -0.001265
# 4 0.002910 -0.003717 -0.004641 0.041770 -0.001729 -0.010105
# 5 -0.006294 -0.000326 0.013632 -0.001729 0.034600 0.002422
# 6 0.005489 0.008739 -0.001265 -0.010105 0.002422 0.037080
#
#
# Mechanical properties :
#
#
# Convention : Reuss Voigt Hill
#
# Bulk Modulus (GPa) = 37.30835 51.04477 44.17656
# Shear Modulus (GPa) = 20.13087 30.25443 25.19265
#
# Velocity S-wave (km/s) = 3.15419 3.86679 3.52853
# Velocity P-wave (km/s) = 5.63058 6.72035 6.19946
#
# Compressibility (1/GPa) = 0.02680365
#
# Stress axis : x y z
#
# Youngs Moduli (GPa) = 32.59963 88.29043 29.07354
#
# Poissons Ratio (x) = -0.13738 0.59539
# Poissons Ratio (y) = -0.05072 0.17077
# Poissons Ratio (z) = 0.66760 0.51861
#
# Static dielectric constant tensor:
#      x y z
#    x 3.901460 -0.473080 0.197420 
#    y -0.473080 4.009080 -0.054570 
#    z 0.197420 -0.054570 3.679350 
# 
# 
# High freq. dielectric constant tensor:
#      x y z
#    x 1.783630 -0.016120 0.012910 
#    y -0.016120 1.795760 -0.004720 
#    z 0.012910 -0.004720 1.778130 
# 
# From -- ./inp_files/270238.got.cif
#   From: 2010.06.25/outbox.cif.g09.slc.cpg/sg2_136_cif.got.tgz:270238.got - 2010.06.27 13:26:56.
