data_PCOD8040743
_publ_section_title
;
Structure prediction by ZEFSAII (Michael W. Deem and Ramdas Pophale) SiO2 
 PCOD8040743
Probable space group: P -1
;
_chemical_formula_sum "Si O2"
_cell_formula_units_Z 16
_cell_length_a 14.685967
_cell_length_b 8.392316
_cell_length_c 7.834752
_cell_angle_alpha 97.444055
_cell_angle_beta 78.038234
_cell_angle_gamma 55.350495
_cell_volume 739.490521
_symmetry_space_group_name_H-M "P -1"
_symmetry_group_IT_number 2
_symmetry_cell_setting 'triclinic'
loop_
_space_group_symop_operation_xyz
x,y,z
-x,-y,-z
loop_
_atom_site_type_symbol
_atom_site_label
_atom_site_fract_x
_atom_site_fract_y
_atom_site_fract_z
Si Si1 0.481094 0.770115 0.431998
Si Si2 0.853030 0.571844 0.946813
Si Si3 0.810288 0.375117 0.380564
Si Si4 0.502678 0.589815 0.754311
Si Si5 0.684406 0.790514 0.342695
Si Si6 0.265447 0.570179 0.214585
Si Si7 0.755379 0.208740 0.074885
Si Si8 0.974505 0.758606 0.909209
O O1 0.530286 0.651385 0.576101
O O2 0.465749 0.634136 0.295057
O O3 0.572770 0.802419 0.325098
O O4 0.356468 0.995154 0.533903
O O5 0.764486 0.743680 0.141950
O O6 0.940632 0.353283 0.975449
O O7 0.779125 0.562204 0.826741
O O8 0.928278 0.635536 0.842023
O O9 0.759077 0.611332 0.428881
O O10 0.787897 0.319081 0.565946
O O11 0.741319 0.349917 0.255252
O O12 0.950541 0.233280 0.267761
O O13 0.591567 0.573520 0.855842
O O14 0.367026 0.760679 0.884955
O O15 0.218679 0.735274 0.107581
O O16 0.865412 0.980535 0.043000
#
# Coordination Sequence:
#
# PCOD8040743 Si02
#       8
#     2   2   2   2   2   2   2   2
#     4  10  19  35  66  92 127 174 212 246 321 385
#     4  10  22  43  66  93 128 166 215 265 321 374
#     4  11  22  42  69  92 130 166 212 267 318 370
#     4  11  21  39  61  98 134 165 206 265 317 382
#     4  10  18  38  63  92 124 170 209 256 311 379
#     4  12  24  40  66  96 130 170 207 267 322 371
#     4  12  23  44  66  94 130 170 214 257 316 386
#     4  10  23  44  69  91 123 176 213 264 318 371
#
# _framework density 21.636517999999999
#
# number of rings (size 3 to 8) (size 9 to 14) (size 15 to 20)
#    0.000    1.250    5.000    2.250    0.000    1.000 
#    2.250    2.500    0.000    0.000    0.000    0.000 
#    0.000    0.000    0.000    0.000    0.000    0.000 
#
# Total GULP energy -198407.215113 kJ/mol
# GULP energy per Si atom -12400.450945 kJ/mol
# Density = 2.158727 g / cm^3
# Si number density = 21.636518 Si / 1000 Ang^3
#
#
#
# Elastic Constant Matrix: (Units=GPa)
#
#
# Indices 1 2 3 4 5 6 
#
# 1 138.7457 23.4529 34.7880 1.1315 -7.7996 -17.6091
# 2 23.4529 87.2587 33.7181 23.0125 4.6636 -10.9579
# 3 34.7880 33.7181 93.2597 -7.9945 -10.1359 -12.2802
# 4 1.1315 23.0125 -7.9945 37.1934 -3.1879 -10.2120
# 5 -7.7996 4.6636 -10.1359 -3.1879 32.0185 -0.4434
# 6 -17.6091 -10.9579 -12.2802 -10.2120 -0.4434 23.3696
#
#
#
# Elastic Compliance Matrix: (Units=1/GPa)
#
#
# Indices 1 2 3 4 5 6 
#
# 1 0.008741 -0.001844 -0.001319 0.002480 0.002312 0.006156
# 2 -0.001844 0.019548 -0.009116 -0.015782 -0.007810 -0.004058
# 3 -0.001319 -0.009116 0.017794 0.012907 0.008061 0.009875
# 4 0.002480 -0.015782 0.012907 0.046335 0.011903 0.021724
# 5 0.002312 -0.007810 0.008061 0.011903 0.036784 0.008216
# 6 0.006156 -0.004058 0.009875 0.021724 0.008216 0.060364
#
#
# Mechanical properties :
#
#
# Convention : Reuss Voigt Hill
#
# Bulk Modulus (GPa) = 46.45926 55.90912 51.18419
# Shear Modulus (GPa) = 22.59393 33.66998 28.13195
#
# Velocity S-wave (km/s) = 3.23499 3.94910 3.60975
# Velocity P-wave (km/s) = 5.95590 6.83302 6.40948
#
# Compressibility (1/GPa) = 0.02152423
#
# Stress axis : x y z
#
# Youngs Moduli (GPa) = 114.40335 51.15569 56.20016
#
# Poissons Ratio (x) = 0.09433 0.07415
# Poissons Ratio (y) = 0.21097 0.51231
# Poissons Ratio (z) = 0.15094 0.46633
#
# Static dielectric constant tensor:
#      x y z
#    x 4.099580 0.034270 -0.293830 
#    y 0.034270 3.761660 0.064670 
#    z -0.293830 0.064670 3.676680 
# 
# 
# High freq. dielectric constant tensor:
#      x y z
#    x 1.859390 0.001300 -0.028890 
#    y 0.001300 1.835660 0.006680 
#    z -0.028890 0.006680 1.827840 
# 
# From -- ./inp_files/298818.got.cif
#   From: 2010.06.25/outbox.cif.g09.slc.cpg/sg2_150_cif.got.tgz:298818.got - 2010.06.27 13:26:56.
