data_PCOD8040094
_publ_section_title
;
Structure prediction by ZEFSAII (Michael W. Deem and Ramdas Pophale) SiO2 
 PCOD8040094
Probable space group: P -1
;
_chemical_formula_sum "Si O2"
_cell_formula_units_Z 16
_cell_length_a 10.758442
_cell_length_b 13.866832
_cell_length_c 8.645255
_cell_angle_alpha 61.735102
_cell_angle_beta 104.696172
_cell_angle_gamma 142.906189
_cell_volume 666.189142
_symmetry_space_group_name_H-M "P -1"
_symmetry_group_IT_number 2
_symmetry_cell_setting 'triclinic'
loop_
_space_group_symop_operation_xyz
x,y,z
-x,-y,-z
loop_
_atom_site_type_symbol
_atom_site_label
_atom_site_fract_x
_atom_site_fract_y
_atom_site_fract_z
Si Si1 0.476982 0.143516 0.827959
Si Si2 0.627385 0.648156 0.066014
Si Si3 0.819517 0.610550 0.335777
Si Si4 0.407896 0.155057 0.238390
Si Si5 0.196260 0.553112 0.039998
Si Si6 0.732764 0.137855 0.778522
Si Si7 0.232710 0.366387 0.346624
Si Si8 0.353551 0.211527 0.487992
O O1 0.652324 0.308730 0.875203
O O2 0.604050 0.164330 0.716810
O O3 0.336876 0.143114 0.702024
O O4 0.310923 0.950783 0.004129
O O5 0.833719 0.722837 0.134940
O O6 0.480849 0.556379 0.244602
O O7 0.500000 0.500000 0.000000
O O8 0.700931 0.819246 0.911380
O O9 0.833163 0.655134 0.483876
O O10 0.598964 0.404175 0.388181
O O11 0.018376 0.668032 0.312567
O O12 0.310610 0.096365 0.424438
O O13 0.341799 0.990984 0.285526
O O14 0.662979 0.346112 0.149412
O O15 0.113376 0.372257 0.188475
O O16 0.000000 0.500000 0.000000
O O17 0.197333 0.211633 0.422175
#
# Coordination Sequence:
#
# PCOD8040094 Si02
#       8
#     2   2   2   2   2   2   2   2
#     4  10  23  45  65  87 128 177 207 259 327 381
#     4  10  18  35  63  94 126 159 206 262 317 362
#     4  11  22  37  66  97 121 164 214 269 303 385
#     4  10  22  40  61  92 128 171 201 261 324 375
#     4  10  22  37  65  96 126 160 214 260 310 374
#     4  10  25  43  60  89 133 170 212 252 330 386
#     4  10  21  37  62  99 125 157 207 273 313 358
#     4  11  21  40  71  92 123 165 217 266 313 368
#
# _framework density 24.017204
#
# number of rings (size 3 to 8) (size 9 to 14) (size 15 to 20)
#    0.000    1.750    3.750    1.500    5.250    2.500 
#    0.000    4.375    0.000    0.000    0.000    0.000 
#    0.000    0.000    0.000    0.000    0.000    0.000 
#
# Total GULP energy -198209.147805 kJ/mol
# GULP energy per Si atom -12388.071738 kJ/mol
# Density = 2.396254 g / cm^3
# Si number density = 24.017204 Si / 1000 Ang^3
#
#
#
# Elastic Constant Matrix: (Units=GPa)
#
#
# Indices 1 2 3 4 5 6 
#
# 1 119.6818 4.0782 29.2816 7.6721 6.8661 -10.0515
# 2 4.0782 14.7808 -5.3800 0.6748 -0.7760 -11.4599
# 3 29.2816 -5.3800 78.0440 10.4491 6.6635 7.1129
# 4 7.6721 0.6748 10.4491 20.6415 -5.6183 -3.4355
# 5 6.8661 -0.7760 6.6635 -5.6183 47.8732 2.1803
# 6 -10.0515 -11.4599 7.1129 -3.4355 2.1803 27.0293
#
#
#
# Elastic Compliance Matrix: (Units=1/GPa)
#
#
# Indices 1 2 3 4 5 6 
#
# 1 0.009839 -0.000821 -0.003856 -0.001305 -0.001235 0.004259
# 2 -0.000821 0.101717 0.003182 0.002320 -0.000331 0.042305
# 3 -0.003856 0.003182 0.016296 -0.008452 -0.002416 -0.005253
# 4 -0.001305 0.002320 -0.008452 0.056765 0.007639 0.009321
# 5 -0.001235 -0.000331 -0.002416 0.007639 0.022329 -0.000794
# 6 0.004259 0.042305 -0.005253 0.009321 -0.000794 0.059148
#
#
# Mechanical properties :
#
#
# Convention : Reuss Voigt Hill
#
# Bulk Modulus (GPa) = 8.00890 29.82957 18.91924
# Shear Modulus (GPa) = 16.09242 31.41060 23.75151
#
# Velocity S-wave (km/s) = 2.59132 3.62033 3.14815
# Velocity P-wave (km/s) = 3.50644 5.47017 4.59444
#
# Compressibility (1/GPa) = 0.12486102
#
# Stress axis : x y z
#
# Youngs Moduli (GPa) = 101.63463 9.83122 61.36436
#
# Poissons Ratio (x) = 0.00807 0.23663
# Poissons Ratio (y) = 0.08347 -0.19526
# Poissons Ratio (z) = 0.39192 -0.03128
#
# Static dielectric constant tensor:
#      x y z
#    x 4.973630 -0.187750 0.236110 
#    y -0.187750 3.802060 0.004250 
#    z 0.236110 0.004250 4.587530 
# 
# 
# High freq. dielectric constant tensor:
#      x y z
#    x 1.966540 -0.020450 -0.004360 
#    y -0.020450 1.903250 0.001530 
#    z -0.004360 0.001530 1.955710 
# 
# From -- ./inp_files/267451.got.cif
#   From: 2010.06.25/outbox.cif.g09.slc.cpg/sg2_134_cif.got.tgz:267451.got - 2010.06.27 13:26:56.
