data_PCOD8040973
_publ_section_title
;
Structure prediction by ZEFSAII (Michael W. Deem and Ramdas Pophale) SiO2 
 PCOD8040973
Probable space group: P -1
;
_chemical_formula_sum "Si O2"
_cell_formula_units_Z 12
_cell_length_a 9.192185
_cell_length_b 11.789856
_cell_length_c 9.223938
_cell_angle_alpha 100.018490
_cell_angle_beta 137.404417
_cell_angle_gamma 104.046346
_cell_volume 553.650005
_symmetry_space_group_name_H-M "P -1"
_symmetry_group_IT_number 2
_symmetry_cell_setting 'triclinic'
loop_
_space_group_symop_operation_xyz
x,y,z
-x,-y,-z
loop_
_atom_site_type_symbol
_atom_site_label
_atom_site_fract_x
_atom_site_fract_y
_atom_site_fract_z
Si Si1 0.755839 0.420051 0.699244
Si Si2 0.589771 0.159647 0.355287
Si Si3 0.001775 0.170749 0.461436
Si Si4 0.855112 0.889160 0.164808
Si Si5 0.134582 0.919559 0.115805
Si Si6 0.784064 0.658031 0.610676
O O1 0.767213 0.295200 0.613487
O O2 0.766280 0.517925 0.601487
O O3 0.489397 0.358400 0.577808
O O4 0.000000 0.500000 0.000000
O O5 0.741986 0.137336 0.338252
O O6 0.434903 0.021828 0.312994
O O7 0.399327 0.191023 0.137683
O O8 0.195268 0.186734 0.734667
O O9 0.135091 0.307712 0.491347
O O10 0.935361 0.045999 0.278323
O O11 0.087152 0.889608 0.248877
O O12 0.003012 0.775909 0.901970
O O13 0.000000 0.000000 0.000000
#
# Coordination Sequence:
#
# PCOD8040973 Si02
#       6
#     2   2   2   2   2   2
#     4  11  26  44  66  91 123 175 221 250 310 386
#     4  11  22  41  66  95 129 163 214 263 310 372
#     4  11  23  37  66 101 129 162 202 265 327 369
#     4  10  21  39  61  98 132 161 202 259 320 370
#     4  10  18  40  69  90 124 167 208 261 313 363
#     4  11  23  45  65  90 133 164 208 271 310 367
#
# _framework density 21.674340000000001
#
# number of rings (size 3 to 8) (size 9 to 14) (size 15 to 20)
#    0.000    1.333    6.667    0.500    2.333    2.667 
#    3.000    1.667    0.000    0.000    0.000    0.000 
#    0.000    0.000    0.000    0.000    0.000    0.000 
#
# Total GULP energy -148806.674326 kJ/mol
# GULP energy per Si atom -12400.556194 kJ/mol
# Density = 2.162501 g / cm^3
# Si number density = 21.674340 Si / 1000 Ang^3
#
#
#
# Elastic Constant Matrix: (Units=GPa)
#
#
# Indices 1 2 3 4 5 6 
#
# 1 147.1685 43.8245 39.2058 6.3911 -5.1681 23.5338
# 2 43.8245 66.0365 23.1914 7.5432 -0.9102 22.5041
# 3 39.2058 23.1914 111.0366 18.5576 -7.3142 6.5576
# 4 6.3911 7.5432 18.5576 30.6384 3.7175 -5.4578
# 5 -5.1681 -0.9102 -7.3142 3.7175 24.8118 -6.0242
# 6 23.5338 22.5041 6.5576 -5.4578 -6.0242 39.2295
#
#
#
# Elastic Compliance Matrix: (Units=1/GPa)
#
#
# Indices 1 2 3 4 5 6 
#
# 1 0.009092 -0.004440 -0.002096 -0.000039 0.000516 -0.002483
# 2 -0.004440 0.023254 -0.001880 -0.005394 -0.002613 -0.011513
# 3 -0.002096 -0.001880 0.011474 -0.006501 0.003877 0.000109
# 4 -0.000039 -0.005394 -0.006501 0.040222 -0.005993 0.008880
# 5 0.000516 -0.002613 0.003877 -0.005993 0.043922 0.006452
# 6 -0.002483 -0.011513 0.000109 0.008880 0.006452 0.035794
#
#
# Mechanical properties :
#
#
# Convention : Reuss Voigt Hill
#
# Bulk Modulus (GPa) = 37.05242 59.63163 48.34203
# Shear Modulus (GPa) = 26.37329 33.47062 29.92196
#
# Velocity S-wave (km/s) = 3.49205 3.93396 3.71957
# Velocity P-wave (km/s) = 5.77853 6.94313 6.38742
#
# Compressibility (1/GPa) = 0.02698879
#
# Stress axis : x y z
#
# Youngs Moduli (GPa) = 109.98181 43.00385 87.15217
#
# Poissons Ratio (x) = 0.19095 0.18266
# Poissons Ratio (y) = 0.48835 0.16382
# Poissons Ratio (z) = 0.23051 0.08083
#
# Static dielectric constant tensor:
#      x y z
#    x 4.194900 0.240170 -0.116820 
#    y 0.240170 3.925720 -0.072290 
#    z -0.116820 -0.072290 3.826880 
# 
# 
# High freq. dielectric constant tensor:
#      x y z
#    x 1.855680 0.005530 -0.006900 
#    y 0.005530 1.848710 -0.012670 
#    z -0.006900 -0.012670 1.848030 
# 
# From -- ./inp_files/176899.got.cif
#   From: 2010.06.25/outbox.cif.g09.slc.cpg/sg2_89_cif.got.tgz:176899.got - 2010.06.27 13:26:56.
