data_PCOD8040167
_publ_section_title
;
Structure prediction by ZEFSAII (Michael W. Deem and Ramdas Pophale) SiO2 
 PCOD8040167
Probable space group: P -1
;
_chemical_formula_sum "Si O2"
_cell_formula_units_Z 12
_cell_length_a 10.297440
_cell_length_b 9.551333
_cell_length_c 17.621311
_cell_angle_alpha 143.953163
_cell_angle_beta 46.392839
_cell_angle_gamma 136.658485
_cell_volume 677.425962
_symmetry_space_group_name_H-M "P -1"
_symmetry_group_IT_number 2
_symmetry_cell_setting 'triclinic'
loop_
_space_group_symop_operation_xyz
x,y,z
-x,-y,-z
loop_
_atom_site_type_symbol
_atom_site_label
_atom_site_fract_x
_atom_site_fract_y
_atom_site_fract_z
Si Si1 0.328772 0.403102 0.630591
Si Si2 0.181875 0.030916 0.736330
Si Si3 0.207580 0.975609 0.140071
Si Si4 0.385412 0.591101 0.855239
Si Si5 0.724006 0.396704 0.417885
Si Si6 0.985468 0.092337 0.404412
O O1 0.317995 0.545408 0.774872
O O2 0.534177 0.373195 0.531454
O O3 0.309601 0.577383 0.645945
O O4 0.149348 0.121402 0.575158
O O5 0.350531 0.320355 0.791528
O O6 0.977291 0.051784 0.850664
O O7 0.242935 0.866806 0.700700
O O8 0.152848 0.894128 0.604297
O O9 0.387993 0.227511 0.148385
O O10 0.154545 0.009349 0.264268
O O11 0.252776 0.720685 0.005475
O O12 0.916813 0.634529 0.473357
#
# Coordination Sequence:
#
# PCOD8040167 Si02
#       6
#     2   2   2   2   2   2
#     4  10  21  32  53  73 103 139 158 202 248 304
#     4   9  20  31  54  76 101 127 165 214 240 289
#     4   9  19  33  58  73  97 126 177 209 235 294
#     4  10  18  36  55  75  95 133 171 202 251 285
#     4  11  20  35  47  79 107 127 167 198 254 298
#     4   9  19  33  53  75  96 135 165 205 244 289
#
# _framework density 17.714113000000001
#
# number of rings (size 3 to 8) (size 9 to 14) (size 15 to 20)
#    1.000    1.333    1.667    1.500    0.000    4.000 
#    0.000    0.833    0.000    2.000    0.000    0.000 
#    0.000    0.000    0.000    0.000    0.000    0.000 
#
# Total GULP energy -148741.831916 kJ/mol
# GULP energy per Si atom -12395.152660 kJ/mol
# Density = 1.767379 g / cm^3
# Si number density = 17.714113 Si / 1000 Ang^3
#
#
#
# Elastic Constant Matrix: (Units=GPa)
#
#
# Indices 1 2 3 4 5 6 
#
# 1 42.0243 35.6121 19.2527 13.7195 -12.6189 1.5085
# 2 35.6121 109.4753 41.9535 17.7997 -11.0152 8.5429
# 3 19.2527 41.9535 56.8117 19.1868 -3.2022 -4.1148
# 4 13.7195 17.7997 19.1868 24.0124 0.1871 -0.4479
# 5 -12.6189 -11.0152 -3.2022 0.1871 23.5330 3.9624
# 6 1.5085 8.5429 -4.1148 -0.4479 3.9624 27.1526
#
#
#
# Elastic Compliance Matrix: (Units=1/GPa)
#
#
# Indices 1 2 3 4 5 6 
#
# 1 0.043466 -0.008380 -0.001775 -0.017419 0.019825 -0.003228
# 2 -0.008380 0.016302 -0.009579 0.000213 0.002933 -0.006540
# 3 -0.001775 -0.009579 0.031394 -0.016804 -0.002366 0.007938
# 4 -0.017419 0.000213 -0.016804 0.064985 -0.012248 0.001214
# 5 0.019825 0.002933 -0.002366 -0.012248 0.056086 -0.010769
# 6 -0.003228 -0.006540 0.007938 0.001214 -0.010769 0.041860
#
#
# Mechanical properties :
#
#
# Convention : Reuss Voigt Hill
#
# Bulk Modulus (GPa) = 19.34470 44.66089 32.00279
# Shear Modulus (GPa) = 16.08787 22.37245 19.23016
#
# Velocity S-wave (km/s) = 3.01690 3.55769 3.29840
# Velocity P-wave (km/s) = 4.80414 6.49176 5.71064
#
# Compressibility (1/GPa) = 0.05169374
#
# Stress axis : x y z
#
# Youngs Moduli (GPa) = 23.00637 61.34097 31.85335
#
# Poissons Ratio (x) = 0.51407 0.05654
# Poissons Ratio (y) = 0.19280 0.30512
# Poissons Ratio (z) = 0.04083 0.58758
#
# Static dielectric constant tensor:
#      x y z
#    x 3.020030 0.224950 0.008890 
#    y 0.224950 3.410810 -0.027780 
#    z 0.008890 -0.027780 3.065670 
# 
# 
# High freq. dielectric constant tensor:
#      x y z
#    x 1.659680 0.024120 -0.000540 
#    y 0.024120 1.697440 0.003170 
#    z -0.000540 0.003170 1.667230 
# 
# From -- ./inp_files/173083.got.cif
#   From: 2010.06.25/outbox.cif.g09.slc.cpg/sg2_87_cif.got.tgz:173083.got - 2010.06.27 13:26:56.
