data_PCOD8040154
_publ_section_title
;
Structure prediction by ZEFSAII (Michael W. Deem and Ramdas Pophale) SiO2 
 PCOD8040154
Probable space group: P -1
;
_chemical_formula_sum "Si O2"
_cell_formula_units_Z 12
_cell_length_a 9.958818
_cell_length_b 9.499242
_cell_length_c 8.006014
_cell_angle_alpha 99.108001
_cell_angle_beta 57.931720
_cell_angle_gamma 80.862773
_cell_volume 606.445494
_symmetry_space_group_name_H-M "P -1"
_symmetry_group_IT_number 2
_symmetry_cell_setting 'triclinic'
loop_
_space_group_symop_operation_xyz
x,y,z
-x,-y,-z
loop_
_atom_site_type_symbol
_atom_site_label
_atom_site_fract_x
_atom_site_fract_y
_atom_site_fract_z
Si Si1 0.308993 0.070854 0.692043
Si Si2 0.711311 0.044250 0.974292
Si Si3 0.380818 0.868612 0.298993
Si Si4 0.084661 0.897301 0.699382
Si Si5 0.295072 0.682026 0.763664
Si Si6 0.601733 0.648574 0.319580
O O1 0.280304 0.244858 0.701968
O O2 0.425184 0.960605 0.451057
O O3 0.132478 0.032089 0.794355
O O4 0.370293 0.030776 0.839029
O O5 0.601678 0.063594 0.881032
O O6 0.721282 0.208060 0.047956
O O7 0.893040 0.934769 0.792559
O O8 0.188807 0.870535 0.451076
O O9 0.504967 0.702971 0.217055
O O10 0.146841 0.747607 0.742284
O O11 0.472286 0.666370 0.559195
O O12 0.286028 0.521489 0.803690
#
# Coordination Sequence:
#
# PCOD8040154 Si02
#       6
#     2   2   2   2   2   2
#     4   9  19  32  53  73 100 132 161 210 237 293
#     4  11  18  34  53  76  98 130 173 196 243 294
#     4   9  20  30  56  74  98 132 160 212 239 290
#     4   8  18  34  51  77  95 131 170 200 242 286
#     4   9  19  31  57  70 100 138 154 211 244 295
#     4  10  18  36  47  79 102 127 168 194 264 284
#
# _framework density 19.787431999999999
#
# number of rings (size 3 to 8) (size 9 to 14) (size 15 to 20)
#    1.000    1.667    1.667    3.000    0.000    1.333 
#    0.000    3.333    0.000    1.000    0.000    0.000 
#    0.000    0.000    0.000    0.000    0.000    0.000 
#
# Total GULP energy -148680.958385 kJ/mol
# GULP energy per Si atom -12390.079865 kJ/mol
# Density = 1.974240 g / cm^3
# Si number density = 19.787432 Si / 1000 Ang^3
#
#
#
# Elastic Constant Matrix: (Units=GPa)
#
#
# Indices 1 2 3 4 5 6 
#
# 1 54.5680 30.3497 23.7054 -11.1476 7.0292 -14.6693
# 2 30.3497 172.6303 29.6876 -0.7270 1.6607 -6.2099
# 3 23.7054 29.6876 62.3939 -14.3385 8.2666 -11.7672
# 4 -11.1476 -0.7270 -14.3385 29.8801 -6.4190 1.5471
# 5 7.0292 1.6607 8.2666 -6.4190 30.2601 -3.4977
# 6 -14.6693 -6.2099 -11.7672 1.5471 -3.4977 21.3015
#
#
#
# Elastic Compliance Matrix: (Units=1/GPa)
#
#
# Indices 1 2 3 4 5 6 
#
# 1 0.027870 -0.003597 -0.004155 0.007132 -0.001892 0.015020
# 2 -0.003597 0.006832 -0.002827 -0.002325 0.000533 -0.001790
# 3 -0.004155 -0.002827 0.022661 0.008335 -0.002397 0.007834
# 4 0.007132 -0.002325 0.008335 0.040936 0.005663 0.006795
# 5 -0.001892 0.000533 -0.002397 0.005663 0.035657 0.002972
# 6 0.015020 -0.001790 0.007834 0.006795 0.002972 0.061089
#
#
# Mechanical properties :
#
#
# Convention : Reuss Voigt Hill
#
# Bulk Modulus (GPa) = 27.61934 50.78638 39.20286
# Shear Modulus (GPa) = 21.90398 30.01165 25.95781
#
# Velocity S-wave (km/s) = 3.33072 3.89871 3.62585
# Velocity P-wave (km/s) = 5.36469 6.78147 6.11425
#
# Compressibility (1/GPa) = 0.03620651
#
# Stress axis : x y z
#
# Youngs Moduli (GPa) = 35.88134 146.37357 44.12830
#
# Poissons Ratio (x) = 0.52645 0.18334
# Poissons Ratio (y) = 0.12905 0.12474
# Poissons Ratio (z) = 0.14908 0.41375
#
# Static dielectric constant tensor:
#      x y z
#    x 3.242500 -0.064450 -0.043540 
#    y -0.064450 3.710250 -0.115190 
#    z -0.043540 -0.115190 3.471560 
# 
# 
# High freq. dielectric constant tensor:
#      x y z
#    x 1.757550 -0.004350 -0.012870 
#    y -0.004350 1.759940 -0.024000 
#    z -0.012870 -0.024000 1.764000 
# 
# From -- ./inp_files/151443.got.cif
#   From: 2010.06.25/outbox.cif.g09.slc.cpg/sg2_76_cif.got.tgz:151443.got - 2010.06.27 13:26:56.
