data_PCOD8040566
_publ_section_title
;
Structure prediction by ZEFSAII (Michael W. Deem and Ramdas Pophale) SiO2 
 PCOD8040566
Probable space group: P -1
;
_chemical_formula_sum "Si O2"
_cell_formula_units_Z 16
_cell_length_a 14.634084
_cell_length_b 9.213081
_cell_length_c 8.532250
_cell_angle_alpha 121.204226
_cell_angle_beta 63.373384
_cell_angle_gamma 84.213986
_cell_volume 791.781023
_symmetry_space_group_name_H-M "P -1"
_symmetry_group_IT_number 2
_symmetry_cell_setting 'triclinic'
loop_
_space_group_symop_operation_xyz
x,y,z
-x,-y,-z
loop_
_atom_site_type_symbol
_atom_site_label
_atom_site_fract_x
_atom_site_fract_y
_atom_site_fract_z
Si Si1 0.234183 0.460591 0.612404
Si Si2 0.013478 0.332992 0.011507
Si Si3 0.516796 0.817994 0.285505
Si Si4 0.707109 0.526214 0.781404
Si Si5 0.946462 0.448811 0.657060
Si Si6 0.859124 0.842526 0.456500
Si Si7 0.341644 0.777527 0.185343
Si Si8 0.420378 0.498625 0.698160
O O1 0.293556 0.445485 0.389318
O O2 0.217708 0.272261 0.549334
O O3 0.309527 0.485783 0.706379
O O4 0.110010 0.642648 0.819429
O O5 0.087154 0.361255 0.108986
O O6 0.087012 0.146559 0.750420
O O7 0.000000 0.500000 0.000000
O O8 0.416615 0.868225 0.262575
O O9 0.511398 0.676399 0.340424
O O10 0.500000 0.000000 0.500000
O O11 0.633866 0.723140 0.040110
O O12 0.834490 0.427342 0.692232
O O13 0.657147 0.379190 0.780826
O O14 0.000000 0.500000 0.500000
O O15 0.038208 0.253203 0.552281
O O16 0.781131 0.059202 0.674781
O O17 0.389625 0.685947 0.929115
O O18 0.500000 0.500000 0.500000
#
# Coordination Sequence:
#
# PCOD8040566 Si02
#       8
#     2   2   2   2   2   2   2   2
#     4  10  19  39  63  87 113 165 202 241 295 352
#     4   8  18  32  58  86 116 150 200 236 283 349
#     4  11  25  42  64  89 117 161 205 249 297 363
#     4  11  22  39  65  88 126 159 196 255 301 354
#     4  10  18  37  62  93 117 158 203 244 295 350
#     4  10  22  38  62  89 124 156 203 246 288 369
#     4  11  25  41  58  93 125 154 199 250 311 354
#     4  11  23  41  64  85 123 160 199 251 306 355
#
# _framework density 20.207606999999999
#
# number of rings (size 3 to 8) (size 9 to 14) (size 15 to 20)
#    0.000    2.000    2.500    3.750   12.250    1.500 
#    0.000    4.375    0.000    0.000    0.000    0.000 
#    0.000    0.000    0.000    0.000    0.000    0.000 
#
# Total GULP energy -198223.030553 kJ/mol
# GULP energy per Si atom -12388.939410 kJ/mol
# Density = 2.016161 g / cm^3
# Si number density = 20.207607 Si / 1000 Ang^3
#
#
#
# Elastic Constant Matrix: (Units=GPa)
#
#
# Indices 1 2 3 4 5 6 
#
# 1 110.1540 8.1535 31.3764 6.9896 11.4325 -4.3436
# 2 8.1535 48.6028 60.4888 -4.3438 -1.0532 -7.3386
# 3 31.3764 60.4888 171.7603 -3.3996 6.4581 -6.2047
# 4 6.9896 -4.3438 -3.3996 42.2527 -2.1802 -2.6701
# 5 11.4325 -1.0532 6.4581 -2.1802 33.2811 -3.8186
# 6 -4.3436 -7.3386 -6.2047 -2.6701 -3.8186 28.6719
#
#
#
# Elastic Compliance Matrix: (Units=1/GPa)
#
#
# Indices 1 2 3 4 5 6 
#
# 1 0.010055 0.000598 -0.001944 -0.001876 -0.003104 0.000668
# 2 0.000598 0.039238 -0.013746 0.003595 0.004873 0.008143
# 3 -0.001944 -0.013746 0.011027 -0.000425 -0.002136 -0.001751
# 4 -0.001876 0.003595 -0.000425 0.024662 0.002825 0.003217
# 5 -0.003104 0.004873 -0.002136 0.002825 0.032429 0.004897
# 6 0.000668 0.008143 -0.001751 0.003217 0.004897 0.037636
#
#
# Mechanical properties :
#
#
# Convention : Reuss Voigt Hill
#
# Bulk Modulus (GPa) = 33.18137 58.95051 46.06594
# Shear Modulus (GPa) = 25.60487 36.20771 30.90629
#
# Velocity S-wave (km/s) = 3.56348 4.23754 3.91505
# Velocity P-wave (km/s) = 5.77816 7.29233 6.57895
#
# Compressibility (1/GPa) = 0.03013739
#
# Stress axis : x y z
#
# Youngs Moduli (GPa) = 99.45147 25.48526 90.68948
#
# Poissons Ratio (x) = -0.01524 0.17628
# Poissons Ratio (y) = -0.05949 1.24660
# Poissons Ratio (z) = 0.19331 0.35031
#
# Static dielectric constant tensor:
#      x y z
#    x 3.695610 -0.050520 0.069020 
#    y -0.050520 3.325720 -0.161790 
#    z 0.069020 -0.161790 4.235200 
# 
# 
# High freq. dielectric constant tensor:
#      x y z
#    x 1.798870 -0.006060 0.002040 
#    y -0.006060 1.756160 -0.018860 
#    z 0.002040 -0.018860 1.805830 
# 
# From -- ./inp_files/299466.got.cif
#   From: 2010.06.25/outbox.cif.g09.slc.cpg/sg2_150_cif.got.tgz:299466.got - 2010.06.27 13:26:56.
