data_PCOD8040890
_publ_section_title
;
Structure prediction by ZEFSAII (Michael W. Deem and Ramdas Pophale) SiO2 
 PCOD8040890
Probable space group: P -1
;
_chemical_formula_sum "Si O2"
_cell_formula_units_Z 16
_cell_length_a 16.666472
_cell_length_b 16.365069
_cell_length_c 9.413879
_cell_angle_alpha 132.662614
_cell_angle_beta 134.724086
_cell_angle_gamma 23.307956
_cell_volume 717.306004
_symmetry_space_group_name_H-M "P -1"
_symmetry_group_IT_number 2
_symmetry_cell_setting 'triclinic'
loop_
_space_group_symop_operation_xyz
x,y,z
-x,-y,-z
loop_
_atom_site_type_symbol
_atom_site_label
_atom_site_fract_x
_atom_site_fract_y
_atom_site_fract_z
Si Si1 0.414148 0.565656 0.626550
Si Si2 0.294053 0.688023 0.057032
Si Si3 0.744336 0.058698 0.105500
Si Si4 0.771958 0.498946 0.266273
Si Si5 0.283883 0.926903 0.225771
Si Si6 0.933209 0.314122 0.725583
Si Si7 0.871151 0.757435 0.392536
Si Si8 0.292058 0.347957 0.933494
O O1 0.500000 0.500000 0.500000
O O2 0.625331 0.368695 0.747863
O O3 0.298176 0.775318 0.773136
O O4 0.249214 0.602711 0.484172
O O5 0.177405 0.898919 0.112865
O O6 0.500000 0.500000 0.000000
O O7 0.147967 0.698286 0.870642
O O8 0.938041 0.876731 0.237624
O O9 0.802122 0.964978 0.909479
O O10 0.538862 0.170120 0.045489
O O11 0.533262 0.700666 0.256111
O O12 0.803188 0.526743 0.184047
O O13 0.911233 0.449006 0.495868
O O14 0.256795 0.044285 0.446319
O O15 0.086296 0.238717 0.709923
O O16 0.834005 0.495191 0.907436
O O17 0.729007 0.766506 0.220534
#
# Coordination Sequence:
#
# PCOD8040890 Si02
#       8
#     2   2   2   2   2   2   2   2
#     4  12  22  42  70  96 132 173 214 268 333 392
#     4  10  18  39  67  91 130 166 205 271 330 374
#     4  11  24  44  68  96 133 178 214 269 329 389
#     4  10  21  43  69  92 127 176 218 272 326 378
#     4  10  23  41  66  98 132 170 218 271 327 385
#     4  12  26  42  65  99 133 174 220 266 327 392
#     4  12  27  40  67 102 129 176 222 268 321 390
#     4  11  24  48  66  91 136 177 223 267 320 382
#
# _framework density 22.305682000000001
#
# number of rings (size 3 to 8) (size 9 to 14) (size 15 to 20)
#    0.000    1.000    5.000    3.375    1.750    5.000 
#    2.250    0.000    0.000    0.000    0.000    0.000 
#    0.000    0.000    0.000    0.000    0.000    0.000 
#
# Total GULP energy -198450.848415 kJ/mol
# GULP energy per Si atom -12403.178026 kJ/mol
# Density = 2.225491 g / cm^3
# Si number density = 22.305682 Si / 1000 Ang^3
#
#
#
# Elastic Constant Matrix: (Units=GPa)
#
#
# Indices 1 2 3 4 5 6 
#
# 1 118.0639 18.0783 49.6438 27.8068 -3.2733 5.2271
# 2 18.0783 36.1509 22.9988 6.7421 0.0555 5.5602
# 3 49.6438 22.9988 112.3009 21.0088 -0.5427 1.8032
# 4 27.8068 6.7421 21.0088 42.6772 4.5094 -4.1176
# 5 -3.2733 0.0555 -0.5427 4.5094 50.0842 5.0269
# 6 5.2271 5.5602 1.8032 -4.1176 5.0269 21.2812
#
#
#
# Elastic Compliance Matrix: (Units=1/GPa)
#
#
# Indices 1 2 3 4 5 6 
#
# 1 0.011990 -0.001925 -0.003671 -0.006239 0.001683 -0.003736
# 2 -0.001925 0.033876 -0.005516 -0.002296 0.000842 -0.008554
# 3 -0.003671 -0.005516 0.012139 -0.002642 0.000056 0.000790
# 4 -0.006239 -0.002296 -0.002642 0.030484 -0.004104 0.009224
# 5 0.001683 0.000842 0.000056 -0.004104 0.021089 -0.006414
# 6 -0.003736 -0.008554 0.000790 0.009224 -0.006414 0.053375
#
#
# Mechanical properties :
#
#
# Convention : Reuss Voigt Hill
#
# Bulk Modulus (GPa) = 27.94706 49.77307 38.86006
# Shear Modulus (GPa) = 25.36743 34.52817 29.94780
#
# Velocity S-wave (km/s) = 3.37599 3.93867 3.66814
# Velocity P-wave (km/s) = 5.26809 6.56100 5.94977
#
# Compressibility (1/GPa) = 0.03578194
#
# Stress axis : x y z
#
# Youngs Moduli (GPa) = 83.40502 29.51931 82.38049
#
# Poissons Ratio (x) = 0.05683 0.30239
# Poissons Ratio (y) = 0.16056 0.45439
# Poissons Ratio (z) = 0.30615 0.16282
#
# Static dielectric constant tensor:
#      x y z
#    x 4.234680 0.043980 0.044000 
#    y 0.043980 3.761180 0.061590 
#    z 0.044000 0.061590 4.271570 
# 
# 
# High freq. dielectric constant tensor:
#      x y z
#    x 1.890870 -0.004220 -0.007350 
#    y -0.004220 1.875930 -0.002600 
#    z -0.007350 -0.002600 1.883110 
# 
# From -- ./inp_files/277686.got.cif
#   From: 2010.06.25/outbox.cif.g09.slc.cpg/sg2_139_cif.got.tgz:277686.got - 2010.06.27 13:26:56.
