data_PCOD8040139
_publ_section_title
;
Structure prediction by ZEFSAII (Michael W. Deem and Ramdas Pophale) SiO2 
 PCOD8040139
Probable space group: P -1
;
_chemical_formula_sum "Si O2"
_cell_formula_units_Z 16
_cell_length_a 14.727322
_cell_length_b 12.156856
_cell_length_c 14.988072
_cell_angle_alpha 119.310371
_cell_angle_beta 38.759600
_cell_angle_gamma 149.292660
_cell_volume 707.325705
_symmetry_space_group_name_H-M "P -1"
_symmetry_group_IT_number 2
_symmetry_cell_setting 'triclinic'
loop_
_space_group_symop_operation_xyz
x,y,z
-x,-y,-z
loop_
_atom_site_type_symbol
_atom_site_label
_atom_site_fract_x
_atom_site_fract_y
_atom_site_fract_z
Si Si1 0.399372 0.033820 0.220346
Si Si2 0.132287 0.468569 0.278978
Si Si3 0.143345 0.001925 0.644722
Si Si4 0.290360 0.696912 0.076221
Si Si5 0.563016 0.182856 0.657352
Si Si6 0.886866 0.812403 0.583744
Si Si7 0.279191 0.201227 0.799461
Si Si8 0.696577 0.275353 0.269757
O O1 0.659156 0.249501 0.181151
O O2 0.406451 0.893382 0.131831
O O3 0.469678 0.167526 0.128585
O O4 0.079274 0.830573 0.426427
O O5 0.216237 0.526281 0.132243
O O6 0.401112 0.715589 0.236323
O O7 0.874593 0.376873 0.452065
O O8 0.049827 0.266196 0.288141
O O9 0.148180 0.108242 0.762335
O O10 0.483690 0.220567 0.451371
O O11 0.980324 0.939241 0.659002
O O12 0.028802 0.559494 0.161159
O O13 0.413384 0.163247 0.693582
O O14 0.362113 0.907837 0.717907
O O15 0.533655 0.505114 0.732654
O O16 0.000000 0.000000 0.500000
O O17 0.000000 0.000000 0.000000
#
# Coordination Sequence:
#
# PCOD8040139 Si02
#       8
#     2   2   2   2   2   2   2   2
#     4  10  22  38  56  88 126 164 206 256 313 385
#     4  10  18  35  66  94 122 158 200 260 320 377
#     4  10  22  41  67  91 121 167 211 259 328 375
#     4  11  20  33  58  94 127 158 199 253 330 373
#     4  10  19  36  62  93 125 157 200 259 316 373
#     4  11  25  46  65  85 124 176 218 260 309 380
#     4  12  26  44  65  96 129 165 218 270 308 374
#     4  10  19  35  63  92 123 159 201 262 315 380
#
# _framework density 22.620412999999999
#
# number of rings (size 3 to 8) (size 9 to 14) (size 15 to 20)
#    0.000    1.500    2.500    3.375    0.000    5.000 
#    2.250    0.000    0.000    0.000    0.000    0.000 
#    0.000    0.000    0.000    0.000    0.000    0.000 
#
# Total GULP energy -198340.846418 kJ/mol
# GULP energy per Si atom -12396.302901 kJ/mol
# Density = 2.256893 g / cm^3
# Si number density = 22.620413 Si / 1000 Ang^3
#
#
#
# Elastic Constant Matrix: (Units=GPa)
#
#
# Indices 1 2 3 4 5 6 
#
# 1 113.0540 32.2629 29.9138 -1.8900 31.6803 15.5339
# 2 32.2629 75.3383 34.2465 -3.0751 5.0830 25.8751
# 3 29.9138 34.2465 84.6939 -10.2358 27.7604 18.5466
# 4 -1.8900 -3.0751 -10.2358 27.0540 4.8166 9.0734
# 5 31.6803 5.0830 27.7604 4.8166 34.9818 5.9430
# 6 15.5339 25.8751 18.5466 9.0734 5.9430 41.6597
#
#
#
# Elastic Compliance Matrix: (Units=1/GPa)
#
#
# Indices 1 2 3 4 5 6 
#
# 1 0.014120 -0.005537 0.003191 0.004944 -0.014821 -0.002209
# 2 -0.005537 0.021872 -0.007894 0.000586 0.009635 -0.009509
# 3 0.003191 -0.007894 0.024490 0.014959 -0.021995 -0.007310
# 4 0.004944 0.000586 0.014959 0.052544 -0.020719 -0.017355
# 5 -0.014821 0.009635 -0.021995 -0.020719 0.060017 0.005285
# 6 -0.002209 -0.009509 -0.007310 -0.017355 0.005285 0.037014
#
#
# Mechanical properties :
#
#
# Convention : Reuss Voigt Hill
#
# Bulk Modulus (GPa) = 24.99799 51.77028 38.38414
# Shear Modulus (GPa) = 20.50252 32.51665 26.50958
#
# Velocity S-wave (km/s) = 3.01387 3.79554 3.42706
# Velocity P-wave (km/s) = 4.81521 6.49187 5.71536
#
# Compressibility (1/GPa) = 0.04000321
#
# Stress axis : x y z
#
# Youngs Moduli (GPa) = 70.81940 45.71990 40.83279
#
# Poissons Ratio (x) = 0.25314 -0.13028
# Poissons Ratio (y) = 0.39211 0.32232
# Poissons Ratio (z) = -0.22595 0.36089
#
# Static dielectric constant tensor:
#      x y z
#    x 4.160320 0.289450 0.354590 
#    y 0.289450 3.911510 -0.067040 
#    z 0.354590 -0.067040 4.122920 
# 
# 
# High freq. dielectric constant tensor:
#      x y z
#    x 1.893650 0.020610 0.026050 
#    y 0.020610 1.882930 -0.006310 
#    z 0.026050 -0.006310 1.881630 
# 
# From -- ./inp_files/532601.got.cif
#   From: 2010.06.25/outbox.cif.g09.slc.cpg/sg2_267_cif.got.tgz:532601.got - 2010.06.27 13:26:56.
