data_PCOD8040359
_publ_section_title
;
Structure prediction by ZEFSAII (Michael W. Deem and Ramdas Pophale) SiO2 
 PCOD8040359
Probable space group: P -1
;
_chemical_formula_sum "Si O2"
_cell_formula_units_Z 14
_cell_length_a 13.827560
_cell_length_b 27.077399
_cell_length_c 7.764040
_cell_angle_alpha 57.824628
_cell_angle_beta 44.810133
_cell_angle_gamma 22.892301
_cell_volume 715.046583
_symmetry_space_group_name_H-M "P -1"
_symmetry_group_IT_number 2
_symmetry_cell_setting 'triclinic'
loop_
_space_group_symop_operation_xyz
x,y,z
-x,-y,-z
loop_
_atom_site_type_symbol
_atom_site_label
_atom_site_fract_x
_atom_site_fract_y
_atom_site_fract_z
Si Si1 0.083554 0.018923 0.735258
Si Si2 0.229896 0.467569 0.251685
Si Si3 0.719416 0.747462 0.214033
Si Si4 0.214112 0.743083 0.819289
Si Si5 0.263872 0.848740 0.405419
Si Si6 0.830268 0.836185 0.832738
Si Si7 0.932428 0.194889 0.743057
O O1 0.775933 0.149966 0.748818
O O2 0.135927 0.057201 0.705672
O O3 0.422418 0.869804 0.494608
O O4 0.000000 0.000000 0.000000
O O5 0.398175 0.417182 0.319322
O O6 0.000000 0.500000 0.500000
O O7 0.035345 0.600400 0.189996
O O8 0.531610 0.338550 0.974551
O O9 0.624000 0.736150 0.209273
O O10 0.784148 0.784959 0.978341
O O11 0.171771 0.827359 0.670047
O O12 0.115001 0.740638 0.790187
O O13 0.983191 0.818437 0.140701
O O14 0.000000 0.000000 0.500000
O O15 0.953411 0.802632 0.547358
O O16 0.500000 0.000000 0.000000
#
# Coordination Sequence:
#
# PCOD8040359 Si02
#       7
#     2   2   2   2   2   2   2
#     4  11  20  37  63  96 122 161 222 266 310 369
#     4  10  21  42  66  92 130 168 208 270 312 373
#     4  11  22  39  65  89 131 169 207 264 317 373
#     4  10  22  41  66  90 133 164 211 263 321 367
#     4  10  18  36  62  92 121 164 208 272 308 354
#     4  12  23  43  63  95 133 168 212 264 315 382
#     4  10  22  40  65  92 126 170 207 260 321 369
#
# _framework density 19.579143999999999
#
# number of rings (size 3 to 8) (size 9 to 14) (size 15 to 20)
#    0.857    0.571    4.286    3.429    0.000    1.714 
#    2.571    4.286    0.000    0.000    0.000    0.000 
#    0.000    0.000    0.000    0.000    0.000    0.000 
#
# Total GULP energy -173473.649450 kJ/mol
# GULP energy per Si atom -12390.974961 kJ/mol
# Density = 1.953458 g / cm^3
# Si number density = 19.579144 Si / 1000 Ang^3
#
#
#
# Elastic Constant Matrix: (Units=GPa)
#
#
# Indices 1 2 3 4 5 6 
#
# 1 60.7104 3.5704 22.2686 -12.8792 5.5992 -15.6688
# 2 3.5704 92.4513 29.4561 -12.2277 8.6767 -11.1283
# 3 22.2686 29.4561 133.7682 -31.7554 6.6671 -3.7945
# 4 -12.8792 -12.2277 -31.7554 39.4318 -5.8067 -0.3718
# 5 5.5992 8.6767 6.6671 -5.8067 23.2332 -2.8577
# 6 -15.6688 -11.1283 -3.7945 -0.3718 -2.8577 33.3868
#
#
#
# Elastic Compliance Matrix: (Units=1/GPa)
#
#
# Indices 1 2 3 4 5 6 
#
# 1 0.021228 0.002108 -0.002280 0.005461 -0.002624 0.010242
# 2 0.002108 0.012654 -0.002285 0.002312 -0.003424 0.004680
# 3 -0.002280 -0.002285 0.009882 0.006516 0.000119 -0.000626
# 4 0.005461 0.002312 0.006516 0.033894 0.005022 0.004881
# 5 -0.002624 -0.003424 0.000119 0.005022 0.046379 0.001666
# 6 0.010242 0.004680 -0.000626 0.004881 0.001666 0.036445
#
#
# Mechanical properties :
#
#
# Convention : Reuss Voigt Hill
#
# Bulk Modulus (GPa) = 25.74079 44.16889 34.95484
# Shear Modulus (GPa) = 28.03552 34.65268 31.34410
#
# Velocity S-wave (km/s) = 3.78816 4.21155 4.00546
# Velocity P-wave (km/s) = 5.68411 6.80130 6.26765
#
# Compressibility (1/GPa) = 0.03884885
#
# Stress axis : x y z
#
# Youngs Moduli (GPa) = 47.10738 79.02867 101.19838
#
# Poissons Ratio (x) = -0.16661 0.23077
# Poissons Ratio (y) = -0.09931 0.23124
# Poissons Ratio (z) = 0.10742 0.18058
#
# Static dielectric constant tensor:
#      x y z
#    x 3.790440 -0.349950 -0.153780 
#    y -0.349950 3.605730 -0.174380 
#    z -0.153780 -0.174380 3.346380 
# 
# 
# High freq. dielectric constant tensor:
#      x y z
#    x 1.752310 -0.012120 -0.006130 
#    y -0.012120 1.764930 -0.019520 
#    z -0.006130 -0.019520 1.758300 
# 
# From -- ./inp_files/320946.got.cif
#   From: 2010.06.25/outbox.cif.g09.slc.cpg/sg2_161_cif.got.tgz:320946.got - 2010.06.27 13:26:56.
