data_PCOD8040527
_publ_section_title
;
Structure prediction by ZEFSAII (Michael W. Deem and Ramdas Pophale) SiO2 
 PCOD8040527
Probable space group: P -1
;
_chemical_formula_sum "Si O2"
_cell_formula_units_Z 16
_cell_length_a 10.152912
_cell_length_b 15.147500
_cell_length_c 9.523831
_cell_angle_alpha 54.243197
_cell_angle_beta 62.748818
_cell_angle_gamma 48.126025
_cell_volume 879.449931
_symmetry_space_group_name_H-M "P -1"
_symmetry_group_IT_number 2
_symmetry_cell_setting 'triclinic'
loop_
_space_group_symop_operation_xyz
x,y,z
-x,-y,-z
loop_
_atom_site_type_symbol
_atom_site_label
_atom_site_fract_x
_atom_site_fract_y
_atom_site_fract_z
Si Si1 0.052313 0.637889 0.131527
Si Si2 0.727887 0.784166 0.344935
Si Si3 0.967935 0.602061 0.625814
Si Si4 0.519250 0.942093 0.891715
Si Si5 0.559312 0.687177 0.124197
Si Si6 0.635017 0.591956 0.475428
Si Si7 0.872323 0.700915 0.886564
Si Si8 0.589048 0.438679 0.866500
O O1 0.104334 0.491139 0.271835
O O2 0.200382 0.652887 0.117787
O O3 0.860054 0.746945 0.184285
O O4 0.033368 0.662905 0.949974
O O5 0.836334 0.734725 0.482168
O O6 0.618850 0.718110 0.432691
O O7 0.595424 0.940800 0.271243
O O8 0.965386 0.646493 0.743361
O O9 0.162699 0.530747 0.529988
O O10 0.724419 0.857660 0.814254
O O11 0.449585 0.845549 0.025378
O O12 0.500000 0.000000 0.000000
O O13 0.535377 0.635022 0.333098
O O14 0.482210 0.647529 0.072098
O O15 0.770765 0.629943 0.051530
O O16 0.540317 0.547714 0.670023
O O17 0.500000 0.500000 0.000000
#
# Coordination Sequence:
#
# PCOD8040527 Si02
#       8
#     2   2   2   2   2   2   2   2
#     4  11  19  36  59  82 114 152 184 236 293 332
#     4  11  18  35  63  87 111 150 190 243 279 330
#     4  11  19  32  57  91 114 137 199 238 287 331
#     4  10  18  37  61  85 112 150 198 234 273 333
#     4  10  22  38  56  88 115 156 188 225 292 339
#     4  11  20  36  60  83 118 150 186 235 292 342
#     4  10  21  34  61  83 112 152 191 240 275 335
#     4  12  25  37  54  89 125 149 184 233 297 349
#
# _framework density 18.193190999999999
#
# number of rings (size 3 to 8) (size 9 to 14) (size 15 to 20)
#    0.750    0.500    7.500    2.250    1.750    0.500 
#    0.000    0.625    0.000    0.000    0.000    3.500 
#    0.000    0.000    0.000    0.000    0.000    0.000 
#
# Total GULP energy -198341.941928 kJ/mol
# GULP energy per Si atom -12396.371371 kJ/mol
# Density = 1.815178 g / cm^3
# Si number density = 18.193191 Si / 1000 Ang^3
#
#
#
# Elastic Constant Matrix: (Units=GPa)
#
#
# Indices 1 2 3 4 5 6 
#
# 1 76.1998 23.9215 23.8170 -10.3606 15.9042 20.3512
# 2 23.9215 83.3265 44.6198 -14.5938 6.4846 8.7810
# 3 23.8170 44.6198 106.7974 -4.0397 19.3765 5.3241
# 4 -10.3606 -14.5938 -4.0397 32.6648 -4.0945 10.3164
# 5 15.9042 6.4846 19.3765 -4.0945 27.1148 0.2700
# 6 20.3512 8.7810 5.3241 10.3164 0.2700 25.6910
#
#
#
# Elastic Compliance Matrix: (Units=1/GPa)
#
#
# Indices 1 2 3 4 5 6 
#
# 1 0.024264 -0.000344 -0.001607 0.013622 -0.010704 -0.024128
# 2 -0.000344 0.018555 -0.007329 0.010368 0.002654 -0.008742
# 3 -0.001607 -0.007329 0.013942 -0.003841 -0.007872 0.002514
# 4 0.013622 0.010368 -0.003841 0.049683 0.000111 -0.033490
# 5 -0.010704 0.002654 -0.007872 0.000111 0.048080 0.008653
# 6 -0.024128 -0.008742 0.002514 -0.033490 0.008653 0.073861
#
#
# Mechanical properties :
#
#
# Convention : Reuss Voigt Hill
#
# Bulk Modulus (GPa) = 26.17792 50.11558 38.14675
# Shear Modulus (GPa) = 19.25459 28.69183 23.97321
#
# Velocity S-wave (km/s) = 3.25674 3.97554 3.63396
# Velocity P-wave (km/s) = 5.34434 6.97706 6.21455
#
# Compressibility (1/GPa) = 0.03820013
#
# Stress axis : x y z
#
# Youngs Moduli (GPa) = 41.21350 53.89440 71.72699
#
# Poissons Ratio (x) = 0.01852 0.11530
# Poissons Ratio (y) = 0.01416 0.52570
# Poissons Ratio (z) = 0.06625 0.39500
#
# Static dielectric constant tensor:
#      x y z
#    x 3.294900 0.018510 0.164630 
#    y 0.018510 3.275930 -0.056330 
#    z 0.164630 -0.056330 3.411460 
# 
# 
# High freq. dielectric constant tensor:
#      x y z
#    x 1.683970 0.002910 0.027070 
#    y 0.002910 1.689120 0.007320 
#    z 0.027070 0.007320 1.705570 
# 
# From -- ./inp_files/267097.got.cif
#   From: 2010.06.25/outbox.cif.g09.slc.cpg/sg2_134_cif.got.tgz:267097.got - 2010.06.27 13:26:56.
