data_PCOD8040558
_publ_section_title
;
Structure prediction by ZEFSAII (Michael W. Deem and Ramdas Pophale) SiO2 
 PCOD8040558
Probable space group: P -1
;
_chemical_formula_sum "Si O2"
_cell_formula_units_Z 14
_cell_length_a 15.150993
_cell_length_b 9.800182
_cell_length_c 16.897353
_cell_angle_alpha 154.375412
_cell_angle_beta 135.095329
_cell_angle_gamma 61.223401
_cell_volume 656.588334
_symmetry_space_group_name_H-M "P -1"
_symmetry_group_IT_number 2
_symmetry_cell_setting 'triclinic'
loop_
_space_group_symop_operation_xyz
x,y,z
-x,-y,-z
loop_
_atom_site_type_symbol
_atom_site_label
_atom_site_fract_x
_atom_site_fract_y
_atom_site_fract_z
Si Si1 0.676497 0.030008 0.699427
Si Si2 0.443551 0.236955 0.913766
Si Si3 0.302819 0.019430 0.557985
Si Si4 0.615288 0.612502 0.888710
Si Si5 0.806107 0.825268 0.981771
Si Si6 0.094042 0.909465 0.242225
Si Si7 0.372545 0.080795 0.206632
O O1 0.674653 0.377684 0.845928
O O2 0.819230 0.053719 0.763902
O O3 0.538589 0.643017 0.384329
O O4 0.685980 0.047372 0.809187
O O5 0.299256 0.058369 0.671900
O O6 0.564574 0.151011 0.914873
O O7 0.527210 0.688047 0.203393
O O8 0.394594 0.119264 0.911560
O O9 0.268597 0.617726 0.303040
O O10 0.201369 0.127401 0.498932
O O11 0.732073 0.890789 0.045189
O O12 0.769758 0.983092 0.964280
O O13 0.980948 0.042384 0.218532
O O14 0.000000 0.500000 0.000000
O O15 0.500000 0.500000 0.500000
#
# Coordination Sequence:
#
# PCOD8040558 Si02
#       7
#     2   2   2   2   2   2   2
#     4  11  20  37  65  90 121 161 204 244 303 363
#     4  11  21  34  62  94 124 147 206 263 299 340
#     4  10  18  37  62  89 114 158 200 255 292 343
#     4  11  19  35  64  94 110 161 210 245 292 355
#     4  11  22  41  63  89 128 160 201 245 303 366
#     4  10  20  38  65  90 120 162 206 247 288 371
#     4  12  24  39  58  94 128 157 196 258 309 355
#
# _framework density 21.322341999999999
#
# number of rings (size 3 to 8) (size 9 to 14) (size 15 to 20)
#    0.000    1.143    7.143    2.571    0.000    1.143 
#    0.000    1.429    3.143    0.000    0.000    0.000 
#    0.000    0.000    0.000    0.000    0.000    0.000 
#
# Total GULP energy -173487.900556 kJ/mol
# GULP energy per Si atom -12391.992897 kJ/mol
# Density = 2.127381 g / cm^3
# Si number density = 21.322342 Si / 1000 Ang^3
#
#
#
# Elastic Constant Matrix: (Units=GPa)
#
#
# Indices 1 2 3 4 5 6 
#
# 1 169.6536 65.6887 37.9722 -34.5817 0.6938 19.1236
# 2 65.6887 128.0932 30.9334 -50.8065 -0.4272 9.4257
# 3 37.9722 30.9334 54.2451 -30.4066 -6.1114 1.7964
# 4 -34.5817 -50.8065 -30.4066 43.2790 4.6874 0.9720
# 5 0.6938 -0.4272 -6.1114 4.6874 30.2302 -8.7119
# 6 19.1236 9.4257 1.7964 0.9720 -8.7119 33.8400
#
#
#
# Elastic Compliance Matrix: (Units=1/GPa)
#
#
# Indices 1 2 3 4 5 6 
#
# 1 0.008584 -0.002497 -0.003803 0.001642 -0.002602 -0.004671
# 2 -0.002497 0.016812 0.003538 0.020732 -0.003643 -0.004993
# 3 -0.003803 0.003538 0.032794 0.023850 0.002922 -0.000510
# 4 0.001642 0.020732 0.023850 0.066735 -0.008770 -0.012144
# 5 -0.002602 -0.003643 0.002922 -0.008770 0.038650 0.012532
# 6 -0.004671 -0.004993 -0.000510 -0.012144 0.012532 0.037183
#
#
# Mechanical properties :
#
#
# Convention : Reuss Voigt Hill
#
# Bulk Modulus (GPa) = 18.98801 69.02007 44.00404
# Shear Modulus (GPa) = 22.33745 35.96300 29.15023
#
# Velocity S-wave (km/s) = 3.24019 4.11132 3.70147
# Velocity P-wave (km/s) = 4.78779 7.41467 6.24101
#
# Compressibility (1/GPa) = 0.05266483
#
# Stress axis : x y z
#
# Youngs Moduli (GPa) = 116.48983 59.48253 30.49303
#
# Poissons Ratio (x) = 0.14856 0.11596
# Poissons Ratio (y) = 0.29093 -0.10787
# Poissons Ratio (z) = 0.44299 -0.21042
#
# Static dielectric constant tensor:
#      x y z
#    x 4.094740 0.007040 -0.079000 
#    y 0.007040 4.366170 -0.532060 
#    z -0.079000 -0.532060 4.001050 
# 
# 
# High freq. dielectric constant tensor:
#      x y z
#    x 1.829840 0.009740 -0.010990 
#    y 0.009740 1.841000 -0.023650 
#    z -0.010990 -0.023650 1.811410 
# 
# From -- ./inp_files/202662.got.cif
#   From: 2010.06.25/outbox.cif.g09.slc.cpg/sg2_102_cif.got.tgz:202662.got - 2010.06.27 13:26:56.
