data_PCOD8040242
_publ_section_title
;
Structure prediction by ZEFSAII (Michael W. Deem and Ramdas Pophale) SiO2 
 PCOD8040242
Probable space group: P -1
;
_chemical_formula_sum "Si O2"
_cell_formula_units_Z 16
_cell_length_a 18.684058
_cell_length_b 9.213727
_cell_length_c 11.881434
_cell_angle_alpha 113.688091
_cell_angle_beta 52.799630
_cell_angle_gamma 66.706933
_cell_volume 721.911146
_symmetry_space_group_name_H-M "P -1"
_symmetry_group_IT_number 2
_symmetry_cell_setting 'triclinic'
loop_
_space_group_symop_operation_xyz
x,y,z
-x,-y,-z
loop_
_atom_site_type_symbol
_atom_site_label
_atom_site_fract_x
_atom_site_fract_y
_atom_site_fract_z
Si Si1 0.754372 0.219350 0.359202
Si Si2 0.164164 0.845886 0.351947
Si Si3 0.273252 0.567223 0.774272
Si Si4 0.860092 0.539889 0.183718
Si Si5 0.129192 0.730635 0.563322
Si Si6 0.017701 0.399248 0.763387
Si Si7 0.602258 0.425207 0.162832
Si Si8 0.937981 0.710655 0.722115
O O1 0.727006 0.297053 0.278390
O O2 0.757186 0.384897 0.472020
O O3 0.589607 0.366969 0.610372
O O4 0.945023 0.834608 0.077349
O O5 0.237629 0.625270 0.316586
O O6 0.328645 0.619783 0.037064
O O7 0.000000 0.000000 0.500000
O O8 0.103674 0.110196 0.538034
O O9 0.425217 0.381372 0.666209
O O10 0.300927 0.347251 0.628481
O O11 0.073863 0.873313 0.122085
O O12 0.871580 0.588753 0.060961
O O13 0.820037 0.741931 0.375437
O O14 0.105679 0.577844 0.538734
O O15 0.908092 0.662862 0.851976
O O16 0.748097 0.085285 0.980858
O O17 0.000000 0.500000 0.500000
#
# Coordination Sequence:
#
# PCOD8040242 Si02
#       8
#     2   2   2   2   2   2   2   2
#     4  11  21  37  58  92 122 147 199 245 301 347
#     4  12  19  39  62  87 116 151 204 241 280 355
#     4  10  18  36  59  84 116 151 204 235 279 349
#     4  10  20  36  61  88 110 157 197 245 289 339
#     4  10  20  36  61  88 109 160 202 239 282 343
#     4  11  20  34  61  88 117 143 202 249 282 336
#     4  11  23  35  61  91 118 158 189 246 300 348
#     4  11  20  36  59  85 115 154 200 238 285 348
#
# _framework density 22.163392999999999
#
# number of rings (size 3 to 8) (size 9 to 14) (size 15 to 20)
#    0.000    1.250    6.250    4.125    0.000    0.500 
#    0.000    0.625    0.000   16.500    0.000    0.000 
#    0.000    0.000    0.000    0.000    0.000    0.000 
#
# Total GULP energy -198305.825354 kJ/mol
# GULP energy per Si atom -12394.114085 kJ/mol
# Density = 2.211295 g / cm^3
# Si number density = 22.163393 Si / 1000 Ang^3
#
#
#
# Elastic Constant Matrix: (Units=GPa)
#
#
# Indices 1 2 3 4 5 6 
#
# 1 182.5371 11.6947 37.5783 -1.8432 7.1908 27.7886
# 2 11.6947 92.9758 18.1921 -30.4170 15.4059 -0.7552
# 3 37.5783 18.1921 44.8088 -20.1214 -3.5835 2.0415
# 4 -1.8432 -30.4170 -20.1214 28.4666 -1.4786 6.9150
# 5 7.1908 15.4059 -3.5835 -1.4786 27.2714 -11.9215
# 6 27.7886 -0.7552 2.0415 6.9150 -11.9215 40.4618
#
#
#
# Elastic Compliance Matrix: (Units=1/GPa)
#
#
# Indices 1 2 3 4 5 6 
#
# 1 0.008743 0.000409 -0.009857 -0.004684 -0.007048 -0.006776
# 2 0.000409 0.020614 0.001513 0.024401 -0.013823 -0.008216
# 3 -0.009857 0.001513 0.045699 0.033372 0.010364 0.001842
# 4 -0.004684 0.024401 0.033372 0.087856 -0.010440 -0.016102
# 5 -0.007048 -0.013823 0.010364 -0.010440 0.057031 0.022647
# 6 -0.006776 -0.008216 0.001842 -0.016102 0.022647 0.038546
#
#
# Mechanical properties :
#
#
# Convention : Reuss Voigt Hill
#
# Bulk Modulus (GPa) = 16.89507 50.58355 33.73931
# Shear Modulus (GPa) = 17.00172 36.09705 26.54939
#
# Velocity S-wave (km/s) = 2.77268 4.04007 3.46481
# Velocity P-wave (km/s) = 4.22964 6.68097 5.59130
#
# Compressibility (1/GPa) = 0.05918888
#
# Stress axis : x y z
#
# Youngs Moduli (GPa) = 114.37571 48.51023 21.88216
#
# Poissons Ratio (x) = -0.01986 0.21568
# Poissons Ratio (y) = -0.04682 -0.03312
# Poissons Ratio (z) = 1.12736 -0.07341
#
# Static dielectric constant tensor:
#      x y z
#    x 4.947160 0.246720 0.227160 
#    y 0.246720 4.169100 -0.387360 
#    z 0.227160 -0.387360 3.506400 
# 
# 
# High freq. dielectric constant tensor:
#      x y z
#    x 1.910590 0.006250 0.013210 
#    y 0.006250 1.874310 -0.040840 
#    z 0.013210 -0.040840 1.807780 
# 
# From -- ./inp_files/402981.got.cif
#   From: 2010.06.25/outbox.cif.g09.slc.cpg/sg2_202_cif.got.tgz:402981.got - 2010.06.27 13:26:56.
