data_PCOD8040654
_publ_section_title
;
Structure prediction by ZEFSAII (Michael W. Deem and Ramdas Pophale) SiO2 
 PCOD8040654
Probable space group: P -1
;
_chemical_formula_sum "Si O2"
_cell_formula_units_Z 16
_cell_length_a 9.058829
_cell_length_b 13.758033
_cell_length_c 11.062922
_cell_angle_alpha 133.935288
_cell_angle_beta 42.605314
_cell_angle_gamma 110.892589
_cell_volume 637.682292
_symmetry_space_group_name_H-M "P -1"
_symmetry_group_IT_number 2
_symmetry_cell_setting 'triclinic'
loop_
_space_group_symop_operation_xyz
x,y,z
-x,-y,-z
loop_
_atom_site_type_symbol
_atom_site_label
_atom_site_fract_x
_atom_site_fract_y
_atom_site_fract_z
Si Si1 0.179804 0.904667 0.555323
Si Si2 0.882767 0.430890 0.910552
Si Si3 0.382529 0.027552 0.352296
Si Si4 0.266074 0.645799 0.644441
Si Si5 0.550511 0.336923 0.193700
Si Si6 0.865796 0.898566 0.043452
Si Si7 0.228915 0.185308 0.340042
Si Si8 0.440989 0.280493 0.670440
O O1 0.380727 0.770286 0.371023
O O2 0.937485 0.874700 0.693742
O O3 0.220648 0.934955 0.415598
O O4 0.194834 0.044719 0.735449
O O5 0.720147 0.341740 0.984635
O O6 0.733622 0.570711 0.046934
O O7 0.000000 0.500000 0.000000
O O8 0.073861 0.330438 0.622510
O O9 0.344246 0.067868 0.270205
O O10 0.326634 0.163898 0.593411
O O11 0.640786 0.920165 0.118219
O O12 0.326331 0.477144 0.451038
O O13 0.292550 0.684492 0.800496
O O14 0.446840 0.694262 0.500426
O O15 0.012093 0.731437 0.820295
O O16 0.430900 0.211604 0.157162
O O17 0.000000 0.000000 0.000000
#
# Coordination Sequence:
#
# PCOD8040654 Si02
#       8
#     2   2   2   2   2   2   2   2
#     4  11  26  39  61  90 136 169 204 268 324 368
#     4  11  22  39  73  97 121 170 216 261 321 380
#     4  11  22  41  62  89 129 166 220 259 304 391
#     4  10  18  37  67  96 121 154 219 267 311 370
#     4  10  22  39  66  99 126 163 209 275 311 376
#     4  11  20  39  68  93 119 170 212 260 318 378
#     4  12  24  46  59  95 138 166 209 269 321 377
#     4  10  19  41  64  97 121 158 225 263 306 390
#
# _framework density 25.090864
#
# number of rings (size 3 to 8) (size 9 to 14) (size 15 to 20)
#    0.000    1.250    5.000    3.375    1.750    3.500 
#    2.250    3.750    0.000    0.000    0.000    0.000 
#    0.000    0.000    0.000    0.000    0.000    0.000 
#
# Total GULP energy -198277.732331 kJ/mol
# GULP energy per Si atom -12392.358271 kJ/mol
# Density = 2.503376 g / cm^3
# Si number density = 25.090864 Si / 1000 Ang^3
#
#
#
# Elastic Constant Matrix: (Units=GPa)
#
#
# Indices 1 2 3 4 5 6 
#
# 1 72.3017 20.5743 1.4137 16.0970 -21.7433 -6.0514
# 2 20.5743 120.4570 9.2686 -19.8221 -15.8823 -14.5508
# 3 1.4137 9.2686 63.2766 16.9532 -29.1798 -7.3759
# 4 16.0970 -19.8221 16.9532 48.1708 -7.6566 -13.6594
# 5 -21.7433 -15.8823 -29.1798 -7.6566 30.3366 7.8820
# 6 -6.0514 -14.5508 -7.3759 -13.6594 7.8820 37.8425
#
#
#
# Elastic Compliance Matrix: (Units=1/GPa)
#
#
# Indices 1 2 3 4 5 6 
#
# 1 0.027145 -0.004728 0.018029 -0.013839 0.032306 -0.005688
# 2 -0.004728 0.011737 -0.003222 0.009432 0.000359 0.006459
# 3 0.018029 -0.003222 0.042268 -0.016138 0.049440 -0.006240
# 4 -0.013839 0.009432 -0.016138 0.036708 -0.015045 0.014652
# 5 0.032306 0.000359 0.049440 -0.015045 0.103176 -0.011980
# 6 -0.005688 0.006459 -0.006240 0.014652 -0.011980 0.034567
#
#
# Mechanical properties :
#
#
# Convention : Reuss Voigt Hill
#
# Bulk Modulus (GPa) = 9.87110 35.39428 22.63269
# Shear Modulus (GPa) = 18.57264 38.25523 28.41393
#
# Velocity S-wave (km/s) = 2.72364 3.90894 3.36883
# Velocity P-wave (km/s) = 3.71936 5.87453 4.91649
#
# Compressibility (1/GPa) = 0.10130581
#
# Stress axis : x y z
#
# Youngs Moduli (GPa) = 36.83981 85.20122 23.65857
#
# Poissons Ratio (x) = 0.40287 -0.42654
# Poissons Ratio (y) = 0.17419 0.07624
# Poissons Ratio (z) = -0.66419 0.27455
#
# Static dielectric constant tensor:
#      x y z
#    x 4.313070 -0.314030 -0.216690 
#    y -0.314030 4.898300 0.193270 
#    z -0.216690 0.193270 5.055590 
# 
# 
# High freq. dielectric constant tensor:
#      x y z
#    x 1.973310 -0.018020 -0.018190 
#    y -0.018020 2.018150 -0.002830 
#    z -0.018190 -0.002830 1.999050 
# 
# From -- ./inp_files/399512.got.cif
#   From: 2010.06.25/outbox.cif.g09.slc.cpg/sg2_200_cif.got.tgz:399512.got - 2010.06.27 13:26:56.
