data_PCOD8040671
_publ_section_title
;
Structure prediction by ZEFSAII (Michael W. Deem and Ramdas Pophale) SiO2 
 PCOD8040671
Probable space group: P -1
;
_chemical_formula_sum "Si O2"
_cell_formula_units_Z 16
_cell_length_a 13.208975
_cell_length_b 8.992937
_cell_length_c 15.430339
_cell_angle_alpha 65.196245
_cell_angle_beta 151.179659
_cell_angle_gamma 116.674629
_cell_volume 788.089946
_symmetry_space_group_name_H-M "P -1"
_symmetry_group_IT_number 2
_symmetry_cell_setting 'triclinic'
loop_
_space_group_symop_operation_xyz
x,y,z
-x,-y,-z
loop_
_atom_site_type_symbol
_atom_site_label
_atom_site_fract_x
_atom_site_fract_y
_atom_site_fract_z
Si Si1 0.231412 0.849290 0.072197
Si Si2 0.674711 0.819265 0.839455
Si Si3 0.930031 0.261242 0.754790
Si Si4 0.562817 0.924980 0.976465
Si Si5 0.288639 0.688291 0.703390
Si Si6 0.229587 0.125236 0.292870
Si Si7 0.882647 0.676050 0.298474
Si Si8 0.410685 0.667034 0.390973
O O1 0.318354 0.695273 0.218959
O O2 0.246721 0.986511 0.126299
O O3 0.371069 0.919678 0.076779
O O4 0.983694 0.796663 0.872119
O O5 0.449706 0.743684 0.731919
O O6 0.651284 0.801554 0.723468
O O7 0.854086 0.721256 0.031862
O O8 0.770624 0.351472 0.666968
O O9 0.991281 0.354047 0.687148
O O10 0.823042 0.072664 0.698873
O O11 0.362745 0.796717 0.818218
O O12 0.761769 0.830802 0.159653
O O13 0.500000 0.000000 0.000000
O O14 0.285148 0.493161 0.766592
O O15 0.052565 0.717135 0.494008
O O16 0.393770 0.180432 0.480468
O O17 0.500000 0.500000 0.500000
#
# Coordination Sequence:
#
# PCOD8040671 Si02
#       8
#     2   2   2   2   2   2   2   2
#     4  10  21  41  62  91 121 162 215 252 299 383
#     4  10  18  37  71  92 116 162 214 260 294 367
#     4  11  20  39  68  94 119 159 216 253 304 377
#     4  11  24  43  66  92 128 170 213 259 316 370
#     4  10  23  40  65  94 130 162 214 264 311 371
#     4  11  20  39  69  89 120 162 208 257 305 368
#     4  11  22  42  66  97 124 164 217 262 311 368
#     4  12  26  40  57  96 134 161 198 256 326 373
#
# _framework density 20.302250999999998
#
# number of rings (size 3 to 8) (size 9 to 14) (size 15 to 20)
#    0.000    1.250    6.250    2.250    3.500    1.000 
#    9.000    0.000    0.000    0.000    0.000    0.000 
#    0.000    0.000    0.000    0.000    0.000    0.000 
#
# Total GULP energy -198449.772380 kJ/mol
# GULP energy per Si atom -12403.110774 kJ/mol
# Density = 2.025604 g / cm^3
# Si number density = 20.302251 Si / 1000 Ang^3
#
#
#
# Elastic Constant Matrix: (Units=GPa)
#
#
# Indices 1 2 3 4 5 6 
#
# 1 92.1940 30.7409 29.6964 -3.2406 3.6558 -1.5942
# 2 30.7409 49.9380 22.8487 -8.2848 9.3986 5.3805
# 3 29.6964 22.8487 97.2441 -5.3858 3.1688 -6.6919
# 4 -3.2406 -8.2848 -5.3858 39.1133 2.8462 1.6138
# 5 3.6558 9.3986 3.1688 2.8462 25.2231 -1.7493
# 6 -1.5942 5.3805 -6.6919 1.6138 -1.7493 24.3703
#
#
#
# Elastic Compliance Matrix: (Units=1/GPa)
#
#
# Indices 1 2 3 4 5 6 
#
# 1 0.014385 -0.008554 -0.002339 -0.001164 0.001693 0.002386
# 2 -0.008554 0.031859 -0.004833 0.006630 -0.011479 -0.010184
# 3 -0.002339 -0.004833 0.012420 0.000250 0.000854 0.004369
# 4 -0.001164 0.006630 0.000250 0.027476 -0.005690 -0.003699
# 5 0.001693 -0.011479 0.000854 -0.005690 0.044661 0.006462
# 6 0.002386 -0.010184 0.004369 -0.003699 0.006462 0.045347
#
#
# Mechanical properties :
#
#
# Convention : Reuss Voigt Hill
#
# Bulk Modulus (GPa) = 36.74704 45.10535 40.92619
# Shear Modulus (GPa) = 23.07651 28.14736 25.61193
#
# Velocity S-wave (km/s) = 3.37508 3.72750 3.55566
# Velocity P-wave (km/s) = 5.77300 6.38677 6.08762
#
# Compressibility (1/GPa) = 0.02721308
#
# Stress axis : x y z
#
# Youngs Moduli (GPa) = 69.51450 31.38792 80.51648
#
# Poissons Ratio (x) = 0.26850 0.18829
# Poissons Ratio (y) = 0.59464 0.38914
# Poissons Ratio (z) = 0.16256 0.15170
#
# Static dielectric constant tensor:
#      x y z
#    x 3.684500 0.217460 -0.031580 
#    y 0.217460 3.397650 0.067490 
#    z -0.031580 0.067490 3.969530 
# 
# 
# High freq. dielectric constant tensor:
#      x y z
#    x 1.785340 0.023100 -0.003590 
#    y 0.023100 1.764460 0.001980 
#    z -0.003590 0.001980 1.815300 
# 
# From -- ./inp_files/308809.got.cif
#   From: 2010.06.25/outbox.cif.g09.slc.cpg/sg2_155_cif.got.tgz:308809.got - 2010.06.27 13:26:56.
