data_PCOD8040668
_publ_section_title
;
Structure prediction by ZEFSAII (Michael W. Deem and Ramdas Pophale) SiO2 
 PCOD8040668
Probable space group: P -1
;
_chemical_formula_sum "Si O2"
_cell_formula_units_Z 16
_cell_length_a 15.621664
_cell_length_b 9.286723
_cell_length_c 13.015449
_cell_angle_alpha 49.957755
_cell_angle_beta 131.900328
_cell_angle_gamma 144.143122
_cell_volume 800.350067
_symmetry_space_group_name_H-M "P -1"
_symmetry_group_IT_number 2
_symmetry_cell_setting 'triclinic'
loop_
_space_group_symop_operation_xyz
x,y,z
-x,-y,-z
loop_
_atom_site_type_symbol
_atom_site_label
_atom_site_fract_x
_atom_site_fract_y
_atom_site_fract_z
Si Si1 0.627083 0.771526 0.519189
Si Si2 0.928542 0.252436 0.989249
Si Si3 0.507979 0.227683 0.384333
Si Si4 0.004814 0.403881 0.748683
Si Si5 0.425436 0.216935 0.094973
Si Si6 0.947725 0.005248 0.731733
Si Si7 0.318818 0.787822 0.732307
Si Si8 0.830310 0.542727 0.434333
O O1 0.500000 0.500000 0.500000
O O2 0.585974 0.777071 0.599890
O O3 0.787519 0.836527 0.620424
O O4 0.628409 0.940471 0.359821
O O5 0.942366 0.324434 0.849354
O O6 0.029620 0.176744 0.121489
O O7 0.000000 0.500000 0.000000
O O8 0.748949 0.006270 0.984182
O O9 0.424592 0.191395 0.228394
O O10 0.690411 0.482497 0.415110
O O11 0.500000 0.000000 0.500000
O O12 0.949863 0.162649 0.751348
O O13 0.939843 0.526950 0.594456
O O14 0.192026 0.619755 0.797499
O O15 0.533679 0.182085 0.141269
O O16 0.500000 0.500000 0.000000
O O17 0.076806 0.184596 0.666606
O O18 0.242514 0.662964 0.618824
#
# Coordination Sequence:
#
# PCOD8040668 Si02
#       8
#     2   2   2   2   2   2   2   2
#     4  12  24  38  62  99 130 159 204 267 322 364
#     4  12  28  43  61  95 135 170 206 263 321 375
#     4  11  20  38  67  94 120 164 214 258 304 371
#     4  11  20  41  70  93 121 168 214 256 314 375
#     4  11  23  43  68  91 127 171 219 255 309 384
#     4  11  22  43  65  93 124 166 213 253 309 386
#     4  10  20  39  65  96 121 157 210 269 307 367
#     4  10  18  37  70  96 117 152 218 265 296 364
#
# _framework density 19.991251999999999
#
# number of rings (size 3 to 8) (size 9 to 14) (size 15 to 20)
#    0.000    1.000    5.000    4.875    1.750    1.000 
#    4.500    1.875    0.000    0.000    0.000    0.000 
#    0.000    0.000    0.000    0.000    0.000    0.000 
#
# Total GULP energy -198388.206103 kJ/mol
# GULP energy per Si atom -12399.262881 kJ/mol
# Density = 1.994575 g / cm^3
# Si number density = 19.991252 Si / 1000 Ang^3
#
#
#
# Elastic Constant Matrix: (Units=GPa)
#
#
# Indices 1 2 3 4 5 6 
#
# 1 56.5783 30.2002 16.0295 6.5282 6.2427 25.7775
# 2 30.2002 133.8353 32.5583 -0.2657 2.7266 14.2897
# 3 16.0295 32.5583 91.2702 -10.1649 8.1840 -6.1940
# 4 6.5282 -0.2657 -10.1649 23.3267 9.1527 5.1738
# 5 6.2427 2.7266 8.1840 9.1527 32.4275 -2.6668
# 6 25.7775 14.2897 -6.1940 5.1738 -2.6668 30.5917
#
#
#
# Elastic Compliance Matrix: (Units=1/GPa)
#
#
# Indices 1 2 3 4 5 6 
#
# 1 0.036529 -0.003073 -0.007303 -0.004178 -0.006273 -0.030664
# 2 -0.003073 0.009096 -0.002881 0.000063 0.000353 -0.002223
# 3 -0.007303 -0.002881 0.015102 0.008083 -0.003716 0.008866
# 4 -0.004178 0.000063 0.008083 0.055693 -0.017438 -0.005812
# 5 -0.006273 0.000353 -0.003716 -0.017438 0.038755 0.010697
# 6 -0.030664 -0.002223 0.008866 -0.005812 0.010697 0.063276
#
#
# Mechanical properties :
#
#
# Convention : Reuss Voigt Hill
#
# Bulk Modulus (GPa) = 29.22788 48.80668 39.01728
# Shear Modulus (GPa) = 19.50314 30.79556 25.14935
#
# Velocity S-wave (km/s) = 3.12682 3.92912 3.55070
# Velocity P-wave (km/s) = 5.26195 6.71200 6.03072
#
# Compressibility (1/GPa) = 0.03421391
#
# Stress axis : x y z
#
# Youngs Moduli (GPa) = 27.37564 109.93471 66.21705
#
# Poissons Ratio (x) = 0.33779 0.48359
# Poissons Ratio (y) = 0.08412 0.19076
# Poissons Ratio (z) = 0.19993 0.31670
#
# Static dielectric constant tensor:
#      x y z
#    x 3.783960 0.494580 0.093700 
#    y 0.494580 3.784700 -0.100190 
#    z 0.093700 -0.100190 3.623850 
# 
# 
# High freq. dielectric constant tensor:
#      x y z
#    x 1.778300 0.031860 0.010710 
#    y 0.031860 1.776360 -0.013860 
#    z 0.010710 -0.013860 1.783080 
# 
# From -- ./inp_files/274742.got.cif
#   From: 2010.06.25/outbox.cif.g09.slc.cpg/sg2_138_cif.got.tgz:274742.got - 2010.06.27 13:26:56.
