data_PCOD8040149
_publ_section_title
;
Structure prediction by ZEFSAII (Michael W. Deem and Ramdas Pophale) SiO2 
 PCOD8040149
Probable space group: P -1
;
_chemical_formula_sum "Si O2"
_cell_formula_units_Z 16
_cell_length_a 9.366118
_cell_length_b 11.461957
_cell_length_c 22.879704
_cell_angle_alpha 33.833973
_cell_angle_beta 54.615688
_cell_angle_gamma 79.890321
_cell_volume 824.777070
_symmetry_space_group_name_H-M "P -1"
_symmetry_group_IT_number 2
_symmetry_cell_setting 'triclinic'
loop_
_space_group_symop_operation_xyz
x,y,z
-x,-y,-z
loop_
_atom_site_type_symbol
_atom_site_label
_atom_site_fract_x
_atom_site_fract_y
_atom_site_fract_z
Si Si1 0.733568 0.037575 0.082967
Si Si2 0.242532 0.611236 0.553672
Si Si3 0.327775 0.196942 0.548450
Si Si4 0.944907 0.352930 0.223522
Si Si5 0.423752 0.593188 0.717745
Si Si6 0.938177 0.050514 0.915799
Si Si7 0.864488 0.085992 0.471535
Si Si8 0.769592 0.427984 0.560056
O O1 0.450819 0.813908 0.245908
O O2 0.838891 0.136965 0.951027
O O3 0.828422 0.888913 0.144429
O O4 0.829814 0.316328 0.981253
O O5 0.480852 0.733368 0.479674
O O6 0.135790 0.734641 0.554841
O O7 0.294656 0.697584 0.437787
O O8 0.034566 0.266942 0.749355
O O9 0.442035 0.366851 0.389541
O O10 0.194104 0.291882 0.566258
O O11 0.127712 0.856823 0.725857
O O12 0.726775 0.329582 0.299331
O O13 0.993754 0.258052 0.309498
O O14 0.595966 0.800665 0.641999
O O15 0.268720 0.280448 0.912381
O O16 0.000000 0.000000 0.500000
O O17 0.000000 0.500000 0.500000
#
# Coordination Sequence:
#
# PCOD8040149 Si02
#       8
#     2   2   2   2   2   2   2   2
#     4  10  19  39  63  94 122 158 204 257 306 356
#     4  12  22  41  63  94 120 163 212 251 301 371
#     4  11  19  39  64  86 120 166 205 248 300 369
#     4  10  19  37  67  91 116 156 210 257 305 352
#     4  10  18  36  65  96 121 150 205 263 310 351
#     4  10  18  35  68  96 115 151 216 265 292 343
#     4  11  22  35  59  96 130 157 199 261 311 357
#     4  12  28  42  58  87 133 173 198 242 320 380
#
# _framework density 19.399180999999999
#
# number of rings (size 3 to 8) (size 9 to 14) (size 15 to 20)
#    0.000    1.250    6.250    1.875    3.500    0.000 
#    2.250    3.750    0.000    0.000    0.000    0.000 
#    0.000    0.000    0.000    0.000    0.000    0.000 
#
# Total GULP energy -198342.012715 kJ/mol
# GULP energy per Si atom -12396.375795 kJ/mol
# Density = 1.935503 g / cm^3
# Si number density = 19.399181 Si / 1000 Ang^3
#
#
#
# Elastic Constant Matrix: (Units=GPa)
#
#
# Indices 1 2 3 4 5 6 
#
# 1 97.2816 44.4116 40.9341 -2.2185 3.0910 -12.5571
# 2 44.4116 92.2452 29.9909 -13.4445 -0.4419 -1.6198
# 3 40.9341 29.9909 85.6134 -14.0481 -16.2608 -4.0002
# 4 -2.2185 -13.4445 -14.0481 30.0349 0.5212 -0.9552
# 5 3.0910 -0.4419 -16.2608 0.5212 22.9231 0.7005
# 6 -12.5571 -1.6198 -4.0002 -0.9552 0.7005 29.2138
#
#
#
# Elastic Compliance Matrix: (Units=1/GPa)
#
#
# Indices 1 2 3 4 5 6 
#
# 1 0.017713 -0.006492 -0.008376 -0.005172 -0.008525 0.006142
# 2 -0.006492 0.015195 -0.001363 0.005620 0.000134 -0.001954
# 3 -0.008376 -0.001363 0.020350 0.007991 0.015387 -0.000997
# 4 -0.005172 0.005620 0.007991 0.039079 0.005576 0.000327
# 5 -0.008525 0.000134 0.015387 0.005576 0.055647 -0.002702
# 6 0.006142 -0.001954 -0.000997 0.000327 -0.002702 0.036701
#
#
# Mechanical properties :
#
#
# Convention : Reuss Voigt Hill
#
# Bulk Modulus (GPa) = 48.08399 56.20149 52.14274
# Shear Modulus (GPa) = 22.31361 27.08792 24.70077
#
# Velocity S-wave (km/s) = 3.39519 3.74082 3.57219
# Velocity P-wave (km/s) = 6.34115 6.90596 6.62957
#
# Compressibility (1/GPa) = 0.02079694
#
# Stress axis : x y z
#
# Youngs Moduli (GPa) = 56.45480 65.81297 49.14072
#
# Poissons Ratio (x) = 0.42723 0.41161
# Poissons Ratio (y) = 0.36648 0.06696
# Poissons Ratio (z) = 0.47287 0.08968
#
# Static dielectric constant tensor:
#      x y z
#    x 3.194670 -0.068880 -0.031430 
#    y -0.068880 3.548500 -0.254390 
#    z -0.031430 -0.254390 3.451690 
# 
# 
# High freq. dielectric constant tensor:
#      x y z
#    x 1.728420 -0.002060 -0.004600 
#    y -0.002060 1.756140 -0.027310 
#    z -0.004600 -0.027310 1.748350 
# 
# From -- ./inp_files/226154.got.cif
#   From: 2010.06.25/outbox.cif.g09.slc.cpg/sg2_114_cif.got.tgz:226154.got - 2010.06.27 13:26:56.
