data_PCOD8040260
_publ_section_title
;
Structure prediction by ZEFSAII (Michael W. Deem and Ramdas Pophale) SiO2 
 PCOD8040260
Probable space group: P -1
;
_chemical_formula_sum "Si O2"
_cell_formula_units_Z 14
_cell_length_a 20.209501
_cell_length_b 9.120322
_cell_length_c 11.132236
_cell_angle_alpha 69.796730
_cell_angle_beta 38.764071
_cell_angle_gamma 39.369476
_cell_volume 620.531408
_symmetry_space_group_name_H-M "P -1"
_symmetry_group_IT_number 2
_symmetry_cell_setting 'triclinic'
loop_
_space_group_symop_operation_xyz
x,y,z
-x,-y,-z
loop_
_atom_site_type_symbol
_atom_site_label
_atom_site_fract_x
_atom_site_fract_y
_atom_site_fract_z
Si Si1 0.923968 0.524322 0.477289
Si Si2 0.786421 0.357456 0.690998
Si Si3 0.907548 0.419337 0.105581
Si Si4 0.670203 0.344405 0.082609
Si Si5 0.143306 0.798646 0.624010
Si Si6 0.811953 0.837417 0.013038
Si Si7 0.252591 0.969126 0.548164
O O1 0.803896 0.513959 0.667410
O O2 0.000000 0.500000 0.500000
O O3 0.128225 0.239645 0.189418
O O4 0.771423 0.835045 0.537800
O O5 0.729309 0.417518 0.613642
O O6 0.630144 0.464644 0.970541
O O7 0.000000 0.000000 0.500000
O O8 0.747958 0.743927 0.176180
O O9 0.111198 0.133665 0.818267
O O10 0.979760 0.390714 0.141648
O O11 0.795465 0.396512 0.297616
O O12 0.493363 0.640825 0.334923
O O13 0.644256 0.187232 0.166937
O O14 0.895927 0.105892 0.873651
O O15 0.199953 0.902460 0.544757
#
# Coordination Sequence:
#
# PCOD8040260 Si02
#       7
#     2   2   2   2   2   2   2
#     4  11  20  36  60  90 118 156 199 244 294 353
#     4  10  18  36  60  81 116 159 192 234 297 351
#     4   9  18  37  62  85 118 158 203 234 296 351
#     4  10  21  38  60  88 123 158 193 242 304 347
#     4  10  20  39  62  85 120 161 196 242 294 352
#     4   9  18  35  61  86 115 164 193 240 298 352
#     4  11  24  35  61  97 117 152 202 247 290 352
#
# _framework density 22.561308
#
# number of rings (size 3 to 8) (size 9 to 14) (size 15 to 20)
#    0.000    2.000    4.286    2.143    0.000    3.429 
#    0.000    0.714    3.143    0.000    0.000    0.000 
#    0.000    0.000    0.000    0.000    0.000    0.000 
#
# Total GULP energy -173481.369781 kJ/mol
# GULP energy per Si atom -12391.526413 kJ/mol
# Density = 2.250996 g / cm^3
# Si number density = 22.561308 Si / 1000 Ang^3
#
#
#
# Elastic Constant Matrix: (Units=GPa)
#
#
# Indices 1 2 3 4 5 6 
#
# 1 82.7693 11.9043 9.7016 -8.5933 17.0100 16.0131
# 2 11.9043 159.5186 38.2428 -22.4063 8.2974 24.9212
# 3 9.7016 38.2428 45.6991 -12.8161 10.2578 3.4021
# 4 -8.5933 -22.4063 -12.8161 33.8430 -0.3870 5.8083
# 5 17.0100 8.2974 10.2578 -0.3870 26.8358 -5.5897
# 6 16.0131 24.9212 3.4021 5.8083 -5.5897 32.2454
#
#
#
# Elastic Compliance Matrix: (Units=1/GPa)
#
#
# Indices 1 2 3 4 5 6 
#
# 1 0.019374 0.003287 0.001137 0.010266 -0.017146 -0.017103
# 2 0.003287 0.010431 -0.005146 0.007704 -0.005630 -0.011515
# 3 0.001137 -0.005146 0.031464 0.009284 -0.011777 -0.003621
# 4 0.010266 0.007704 0.009284 0.044516 -0.016570 -0.022923
# 5 -0.017146 -0.005630 -0.011777 -0.016570 0.059856 0.027469
# 6 -0.017103 -0.011515 -0.003621 -0.022923 0.027469 0.057678
#
#
# Mechanical properties :
#
#
# Convention : Reuss Voigt Hill
#
# Bulk Modulus (GPa) = 16.71516 45.29824 31.00670
# Shear Modulus (GPa) = 20.43291 33.79405 27.11348
#
# Velocity S-wave (km/s) = 3.01269 3.87444 3.47041
# Velocity P-wave (km/s) = 4.41889 6.33534 5.46182
#
# Compressibility (1/GPa) = 0.05982595
#
# Stress axis : x y z
#
# Youngs Moduli (GPa) = 51.61542 95.86779 31.78286
#
# Poissons Ratio (x) = -0.31516 -0.03613
# Poissons Ratio (y) = -0.16968 0.16354
# Poissons Ratio (z) = -0.05868 0.49329
#
# Static dielectric constant tensor:
#      x y z
#    x 3.961270 0.095660 0.523800 
#    y 0.095660 4.813030 -0.519960 
#    z 0.523800 -0.519960 4.134320 
# 
# 
# High freq. dielectric constant tensor:
#      x y z
#    x 1.862440 0.014850 0.030760 
#    y 0.014850 1.915540 -0.021980 
#    z 0.030760 -0.021980 1.862200 
# 
# From -- ./inp_files/170016.got.cif
#   From: 2010.06.25/outbox.cif.g09.slc.cpg/sg2_86_cif.got.tgz:170016.got - 2010.06.27 13:26:56.
