data_PCOD8040195
_publ_section_title
;
Structure prediction by ZEFSAII (Michael W. Deem and Ramdas Pophale) SiO2 
 PCOD8040195
Probable space group: P -1
;
_chemical_formula_sum "Si O2"
_cell_formula_units_Z 16
_cell_length_a 8.718631
_cell_length_b 14.511731
_cell_length_c 11.238255
_cell_angle_alpha 62.905980
_cell_angle_beta 95.757593
_cell_angle_gamma 141.871199
_cell_volume 690.172750
_symmetry_space_group_name_H-M "P -1"
_symmetry_group_IT_number 2
_symmetry_cell_setting 'triclinic'
loop_
_space_group_symop_operation_xyz
x,y,z
-x,-y,-z
loop_
_atom_site_type_symbol
_atom_site_label
_atom_site_fract_x
_atom_site_fract_y
_atom_site_fract_z
Si Si1 0.587372 0.387929 0.452389
Si Si2 0.038530 0.157516 0.135955
Si Si3 0.050672 0.976833 0.393222
Si Si4 0.267167 0.853513 0.746896
Si Si5 0.483292 0.089883 0.029069
Si Si6 0.562691 0.175173 0.423566
Si Si7 0.508879 0.744809 0.242280
Si Si8 0.839175 0.737485 0.172812
O O1 0.630399 0.327595 0.386849
O O2 0.701589 0.406447 0.577304
O O3 0.759961 0.584145 0.313873
O O4 0.260415 0.236426 0.545233
O O5 0.006969 0.233317 0.185209
O O6 0.179066 0.135649 0.220009
O O7 0.726878 0.950911 0.191552
O O8 0.211503 0.295134 0.954654
O O9 0.282621 0.018407 0.407399
O O10 0.000000 0.000000 0.500000
O O11 0.197818 0.736466 0.699289
O O12 0.368348 0.844857 0.872830
O O13 0.508329 0.068518 0.592893
O O14 0.159875 0.941330 0.114320
O O15 0.500000 0.000000 0.000000
O O16 0.640019 0.274379 0.864927
O O17 0.652543 0.723646 0.215930
#
# Coordination Sequence:
#
# PCOD8040195 Si02
#       8
#     2   2   2   2   2   2   2   2
#     4  10  20  40  58  87 118 144 188 246 286 333
#     4  10  18  36  57  84 115 144 193 237 270 340
#     4   9  17  35  63  77 107 151 197 232 270 325
#     4  11  20  35  62  87 112 146 203 229 275 337
#     4  11  20  37  62  86 114 154 190 233 284 339
#     4  10  21  37  62  86 109 156 197 234 271 344
#     4  10  20  37  58  85 113 150 192 233 278 349
#     4  11  23  35  60  88 118 148 184 241 300 328
#
# _framework density 23.182603
#
# number of rings (size 3 to 8) (size 9 to 14) (size 15 to 20)
#    0.000    1.750    6.250    1.875    5.250    0.000 
#    0.000    5.625    2.750    0.000    0.000    0.000 
#    0.000    0.000    0.000    0.000    0.000    0.000 
#
# Total GULP energy -198245.638496 kJ/mol
# GULP energy per Si atom -12390.352406 kJ/mol
# Density = 2.312984 g / cm^3
# Si number density = 23.182603 Si / 1000 Ang^3
#
#
#
# Elastic Constant Matrix: (Units=GPa)
#
#
# Indices 1 2 3 4 5 6 
#
# 1 71.3386 23.4679 33.1108 11.9959 7.9963 -30.9804
# 2 23.4679 24.3619 34.7859 6.8999 3.0794 -16.5772
# 3 33.1108 34.7859 179.5052 18.6399 35.6230 -12.3176
# 4 11.9959 6.8999 18.6399 28.0786 -4.9831 -0.1335
# 5 7.9963 3.0794 35.6230 -4.9831 49.9120 12.2500
# 6 -30.9804 -16.5772 -12.3176 -0.1335 12.2500 33.1734
#
#
#
# Elastic Compliance Matrix: (Units=1/GPa)
#
#
# Indices 1 2 3 4 5 6 
#
# 1 0.037785 -0.003321 0.002664 -0.020461 -0.020089 0.041953
# 2 -0.003321 0.096774 -0.011434 -0.016307 -0.009848 0.044583
# 3 0.002664 -0.011434 0.009805 -0.006273 -0.008183 0.003411
# 4 -0.020461 -0.016307 -0.006273 0.056564 0.023768 -0.038136
# 5 -0.020089 -0.009848 -0.008183 0.023768 0.042457 -0.042304
# 6 0.041953 0.044583 0.003411 -0.038136 -0.042304 0.108338
#
#
# Mechanical properties :
#
#
# Convention : Reuss Voigt Hill
#
# Bulk Modulus (GPa) = 8.32071 50.88168 29.60120
# Shear Modulus (GPa) = 12.02026 34.48887 23.25457
#
# Velocity S-wave (km/s) = 2.27954 3.86126 3.17062
# Velocity P-wave (km/s) = 3.24428 6.47109 5.11861
#
# Compressibility (1/GPa) = 0.12018202
#
# Stress axis : x y z
#
# Youngs Moduli (GPa) = 26.46544 10.33341 101.99394
#
# Poissons Ratio (x) = 0.03432 -0.27172
# Poissons Ratio (y) = 0.08789 1.16619
# Poissons Ratio (z) = -0.07051 0.11815
#
# Static dielectric constant tensor:
#      x y z
#    x 5.970670 0.850170 0.341490 
#    y 0.850170 4.369430 0.614410 
#    z 0.341490 0.614410 4.745860 
# 
# 
# High freq. dielectric constant tensor:
#      x y z
#    x 1.921340 -0.027000 0.017320 
#    y -0.027000 1.856080 0.039060 
#    z 0.017320 0.039060 1.935620 
# 
# From -- ./inp_files/395633.got.cif
#   From: 2010.06.25/outbox.cif.g09.slc.cpg/sg2_198_cif.got.tgz:395633.got - 2010.06.27 13:26:56.
