data_PCOD8040723
_publ_section_title
;
Structure prediction by ZEFSAII (Michael W. Deem and Ramdas Pophale) SiO2 
 PCOD8040723
Probable space group: P -1
;
_chemical_formula_sum "Si O2"
_cell_formula_units_Z 16
_cell_length_a 11.843090
_cell_length_b 15.306093
_cell_length_c 9.151656
_cell_angle_alpha 106.841874
_cell_angle_beta 141.117253
_cell_angle_gamma 52.224460
_cell_volume 762.335125
_symmetry_space_group_name_H-M "P -1"
_symmetry_group_IT_number 2
_symmetry_cell_setting 'triclinic'
loop_
_space_group_symop_operation_xyz
x,y,z
-x,-y,-z
loop_
_atom_site_type_symbol
_atom_site_label
_atom_site_fract_x
_atom_site_fract_y
_atom_site_fract_z
Si Si1 0.854816 0.876119 0.731955
Si Si2 0.695817 0.272114 0.383264
Si Si3 0.441636 0.885034 0.823710
Si Si4 0.296335 0.389600 0.398239
Si Si5 0.158583 0.154545 0.632606
Si Si6 0.200723 0.481474 0.032941
Si Si7 0.257085 0.671625 0.215202
Si Si8 0.502627 0.864931 0.541186
O O1 0.852000 0.836572 0.547682
O O2 0.691339 0.870898 0.668555
O O3 0.760254 0.011918 0.702366
O O4 0.113400 0.783995 0.015609
O O5 0.697672 0.162720 0.308380
O O6 0.435397 0.393153 0.128780
O O7 0.745722 0.281475 0.606006
O O8 0.894448 0.254125 0.475547
O O9 0.545091 0.853989 0.750970
O O10 0.256512 0.026921 0.732153
O O11 0.667151 0.821843 0.127217
O O12 0.234917 0.406305 0.172223
O O13 0.470383 0.418875 0.614548
O O14 0.453795 0.250290 0.532332
O O15 0.044045 0.472433 0.269350
O O16 0.160858 0.600642 0.091549
#
# Coordination Sequence:
#
# PCOD8040723 Si02
#       8
#     2   2   2   2   2   2   2   2
#     4  10  22  37  57  90 124 159 185 237 304 363
#     4  11  21  37  62  91 111 154 202 246 288 343
#     4  10  20  40  60  87 114 157 203 241 284 343
#     4  10  19  34  58  88 113 145 192 257 282 334
#     4  10  23  38  58  83 127 158 189 239 293 355
#     4  10  21  35  59  92 115 144 202 255 289 328
#     4  11  21  37  61  91 118 148 197 248 297 342
#     4  10  18  38  62  85 118 151 200 240 293 341
#
# _framework density 20.988143999999998
#
# number of rings (size 3 to 8) (size 9 to 14) (size 15 to 20)
#    0.000    1.750    3.750    2.625    0.000    2.500 
#    2.250    0.625    0.000    1.500    0.000    0.000 
#    0.000    0.000    0.000    0.000    0.000    0.000 
#
# Total GULP energy -198271.909870 kJ/mol
# GULP energy per Si atom -12391.994367 kJ/mol
# Density = 2.094037 g / cm^3
# Si number density = 20.988144 Si / 1000 Ang^3
#
#
#
# Elastic Constant Matrix: (Units=GPa)
#
#
# Indices 1 2 3 4 5 6 
#
# 1 37.3954 -2.0860 26.3881 -9.0282 12.6739 -6.1338
# 2 -2.0860 56.2915 7.8333 -14.7599 0.2619 7.5378
# 3 26.3881 7.8333 78.5822 -19.2496 14.2347 -5.9354
# 4 -9.0282 -14.7599 -19.2496 32.8942 0.4045 7.6918
# 5 12.6739 0.2619 14.2347 0.4045 32.0353 -5.2200
# 6 -6.1338 7.5378 -5.9354 7.6918 -5.2200 29.6422
#
#
#
# Elastic Compliance Matrix: (Units=1/GPa)
#
#
# Indices 1 2 3 4 5 6 
#
# 1 0.039709 0.004561 -0.009960 0.006954 -0.011200 0.001286
# 2 0.004561 0.022701 -0.000632 0.013207 -0.003337 -0.008970
# 3 -0.009960 -0.000632 0.018972 0.008407 -0.004774 -0.001123
# 4 0.006954 0.013207 0.008407 0.046539 -0.009460 -0.013978
# 5 -0.011200 -0.003337 -0.004774 -0.009460 0.039040 0.006905
# 6 0.001286 -0.008970 -0.001123 -0.013978 0.006905 0.040901
#
#
# Mechanical properties :
#
#
# Convention : Reuss Voigt Hill
#
# Bulk Modulus (GPa) = 14.42582 26.28218 20.35400
# Shear Modulus (GPa) = 20.57336 28.25658 24.41497
#
# Velocity S-wave (km/s) = 3.13427 3.67319 3.41438
# Velocity P-wave (km/s) = 4.47062 5.52624 5.02622
#
# Compressibility (1/GPa) = 0.06932015
#
# Stress axis : x y z
#
# Youngs Moduli (GPa) = 25.18290 44.05051 52.70842
#
# Poissons Ratio (x) = -0.20090 0.52497
# Poissons Ratio (y) = -0.11485 0.03333
# Poissons Ratio (z) = 0.25082 0.02785
#
# Static dielectric constant tensor:
#      x y z
#    x 3.719310 0.013520 0.335630 
#    y 0.013520 3.949840 -0.431190 
#    z 0.335630 -0.431190 3.964080 
# 
# 
# High freq. dielectric constant tensor:
#      x y z
#    x 1.805110 0.009800 0.031580 
#    y 0.009800 1.817030 -0.022060 
#    z 0.031580 -0.022060 1.811590 
# 
# From -- ./inp_files/272642.got.cif
#   From: 2010.06.25/outbox.cif.g09.slc.cpg/sg2_137_cif.got.tgz:272642.got - 2010.06.27 13:26:56.
