data_PCOD8040684
_publ_section_title
;
Structure prediction by ZEFSAII (Michael W. Deem and Ramdas Pophale) SiO2 
 PCOD8040684
Probable space group: P -1
;
_chemical_formula_sum "Si O2"
_cell_formula_units_Z 14
_cell_length_a 11.555428
_cell_length_b 11.745254
_cell_length_c 15.377881
_cell_angle_alpha 144.333615
_cell_angle_beta 48.220108
_cell_angle_gamma 105.427844
_cell_volume 702.442599
_symmetry_space_group_name_H-M "P -1"
_symmetry_group_IT_number 2
_symmetry_cell_setting 'triclinic'
loop_
_space_group_symop_operation_xyz
x,y,z
-x,-y,-z
loop_
_atom_site_type_symbol
_atom_site_label
_atom_site_fract_x
_atom_site_fract_y
_atom_site_fract_z
Si Si1 0.830420 0.978974 0.288181
Si Si2 0.396989 0.345349 0.666900
Si Si3 0.869286 0.541931 0.275530
Si Si4 0.947394 0.292573 0.824369
Si Si5 0.154539 0.334128 0.442167
Si Si6 0.779443 0.464143 0.628170
Si Si7 0.653138 0.222338 0.964419
O O1 0.606418 0.096201 0.443690
O O2 0.867520 0.180906 0.387566
O O3 0.869303 0.893278 0.316221
O O4 0.988290 0.750936 0.003568
O O5 0.344803 0.305909 0.572743
O O6 0.394135 0.586074 0.814462
O O7 0.212651 0.430644 0.877138
O O8 0.969750 0.670887 0.280791
O O9 0.827185 0.571950 0.416877
O O10 0.827352 0.185501 0.794404
O O11 0.246488 0.403847 0.368220
O O12 0.922394 0.471568 0.624929
O O13 0.279854 0.035753 0.191308
O O14 0.559970 0.630652 0.887874
#
# Coordination Sequence:
#
# PCOD8040684 Si02
#       7
#     2   2   2   2   2   2   2
#     4  10  18  38  58  80 109 141 183 218 259 327
#     4   8  18  35  57  78 107 144 180 211 263 319
#     4  11  22  33  53  90 111 137 171 224 282 307
#     4   9  19  34  58  81 108 143 176 216 268 321
#     4  11  22  37  57  78 113 138 179 231 262 317
#     4  10  21  40  59  76  99 153 189 211 266 316
#     4   9  19  38  57  78 102 147 184 213 260 325
#
# _framework density 19.930454000000001
#
# number of rings (size 3 to 8) (size 9 to 14) (size 15 to 20)
#    0.857    1.429    1.429    2.143    0.000    4.571 
#    0.000    3.571    0.000    0.000    0.000    0.000 
#    0.000    0.000    0.000    0.000    0.000    0.000 
#
# Total GULP energy -173472.893382 kJ/mol
# GULP energy per Si atom -12390.920956 kJ/mol
# Density = 1.988509 g / cm^3
# Si number density = 19.930454 Si / 1000 Ang^3
#
#
#
# Elastic Constant Matrix: (Units=GPa)
#
#
# Indices 1 2 3 4 5 6 
#
# 1 68.4096 -7.3280 20.1135 -6.7620 -24.4316 -4.0557
# 2 -7.3280 44.1693 11.3968 17.9849 3.7174 6.9807
# 3 20.1135 11.3968 53.7238 14.5367 -19.4193 -7.1868
# 4 -6.7620 17.9849 14.5367 18.8918 -2.8690 4.3237
# 5 -24.4316 3.7174 -19.4193 -2.8690 33.8896 1.5518
# 6 -4.0557 6.9807 -7.1868 4.3237 1.5518 25.9339
#
#
#
# Elastic Compliance Matrix: (Units=1/GPa)
#
#
# Indices 1 2 3 4 5 6 
#
# 1 0.024135 -0.003212 -0.009343 0.021615 0.014338 -0.002412
# 2 -0.003212 0.039708 -0.001100 -0.038667 -0.010372 -0.004428
# 3 -0.009343 -0.001100 0.036938 -0.032169 0.011198 0.013765
# 4 0.021615 -0.038667 -0.032169 0.128166 0.013032 -0.017274
# 5 0.014338 -0.010372 0.011198 0.013032 0.048361 0.003071
# 6 -0.002412 -0.004428 0.013765 -0.017274 0.003071 0.045885
#
#
# Mechanical properties :
#
#
# Convention : Reuss Voigt Hill
#
# Bulk Modulus (GPa) = 13.61067 23.85192 18.73130
# Shear Modulus (GPa) = 13.33350 25.21775 19.27563
#
# Velocity S-wave (km/s) = 2.58931 3.56095 3.11327
# Velocity P-wave (km/s) = 3.97282 5.37594 4.72673
#
# Compressibility (1/GPa) = 0.07347176
#
# Stress axis : x y z
#
# Youngs Moduli (GPa) = 41.43343 25.18355 27.07208
#
# Poissons Ratio (x) = 0.08089 0.25293
# Poissons Ratio (y) = 0.13308 0.02979
# Poissons Ratio (z) = 0.38711 0.02771
#
# Static dielectric constant tensor:
#      x y z
#    x 3.735540 0.217360 -0.322750 
#    y 0.217360 3.447030 0.233530 
#    z -0.322750 0.233530 3.397580 
# 
# 
# High freq. dielectric constant tensor:
#      x y z
#    x 1.782080 0.020640 -0.025700 
#    y 0.020640 1.762600 0.027140 
#    z -0.025700 0.027140 1.755500 
# 
# From -- ./inp_files/513719.got.cif
#   From: 2010.06.25/outbox.cif.g09.slc.cpg/sg2_257_cif.got.tgz:513719.got - 2010.06.27 13:26:56.
