data_PCOD8040136
_publ_section_title
;
Structure prediction by ZEFSAII (Michael W. Deem and Ramdas Pophale) SiO2 
 PCOD8040136
Probable space group: P -1
;
_chemical_formula_sum "Si O2"
_cell_formula_units_Z 16
_cell_length_a 19.881408
_cell_length_b 8.312411
_cell_length_c 8.946354
_cell_angle_alpha 57.125385
_cell_angle_beta 48.952574
_cell_angle_gamma 39.405227
_cell_volume 705.885842
_symmetry_space_group_name_H-M "P -1"
_symmetry_group_IT_number 2
_symmetry_cell_setting 'triclinic'
loop_
_space_group_symop_operation_xyz
x,y,z
-x,-y,-z
loop_
_atom_site_type_symbol
_atom_site_label
_atom_site_fract_x
_atom_site_fract_y
_atom_site_fract_z
Si Si1 0.221720 0.859125 0.465428
Si Si2 0.603970 0.053909 0.798740
Si Si3 0.910616 0.548245 0.270325
Si Si4 0.824034 0.486204 0.733117
Si Si5 0.504551 0.023550 0.236951
Si Si6 0.901639 0.010324 0.716788
Si Si7 0.984300 0.807840 0.175880
Si Si8 0.691529 0.678931 0.386326
O O1 0.250100 0.603410 0.597769
O O2 0.331875 0.834685 0.364599
O O3 0.194621 0.924200 0.296780
O O4 0.108295 0.079334 0.612135
O O5 0.691352 0.745835 0.822498
O O6 0.518076 0.145461 0.733875
O O7 0.530239 0.151491 0.011692
O O8 0.881123 0.512643 0.495774
O O9 0.944175 0.725271 0.141387
O O10 0.796319 0.683149 0.262724
O O11 0.026652 0.271885 0.175093
O O12 0.893113 0.441474 0.807024
O O13 0.833326 0.240692 0.820953
O O14 0.616398 0.856317 0.266906
O O15 0.387758 0.241312 0.390876
O O16 0.000000 0.000000 0.500000
O O17 0.000000 0.000000 0.000000
#
# Coordination Sequence:
#
# PCOD8040136 Si02
#       8
#     2   2   2   2   2   2   2   2
#     4  12  21  39  64  92 123 163 210 247 321 366
#     4  11  23  41  68  90 121 167 214 263 301 375
#     4  11  19  41  65  88 125 173 202 245 313 376
#     4  11  19  40  64  89 122 168 205 250 306 374
#     4  10  24  44  63  91 118 165 216 263 319 356
#     4  10  18  35  66  91 117 162 208 238 300 386
#     4  12  25  37  59 100 132 163 203 253 308 383
#     4  11  22  42  67  89 129 162 202 270 318 365
#
# _framework density 22.666554999999999
#
# number of rings (size 3 to 8) (size 9 to 14) (size 15 to 20)
#    0.000    1.000    7.500    1.125    1.750    1.000 
#    2.250    1.250    0.000    0.000    0.000    0.000 
#    0.000    0.000    0.000    0.000    0.000    0.000 
#
# Total GULP energy -198369.867396 kJ/mol
# GULP energy per Si atom -12398.116712 kJ/mol
# Density = 2.261497 g / cm^3
# Si number density = 22.666555 Si / 1000 Ang^3
#
#
#
# Elastic Constant Matrix: (Units=GPa)
#
#
# Indices 1 2 3 4 5 6 
#
# 1 170.4023 35.2105 32.6964 -19.5917 -15.7574 12.3798
# 2 35.2105 75.5077 -2.9951 -1.3134 -5.0341 20.1037
# 3 32.6964 -2.9951 54.7966 4.3689 0.9763 2.7125
# 4 -19.5917 -1.3134 4.3689 18.8901 5.0730 2.0131
# 5 -15.7574 -5.0341 0.9763 5.0730 30.7426 -4.8377
# 6 12.3798 20.1037 2.7125 2.0131 -4.8377 31.9592
#
#
#
# Elastic Compliance Matrix: (Units=1/GPa)
#
#
# Indices 1 2 3 4 5 6 
#
# 1 0.009530 -0.004149 -0.006762 0.010558 0.002554 -0.000786
# 2 -0.004149 0.017900 0.004179 -0.002861 -0.000413 -0.009890
# 3 -0.006762 0.004179 0.023540 -0.011495 -0.001879 -0.001568
# 4 0.010558 -0.002861 -0.011495 0.068982 -0.007135 -0.006740
# 5 0.002554 -0.000413 -0.001879 -0.007135 0.035842 0.005304
# 6 -0.000786 -0.009890 -0.001568 -0.006740 0.005304 0.039176
#
#
# Mechanical properties :
#
#
# Convention : Reuss Voigt Hill
#
# Bulk Modulus (GPa) = 26.66179 47.83669 37.24924
# Shear Modulus (GPa) = 22.63098 32.03803 27.33451
#
# Velocity S-wave (km/s) = 3.16322 3.76367 3.47643
# Velocity P-wave (km/s) = 5.01293 6.32750 5.70818
#
# Compressibility (1/GPa) = 0.03750686
#
# Stress axis : x y z
#
# Youngs Moduli (GPa) = 104.92707 55.86559 42.48085
#
# Poissons Ratio (x) = 0.23180 0.28725
# Poissons Ratio (y) = 0.43536 -0.17753
# Poissons Ratio (z) = 0.70950 -0.23347
#
# Static dielectric constant tensor:
#      x y z
#    x 4.680610 0.215480 0.040140 
#    y 0.215480 4.323620 0.186770 
#    z 0.040140 0.186770 3.785890 
# 
# 
# High freq. dielectric constant tensor:
#      x y z
#    x 1.915620 -0.000540 0.007540 
#    y -0.000540 1.879980 0.012600 
#    z 0.007540 0.012600 1.874050 
# 
# From -- ./inp_files/237229.got.cif
#   From: 2010.06.25/outbox.cif.g09.slc.cpg/sg2_119_cif.got.tgz:237229.got - 2010.06.27 13:26:56.
