data_PCOD8040608
_publ_section_title
;
Structure prediction by ZEFSAII (Michael W. Deem and Ramdas Pophale) SiO2 
 PCOD8040608
Probable space group: P -1
;
_chemical_formula_sum "Si O2"
_cell_formula_units_Z 14
_cell_length_a 14.629062
_cell_length_b 9.953642
_cell_length_c 15.894405
_cell_angle_alpha 116.302883
_cell_angle_beta 28.038412
_cell_angle_gamma 95.941441
_cell_volume 712.833774
_symmetry_space_group_name_H-M "P -1"
_symmetry_group_IT_number 2
_symmetry_cell_setting 'triclinic'
loop_
_space_group_symop_operation_xyz
x,y,z
-x,-y,-z
loop_
_atom_site_type_symbol
_atom_site_label
_atom_site_fract_x
_atom_site_fract_y
_atom_site_fract_z
Si Si1 0.811684 0.153274 0.995662
Si Si2 0.213912 0.659587 0.234427
Si Si3 0.436860 0.292613 0.856847
Si Si4 0.584189 0.378142 0.590102
Si Si5 0.990068 0.987796 0.625417
Si Si6 0.842837 0.867697 0.994747
Si Si7 0.281855 0.988676 0.684058
O O1 0.087804 0.077400 0.785557
O O2 0.689872 0.088727 0.137166
O O3 0.614277 0.392963 0.216238
O O4 0.860832 0.044500 0.837238
O O5 0.995741 0.819506 0.527986
O O6 0.500000 0.500000 0.000000
O O7 0.195947 0.504985 0.162002
O O8 0.187533 0.802744 0.225092
O O9 0.516247 0.357886 0.733028
O O10 0.699803 0.122663 0.652105
O O11 0.329162 0.191001 0.885226
O O12 0.878281 0.296216 0.325939
O O13 0.565873 0.251088 0.502735
O O14 0.890227 0.888189 0.058918
O O15 0.500000 0.000000 0.500000
#
# Coordination Sequence:
#
# PCOD8040608 Si02
#       7
#     2   2   2   2   2   2   2
#     4  11  22  38  62  89 124 159 200 248 299 353
#     4   9  20  34  64  94 117 155 203 244 300 361
#     4  11  20  40  64  88 120 161 201 243 298 358
#     4  11  22  39  61  87 122 159 200 245 295 354
#     4  10  18  37  64  89 120 160 196 247 304 350
#     4  11  24  40  60  89 125 159 199 251 296 349
#     4  11  22  41  61  88 123 159 202 250 294 354
#
# _framework density 19.639924000000001
#
# number of rings (size 3 to 8) (size 9 to 14) (size 15 to 20)
#    0.000    1.429    5.714    1.714    0.000    4.000 
#    2.571    0.714    0.000    5.143    0.000    0.000 
#    0.000    0.000    0.000    0.000    0.000    0.000 
#
# Total GULP energy -173441.898968 kJ/mol
# GULP energy per Si atom -12388.707069 kJ/mol
# Density = 1.959522 g / cm^3
# Si number density = 19.639924 Si / 1000 Ang^3
#
#
#
# Elastic Constant Matrix: (Units=GPa)
#
#
# Indices 1 2 3 4 5 6 
#
# 1 90.7904 37.9580 39.2306 7.1461 24.1099 -9.6564
# 2 37.9580 99.7841 57.0687 20.6247 -0.4612 -12.0091
# 3 39.2306 57.0687 88.3242 18.4494 13.6908 -0.4784
# 4 7.1461 20.6247 18.4494 39.9439 0.0003 0.8625
# 5 24.1099 -0.4612 13.6908 0.0003 22.8669 7.1084
# 6 -9.6564 -12.0091 -0.4784 0.8625 7.1084 30.4371
#
#
#
# Elastic Compliance Matrix: (Units=1/GPa)
#
#
# Indices 1 2 3 4 5 6 
#
# 1 0.022540 -0.006373 -0.001741 -0.000169 -0.026186 0.010729
# 2 -0.006373 0.020199 -0.011372 -0.004098 0.013054 0.002836
# 3 -0.001741 -0.011372 0.021936 -0.003904 -0.010893 -0.002040
# 4 -0.000169 -0.004098 -0.003904 0.029057 0.003480 -0.003368
# 5 -0.026186 0.013054 -0.010893 0.003480 0.085391 -0.023369
# 6 0.010729 0.002836 -0.002040 -0.003368 -0.023369 0.042899
#
#
# Mechanical properties :
#
#
# Convention : Reuss Voigt Hill
#
# Bulk Modulus (GPa) = 38.90821 60.82371 49.86596
# Shear Modulus (GPa) = 18.54862 28.29234 23.42048
#
# Velocity S-wave (km/s) = 3.07650 3.79958 3.45700
# Velocity P-wave (km/s) = 5.69856 7.09124 6.43270
#
# Compressibility (1/GPa) = 0.02570151
#
# Stress axis : x y z
#
# Youngs Moduli (GPa) = 44.36652 49.50774 45.58657
#
# Poissons Ratio (x) = 0.31552 0.07936
# Poissons Ratio (y) = 0.28276 0.51843
# Poissons Ratio (z) = 0.07724 0.56302
#
# Static dielectric constant tensor:
#      x y z
#    x 3.871000 -0.025750 0.454270 
#    y -0.025750 3.598520 0.367180 
#    z 0.454270 0.367180 3.812070 
# 
# 
# High freq. dielectric constant tensor:
#      x y z
#    x 1.773720 -0.008410 0.027570 
#    y -0.008410 1.755250 0.026140 
#    z 0.027570 0.026140 1.760790 
# 
# From -- ./inp_files/315234.got.cif
#   From: 2010.06.25/outbox.cif.g09.slc.cpg/sg2_158_cif.got.tgz:315234.got - 2010.06.27 13:26:56.
