data_PCOD8040914
_publ_section_title
;
Structure prediction by ZEFSAII (Michael W. Deem and Ramdas Pophale) SiO2 
 PCOD8040914
Probable space group: P -1
;
_chemical_formula_sum "Si O2"
_cell_formula_units_Z 16
_cell_length_a 18.602644
_cell_length_b 18.705703
_cell_length_c 11.322779
_cell_angle_alpha 148.095817
_cell_angle_beta 33.534659
_cell_angle_gamma 158.887860
_cell_volume 731.909801
_symmetry_space_group_name_H-M "P -1"
_symmetry_group_IT_number 2
_symmetry_cell_setting 'triclinic'
loop_
_space_group_symop_operation_xyz
x,y,z
-x,-y,-z
loop_
_atom_site_type_symbol
_atom_site_label
_atom_site_fract_x
_atom_site_fract_y
_atom_site_fract_z
Si Si1 0.731482 0.771034 0.360483
Si Si2 0.498879 0.682134 0.978407
Si Si3 0.138536 0.488532 0.581579
Si Si4 0.336932 0.617785 0.730616
Si Si5 0.919601 0.034972 0.256812
Si Si6 0.287546 0.729165 0.183005
Si Si7 0.270943 0.292863 0.475176
Si Si8 0.538900 0.849498 0.402735
O O1 0.564562 0.756031 0.577331
O O2 0.914711 0.962128 0.290737
O O3 0.847277 0.842006 0.429446
O O4 0.620349 0.550245 0.148944
O O5 0.332545 0.636311 0.071622
O O6 0.579695 0.827079 0.184271
O O7 0.701773 0.806835 0.797465
O O8 0.226026 0.599079 0.744858
O O9 0.306439 0.635305 0.455611
O O10 0.954320 0.436378 0.719551
O O11 0.073789 0.282005 0.392218
O O12 0.203625 0.382050 0.633567
O O13 0.357721 0.753888 0.988410
O O14 0.687463 0.891114 0.346742
O O15 0.000000 0.000000 0.000000
O O16 0.415820 0.955116 0.378888
O O17 0.500000 0.500000 0.500000
#
# Coordination Sequence:
#
# PCOD8040914 Si02
#       8
#     2   2   2   2   2   2   2   2
#     4  10  18  39  70  91 122 165 201 267 324 350
#     4  10  19  38  68  92 124 168 207 259 313 371
#     4  11  25  41  61  94 127 168 210 258 307 372
#     4  10  18  40  66  90 128 160 208 264 314 361
#     4  11  25  41  64  98 128 158 213 261 307 382
#     4  11  22  42  63  92 130 163 219 252 300 383
#     4   8  16  33  66  92 115 164 202 260 320 353
#     4  11  25  41  63  91 127 176 204 249 324 366
#
# _framework density 21.860617000000001
#
# number of rings (size 3 to 8) (size 9 to 14) (size 15 to 20)
#    0.000    2.000    5.000    1.500    3.500    2.000 
#    2.250    1.875    0.000    0.000    0.000    0.000 
#    0.000    0.000    0.000    0.000    0.000    0.000 
#
# Total GULP energy -198375.460489 kJ/mol
# GULP energy per Si atom -12398.466281 kJ/mol
# Density = 2.181086 g / cm^3
# Si number density = 21.860617 Si / 1000 Ang^3
#
#
#
# Elastic Constant Matrix: (Units=GPa)
#
#
# Indices 1 2 3 4 5 6 
#
# 1 63.9563 21.6071 20.3011 -6.2437 18.1898 -4.9693
# 2 21.6071 72.2442 41.4062 -12.5995 5.8434 -1.5876
# 3 20.3011 41.4062 148.0557 6.5545 26.7458 -7.3989
# 4 -6.2437 -12.5995 6.5545 24.0293 0.8250 14.7315
# 5 18.1898 5.8434 26.7458 0.8250 42.9315 -3.0896
# 6 -4.9693 -1.5876 -7.3989 14.7315 -3.0896 26.7551
#
#
#
# Elastic Compliance Matrix: (Units=1/GPa)
#
#
# Indices 1 2 3 4 5 6 
#
# 1 0.019774 -0.004963 0.000051 0.001884 -0.007665 0.001470
# 2 -0.004963 0.022822 -0.007689 0.020457 0.002482 -0.012671
# 3 0.000051 -0.007689 0.010730 -0.012054 -0.004809 0.008602
# 4 0.001884 0.020457 -0.012054 0.086562 -0.001305 -0.049582
# 5 -0.007665 0.002482 -0.004809 -0.001305 0.029332 0.001499
# 6 0.001470 -0.012671 0.008602 -0.049582 0.001499 0.066749
#
#
# Mechanical properties :
#
#
# Convention : Reuss Voigt Hill
#
# Bulk Modulus (GPa) = 35.55613 50.09833 42.82723
# Shear Modulus (GPa) = 18.48124 32.13930 25.31027
#
# Velocity S-wave (km/s) = 2.91075 3.83847 3.40634
# Velocity P-wave (km/s) = 5.25327 6.52779 5.92490
#
# Compressibility (1/GPa) = 0.02812455
#
# Stress axis : x y z
#
# Youngs Moduli (GPa) = 50.57100 43.81767 93.19796
#
# Poissons Ratio (x) = 0.21745 -0.00477
# Poissons Ratio (y) = 0.25097 0.71662
# Poissons Ratio (z) = -0.00259 0.33692
#
# Static dielectric constant tensor:
#      x y z
#    x 4.216410 -0.283600 0.357300 
#    y -0.283600 3.729240 -0.029330 
#    z 0.357300 -0.029330 4.069040 
# 
# 
# High freq. dielectric constant tensor:
#      x y z
#    x 1.869580 0.002170 0.009080 
#    y 0.002170 1.835270 -0.001800 
#    z 0.009080 -0.001800 1.867820 
# 
# From -- ./inp_files/472677.got.cif
#   From: 2010.06.25/outbox.cif.g09.slc.cpg/sg2_237_cif.got.tgz:472677.got - 2010.06.27 13:26:56.
