data_PCOD8040279
_publ_section_title
;
Structure prediction by ZEFSAII (Michael W. Deem and Ramdas Pophale) SiO2 
 PCOD8040279
Probable space group: P -1
;
_chemical_formula_sum "Si O2"
_cell_formula_units_Z 16
_cell_length_a 17.436457
_cell_length_b 14.931888
_cell_length_c 14.924405
_cell_angle_alpha 19.625501
_cell_angle_beta 41.650199
_cell_angle_gamma 37.534940
_cell_volume 795.122170
_symmetry_space_group_name_H-M "P -1"
_symmetry_group_IT_number 2
_symmetry_cell_setting 'triclinic'
loop_
_space_group_symop_operation_xyz
x,y,z
-x,-y,-z
loop_
_atom_site_type_symbol
_atom_site_label
_atom_site_fract_x
_atom_site_fract_y
_atom_site_fract_z
Si Si1 0.284869 0.794772 0.534210
Si Si2 0.525588 0.520607 0.671178
Si Si3 0.678164 0.885586 0.210536
Si Si4 0.374100 0.595085 0.896268
Si Si5 0.886933 0.083425 0.589185
Si Si6 0.916355 0.613088 0.150904
Si Si7 0.408491 0.901401 0.729716
Si Si8 0.799595 0.565165 0.920008
O O1 0.433694 0.579038 0.610033
O O2 0.243137 0.806616 0.456301
O O3 0.263214 0.116098 0.283898
O O4 0.201721 0.670059 0.784412
O O5 0.631899 0.640304 0.448564
O O6 0.422489 0.712119 0.656148
O O7 0.587377 0.183745 0.961457
O O8 0.820786 0.799907 0.135222
O O9 0.677857 0.879542 0.325581
O O10 0.505382 0.373814 0.029588
O O11 0.275297 0.458132 0.082598
O O12 0.317749 0.835612 0.797918
O O13 0.888547 0.330490 0.421648
O O14 0.000000 0.000000 0.500000
O O15 0.897019 0.799973 0.901794
O O16 0.057025 0.513760 0.159668
O O17 0.500000 0.000000 0.500000
#
# Coordination Sequence:
#
# PCOD8040279 Si02
#       8
#     2   2   2   2   2   2   2   2
#     4  11  21  36  64  89 113 149 204 261 286 334
#     4  10  20  38  58  88 117 154 197 244 299 341
#     4  11  23  39  59  84 129 160 190 236 305 365
#     4   9  20  32  59  91 112 148 199 251 284 339
#     4  12  22  41  63  89 116 154 212 245 286 350
#     4  12  24  40  59  89 123 163 191 242 305 355
#     4  10  18  36  60  88 115 152 201 243 286 343
#     4  11  21  36  58  90 122 147 197 249 299 340
#
# _framework density 20.122693999999999
#
# number of rings (size 3 to 8) (size 9 to 14) (size 15 to 20)
#    0.000    1.250    3.750    4.125    1.750    0.000 
#    0.000    4.375    0.000    0.750    0.000    0.000 
#    0.000    0.000    0.000    0.000    0.000    0.000 
#
# Total GULP energy -198313.233765 kJ/mol
# GULP energy per Si atom -12394.577110 kJ/mol
# Density = 2.007689 g / cm^3
# Si number density = 20.122694 Si / 1000 Ang^3
#
#
#
# Elastic Constant Matrix: (Units=GPa)
#
#
# Indices 1 2 3 4 5 6 
#
# 1 104.0856 18.8674 14.8226 -3.5091 -23.8858 -2.3533
# 2 18.8674 86.1040 6.5834 10.5850 -7.8699 -1.1142
# 3 14.8226 6.5834 83.4240 -2.7091 -9.8350 0.5064
# 4 -3.5091 10.5850 -2.7091 23.5611 -0.4248 -2.7440
# 5 -23.8858 -7.8699 -9.8350 -0.4248 31.0824 -0.3475
# 6 -2.3533 -1.1142 0.5064 -2.7440 -0.3475 21.9367
#
#
#
# Elastic Compliance Matrix: (Units=1/GPa)
#
#
# Indices 1 2 3 4 5 6 
#
# 1 0.012257 -0.002181 -0.000898 0.003061 0.008644 0.001745
# 2 -0.002181 0.013032 -0.000687 -0.006272 0.001317 -0.000320
# 3 -0.000898 -0.000687 0.012627 0.001665 0.003152 -0.000165
# 4 0.003061 -0.006272 0.001665 0.046623 0.001994 0.005835
# 5 0.008644 0.001317 0.003152 0.001994 0.040194 0.001807
# 6 0.001745 -0.000320 -0.000165 0.005835 0.001807 0.046519
#
#
# Mechanical properties :
#
#
# Convention : Reuss Voigt Hill
#
# Bulk Modulus (GPa) = 32.91210 39.35114 36.13162
# Shear Modulus (GPa) = 26.46733 30.87203 28.66968
#
# Velocity S-wave (km/s) = 3.63064 3.92112 3.77867
# Velocity P-wave (km/s) = 5.82809 6.33232 6.08543
#
# Compressibility (1/GPa) = 0.03038397
#
# Stress axis : x y z
#
# Youngs Moduli (GPa) = 81.58622 76.73696 79.19261
#
# Poissons Ratio (x) = 0.16735 0.07110
# Poissons Ratio (y) = 0.17792 0.05444
# Poissons Ratio (z) = 0.07325 0.05275
#
# Static dielectric constant tensor:
#      x y z
#    x -30.630220 -5.654990 -14.909730 
#    y -5.654990 2.638790 -2.549150 
#    z -14.909730 -2.549150 -2.677560 
# 
# 
# High freq. dielectric constant tensor:
#      x y z
#    x 1.787930 0.002640 -0.003010 
#    y 0.002640 1.754090 -0.003750 
#    z -0.003010 -0.003750 1.797110 
# 
# From -- ./inp_files/99539.got.cif
#   From: 2010.06.25/outbox.cif.g09.slc.cpg/sg2_50_cif.got.tgz:99539.got - 2010.06.27 13:26:56.
