data_PCOD8040730
_publ_section_title
;
Structure prediction by ZEFSAII (Michael W. Deem and Ramdas Pophale) SiO2 
 PCOD8040730
Probable space group: P -1
;
_chemical_formula_sum "Si O2"
_cell_formula_units_Z 16
_cell_length_a 12.003116
_cell_length_b 20.831694
_cell_length_c 9.344664
_cell_angle_alpha 149.466347
_cell_angle_beta 129.637433
_cell_angle_gamma 41.437653
_cell_volume 785.411188
_symmetry_space_group_name_H-M "P -1"
_symmetry_group_IT_number 2
_symmetry_cell_setting 'triclinic'
loop_
_space_group_symop_operation_xyz
x,y,z
-x,-y,-z
loop_
_atom_site_type_symbol
_atom_site_label
_atom_site_fract_x
_atom_site_fract_y
_atom_site_fract_z
Si Si1 0.085478 0.855236 0.015331
Si Si2 0.312347 0.187817 0.467738
Si Si3 0.913936 0.831970 0.562789
Si Si4 0.423905 0.856885 0.888876
Si Si5 0.872396 0.180758 0.527382
Si Si6 0.087017 0.657611 0.873292
Si Si7 0.615113 0.135710 0.810151
Si Si8 0.748105 0.674412 0.620320
O O1 0.062850 0.734260 0.847244
O O2 0.986886 0.896738 0.864158
O O3 0.284347 0.786493 0.015170
O O4 0.008797 0.008441 0.333361
O O5 0.151956 0.265387 0.596232
O O6 0.479760 0.159971 0.628016
O O7 0.278854 0.291193 0.504127
O O8 0.329779 0.033646 0.136972
O O9 0.059046 0.750253 0.405009
O O10 0.748739 0.962966 0.603630
O O11 0.306789 0.797732 0.619591
O O12 0.591239 0.791764 0.807810
O O13 0.471385 0.802707 0.988047
O O14 0.846425 0.268022 0.819309
O O15 0.225757 0.486254 0.643458
O O16 0.909276 0.679289 0.819488
#
# Coordination Sequence:
#
# PCOD8040730 Si02
#       8
#     2   2   2   2   2   2   2   2
#     4  11  19  40  65  90 121 154 197 247 293 355
#     4  11  22  38  64  93 121 157 193 245 303 351
#     4  10  18  38  62  92 124 147 191 254 296 352
#     4  11  21  39  63  94 121 149 195 256 298 347
#     4  11  21  37  66  94 116 151 201 249 300 346
#     4  11  26  43  60  83 119 170 201 238 294 354
#     4  10  21  35  62  99 121 148 191 250 310 345
#     4  11  26  44  57  83 127 161 202 242 290 358
#
# _framework density 20.371494999999999
#
# number of rings (size 3 to 8) (size 9 to 14) (size 15 to 20)
#    0.000    1.250    5.000    3.000    7.000    0.500 
#    0.000    2.500    0.000    0.000    0.000    0.000 
#    0.000    0.000    0.000    0.000    0.000    0.000 
#
# Total GULP energy -198371.599503 kJ/mol
# GULP energy per Si atom -12398.224969 kJ/mol
# Density = 2.032513 g / cm^3
# Si number density = 20.371495 Si / 1000 Ang^3
#
#
#
# Elastic Constant Matrix: (Units=GPa)
#
#
# Indices 1 2 3 4 5 6 
#
# 1 91.5326 6.2679 -8.5585 13.3824 0.8605 -3.2741
# 2 6.2679 53.8643 22.9173 -7.6675 1.5853 -0.0496
# 3 -8.5585 22.9173 35.2277 -7.6895 9.4800 6.0174
# 4 13.3824 -7.6675 -7.6895 31.0263 -1.6711 11.6146
# 5 0.8605 1.5853 9.4800 -1.6711 19.8292 -7.7813
# 6 -3.2741 -0.0496 6.0174 11.6146 -7.7813 30.7048
#
#
#
# Elastic Compliance Matrix: (Units=1/GPa)
#
#
# Indices 1 2 3 4 5 6 
#
# 1 0.012686 -0.004294 0.004642 -0.006363 -0.002051 0.002323
# 2 -0.004294 0.029226 -0.024377 0.001038 0.012382 0.007112
# 3 0.004642 -0.024377 0.064069 0.016264 -0.038504 -0.028010
# 4 -0.006363 0.001038 0.016264 0.048071 -0.013528 -0.025476
# 5 -0.002051 0.012382 -0.038504 -0.013528 0.079606 0.032639
# 6 0.002323 0.007112 -0.028010 -0.025476 0.032639 0.056225
#
#
# Mechanical properties :
#
#
# Convention : Reuss Voigt Hill
#
# Bulk Modulus (GPa) = 17.26427 24.65312 20.95870
# Shear Modulus (GPa) = 13.99586 26.97856 20.48721
#
# Velocity S-wave (km/s) = 2.62397 3.64308 3.17469
# Velocity P-wave (km/s) = 4.20398 5.46114 4.87327
#
# Compressibility (1/GPa) = 0.05792311
#
# Stress axis : x y z
#
# Youngs Moduli (GPa) = 78.82843 34.21585 15.60810
#
# Poissons Ratio (x) = 0.14694 -0.07245
# Poissons Ratio (y) = 0.33852 0.38047
# Poissons Ratio (z) = -0.36593 0.83407
#
# Static dielectric constant tensor:
#      x y z
#    x 4.145880 0.015280 0.107220 
#    y 0.015280 3.473270 -0.188410 
#    z 0.107220 -0.188410 3.330400 
# 
# 
# High freq. dielectric constant tensor:
#      x y z
#    x 1.821880 -0.000390 0.008950 
#    y -0.000390 1.780110 -0.031260 
#    z 0.008950 -0.031260 1.761980 
# 
# From -- ./inp_files/204189.got.cif
#   From: 2010.06.25/outbox.cif.g09.slc.cpg/sg2_103_cif.got.tgz:204189.got - 2010.06.27 13:26:56.
