data_PCOD8040074
_publ_section_title
;
Structure prediction by ZEFSAII (Michael W. Deem and Ramdas Pophale) SiO2 
 PCOD8040074
Probable space group: P -1
;
_chemical_formula_sum "Si O2"
_cell_formula_units_Z 16
_cell_length_a 13.146894
_cell_length_b 23.993047
_cell_length_c 9.433819
_cell_angle_alpha 138.324610
_cell_angle_beta 131.556739
_cell_angle_gamma 24.303440
_cell_volume 812.689986
_symmetry_space_group_name_H-M "P -1"
_symmetry_group_IT_number 2
_symmetry_cell_setting 'triclinic'
loop_
_space_group_symop_operation_xyz
x,y,z
-x,-y,-z
loop_
_atom_site_type_symbol
_atom_site_label
_atom_site_fract_x
_atom_site_fract_y
_atom_site_fract_z
Si Si1 0.959544 0.369448 0.385287
Si Si2 0.250237 0.702396 0.013070
Si Si3 0.101660 0.248721 0.587313
Si Si4 0.762086 0.043436 0.226284
Si Si5 0.507648 0.922612 0.749439
Si Si6 0.462753 0.955979 0.211589
Si Si7 0.438037 0.671835 0.415855
Si Si8 0.623842 0.445471 0.660780
O O1 0.731622 0.544827 0.455116
O O2 0.980821 0.363869 0.565806
O O3 0.220857 0.261766 0.353551
O O4 0.902657 0.304745 0.155066
O O5 0.385585 0.642380 0.174216
O O6 0.464217 0.594932 0.887682
O O7 0.050210 0.879818 0.146948
O O8 0.322509 0.184981 0.750439
O O9 0.901722 0.334525 0.687632
O O10 0.211078 0.105453 0.350462
O O11 0.691752 0.044111 0.320379
O O12 0.726620 0.160718 0.415137
O O13 0.585075 0.091732 0.037458
O O14 0.454772 0.995914 0.689657
O O15 0.500000 0.000000 0.000000
O O16 0.370952 0.648601 0.442647
O O17 0.500000 0.500000 0.500000
#
# Coordination Sequence:
#
# PCOD8040074 Si02
#       8
#     2   2   2   2   2   2   2   2
#     4  10  18  38  58  84 112 140 199 240 267 339
#     4  11  21  38  57  84 118 151 192 231 273 348
#     4  10  18  35  63  85 108 142 204 232 279 328
#     4  11  21  39  54  84 121 147 184 240 288 331
#     4   9  17  32  61  78 107 148 187 231 282 326
#     4   9  19  35  61  88 107 147 193 242 271 341
#     4  11  25  35  57  85 123 150 184 236 291 330
#     4  11  20  38  64  83 111 156 191 232 279 338
#
# _framework density 19.687704
#
# number of rings (size 3 to 8) (size 9 to 14) (size 15 to 20)
#    0.000    1.750    6.250    1.875    1.750    2.500 
#    0.000    3.125    5.500    0.000    0.000    0.000 
#    0.000    0.000    0.000    0.000    0.000    0.000 
#
# Total GULP energy -198289.270312 kJ/mol
# GULP energy per Si atom -12393.079394 kJ/mol
# Density = 1.964289 g / cm^3
# Si number density = 19.687704 Si / 1000 Ang^3
#
#
#
# Elastic Constant Matrix: (Units=GPa)
#
#
# Indices 1 2 3 4 5 6 
#
# 1 83.5592 37.3973 45.9183 15.6839 -23.6218 -4.9279
# 2 37.3973 100.0788 33.4559 4.9789 -8.2855 2.6913
# 3 45.9183 33.4559 76.4525 4.5195 -15.2847 6.0359
# 4 15.6839 4.9789 4.5195 47.6807 -0.4670 -8.8535
# 5 -23.6218 -8.2855 -15.2847 -0.4670 23.7673 6.8671
# 6 -4.9279 2.6913 6.0359 -8.8535 6.8671 30.4766
#
#
#
# Elastic Compliance Matrix: (Units=1/GPa)
#
#
# Indices 1 2 3 4 5 6 
#
# 1 0.025369 -0.004580 -0.009426 -0.006705 0.017269 0.000535
# 2 -0.004580 0.012584 -0.003113 0.000339 -0.001959 -0.000695
# 3 -0.009426 -0.003113 0.021717 0.000171 0.005460 -0.006731
# 4 -0.006705 0.000339 0.000171 0.024498 -0.008213 0.007819
# 5 0.017269 -0.001959 0.005460 -0.008213 0.066371 -0.015457
# 6 0.000535 -0.000695 -0.006731 0.007819 -0.015457 0.040047
#
#
# Mechanical properties :
#
#
# Convention : Reuss Voigt Hill
#
# Bulk Modulus (GPa) = 39.32099 54.84817 47.08458
# Shear Modulus (GPa) = 21.43153 29.93952 25.68553
#
# Velocity S-wave (km/s) = 3.30293 3.90387 3.61591
# Velocity P-wave (km/s) = 5.87891 6.94549 6.43434
#
# Compressibility (1/GPa) = 0.02543171
#
# Stress axis : x y z
#
# Youngs Moduli (GPa) = 39.41791 79.46755 46.04750
#
# Poissons Ratio (x) = 0.36395 0.43405
# Poissons Ratio (y) = 0.18053 0.14334
# Poissons Ratio (z) = 0.37156 0.24737
#
# Static dielectric constant tensor:
#      x y z
#    x 4.564500 0.012590 -0.792440 
#    y 0.012590 4.200140 -0.182040 
#    z -0.792440 -0.182040 3.664930 
# 
# 
# High freq. dielectric constant tensor:
#      x y z
#    x 1.734910 -0.011490 -0.035070 
#    y -0.011490 1.785200 -0.004890 
#    z -0.035070 -0.004890 1.751520 
# 
# From -- ./inp_files/283263.got.cif
#   From: 2010.06.25/outbox.cif.g09.slc.cpg/sg2_142_cif.got.tgz:283263.got - 2010.06.27 13:26:56.
