data_PCOD8040416
_publ_section_title
;
Structure prediction by ZEFSAII (Michael W. Deem and Ramdas Pophale) SiO2 
 PCOD8040416
Probable space group: P -1
;
_chemical_formula_sum "Si O2"
_cell_formula_units_Z 16
_cell_length_a 12.001272
_cell_length_b 10.074746
_cell_length_c 14.922709
_cell_angle_alpha 44.262261
_cell_angle_beta 140.987705
_cell_angle_gamma 131.467490
_cell_volume 769.413827
_symmetry_space_group_name_H-M "P -1"
_symmetry_group_IT_number 2
_symmetry_cell_setting 'triclinic'
loop_
_space_group_symop_operation_xyz
x,y,z
-x,-y,-z
loop_
_atom_site_type_symbol
_atom_site_label
_atom_site_fract_x
_atom_site_fract_y
_atom_site_fract_z
Si Si1 0.615733 0.243630 0.226570
Si Si2 0.897162 0.016367 0.518919
Si Si3 0.884312 0.661780 0.366775
Si Si4 0.887203 0.314983 0.917160
Si Si5 0.234139 0.126608 0.974960
Si Si6 0.498056 0.400664 0.251526
Si Si7 0.208069 0.326403 0.245126
Si Si8 0.814301 0.574595 0.076827
O O1 0.558556 0.251197 0.291719
O O2 0.768445 0.442051 0.201458
O O3 0.702690 0.060974 0.353937
O O4 0.449572 0.231865 0.059448
O O5 0.844783 0.810710 0.636158
O O6 0.000000 0.000000 0.500000
O O7 0.019624 0.193006 0.566509
O O8 0.872941 0.799438 0.208079
O O9 0.678388 0.559218 0.318768
O O10 0.000000 0.500000 0.500000
O O11 0.757689 0.444503 0.814606
O O12 0.995748 0.440644 0.841287
O O13 0.033942 0.271310 0.099127
O O14 0.773388 0.103285 0.917140
O O15 0.158649 0.197440 0.986637
O O16 0.391194 0.296199 0.324014
O O17 0.349720 0.496038 0.062924
#
# Coordination Sequence:
#
# PCOD8040416 Si02
#       8
#     2   2   2   2   2   2   2   2
#     4  11  21  40  65  97 129 167 204 268 327 376
#     4  12  26  44  64  93 134 171 214 265 329 380
#     4  12  22  42  68  98 126 165 220 266 313 387
#     4  10  21  38  61  94 126 170 211 261 315 381
#     4  11  20  38  65  97 124 161 222 257 314 391
#     4  10  20  39  65  93 129 161 213 265 319 376
#     4  10  23  41  61  88 131 171 213 262 322 375
#     4  10  18  36  65  96 132 155 207 267 321 372
#
# _framework density 20.795051000000001
#
# number of rings (size 3 to 8) (size 9 to 14) (size 15 to 20)
#    0.000    1.250    5.000    1.875    0.000    1.500 
#    0.000    5.000    0.000    0.000    0.000    0.000 
#    0.000    0.000    0.000    0.000    0.000    0.000 
#
# Total GULP energy -198288.308807 kJ/mol
# GULP energy per Si atom -12393.019300 kJ/mol
# Density = 2.074772 g / cm^3
# Si number density = 20.795051 Si / 1000 Ang^3
#
#
#
# Elastic Constant Matrix: (Units=GPa)
#
#
# Indices 1 2 3 4 5 6 
#
# 1 155.6900 36.4199 40.5629 -15.3333 -5.8476 -0.5480
# 2 36.4199 101.2775 25.9049 -8.3317 -5.4733 -6.6805
# 3 40.5629 25.9049 68.4771 -2.6638 0.2768 -3.7240
# 4 -15.3333 -8.3317 -2.6638 27.4997 -1.5272 -2.1250
# 5 -5.8476 -5.4733 0.2768 -1.5272 24.0345 -4.5349
# 6 -0.5480 -6.6805 -3.7240 -2.1250 -4.5349 29.1494
#
#
#
# Elastic Compliance Matrix: (Units=1/GPa)
#
#
# Indices 1 2 3 4 5 6 
#
# 1 0.008331 -0.001498 -0.004233 0.003879 0.001955 -0.000141
# 2 -0.001498 0.011864 -0.003342 0.002837 0.003114 0.002955
# 3 -0.004233 -0.003342 0.018380 -0.001614 -0.001900 0.001089
# 4 0.003879 0.002837 -0.001614 0.039828 0.004929 0.004187
# 5 0.001955 0.003114 -0.001900 0.004929 0.044599 0.007806
# 6 -0.000141 0.002955 0.001089 0.004187 0.007806 0.036639
#
#
# Mechanical properties :
#
#
# Convention : Reuss Voigt Hill
#
# Bulk Modulus (GPa) = 48.95219 59.02445 53.98832
# Shear Modulus (GPa) = 27.08603 30.97385 29.02994
#
# Velocity S-wave (km/s) = 3.61296 3.86357 3.74036
# Velocity P-wave (km/s) = 6.40282 6.95330 6.68373
#
# Compressibility (1/GPa) = 0.02042809
#
# Stress axis : x y z
#
# Youngs Moduli (GPa) = 120.03044 84.28884 54.40838
#
# Poissons Ratio (x) = 0.12624 0.23032
# Poissons Ratio (y) = 0.17977 0.18186
# Poissons Ratio (z) = 0.50810 0.28173
#
# Static dielectric constant tensor:
#      x y z
#    x 3.853410 -0.061050 0.075650 
#    y -0.061050 3.779410 0.049530 
#    z 0.075650 0.049530 3.639690 
# 
# 
# High freq. dielectric constant tensor:
#      x y z
#    x 1.817280 -0.003440 0.003560 
#    y -0.003440 1.807620 0.003410 
#    z 0.003560 0.003410 1.798800 
# 
# From -- ./inp_files/206443.got.cif
#   From: 2010.06.25/outbox.cif.g09.slc.cpg/sg2_104_cif.got.tgz:206443.got - 2010.06.27 13:26:56.
