data_PCOD8040781
_publ_section_title
;
Structure prediction by ZEFSAII (Michael W. Deem and Ramdas Pophale) SiO2 
 PCOD8040781
Probable space group: P -1
;
_chemical_formula_sum "Si O2"
_cell_formula_units_Z 14
_cell_length_a 19.342985
_cell_length_b 12.927783
_cell_length_c 16.037971
_cell_angle_alpha 26.395169
_cell_angle_beta 158.066979
_cell_angle_gamma 154.489222
_cell_volume 600.886828
_symmetry_space_group_name_H-M "P -1"
_symmetry_group_IT_number 2
_symmetry_cell_setting 'triclinic'
loop_
_space_group_symop_operation_xyz
x,y,z
-x,-y,-z
loop_
_atom_site_type_symbol
_atom_site_label
_atom_site_fract_x
_atom_site_fract_y
_atom_site_fract_z
Si Si1 0.220153 0.022000 0.652105
Si Si2 0.703672 0.437419 0.146097
Si Si3 0.723725 0.444538 0.649595
Si Si4 0.953309 0.442418 0.753047
Si Si5 0.831163 0.335590 0.521685
Si Si6 0.566387 0.064232 0.890128
Si Si7 0.290156 0.249178 0.220162
O O1 0.144644 0.247819 0.411620
O O2 0.397697 0.120081 0.710598
O O3 0.040899 0.751081 0.620304
O O4 0.297062 0.998160 0.846817
O O5 0.693204 0.436591 0.237084
O O6 0.930663 0.460726 0.364333
O O7 0.535028 0.168822 0.119064
O O8 0.674845 0.666551 0.899812
O O9 0.838933 0.343714 0.784117
O O10 0.712409 0.311781 0.821466
O O11 0.497140 0.385558 0.405477
O O12 0.780305 0.325643 0.570467
O O13 0.132159 0.347827 0.012847
O O14 0.801268 0.057260 0.655449
#
# Coordination Sequence:
#
# PCOD8040781 Si02
#       7
#     2   2   2   2   2   2   2
#     4  11  22  44  65  90 136 171 211 270 318 379
#     4  10  18  38  66  95 123 168 220 254 314 394
#     4  12  25  41  68 100 128 171 217 264 326 377
#     4  11  24  43  66  99 133 167 216 267 318 389
#     4  10  21  39  68  93 129 171 211 263 323 379
#     4  11  21  41  68  97 126 171 221 263 315 391
#     4  11  21  43  68  90 132 171 211 264 321 376
#
# _framework density 23.298895000000002
#
# number of rings (size 3 to 8) (size 9 to 14) (size 15 to 20)
#    0.000    1.143    5.714    3.429    0.000    1.143 
#    0.000    9.286    0.000    0.000    0.000    0.000 
#    0.000    0.000    0.000    0.000    0.000    0.000 
#
# Total GULP energy -173543.882605 kJ/mol
# GULP energy per Si atom -12395.991615 kJ/mol
# Density = 2.324587 g / cm^3
# Si number density = 23.298895 Si / 1000 Ang^3
#
#
#
# Elastic Constant Matrix: (Units=GPa)
#
#
# Indices 1 2 3 4 5 6 
#
# 1 118.6652 38.5689 29.8058 -19.4178 -10.7372 7.6981
# 2 38.5689 73.1427 26.8675 -0.3816 -6.1552 -10.9952
# 3 29.8058 26.8675 36.0925 -16.5296 -5.8124 12.3579
# 4 -19.4178 -0.3816 -16.5296 20.9018 4.5379 -10.6428
# 5 -10.7372 -6.1552 -5.8124 4.5379 28.7101 -0.1332
# 6 7.6981 -10.9952 12.3579 -10.6428 -0.1332 22.8833
#
#
#
# Elastic Compliance Matrix: (Units=1/GPa)
#
#
# Indices 1 2 3 4 5 6 
#
# 1 0.012640 -0.007757 0.001875 0.010656 0.001741 -0.004026
# 2 -0.007757 0.040886 -0.048456 -0.026483 0.000408 0.036108
# 3 0.001875 -0.048456 0.107963 0.057343 0.002849 -0.055532
# 4 0.010656 -0.026483 0.057343 0.104765 -0.006636 0.001410
# 5 0.001741 0.000408 0.002849 -0.006636 0.037173 -0.004798
# 6 -0.004026 0.036108 -0.055532 0.001410 -0.004798 0.093021
#
#
# Mechanical properties :
#
#
# Convention : Reuss Voigt Hill
#
# Bulk Modulus (GPa) = 18.93466 46.48720 32.71093
# Shear Modulus (GPa) = 9.56522 23.34291 16.45407
#
# Velocity S-wave (km/s) = 2.02839 3.16870 2.66036
# Velocity P-wave (km/s) = 3.69192 5.77783 4.84838
#
# Compressibility (1/GPa) = 0.05281321
#
# Stress axis : x y z
#
# Youngs Moduli (GPa) = 79.11674 24.45849 9.26242
#
# Poissons Ratio (x) = 0.18972 -0.01737
# Poissons Ratio (y) = 0.61370 0.44882
# Poissons Ratio (z) = -0.14835 1.18515
#
# Static dielectric constant tensor:
#      x y z
#    x 4.453420 -0.152290 -0.495200 
#    y -0.152290 4.268570 0.046940 
#    z -0.495200 0.046940 4.115490 
# 
# 
# High freq. dielectric constant tensor:
#      x y z
#    x 1.918600 -0.005400 -0.029590 
#    y -0.005400 1.928670 0.000490 
#    z -0.029590 0.000490 1.902590 
# 
# From -- ./inp_files/538166.got.cif
#   From: 2010.06.25/outbox.cif.g09.slc.cpg/sg2_270_cif.got.tgz:538166.got - 2010.06.27 13:26:56.
