data_PCOD8040058
_publ_section_title
;
Structure prediction by ZEFSAII (Michael W. Deem and Ramdas Pophale) SiO2 
 PCOD8040058
Probable space group: P -1
;
_chemical_formula_sum "Si O2"
_cell_formula_units_Z 16
_cell_length_a 9.414584
_cell_length_b 11.081172
_cell_length_c 13.814385
_cell_angle_alpha 119.409527
_cell_angle_beta 82.247653
_cell_angle_gamma 138.351184
_cell_volume 764.383476
_symmetry_space_group_name_H-M "P -1"
_symmetry_group_IT_number 2
_symmetry_cell_setting 'triclinic'
loop_
_space_group_symop_operation_xyz
x,y,z
-x,-y,-z
loop_
_atom_site_type_symbol
_atom_site_label
_atom_site_fract_x
_atom_site_fract_y
_atom_site_fract_z
Si Si1 0.014592 0.636573 0.244394
Si Si2 0.199952 0.539509 0.608117
Si Si3 0.015137 0.326038 0.341576
Si Si4 0.631550 0.806449 0.143644
Si Si5 0.704965 0.990688 0.790683
Si Si6 0.259032 0.544585 0.214594
Si Si7 0.047865 0.141868 0.965800
Si Si8 0.263542 0.695892 0.014011
O O1 0.123763 0.841748 0.249480
O O2 0.215092 0.672486 0.246807
O O3 0.941691 0.633811 0.356474
O O4 0.772731 0.386104 0.124792
O O5 0.126203 0.395155 0.464505
O O6 0.139169 0.654116 0.645033
O O7 0.477578 0.738941 0.673459
O O8 0.226520 0.489401 0.309248
O O9 0.855741 0.074754 0.232630
O O10 0.523630 0.707795 0.222826
O O11 0.424586 0.708150 0.057755
O O12 0.717318 0.725698 0.060246
O O13 0.628790 0.069023 0.890356
O O14 0.835133 0.983867 0.847540
O O15 0.079295 0.318123 0.077066
O O16 0.000000 0.000000 0.000000
O O17 0.000000 0.500000 0.000000
#
# Coordination Sequence:
#
# PCOD8040058 Si02
#       8
#     2   2   2   2   2   2   2   2
#     4  10  20  36  64  95 121 155 206 252 304 366
#     4  10  22  37  64  92 122 161 206 261 301 350
#     4  10  22  39  60  97 122 155 215 252 303 359
#     4  12  22  40  63  88 129 165 193 256 312 360
#     4  11  21  41  61  90 127 161 204 253 303 365
#     4  11  20  39  64  89 126 162 198 249 310 365
#     4  12  26  40  60  97 129 161 202 244 315 384
#     4  10  18  35  62  91 118 152 200 248 306 366
#
# _framework density 20.931902000000001
#
# number of rings (size 3 to 8) (size 9 to 14) (size 15 to 20)
#    0.000    1.250    6.250    1.125    1.750    1.500 
#    0.000    4.375    0.000    1.500    0.000    0.000 
#    0.000    0.000    0.000    0.000    0.000    0.000 
#
# Total GULP energy -198379.311992 kJ/mol
# GULP energy per Si atom -12398.706999 kJ/mol
# Density = 2.088426 g / cm^3
# Si number density = 20.931902 Si / 1000 Ang^3
#
#
#
# Elastic Constant Matrix: (Units=GPa)
#
#
# Indices 1 2 3 4 5 6 
#
# 1 74.6954 31.1136 31.9291 -12.9162 18.2309 11.0892
# 2 31.1136 108.6477 37.4410 -26.6626 13.4341 2.1350
# 3 31.9291 37.4410 93.1283 -27.9118 18.4609 9.1696
# 4 -12.9162 -26.6626 -27.9118 35.2899 0.5257 0.2381
# 5 18.2309 13.4341 18.4609 0.5257 25.6341 -1.6572
# 6 11.0892 2.1350 9.1696 0.2381 -1.6572 28.6321
#
#
#
# Elastic Compliance Matrix: (Units=1/GPa)
#
#
# Indices 1 2 3 4 5 6 
#
# 1 0.020020 -0.002418 -0.001111 0.004867 -0.012788 -0.007998
# 2 -0.002418 0.012759 -0.001031 0.008005 -0.004389 -0.000006
# 3 -0.001111 -0.001031 0.018960 0.014048 -0.013028 -0.006436
# 4 0.004867 0.008005 0.014048 0.047622 -0.019299 -0.008494
# 5 -0.012788 -0.004389 -0.013028 -0.019299 0.061034 0.013146
# 6 -0.007998 -0.000006 -0.006436 -0.008494 0.013146 0.040917
#
#
# Mechanical properties :
#
#
# Convention : Reuss Voigt Hill
#
# Bulk Modulus (GPa) = 23.46307 53.04874 38.25590
# Shear Modulus (GPa) = 22.25827 29.64372 25.95100
#
# Velocity S-wave (km/s) = 3.26447 3.76732 3.52487
# Velocity P-wave (km/s) = 5.04406 6.65749 5.90613
#
# Compressibility (1/GPa) = 0.04262017
#
# Stress axis : x y z
#
# Youngs Moduli (GPa) = 49.95112 78.37635 52.74328
#
# Poissons Ratio (x) = 0.18948 0.05858
# Poissons Ratio (y) = 0.12076 0.05437
# Poissons Ratio (z) = 0.05548 0.08079
#
# Static dielectric constant tensor:
#      x y z
#    x 3.571050 0.054700 0.031290 
#    y 0.054700 3.856120 -0.246450 
#    z 0.031290 -0.246450 3.987070 
# 
# 
# High freq. dielectric constant tensor:
#      x y z
#    x 1.794810 0.003900 0.006290 
#    y 0.003900 1.823530 -0.012710 
#    z 0.006290 -0.012710 1.807110 
# 
# From -- ./inp_files/499308.got.cif
#   From: 2010.06.25/outbox.cif.g09.slc.cpg/sg2_250_cif.got.tgz:499308.got - 2010.06.27 13:26:56.
