data_PCOD8040880
_publ_section_title
;
Structure prediction by ZEFSAII (Michael W. Deem and Ramdas Pophale) SiO2 
 PCOD8040880
Probable space group: P -1
;
_chemical_formula_sum "Si O2"
_cell_formula_units_Z 16
_cell_length_a 16.858410
_cell_length_b 10.825121
_cell_length_c 19.136620
_cell_angle_alpha 145.099159
_cell_angle_beta 23.816601
_cell_angle_gamma 144.081089
_cell_volume 779.620375
_symmetry_space_group_name_H-M "P -1"
_symmetry_group_IT_number 2
_symmetry_cell_setting 'triclinic'
loop_
_space_group_symop_operation_xyz
x,y,z
-x,-y,-z
loop_
_atom_site_type_symbol
_atom_site_label
_atom_site_fract_x
_atom_site_fract_y
_atom_site_fract_z
Si Si1 0.095997 0.910662 0.526846
Si Si2 0.942259 0.077125 0.280495
Si Si3 0.661835 0.114275 0.806550
Si Si4 0.237578 0.543633 0.427237
Si Si5 0.986900 0.676903 0.280778
Si Si6 0.627167 0.624199 0.891061
Si Si7 0.880748 0.577303 0.068660
Si Si8 0.583665 0.618354 0.662307
O O1 0.159684 0.964281 0.580106
O O2 0.297841 0.936647 0.330399
O O3 0.959962 0.662433 0.509114
O O4 0.976643 0.088898 0.680158
O O5 0.824339 0.226385 0.400148
O O6 0.175939 0.208265 0.158583
O O7 0.927993 0.843561 0.146352
O O8 0.861435 0.281327 0.756204
O O9 0.603905 0.878807 0.784988
O O10 0.479570 0.231408 0.006506
O O11 0.326860 0.560331 0.284127
O O12 0.396700 0.512052 0.342705
O O13 0.755450 0.589147 0.454890
O O14 0.045020 0.499963 0.100294
O O15 0.500000 0.500000 0.000000
O O16 0.641241 0.482426 0.233191
O O17 0.000000 0.500000 0.000000
#
# Coordination Sequence:
#
# PCOD8040880 Si02
#       8
#     2   2   2   2   2   2   2   2
#     4  10  18  39  66  94 126 162 202 275 318 360
#     4  11  24  42  61  90 136 173 205 259 320 385
#     4  11  20  38  68 101 127 153 220 276 317 365
#     4  11  21  40  66  90 130 164 213 269 320 371
#     4  11  22  41  69  98 130 164 212 274 318 371
#     4  11  23  38  65 101 124 165 216 268 327 371
#     4  12  26  45  62  93 135 171 217 257 315 399
#     4  11  24  41  68  98 125 174 213 263 327 373
#
# _framework density 20.52281
#
# number of rings (size 3 to 8) (size 9 to 14) (size 15 to 20)
#    0.000    1.000    3.750    5.250    1.750    2.000 
#    4.500    0.625    0.000    0.000    0.000    0.000 
#    0.000    0.000    0.000    0.000    0.000    0.000 
#
# Total GULP energy -198413.951574 kJ/mol
# GULP energy per Si atom -12400.871973 kJ/mol
# Density = 2.047610 g / cm^3
# Si number density = 20.522810 Si / 1000 Ang^3
#
#
#
# Elastic Constant Matrix: (Units=GPa)
#
#
# Indices 1 2 3 4 5 6 
#
# 1 90.3319 50.5361 44.8381 -1.9449 -8.1289 -5.4172
# 2 50.5361 107.7622 73.4668 13.5280 0.5924 -1.8724
# 3 44.8381 73.4668 119.0956 9.7841 -11.3690 3.4223
# 4 -1.9449 13.5280 9.7841 44.3808 1.3422 -5.5448
# 5 -8.1289 0.5924 -11.3690 1.3422 38.7425 0.9001
# 6 -5.4172 -1.8724 3.4223 -5.5448 0.9001 29.7120
#
#
#
# Elastic Compliance Matrix: (Units=1/GPa)
#
#
# Indices 1 2 3 4 5 6 
#
# 1 0.016373 -0.006532 -0.002271 0.003556 0.002666 0.003418
# 2 -0.006532 0.019442 -0.009649 -0.003884 -0.004378 0.000554
# 3 -0.002271 -0.009649 0.015815 -0.001178 0.004427 -0.003198
# 4 0.003556 -0.003884 -0.001178 0.024795 -0.000520 0.005182
# 5 0.002666 -0.004378 0.004427 -0.000520 0.027784 -0.001238
# 6 0.003418 0.000554 -0.003198 0.005182 -0.001238 0.035687
#
#
# Mechanical properties :
#
#
# Convention : Reuss Voigt Hill
#
# Bulk Modulus (GPa) = 67.90125 72.76355 70.33240
# Shear Modulus (GPa) = 27.51655 32.45698 29.98676
#
# Velocity S-wave (km/s) = 3.66564 3.98113 3.82664
# Velocity P-wave (km/s) = 7.14657 7.52758 7.33955
#
# Compressibility (1/GPa) = 0.01472727
#
# Stress axis : x y z
#
# Youngs Moduli (GPa) = 61.07568 51.43413 63.23097
#
# Poissons Ratio (x) = 0.33596 0.14358
# Poissons Ratio (y) = 0.39894 0.61012
# Poissons Ratio (z) = 0.13869 0.49629
#
# Static dielectric constant tensor:
#      x y z
#    x 3.743410 -0.146870 -0.026700 
#    y -0.146870 3.597830 0.109460 
#    z -0.026700 0.109460 3.904960 
# 
# 
# High freq. dielectric constant tensor:
#      x y z
#    x 1.801180 -0.016330 -0.005290 
#    y -0.016330 1.783990 0.005320 
#    z -0.005290 0.005320 1.815580 
# 
# From -- ./inp_files/346513.got.cif
#   From: 2010.06.25/outbox.cif.g09.slc.cpg/sg2_174_cif.got.tgz:346513.got - 2010.06.27 13:26:56.
