data_PCOD8040223
_publ_section_title
;
Structure prediction by ZEFSAII (Michael W. Deem and Ramdas Pophale) SiO2 
 PCOD8040223
Probable space group: P -1
;
_chemical_formula_sum "Si O2"
_cell_formula_units_Z 16
_cell_length_a 13.518622
_cell_length_b 11.440317
_cell_length_c 6.555051
_cell_angle_alpha 62.974311
_cell_angle_beta 90.806525
_cell_angle_gamma 121.342515
_cell_volume 737.648256
_symmetry_space_group_name_H-M "P -1"
_symmetry_group_IT_number 2
_symmetry_cell_setting 'triclinic'
loop_
_space_group_symop_operation_xyz
x,y,z
-x,-y,-z
loop_
_atom_site_type_symbol
_atom_site_label
_atom_site_fract_x
_atom_site_fract_y
_atom_site_fract_z
Si Si1 0.028902 0.646232 0.630489
Si Si2 0.368480 0.151288 0.996867
Si Si3 0.176195 0.120329 0.754897
Si Si4 0.972301 0.764959 0.169126
Si Si5 0.566616 0.250214 0.202122
Si Si6 0.586493 0.977710 0.277199
Si Si7 0.793040 0.021772 0.490269
Si Si8 0.156651 0.508827 0.918359
O O1 0.131906 0.613285 0.684776
O O2 0.005903 0.658597 0.381114
O O3 0.074743 0.815972 0.602115
O O4 0.905730 0.509863 0.850094
O O5 0.306437 0.215253 0.801417
O O6 0.408273 0.059200 0.929506
O O7 0.486140 0.287380 0.026228
O O8 0.266314 0.031124 0.248806
O O9 0.116105 0.214883 0.708823
O O10 0.196190 0.110780 0.520533
O O11 0.091510 0.937182 0.979072
O O12 0.898979 0.664745 0.046471
O O13 0.508402 0.189167 0.473164
O O14 0.701671 0.406491 0.106285
O O15 0.552659 0.103046 0.197378
O O16 0.719232 0.063698 0.309799
#
# Coordination Sequence:
#
# PCOD8040223 Si02
#       8
#     2   2   2   2   2   2   2   2
#     4  11  22  38  60  89 123 161 188 240 308 362
#     4  10  20  35  62  88 113 155 197 249 297 337
#     4  10  22  38  62  87 120 151 213 251 281 348
#     4  11  23  39  59  89 118 165 199 245 295 351
#     4  10  20  36  58  87 120 158 195 244 297 355
#     4   9  19  34  57  88 118 152 201 248 289 347
#     4  10  18  36  58  88 120 148 194 249 298 342
#     4  11  24  40  58  89 131 156 192 239 304 372
#
# _framework density 21.690553000000001
#
# number of rings (size 3 to 8) (size 9 to 14) (size 15 to 20)
#    0.000    1.750    3.750    0.750    0.000    2.500 
#    2.250    0.625    0.000    7.500    0.000    0.000 
#    0.000    0.000    0.000    0.000    0.000    0.000 
#
# Total GULP energy -198327.543956 kJ/mol
# GULP energy per Si atom -12395.471497 kJ/mol
# Density = 2.164118 g / cm^3
# Si number density = 21.690553 Si / 1000 Ang^3
#
#
#
# Elastic Constant Matrix: (Units=GPa)
#
#
# Indices 1 2 3 4 5 6 
#
# 1 77.3731 26.7894 19.0933 4.4206 -13.6041 15.2058
# 2 26.7894 67.5932 21.8221 11.1938 -4.8028 24.8560
# 3 19.0933 21.8221 79.1459 19.0230 -16.5149 1.2446
# 4 4.4206 11.1938 19.0230 25.8580 -4.1557 -6.0859
# 5 -13.6041 -4.8028 -16.5149 -4.1557 32.3824 6.0494
# 6 15.2058 24.8560 1.2446 -6.0859 6.0494 42.6428
#
#
#
# Elastic Compliance Matrix: (Units=1/GPa)
#
#
# Indices 1 2 3 4 5 6 
#
# 1 0.016713 -0.004021 -0.001487 -0.000037 0.006503 -0.004500
# 2 -0.004021 0.024617 -0.002444 -0.011317 0.002017 -0.014745
# 3 -0.001487 -0.002444 0.017734 -0.010887 0.006863 -0.001090
# 4 -0.000037 -0.011317 -0.010887 0.054664 -0.003064 0.015164
# 5 0.006503 0.002017 0.006863 -0.003064 0.038820 -0.009639
# 6 -0.004500 -0.014745 -0.001090 0.015164 -0.009639 0.037213
#
#
# Mechanical properties :
#
#
# Convention : Reuss Voigt Hill
#
# Bulk Modulus (GPa) = 23.16988 39.94688 31.55838
# Shear Modulus (GPa) = 22.72188 30.60381 26.66284
#
# Velocity S-wave (km/s) = 3.24009 3.76031 3.50985
# Velocity P-wave (km/s) = 4.97019 6.10818 5.56834
#
# Compressibility (1/GPa) = 0.04315947
#
# Stress axis : x y z
#
# Youngs Moduli (GPa) = 59.83233 40.62242 56.39008
#
# Poissons Ratio (x) = 0.16334 0.08384
# Poissons Ratio (y) = 0.24059 0.13784
# Poissons Ratio (z) = 0.08896 0.09930
#
# Static dielectric constant tensor:
#      x y z
#    x 4.001660 0.170800 -0.125410 
#    y 0.170800 3.698710 0.344180 
#    z -0.125410 0.344180 3.770430 
# 
# 
# High freq. dielectric constant tensor:
#      x y z
#    x 1.854590 0.016880 -0.010720 
#    y 0.016880 1.828390 0.032230 
#    z -0.010720 0.032230 1.839810 
# 
# From -- ./inp_files/94643.got.cif
#   From: 2010.06.25/outbox.cif.g09.slc.cpg/sg2_48_cif.got.tgz:94643.got - 2010.06.27 13:26:56.
