data_PCOD8040009
_publ_section_title
;
Structure prediction by ZEFSAII (Michael W. Deem and Ramdas Pophale) SiO2 
 PCOD8040009
Probable space group: P -1
;
_chemical_formula_sum "Si O2"
_cell_formula_units_Z 14
_cell_length_a 17.397369
_cell_length_b 11.454411
_cell_length_c 11.486033
_cell_angle_alpha 105.292119
_cell_angle_beta 65.285263
_cell_angle_gamma 158.653550
_cell_volume 700.057535
_symmetry_space_group_name_H-M "P -1"
_symmetry_group_IT_number 2
_symmetry_cell_setting 'triclinic'
loop_
_space_group_symop_operation_xyz
x,y,z
-x,-y,-z
loop_
_atom_site_type_symbol
_atom_site_label
_atom_site_fract_x
_atom_site_fract_y
_atom_site_fract_z
Si Si1 0.884395 0.974915 0.591511
Si Si2 0.302039 0.654186 0.886011
Si Si3 0.836747 0.167757 0.042634
Si Si4 0.400840 0.209659 0.673471
Si Si5 0.069245 0.936364 0.666601
Si Si6 0.719433 0.522016 0.365843
Si Si7 0.571435 0.264387 0.927638
O O1 0.599526 0.572646 0.692479
O O2 0.918726 0.098239 0.483430
O O3 0.000000 0.000000 0.500000
O O4 0.044922 0.236761 0.667983
O O5 0.394075 0.708313 0.727146
O O6 0.450488 0.976150 0.889915
O O7 0.348887 0.630923 0.961099
O O8 0.010376 0.282928 0.960006
O O9 0.717750 0.022648 0.207049
O O10 0.619237 0.880328 0.009244
O O11 0.000000 0.500000 0.000000
O O12 0.517071 0.267568 0.527122
O O13 0.188362 0.997183 0.689191
O O14 0.794977 0.589766 0.787362
O O15 0.210914 0.253010 0.669071
#
# Coordination Sequence:
#
# PCOD8040009 Si02
#       7
#     2   2   2   2   2   2   2
#     4   8  16  31  53  80 111 147 180 228 286 332
#     4  10  22  39  58  86 116 150 195 240 280 339
#     4  10  20  38  60  80 109 158 194 224 287 351
#     4  10  18  36  59  84 117 154 189 232 291 347
#     4  10  18  35  61  86 114 157 190 227 292 349
#     4  10  20  36  58  89 116 143 198 243 276 336
#     4  10  20  39  61  77 118 159 188 229 296 341
#
# _framework density 19.998355
#
# number of rings (size 3 to 8) (size 9 to 14) (size 15 to 20)
#    0.000    2.571    1.429    4.286    0.000    0.571 
#    5.143    8.571    0.000    0.000    0.000    0.000 
#    0.000    0.000    0.000    0.000    0.000    0.000 
#
# Total GULP energy -173484.074886 kJ/mol
# GULP energy per Si atom -12391.719635 kJ/mol
# Density = 1.995284 g / cm^3
# Si number density = 19.998355 Si / 1000 Ang^3
#
#
#
# Elastic Constant Matrix: (Units=GPa)
#
#
# Indices 1 2 3 4 5 6 
#
# 1 88.9997 27.2334 26.9864 1.9792 14.7395 37.7584
# 2 27.2334 58.9808 32.6012 6.7040 1.9358 23.1376
# 3 26.9864 32.6012 101.6523 -5.5217 15.6140 4.5266
# 4 1.9792 6.7040 -5.5217 40.2114 1.4942 -0.8777
# 5 14.7395 1.9358 15.6140 1.4942 33.8056 -3.1302
# 6 37.7584 23.1376 4.5266 -0.8777 -3.1302 33.8389
#
#
#
# Elastic Compliance Matrix: (Units=1/GPa)
#
#
# Indices 1 2 3 4 5 6 
#
# 1 0.029452 0.004877 -0.005826 -0.003357 -0.013686 -0.036772
# 2 0.004877 0.031551 -0.010487 -0.007463 -0.001159 -0.025913
# 3 -0.005826 -0.010487 0.014918 0.004442 -0.002879 0.011524
# 4 -0.003357 -0.007463 0.004442 0.027102 -0.000534 0.008908
# 5 -0.013686 -0.001159 -0.002879 -0.000534 0.038822 0.020027
# 6 -0.036772 -0.025913 0.011524 0.008908 0.020027 0.088843
#
#
# Mechanical properties :
#
#
# Convention : Reuss Voigt Hill
#
# Bulk Modulus (GPa) = 18.85029 47.03052 32.94041
# Shear Modulus (GPa) = 18.43367 32.42530 25.42949
#
# Velocity S-wave (km/s) = 3.03934 4.03103 3.56979
# Velocity P-wave (km/s) = 4.66510 6.72561 5.78779
#
# Compressibility (1/GPa) = 0.05304959
#
# Stress axis : x y z
#
# Youngs Moduli (GPa) = 33.95367 31.69451 67.03458
#
# Poissons Ratio (x) = -0.15458 0.39052
# Poissons Ratio (y) = -0.16559 0.70300
# Poissons Ratio (z) = 0.19780 0.33238
#
# Static dielectric constant tensor:
#      x y z
#    x 3.898260 0.798400 0.269110 
#    y 0.798400 3.983590 -0.005340 
#    z 0.269110 -0.005340 3.727570 
# 
# 
# High freq. dielectric constant tensor:
#      x y z
#    x 1.775090 0.042130 0.023480 
#    y 0.042130 1.763550 -0.017810 
#    z 0.023480 -0.017810 1.775460 
# 
# From -- ./inp_files/312297.got.cif
#   From: 2010.06.25/outbox.cif.g09.slc.cpg/sg2_157_cif.got.tgz:312297.got - 2010.06.27 13:26:56.
