data_PCOD8040370
_publ_section_title
;
Structure prediction by ZEFSAII (Michael W. Deem and Ramdas Pophale) SiO2 
 PCOD8040370
Probable space group: P -1
;
_chemical_formula_sum "Si O2"
_cell_formula_units_Z 16
_cell_length_a 15.986800
_cell_length_b 12.245062
_cell_length_c 12.441868
_cell_angle_alpha 48.867230
_cell_angle_beta 27.099628
_cell_angle_gamma 59.317421
_cell_volume 815.295937
_symmetry_space_group_name_H-M "P -1"
_symmetry_group_IT_number 2
_symmetry_cell_setting 'triclinic'
loop_
_space_group_symop_operation_xyz
x,y,z
-x,-y,-z
loop_
_atom_site_type_symbol
_atom_site_label
_atom_site_fract_x
_atom_site_fract_y
_atom_site_fract_z
Si Si1 0.280881 0.194260 0.364915
Si Si2 0.434177 0.700027 0.855468
Si Si3 0.745524 0.548734 0.337278
Si Si4 0.634572 0.565749 0.047220
Si Si5 0.285315 0.875914 0.623870
Si Si6 0.334994 0.145844 0.698099
Si Si7 0.855348 0.452410 0.052139
Si Si8 0.115353 0.847337 0.070262
O O1 0.473352 0.281738 0.144713
O O2 0.104714 0.223162 0.616920
O O3 0.267917 0.018414 0.480875
O O4 0.281322 0.266711 0.198551
O O5 0.415835 0.536333 0.934752
O O6 0.572406 0.821242 0.546112
O O7 0.229010 0.737226 0.068207
O O8 0.553422 0.439499 0.665657
O O9 0.743745 0.719161 0.251854
O O10 0.765818 0.532734 0.196921
O O11 0.918242 0.502459 0.231989
O O12 0.787065 0.504165 0.982973
O O13 0.505969 0.892161 0.382260
O O14 0.210534 0.724965 0.741102
O O15 0.160649 0.867718 0.879419
O O16 0.162571 0.005553 0.975013
#
# Coordination Sequence:
#
# PCOD8040370 Si02
#       8
#     2   2   2   2   2   2   2   2
#     4  12  24  34  57  90 125 162 186 229 303 350
#     4  10  20  36  53  85 121 161 192 230 284 353
#     4  10  23  40  68  85 110 151 204 249 285 342
#     4  11  24  39  57  88 126 153 189 244 294 349
#     4  11  20  37  62  87 118 153 203 237 281 351
#     4  10  18  36  63  86 114 155 197 247 280 330
#     4  11  22  42  67  88 107 152 207 243 289 343
#     4  11  20  35  59  84 123 157 197 239 278 345
#
# _framework density 19.624775
#
# number of rings (size 3 to 8) (size 9 to 14) (size 15 to 20)
#    0.000    1.250    6.250    2.625    3.500    1.500 
#    0.000    0.625    0.000    2.250    0.000    0.000 
#    0.000    0.000    0.000    0.000    0.000    0.000 
#
# Total GULP energy -198439.006527 kJ/mol
# GULP energy per Si atom -12402.437908 kJ/mol
# Density = 1.958011 g / cm^3
# Si number density = 19.624775 Si / 1000 Ang^3
#
#
#
# Elastic Constant Matrix: (Units=GPa)
#
#
# Indices 1 2 3 4 5 6 
#
# 1 63.9051 31.8993 23.7147 -5.9140 -3.6814 -13.3059
# 2 31.8993 88.8900 33.7866 10.0721 11.8616 -14.3999
# 3 23.7147 33.7866 61.9034 2.9946 0.0661 -21.2443
# 4 -5.9140 10.0721 2.9946 25.4550 -5.0471 3.0140
# 5 -3.6814 11.8616 0.0661 -5.0471 20.9870 -2.3293
# 6 -13.3059 -14.3999 -21.2443 3.0140 -2.3293 32.7423
#
#
#
# Elastic Compliance Matrix: (Units=1/GPa)
#
#
# Indices 1 2 3 4 5 6 
#
# 1 0.024592 -0.010246 -0.003381 0.012466 0.013458 0.003104
# 2 -0.010246 0.021479 -0.006817 -0.013570 -0.017080 0.000894
# 3 -0.003381 -0.006817 0.025612 -0.001781 0.004161 0.012706
# 4 0.012466 -0.013570 -0.001781 0.052746 0.021953 -0.005351
# 5 0.013458 -0.017080 0.004161 0.021953 0.065293 0.003281
# 6 0.003104 0.000894 0.012706 -0.005351 0.003281 0.041166
#
#
# Mechanical properties :
#
#
# Convention : Reuss Voigt Hill
#
# Bulk Modulus (GPa) = 32.47127 43.72220 38.09674
# Shear Modulus (GPa) = 17.72784 24.19006 20.95895
#
# Velocity S-wave (km/s) = 3.00882 3.51469 3.27155
# Velocity P-wave (km/s) = 5.35282 6.22882 5.80736
#
# Compressibility (1/GPa) = 0.03079645
#
# Stress axis : x y z
#
# Youngs Moduli (GPa) = 40.66287 46.55674 39.04372
#
# Poissons Ratio (x) = 0.47700 0.13202
# Poissons Ratio (y) = 0.41662 0.26615
# Poissons Ratio (z) = 0.13750 0.31737
#
# Static dielectric constant tensor:
#      x y z
#    x 3.466230 -0.122960 -0.238600 
#    y -0.122960 3.666890 0.041850 
#    z -0.238600 0.041850 3.434850 
# 
# 
# High freq. dielectric constant tensor:
#      x y z
#    x 1.751310 -0.014080 -0.027830 
#    y -0.014080 1.770270 0.004260 
#    z -0.027830 0.004260 1.745940 
# 
# From -- ./inp_files/424562.got.cif
#   From: 2010.06.25/outbox.cif.g09.slc.cpg/sg2_213_cif.got.tgz:424562.got - 2010.06.27 13:26:56.
