data_PCOD8040926
_publ_section_title
;
Structure prediction by ZEFSAII (Michael W. Deem and Ramdas Pophale) SiO2 
 PCOD8040926
Probable space group: P -1
;
_chemical_formula_sum "Si O2"
_cell_formula_units_Z 14
_cell_length_a 9.358750
_cell_length_b 17.711585
_cell_length_c 14.009748
_cell_angle_alpha 20.474594
_cell_angle_beta 100.581958
_cell_angle_gamma 112.195834
_cell_volume 639.782928
_symmetry_space_group_name_H-M "P -1"
_symmetry_group_IT_number 2
_symmetry_cell_setting 'triclinic'
loop_
_space_group_symop_operation_xyz
x,y,z
-x,-y,-z
loop_
_atom_site_type_symbol
_atom_site_label
_atom_site_fract_x
_atom_site_fract_y
_atom_site_fract_z
Si Si1 0.231856 0.430993 0.297270
Si Si2 0.427643 0.218517 0.212074
Si Si3 0.612811 0.860144 0.318921
Si Si4 0.151298 0.831999 0.494771
Si Si5 0.322184 0.617195 0.292566
Si Si6 0.589482 0.304476 0.324118
Si Si7 0.337883 0.329320 0.795200
O O1 0.221144 0.161539 0.628481
O O2 0.214204 0.521654 0.292356
O O3 0.425459 0.651976 0.009340
O O4 0.066708 0.371107 0.283031
O O5 0.239982 0.951932 0.467050
O O6 0.503799 0.154414 0.388708
O O7 0.370609 0.406711 0.016223
O O8 0.555991 0.881288 0.393376
O O9 0.446429 0.600146 0.551445
O O10 0.678683 0.143196 0.944695
O O11 0.227979 0.668663 0.662842
O O12 0.195025 0.068833 0.148348
O O13 0.234135 0.373360 0.647561
O O14 0.528596 0.724615 0.173251
#
# Coordination Sequence:
#
# PCOD8040926 Si02
#       7
#     2   2   2   2   2   2   2
#     4  10  23  37  58  87 119 146 191 236 282 336
#     4  10  21  42  55  86 117 149 194 233 276 347
#     4  10  18  40  59  83 114 156 186 237 281 334
#     4  12  21  38  60  86 118 150 186 240 283 337
#     4  10  19  37  58  85 113 153 190 235 277 340
#     4  10  20  36  65  79 114 157 188 228 292 333
#     4  10  20  34  61  85 113 148 196 230 284 336
#
# _framework density 21.882421999999998
#
# number of rings (size 3 to 8) (size 9 to 14) (size 15 to 20)
#    0.000    1.714    5.714    0.857    0.000    2.286 
#    0.000    7.143    0.000    0.000    0.000    0.000 
#    0.000    0.000    0.000    0.000    0.000    0.000 
#
# Total GULP energy -173551.722881 kJ/mol
# GULP energy per Si atom -12396.551634 kJ/mol
# Density = 2.183262 g / cm^3
# Si number density = 21.882422 Si / 1000 Ang^3
#
#
#
# Elastic Constant Matrix: (Units=GPa)
#
#
# Indices 1 2 3 4 5 6 
#
# 1 87.7011 34.3766 27.3232 -15.5002 12.6084 19.8078
# 2 34.3766 106.0074 14.6662 -0.8023 0.6886 11.5781
# 3 27.3232 14.6662 53.2916 -0.8109 23.3088 7.0840
# 4 -15.5002 -0.8023 -0.8109 23.7953 3.6736 -3.0683
# 5 12.6084 0.6886 23.3088 3.6736 27.7884 -2.0382
# 6 19.8078 11.5781 7.0840 -3.0683 -2.0382 32.5071
#
#
#
# Elastic Compliance Matrix: (Units=1/GPa)
#
#
# Indices 1 2 3 4 5 6 
#
# 1 0.019928 -0.004781 -0.004125 0.012745 -0.007796 -0.008827
# 2 -0.004781 0.011357 -0.002624 -0.003598 0.004519 -0.000617
# 3 -0.004125 -0.002624 0.034468 0.001943 -0.027644 -0.005613
# 4 0.012745 -0.003598 0.001943 0.052126 -0.014427 -0.002892
# 5 -0.007796 0.004519 -0.027644 -0.014427 0.065380 0.011903
# 6 -0.008827 -0.000617 -0.005613 -0.002892 0.011903 0.038058
#
#
# Mechanical properties :
#
#
# Convention : Reuss Voigt Hill
#
# Bulk Modulus (GPa) = 23.42134 44.41466 33.91800
# Shear Modulus (GPa) = 19.33433 28.19377 23.76405
#
# Velocity S-wave (km/s) = 2.97569 3.59335 3.29901
# Velocity P-wave (km/s) = 4.74687 6.12840 5.48134
#
# Compressibility (1/GPa) = 0.04269610
#
# Stress axis : x y z
#
# Youngs Moduli (GPa) = 50.17985 88.04864 29.01216
#
# Poissons Ratio (x) = 0.42093 0.11966
# Poissons Ratio (y) = 0.23989 0.07612
# Poissons Ratio (z) = 0.20697 0.23102
#
# Static dielectric constant tensor:
#      x y z
#    x 3.754010 0.001590 0.494930 
#    y 0.001590 4.092930 0.208580 
#    z 0.494930 0.208580 3.850340 
# 
# 
# High freq. dielectric constant tensor:
#      x y z
#    x 1.836220 -0.001590 0.045360 
#    y -0.001590 1.866400 0.009780 
#    z 0.045360 0.009780 1.848500 
# 
# From -- ./inp_files/315454.got.cif
#   From: 2010.06.25/outbox.cif.g09.slc.cpg/sg2_158_cif.got.tgz:315454.got - 2010.06.27 13:26:56.
