data_PCOD8040632
_publ_section_title
;
Structure prediction by ZEFSAII (Michael W. Deem and Ramdas Pophale) SiO2 
 PCOD8040632
Probable space group: P -1
;
_chemical_formula_sum "Si O2"
_cell_formula_units_Z 16
_cell_length_a 8.757060
_cell_length_b 19.981456
_cell_length_c 11.777524
_cell_angle_alpha 42.893765
_cell_angle_beta 106.627713
_cell_angle_gamma 138.801035
_cell_volume 745.094291
_symmetry_space_group_name_H-M "P -1"
_symmetry_group_IT_number 2
_symmetry_cell_setting 'triclinic'
loop_
_space_group_symop_operation_xyz
x,y,z
-x,-y,-z
loop_
_atom_site_type_symbol
_atom_site_label
_atom_site_fract_x
_atom_site_fract_y
_atom_site_fract_z
Si Si1 0.308320 0.305367 0.724864
Si Si2 0.577277 0.832285 0.666926
Si Si3 0.798821 0.181980 0.779000
Si Si4 0.595114 0.355764 0.924351
Si Si5 0.702193 0.458624 0.435715
Si Si6 0.127394 0.212458 0.281474
Si Si7 0.801323 0.346032 0.410931
Si Si8 0.493644 0.497213 0.832052
O O1 0.500000 0.500000 0.500000
O O2 0.336137 0.260469 0.905948
O O3 0.435697 0.296712 0.665880
O O4 0.978320 0.173031 0.807127
O O5 0.774366 0.838236 0.689906
O O6 0.330016 0.707167 0.675795
O O7 0.464667 0.769522 0.851779
O O8 0.782000 0.033053 0.446057
O O9 0.724212 0.197155 0.625051
O O10 0.985396 0.362695 0.660994
O O11 0.500000 0.000000 0.000000
O O12 0.661740 0.481146 0.867520
O O13 0.858454 0.466455 0.761313
O O14 0.697440 0.374156 0.442862
O O15 0.639184 0.533044 0.275421
O O16 0.274066 0.304879 0.319814
O O17 0.229609 0.352265 0.045752
#
# Coordination Sequence:
#
# PCOD8040632 Si02
#       8
#     2   2   2   2   2   2   2   2
#     4  10  19  41  64  87 117 170 206 240 301 373
#     4  10  22  37  60  94 124 154 199 267 312 350
#     4  11  24  39  64  95 125 159 204 261 307 357
#     4  11  21  39  65  84 124 165 210 249 303 375
#     4  11  21  40  66  88 121 164 212 244 303 379
#     4   9  20  37  60  91 119 158 208 249 306 371
#     4  12  23  40  62  92 125 163 204 256 311 360
#     4  10  18  37  66  86 114 166 206 244 300 384
#
# _framework density 21.473793000000001
#
# number of rings (size 3 to 8) (size 9 to 14) (size 15 to 20)
#    0.000    1.500    6.250    0.750    1.750    1.000 
#    0.000    3.750    0.000    0.000    0.000    0.000 
#    0.000    0.000    0.000    0.000    0.000    0.000 
#
# Total GULP energy -198252.536361 kJ/mol
# GULP energy per Si atom -12390.783523 kJ/mol
# Density = 2.142492 g / cm^3
# Si number density = 21.473793 Si / 1000 Ang^3
#
#
#
# Elastic Constant Matrix: (Units=GPa)
#
#
# Indices 1 2 3 4 5 6 
#
# 1 80.6840 27.1381 43.3567 2.2912 -26.5343 6.1810
# 2 27.1381 73.2468 55.6100 22.3191 -0.5123 11.8368
# 3 43.3567 55.6100 108.6233 13.1582 -21.4284 7.8068
# 4 2.2912 22.3191 13.1582 41.7313 4.0342 1.9079
# 5 -26.5343 -0.5123 -21.4284 4.0342 28.1075 1.8348
# 6 6.1810 11.8368 7.8068 1.9079 1.8348 29.7162
#
#
#
# Elastic Compliance Matrix: (Units=1/GPa)
#
#
# Indices 1 2 3 4 5 6 
#
# 1 0.022124 -0.006973 -0.001295 0.001137 0.019789 -0.002779
# 2 -0.006973 0.031106 -0.014567 -0.009925 -0.015336 -0.005529
# 3 -0.001295 -0.014567 0.019824 0.000298 0.013582 0.000006
# 4 0.001137 -0.009925 0.000298 0.029336 -0.003218 0.001954
# 5 0.019789 -0.015336 0.013582 -0.003218 0.065148 -0.005392
# 6 -0.002779 -0.005529 0.000006 0.001954 -0.005392 0.036638
#
#
# Mechanical properties :
#
#
# Convention : Reuss Voigt Hill
#
# Bulk Modulus (GPa) = 36.51859 57.19595 46.85727
# Shear Modulus (GPa) = 19.30696 29.00763 24.15729
#
# Velocity S-wave (km/s) = 3.00174 3.67936 3.35769
# Velocity P-wave (km/s) = 5.39045 6.68905 6.07455
#
# Compressibility (1/GPa) = 0.02738331
#
# Stress axis : x y z
#
# Youngs Moduli (GPa) = 45.19996 32.14794 50.44495
#
# Poissons Ratio (x) = 0.22415 0.06533
# Poissons Ratio (y) = 0.31516 0.73486
# Poissons Ratio (z) = 0.05854 0.46831
#
# Static dielectric constant tensor:
#      x y z
#    x 4.021060 0.031920 -0.237310 
#    y 0.031920 3.741540 0.285630 
#    z -0.237310 0.285630 4.177420 
# 
# 
# High freq. dielectric constant tensor:
#      x y z
#    x 1.829350 0.004700 -0.010300 
#    y 0.004700 1.829990 0.029430 
#    z -0.010300 0.029430 1.839330 
# 
# From -- ./inp_files/294442.got.cif
#   From: 2010.06.25/outbox.cif.g09.slc.cpg/sg2_148_cif.got.tgz:294442.got - 2010.06.27 13:26:56.
