data_PCOD8040176
_publ_section_title
;
Structure prediction by ZEFSAII (Michael W. Deem and Ramdas Pophale) SiO2 
 PCOD8040176
Probable space group: P -1
;
_chemical_formula_sum "Si O2"
_cell_formula_units_Z 14
_cell_length_a 14.307199
_cell_length_b 16.061810
_cell_length_c 9.523049
_cell_angle_alpha 143.984244
_cell_angle_beta 43.717647
_cell_angle_gamma 140.423858
_cell_volume 790.490143
_symmetry_space_group_name_H-M "P -1"
_symmetry_group_IT_number 2
_symmetry_cell_setting 'triclinic'
loop_
_space_group_symop_operation_xyz
x,y,z
-x,-y,-z
loop_
_atom_site_type_symbol
_atom_site_label
_atom_site_fract_x
_atom_site_fract_y
_atom_site_fract_z
Si Si1 0.776683 0.364680 0.954269
Si Si2 0.580893 0.713523 0.315284
Si Si3 0.209613 0.406954 0.968551
Si Si4 0.642654 0.044749 0.807434
Si Si5 0.911811 0.635914 0.389584
Si Si6 0.278952 0.425835 0.221919
Si Si7 0.029506 0.853678 0.307321
O O1 0.656934 0.185007 0.878381
O O2 0.937481 0.376521 0.749876
O O3 0.717724 0.427335 0.971028
O O4 0.794877 0.474370 0.219442
O O5 0.673853 0.670609 0.275629
O O6 0.400990 0.602289 0.378701
O O7 0.619052 0.896441 0.533661
O O8 0.632908 0.678303 0.057169
O O9 0.046249 0.285897 0.916111
O O10 0.189365 0.439700 0.199292
O O11 0.792360 0.098982 0.815483
O O12 0.500000 0.000000 0.000000
O O13 0.837834 0.661890 0.646520
O O14 0.953128 0.788010 0.452246
O O15 0.000000 0.000000 0.500000
#
# Coordination Sequence:
#
# PCOD8040176 Si02
#       7
#     2   2   2   2   2   2   2
#     4   9  19  34  53  82 110 138 182 232 268 316
#     4   9  19  35  56  77 114 145 178 226 272 322
#     4   9  18  35  57  79 109 142 183 229 260 319
#     4  11  21  36  56  82 115 146 175 228 287 318
#     4   9  18  33  56  79 108 145 180 223 276 321
#     4   9  18  36  57  78 107 149 184 216 275 330
#     4  10  18  36  56  82 110 137 186 233 259 316
#
# _framework density 17.710531
#
# number of rings (size 3 to 8) (size 9 to 14) (size 15 to 20)
#    0.857    1.714    1.429    1.714    0.000    0.571 
#    2.571    9.286    0.000    0.000    0.000    0.000 
#    0.000    0.000    0.000    0.000    0.000    0.000 
#
# Total GULP energy -173524.627964 kJ/mol
# GULP energy per Si atom -12394.616283 kJ/mol
# Density = 1.767022 g / cm^3
# Si number density = 17.710531 Si / 1000 Ang^3
#
#
#
# Elastic Constant Matrix: (Units=GPa)
#
#
# Indices 1 2 3 4 5 6 
#
# 1 79.0377 62.5643 32.4387 -0.4196 8.0540 -4.3604
# 2 62.5643 135.4237 67.0037 2.3946 0.3942 -13.9332
# 3 32.4387 67.0037 80.4531 -0.8534 0.1543 -9.5187
# 4 -0.4196 2.3946 -0.8534 39.4444 -3.6930 -2.3613
# 5 8.0540 0.3942 0.1543 -3.6930 22.5699 8.7331
# 6 -4.3604 -13.9332 -9.5187 -2.3613 8.7331 32.5909
#
#
#
# Elastic Compliance Matrix: (Units=1/GPa)
#
#
# Indices 1 2 3 4 5 6 
#
# 1 0.021137 -0.009364 -0.000627 0.000107 -0.007626 0.000693
# 2 -0.009364 0.016957 -0.010072 -0.001013 0.002002 0.002445
# 3 -0.000627 -0.010072 0.021322 0.001155 -0.000335 0.002011
# 4 0.000107 -0.001013 0.001155 0.025851 0.003914 0.000743
# 5 -0.007626 0.002002 -0.000335 0.003914 0.053137 -0.014217
# 6 0.000693 0.002445 0.002011 0.000743 -0.014217 0.036272
#
#
# Mechanical properties :
#
#
# Convention : Reuss Voigt Hill
#
# Bulk Modulus (GPa) = 51.83747 68.76977 60.30362
# Shear Modulus (GPa) = 22.60078 27.78156 25.19117
#
# Velocity S-wave (km/s) = 3.57616 3.96491 3.77554
# Velocity P-wave (km/s) = 6.81063 7.73788 7.28902
#
# Compressibility (1/GPa) = 0.01929107
#
# Stress axis : x y z
#
# Youngs Moduli (GPa) = 47.31009 58.97165 46.90064
#
# Poissons Ratio (x) = 0.55218 0.02938
# Poissons Ratio (y) = 0.44299 0.47240
# Poissons Ratio (z) = 0.02964 0.59399
#
# Static dielectric constant tensor:
#      x y z
#    x 3.259860 -0.020080 -0.001330 
#    y -0.020080 3.244820 0.178290 
#    z -0.001330 0.178290 3.063640 
# 
# 
# High freq. dielectric constant tensor:
#      x y z
#    x 1.678240 0.000570 -0.000240 
#    y 0.000570 1.681720 0.011310 
#    z -0.000240 0.011310 1.667040 
# 
# From -- ./inp_files/312055.got.cif
#   From: 2010.06.25/outbox.cif.g09.slc.cpg/sg2_157_cif.got.tgz:312055.got - 2010.06.27 13:26:56.
