data_PCOD8040171
_publ_section_title
;
Structure prediction by ZEFSAII (Michael W. Deem and Ramdas Pophale) SiO2 
 PCOD8040171
Probable space group: P -1
;
_chemical_formula_sum "Si O2"
_cell_formula_units_Z 16
_cell_length_a 17.897193
_cell_length_b 12.365940
_cell_length_c 11.935265
_cell_angle_alpha 135.313898
_cell_angle_beta 30.935532
_cell_angle_gamma 113.639439
_cell_volume 779.426137
_symmetry_space_group_name_H-M "P -1"
_symmetry_group_IT_number 2
_symmetry_cell_setting 'triclinic'
loop_
_space_group_symop_operation_xyz
x,y,z
-x,-y,-z
loop_
_atom_site_type_symbol
_atom_site_label
_atom_site_fract_x
_atom_site_fract_y
_atom_site_fract_z
Si Si1 0.449930 0.090361 0.895467
Si Si2 0.701118 0.658229 0.310295
Si Si3 0.787153 0.020380 0.305473
Si Si4 0.700635 0.569890 0.500020
Si Si5 0.542514 0.571940 0.259338
Si Si6 0.970561 0.354842 0.167826
Si Si7 0.700448 0.408043 0.714788
Si Si8 0.651636 0.006847 0.252207
O O1 0.582878 0.123693 0.684255
O O2 0.563063 0.883288 0.652537
O O3 0.305616 0.106372 0.003729
O O4 0.347853 0.241306 0.236032
O O5 0.729234 0.582364 0.342810
O O6 0.628920 0.561439 0.258783
O O7 0.891166 0.589036 0.961192
O O8 0.821930 0.181246 0.376402
O O9 0.809224 0.928667 0.084657
O O10 0.921638 0.866055 0.107773
O O11 0.550264 0.535328 0.687702
O O12 0.888656 0.393743 0.177114
O O13 0.407538 0.783585 0.545525
O O14 0.699246 0.461614 0.884389
O O15 0.801504 0.476444 0.560522
O O16 0.500000 0.500000 0.000000
O O17 0.500000 0.000000 0.500000
#
# Coordination Sequence:
#
# PCOD8040171 Si02
#       8
#     2   2   2   2   2   2   2   2
#     4   9  19  36  62  89 112 159 205 245 291 351
#     4  10  24  42  59  89 123 159 200 253 301 338
#     4  10  18  36  55  91 124 156 185 245 309 359
#     4  12  21  41  66  86 119 162 212 242 281 362
#     4  11  22  38  64  93 116 157 205 247 296 354
#     4  11  24  37  60  88 124 161 193 245 309 354
#     4  12  20  37  64  92 119 152 204 245 299 366
#     4   9  18  33  57  87 132 150 183 246 309 355
#
# _framework density 20.527923000000001
#
# number of rings (size 3 to 8) (size 9 to 14) (size 15 to 20)
#    0.000    1.500    3.750    2.250    1.750    0.500 
#    2.250    0.000    0.000    0.750    0.000    0.000 
#    0.000    0.000    0.000    0.000    0.000    0.000 
#
# Total GULP energy -198322.120027 kJ/mol
# GULP energy per Si atom -12395.132502 kJ/mol
# Density = 2.048120 g / cm^3
# Si number density = 20.527923 Si / 1000 Ang^3
#
#
#
# Elastic Constant Matrix: (Units=GPa)
#
#
# Indices 1 2 3 4 5 6 
#
# 1 160.2671 50.0873 46.5918 18.5935 5.6818 -13.5357
# 2 50.0873 85.1632 24.0153 4.0012 5.1801 -6.3597
# 3 46.5918 24.0153 61.4369 0.1049 2.5380 -3.4946
# 4 18.5935 4.0012 0.1049 18.2384 -2.1716 1.6736
# 5 5.6818 5.1801 2.5380 -2.1716 27.2170 4.6636
# 6 -13.5357 -6.3597 -3.4946 1.6736 4.6636 35.6880
#
#
#
# Elastic Compliance Matrix: (Units=1/GPa)
#
#
# Indices 1 2 3 4 5 6 
#
# 1 0.010960 -0.003655 -0.006551 -0.010971 -0.002492 0.003704
# 2 -0.003655 0.014921 -0.002907 0.000116 -0.002010 0.001245
# 3 -0.006551 -0.002907 0.022271 0.007380 0.000648 -0.001253
# 4 -0.010971 0.000116 0.007380 0.067637 0.008291 -0.007673
# 5 -0.002492 -0.002010 0.000648 0.008291 0.039407 -0.006778
# 6 0.003704 0.001245 -0.001253 -0.007673 -0.006778 0.030770
#
#
# Mechanical properties :
#
#
# Convention : Reuss Voigt Hill
#
# Bulk Modulus (GPa) = 45.60756 60.91733 53.26245
# Shear Modulus (GPa) = 22.77887 28.64021 25.70954
#
# Velocity S-wave (km/s) = 3.33476 3.73927 3.54279
# Velocity P-wave (km/s) = 6.09041 6.95576 6.53742
#
# Compressibility (1/GPa) = 0.02192619
#
# Stress axis : x y z
#
# Youngs Moduli (GPa) = 91.23854 67.01753 44.90243
#
# Poissons Ratio (x) = 0.24496 0.29415
# Poissons Ratio (y) = 0.33350 0.13053
# Poissons Ratio (z) = 0.59768 0.19482
#
# Static dielectric constant tensor:
#      x y z
#    x 8.276290 -2.983820 -0.571440 
#    y -2.983820 5.914550 0.363040 
#    z -0.571440 0.363040 3.506440 
# 
# 
# High freq. dielectric constant tensor:
#      x y z
#    x 1.810370 -0.002880 -0.007700 
#    y -0.002880 1.810690 0.003500 
#    z -0.007700 0.003500 1.770370 
# 
# From -- ./inp_files/195797.got.cif
#   From: 2010.06.25/outbox.cif.g09.slc.cpg/sg2_98_cif.got.tgz:195797.got - 2010.06.27 13:26:56.
