data_PCOD8040426
_publ_section_title
;
Structure prediction by ZEFSAII (Michael W. Deem and Ramdas Pophale) SiO2 
 PCOD8040426
Probable space group: P -1
;
_chemical_formula_sum "Si O2"
_cell_formula_units_Z 16
_cell_length_a 8.300266
_cell_length_b 22.497740
_cell_length_c 8.146579
_cell_angle_alpha 36.923300
_cell_angle_beta 64.465857
_cell_angle_gamma 51.246976
_cell_volume 704.845980
_symmetry_space_group_name_H-M "P -1"
_symmetry_group_IT_number 2
_symmetry_cell_setting 'triclinic'
loop_
_space_group_symop_operation_xyz
x,y,z
-x,-y,-z
loop_
_atom_site_type_symbol
_atom_site_label
_atom_site_fract_x
_atom_site_fract_y
_atom_site_fract_z
Si Si1 0.087255 0.171738 0.137895
Si Si2 0.711303 0.220081 0.407272
Si Si3 0.297264 0.424152 0.230616
Si Si4 0.374480 0.963254 0.254909
Si Si5 0.754395 0.581530 0.376695
Si Si6 0.065927 0.616255 0.472231
Si Si7 0.296043 0.204991 0.261310
Si Si8 0.128604 0.677106 0.642784
O O1 0.241778 0.134266 0.309105
O O2 0.856101 0.205557 0.220636
O O3 0.173213 0.074635 0.174363
O O4 0.069119 0.287444 0.817578
O O5 0.477999 0.330193 0.239220
O O6 0.702296 0.103840 0.679741
O O7 0.800921 0.238731 0.496939
O O8 0.376709 0.392085 0.456220
O O9 0.086164 0.422488 0.293020
O O10 0.265875 0.549100 0.938954
O O11 0.502439 0.884495 0.527160
O O12 0.500000 0.000000 0.000000
O O13 0.731473 0.496025 0.448888
O O14 0.000000 0.500000 0.500000
O O15 0.672594 0.702324 0.054969
O O16 0.149434 0.670075 0.451998
O O17 0.111789 0.272331 0.322543
#
# Coordination Sequence:
#
# PCOD8040426 Si02
#       8
#     2   2   2   2   2   2   2   2
#     4  11  23  47  66  98 137 171 217 282 330 385
#     4  11  26  44  64  93 139 177 215 275 340 388
#     4  11  20  40  66  97 139 178 216 265 322 407
#     4  12  27  47  73  96 123 176 237 278 320 390
#     4  10  18  36  67 102 133 167 215 272 321 384
#     4  11  21  39  71 101 135 174 224 264 324 398
#     4  11  21  41  71 102 127 171 223 273 329 390
#     4  11  22  38  65 103 139 174 210 273 339 389
#
# _framework density 22.699992999999999
#
# number of rings (size 3 to 8) (size 9 to 14) (size 15 to 20)
#    0.000    1.000    5.000    4.500    1.750    0.000 
#    2.250    6.875    0.000    0.000    0.000    0.000 
#    0.000    0.000    0.000    0.000    0.000    0.000 
#
# Total GULP energy -198359.187813 kJ/mol
# GULP energy per Si atom -12397.449238 kJ/mol
# Density = 2.264833 g / cm^3
# Si number density = 22.699993 Si / 1000 Ang^3
#
#
#
# Elastic Constant Matrix: (Units=GPa)
#
#
# Indices 1 2 3 4 5 6 
#
# 1 71.2459 32.8289 43.5045 -0.9412 -15.2937 21.1361
# 2 32.8289 149.4307 45.5278 -13.1305 -23.2794 6.9679
# 3 43.5045 45.5278 117.1710 -2.6642 0.4664 8.1312
# 4 -0.9412 -13.1305 -2.6642 33.2835 9.1816 0.3892
# 5 -15.2937 -23.2794 0.4664 9.1816 25.9096 -8.2608
# 6 21.1361 6.9679 8.1312 0.3892 -8.2608 41.4582
#
#
#
# Elastic Compliance Matrix: (Units=1/GPa)
#
#
# Indices 1 2 3 4 5 6 
#
# 1 0.024648 -0.000830 -0.008393 -0.003693 0.012640 -0.008227
# 2 -0.000830 0.009140 -0.003321 0.001179 0.007703 0.001062
# 3 -0.008393 -0.003321 0.012980 0.001874 -0.008661 0.000548
# 4 -0.003693 0.001179 0.001874 0.034416 -0.013917 -0.001779
# 5 0.012640 0.007703 -0.008661 -0.013917 0.059993 0.006044
# 6 -0.008227 0.001062 0.000548 -0.001779 0.006044 0.029250
#
#
# Mechanical properties :
#
#
# Convention : Reuss Voigt Hill
#
# Bulk Modulus (GPa) = 46.12111 64.61888 55.36999
# Shear Modulus (GPa) = 24.66187 34.52936 29.59561
#
# Velocity S-wave (km/s) = 3.29967 3.90438 3.61470
# Velocity P-wave (km/s) = 5.90584 6.98955 6.47042
#
# Compressibility (1/GPa) = 0.02168204
#
# Stress axis : x y z
#
# Youngs Moduli (GPa) = 40.57073 109.40508 77.04067
#
# Poissons Ratio (x) = 0.09077 0.64658
# Poissons Ratio (y) = 0.03366 0.25586
# Poissons Ratio (z) = 0.34050 0.36334
#
# Static dielectric constant tensor:
#      x y z
#    x 3.870880 0.292060 -0.097350 
#    y 0.292060 4.561760 -0.026420 
#    z -0.097350 -0.026420 3.884960 
# 
# 
# High freq. dielectric constant tensor:
#      x y z
#    x 1.876680 0.018310 -0.005660 
#    y 0.018310 1.915670 -0.003920 
#    z -0.005660 -0.003920 1.878040 
# 
# From -- ./inp_files/179913.got.cif
#   From: 2010.06.25/outbox.cif.g09.slc.cpg/sg2_90_cif.got.tgz:179913.got - 2010.06.27 13:26:56.
