data_PCOD8040091
_publ_section_title
;
Structure prediction by ZEFSAII (Michael W. Deem and Ramdas Pophale) SiO2 
 PCOD8040091
Probable space group: P -1
;
_chemical_formula_sum "Si O2"
_cell_formula_units_Z 16
_cell_length_a 18.326532
_cell_length_b 15.799118
_cell_length_c 9.245158
_cell_angle_alpha 149.891871
_cell_angle_beta 40.266524
_cell_angle_gamma 139.389132
_cell_volume 826.422724
_symmetry_space_group_name_H-M "P -1"
_symmetry_group_IT_number 2
_symmetry_cell_setting 'triclinic'
loop_
_space_group_symop_operation_xyz
x,y,z
-x,-y,-z
loop_
_atom_site_type_symbol
_atom_site_label
_atom_site_fract_x
_atom_site_fract_y
_atom_site_fract_z
Si Si1 0.221849 0.685685 0.589501
Si Si2 0.656811 0.885188 0.333271
Si Si3 0.173123 0.750210 0.442098
Si Si4 0.237963 0.437810 0.789988
Si Si5 0.587243 0.667823 0.826393
Si Si6 0.450859 0.004445 0.740892
Si Si7 0.666088 0.595665 0.112624
Si Si8 0.997174 0.532308 0.883448
O O1 0.158786 0.728558 0.604597
O O2 0.325806 0.857103 0.735765
O O3 0.272778 0.521439 0.248626
O O4 0.126770 0.643802 0.799855
O O5 0.547544 0.965678 0.644473
O O6 0.778797 0.044786 0.370306
O O7 0.638556 0.768171 0.043928
O O8 0.668343 0.771898 0.285862
O O9 0.046505 0.656426 0.416900
O O10 0.266778 0.647629 0.096745
O O11 0.317304 0.419803 0.508287
O O12 0.263634 0.339079 0.748058
O O13 0.098212 0.361141 0.846221
O O14 0.468160 0.514378 0.812768
O O15 0.564781 0.800672 0.932982
O O16 0.500000 0.000000 0.500000
O O17 0.000000 0.500000 0.000000
#
# Coordination Sequence:
#
# PCOD8040091 Si02
#       8
#     2   2   2   2   2   2   2   2
#     4  11  19  40  66  88 117 170 205 243 296 373
#     4  11  21  36  62  98 121 153 207 254 297 362
#     4   9  20  42  63  85 119 164 204 246 300 363
#     4   9  23  41  61  82 127 166 196 251 311 357
#     4  11  20  39  61  93 126 164 197 253 306 363
#     4  10  18  35  63  92 123 155 205 244 299 360
#     4  11  22  34  62  95 125 158 206 246 309 365
#     4  10  24  41  67  86 118 164 214 248 303 364
#
# _framework density 19.360551999999998
#
# number of rings (size 3 to 8) (size 9 to 14) (size 15 to 20)
#    0.750    1.000    5.000    1.875    1.750    0.000 
#    2.250    2.500    0.000    0.000    0.000    0.000 
#    0.000    0.000    0.000    0.000    0.000    0.000 
#
# Total GULP energy -198320.571215 kJ/mol
# GULP energy per Si atom -12395.035701 kJ/mol
# Density = 1.931649 g / cm^3
# Si number density = 19.360552 Si / 1000 Ang^3
#
#
#
# Elastic Constant Matrix: (Units=GPa)
#
#
# Indices 1 2 3 4 5 6 
#
# 1 79.7579 57.6764 10.1240 -0.3662 -6.0437 -13.7189
# 2 57.6764 151.9650 35.4641 -8.5303 -14.3532 1.2501
# 3 10.1240 35.4641 51.6360 -19.1590 -13.8231 -4.6882
# 4 -0.3662 -8.5303 -19.1590 33.2988 1.4858 -8.9551
# 5 -6.0437 -14.3532 -13.8231 1.4858 21.8049 0.2618
# 6 -13.7189 1.2501 -4.6882 -8.9551 0.2618 29.8808
#
#
#
# Elastic Compliance Matrix: (Units=1/GPa)
#
#
# Indices 1 2 3 4 5 6 
#
# 1 0.020271 -0.008503 0.005203 0.004046 0.002905 0.011666
# 2 -0.008503 0.011602 -0.008152 -0.003651 0.000443 -0.006766
# 3 0.005203 -0.008152 0.039524 0.024152 0.019294 0.016000
# 4 0.004046 -0.003651 0.024152 0.047968 0.010519 0.020084
# 5 0.002905 0.000443 0.019294 0.010519 0.058389 0.006983
# 6 0.011666 -0.006766 0.016000 0.020084 0.006983 0.047574
#
#
# Mechanical properties :
#
#
# Convention : Reuss Voigt Hill
#
# Bulk Modulus (GPa) = 20.62050 54.43198 37.52624
# Shear Modulus (GPa) = 18.91095 29.00317 23.95706
#
# Velocity S-wave (km/s) = 3.12873 3.87467 3.52151
# Velocity P-wave (km/s) = 4.87092 6.94214 5.99663
#
# Compressibility (1/GPa) = 0.04849543
#
# Stress axis : x y z
#
# Youngs Moduli (GPa) = 49.33068 86.18842 25.30085
#
# Poissons Ratio (x) = 0.73282 -0.13165
# Poissons Ratio (y) = 0.41943 0.20626
# Poissons Ratio (z) = -0.25668 0.70262
#
# Static dielectric constant tensor:
#      x y z
#    x 3.620140 -0.024000 -0.180740 
#    y -0.024000 3.384910 0.128820 
#    z -0.180740 0.128820 3.524250 
# 
# 
# High freq. dielectric constant tensor:
#      x y z
#    x 1.752010 0.001350 -0.004310 
#    y 0.001350 1.744980 0.000810 
#    z -0.004310 0.000810 1.733530 
# 
# From -- ./inp_files/347726.got.cif
#   From: 2010.06.25/outbox.cif.g09.slc.cpg/sg2_174_cif.got.tgz:347726.got - 2010.06.27 13:26:56.
