data_PCOD8040432
_publ_section_title
;
Structure prediction by ZEFSAII (Michael W. Deem and Ramdas Pophale) SiO2 
 PCOD8040432
Probable space group: P -1
;
_chemical_formula_sum "Si O2"
_cell_formula_units_Z 16
_cell_length_a 10.867005
_cell_length_b 13.532192
_cell_length_c 13.305479
_cell_angle_alpha 137.727108
_cell_angle_beta 127.832775
_cell_angle_gamma 35.138876
_cell_volume 757.351892
_symmetry_space_group_name_H-M "P -1"
_symmetry_group_IT_number 2
_symmetry_cell_setting 'triclinic'
loop_
_space_group_symop_operation_xyz
x,y,z
-x,-y,-z
loop_
_atom_site_type_symbol
_atom_site_label
_atom_site_fract_x
_atom_site_fract_y
_atom_site_fract_z
Si Si1 0.568678 0.687732 0.691206
Si Si2 0.779401 0.200712 0.653615
Si Si3 0.656546 0.198587 0.798885
Si Si4 0.800886 0.427157 0.110962
Si Si5 0.632193 0.420007 0.356052
Si Si6 0.999662 0.851251 0.825759
Si Si7 0.004243 0.519319 0.135362
Si Si8 0.192296 0.065033 0.694850
O O1 0.669111 0.543897 0.534327
O O2 0.400408 0.690520 0.665015
O O3 0.755750 0.613339 0.804196
O O4 0.419536 0.924183 0.762534
O O5 0.744515 0.121839 0.673292
O O6 0.573917 0.437380 0.712334
O O7 0.987960 0.170488 0.745430
O O8 0.797373 0.083317 0.480461
O O9 0.402386 0.344425 0.785858
O O10 0.726610 0.314779 0.957087
O O11 0.763622 0.999355 0.769035
O O12 0.958523 0.311844 0.200224
O O13 0.915081 0.433784 0.081570
O O14 0.830978 0.257167 0.261666
O O15 0.000000 0.000000 0.000000
O O16 0.852189 0.758848 0.259501
O O17 0.000000 0.500000 0.000000
#
# Coordination Sequence:
#
# PCOD8040432 Si02
#       8
#     2   2   2   2   2   2   2   2
#     4  10  23  39  64  96 126 163 207 260 316 372
#     4  10  18  36  67  93 122 157 211 263 302 360
#     4  10  20  37  65  87 117 162 208 261 299 359
#     4  10  23  40  57  90 125 160 211 250 310 378
#     4  10  19  38  67  96 127 158 207 269 311 359
#     4  10  21  36  62  94 122 159 207 257 312 364
#     4  12  26  42  62  89 131 169 201 258 319 379
#     4  10  22  38  61  96 123 161 208 253 312 373
#
# _framework density 21.126244
#
# number of rings (size 3 to 8) (size 9 to 14) (size 15 to 20)
#    0.000    1.750    2.500    1.500    3.500    2.500 
#    0.000    1.250    0.000    0.000    0.000    0.000 
#    0.000    0.000    0.000    0.000    0.000    0.000 
#
# Total GULP energy -198308.549577 kJ/mol
# GULP energy per Si atom -12394.284349 kJ/mol
# Density = 2.107816 g / cm^3
# Si number density = 21.126244 Si / 1000 Ang^3
#
#
#
# Elastic Constant Matrix: (Units=GPa)
#
#
# Indices 1 2 3 4 5 6 
#
# 1 99.4571 48.4089 25.3424 0.1799 -19.7259 13.8466
# 2 48.4089 205.1879 35.1926 0.1155 -5.6948 15.2589
# 3 25.3424 35.1926 42.7982 -0.6586 -16.8040 -8.0691
# 4 0.1799 0.1155 -0.6586 30.2548 2.9907 -3.7735
# 5 -19.7259 -5.6948 -16.8040 2.9907 30.5111 0.4230
# 6 13.8466 15.2589 -8.0691 -3.7735 0.4230 29.6033
#
#
#
# Elastic Compliance Matrix: (Units=1/GPa)
#
#
# Indices 1 2 3 4 5 6 
#
# 1 0.014879 -0.001555 -0.006830 -0.001851 0.005865 -0.008340
# 2 -0.001555 0.006636 -0.006716 -0.000394 -0.003364 -0.004526
# 3 -0.006830 -0.006716 0.043440 0.001547 0.017848 0.018439
# 4 -0.001851 -0.000394 0.001547 0.034217 -0.003854 0.005907
# 5 0.005865 -0.003364 0.017848 -0.003854 0.046109 0.002706
# 6 -0.008340 -0.004526 0.018439 0.005907 0.002706 0.045754
#
#
# Mechanical properties :
#
#
# Convention : Reuss Voigt Hill
#
# Bulk Modulus (GPa) = 28.77410 62.81454 45.79432
# Shear Modulus (GPa) = 21.47568 33.97382 27.72475
#
# Velocity S-wave (km/s) = 3.19178 4.01450 3.62655
# Velocity P-wave (km/s) = 5.21852 7.16141 6.26573
#
# Compressibility (1/GPa) = 0.03475347
#
# Stress axis : x y z
#
# Youngs Moduli (GPa) = 67.20686 150.69898 23.02007
#
# Poissons Ratio (x) = 0.23433 0.15723
# Poissons Ratio (y) = 0.10451 0.15460
# Poissons Ratio (z) = 0.45903 1.01210
#
# Static dielectric constant tensor:
#      x y z
#    x 3.808310 0.303930 -0.231070 
#    y 0.303930 4.654090 0.045640 
#    z -0.231070 0.045640 3.622120 
# 
# 
# High freq. dielectric constant tensor:
#      x y z
#    x 1.804050 0.011580 -0.027230 
#    y 0.011580 1.856940 0.006280 
#    z -0.027230 0.006280 1.803860 
# 
# From -- ./inp_files/522533.got.cif
#   From: 2010.06.25/outbox.cif.g09.slc.cpg/sg2_262_cif.got.tgz:522533.got - 2010.06.27 13:26:56.
