data_PCOD8040305
_publ_section_title
;
Structure prediction by ZEFSAII (Michael W. Deem and Ramdas Pophale) SiO2 
 PCOD8040305
Probable space group: P -1
;
_chemical_formula_sum "Si O2"
_cell_formula_units_Z 16
_cell_length_a 22.928959
_cell_length_b 8.090706
_cell_length_c 9.956016
_cell_angle_alpha 135.798798
_cell_angle_beta 38.813599
_cell_angle_gamma 127.607557
_cell_volume 801.433137
_symmetry_space_group_name_H-M "P -1"
_symmetry_group_IT_number 2
_symmetry_cell_setting 'triclinic'
loop_
_space_group_symop_operation_xyz
x,y,z
-x,-y,-z
loop_
_atom_site_type_symbol
_atom_site_label
_atom_site_fract_x
_atom_site_fract_y
_atom_site_fract_z
Si Si1 0.852970 0.542116 0.197238
Si Si2 0.169836 0.461571 0.455080
Si Si3 0.160946 0.982588 0.051159
Si Si4 0.646694 0.916001 0.362218
Si Si5 0.349540 0.770901 0.224168
Si Si6 0.687975 0.725754 0.446863
Si Si7 0.036655 0.832545 0.946924
Si Si8 0.494819 0.485106 0.659331
O O1 0.810910 0.541164 0.421870
O O2 0.784464 0.643224 0.273291
O O3 0.868326 0.271312 0.971308
O O4 0.951957 0.704121 0.112044
O O5 0.264532 0.558289 0.262378
O O6 0.091056 0.632814 0.661245
O O7 0.133597 0.194911 0.316962
O O8 0.108081 0.992300 0.009259
O O9 0.272868 0.003574 0.841813
O O10 0.684897 0.726392 0.289230
O O11 0.555640 0.780768 0.368727
O O12 0.619524 0.142619 0.628920
O O13 0.318571 0.000616 0.333109
O O14 0.436368 0.684978 0.941403
O O15 0.601197 0.544007 0.557159
O O16 0.000000 0.000000 0.000000
O O17 0.500000 0.500000 0.500000
#
# Coordination Sequence:
#
# PCOD8040305 Si02
#       8
#     2   2   2   2   2   2   2   2
#     4  11  22  41  56  84 125 151 193 233 289 353
#     4  11  22  38  62  86 116 162 189 230 297 346
#     4  11  21  39  62  84 119 156 190 234 290 350
#     4   9  18  35  61  82 114 153 195 242 290 334
#     4  10  18  36  61  83 116 152 199 239 291 338
#     4   9  20  36  56  86 116 153 195 243 290 327
#     4  11  23  41  65  88 115 148 192 245 288 341
#     4  10  19  33  59  91 115 150 199 247 290 337
#
# _framework density 19.964237000000001
#
# number of rings (size 3 to 8) (size 9 to 14) (size 15 to 20)
#    0.750    1.000    3.750    3.375    0.000    2.500 
#    4.500    1.250    0.000    0.000    0.000    0.000 
#    0.000    0.000    0.000    0.000    0.000    0.000 
#
# Total GULP energy -198299.743645 kJ/mol
# GULP energy per Si atom -12393.733978 kJ/mol
# Density = 1.991880 g / cm^3
# Si number density = 19.964237 Si / 1000 Ang^3
#
#
#
# Elastic Constant Matrix: (Units=GPa)
#
#
# Indices 1 2 3 4 5 6 
#
# 1 22.2273 21.6940 14.2476 9.2938 3.6320 8.6384
# 2 21.6940 101.7341 18.4356 -0.0590 2.1951 24.1247
# 3 14.2476 18.4356 85.4374 11.7777 10.0679 9.4103
# 4 9.2938 -0.0590 11.7777 44.2466 10.9411 0.2821
# 5 3.6320 2.1951 10.0679 10.9411 19.2462 0.8743
# 6 8.6384 24.1247 9.4103 0.2821 0.8743 32.8167
#
#
#
# Elastic Compliance Matrix: (Units=1/GPa)
#
#
# Indices 1 2 3 4 5 6 
#
# 1 0.068773 -0.011725 -0.006275 -0.012521 -0.000898 -0.007553
# 2 -0.011725 0.014151 -0.000658 0.002780 -0.000313 -0.007144
# 3 -0.006275 -0.000658 0.013849 -0.001044 -0.005315 -0.001685
# 4 -0.012521 0.002780 -0.001044 0.028949 -0.013941 0.001674
# 5 -0.000898 -0.000313 -0.005315 -0.013941 0.062849 0.000436
# 6 -0.007553 -0.007144 -0.001685 0.001674 0.000436 0.038169
#
#
# Mechanical properties :
#
#
# Convention : Reuss Voigt Hill
#
# Bulk Modulus (GPa) = 16.81878 35.35037 26.08458
# Shear Modulus (GPa) = 17.61343 29.59666 23.60505
#
# Velocity S-wave (km/s) = 2.97349 3.85448 3.44229
# Velocity P-wave (km/s) = 4.49796 6.12819 5.37523
#
# Compressibility (1/GPa) = 0.05945734
#
# Stress axis : x y z
#
# Youngs Moduli (GPa) = 14.54068 70.66440 72.20895
#
# Poissons Ratio (x) = 0.82854 0.45310
# Poissons Ratio (y) = 0.17049 0.04750
# Poissons Ratio (z) = 0.09124 0.04648
#
# Static dielectric constant tensor:
#      x y z
#    x 3.342020 0.434690 -0.019950 
#    y 0.434690 4.041200 -0.046510 
#    z -0.019950 -0.046510 3.473150 
# 
# 
# High freq. dielectric constant tensor:
#      x y z
#    x 1.741810 0.025400 0.000670 
#    y 0.025400 1.796590 -0.008110 
#    z 0.000670 -0.008110 1.771030 
# 
# From -- ./inp_files/476287.got.cif
#   From: 2010.06.25/outbox.cif.g09.slc.cpg/sg2_239_cif.got.tgz:476287.got - 2010.06.27 13:26:56.
