data_PCOD8040511
_publ_section_title
;
Structure prediction by ZEFSAII (Michael W. Deem and Ramdas Pophale) SiO2 
 PCOD8040511
Probable space group: P -1
;
_chemical_formula_sum "Si O2"
_cell_formula_units_Z 16
_cell_length_a 16.598449
_cell_length_b 9.090432
_cell_length_c 7.631197
_cell_angle_alpha 96.181765
_cell_angle_beta 122.936030
_cell_angle_gamma 60.790948
_cell_volume 823.742910
_symmetry_space_group_name_H-M "P -1"
_symmetry_group_IT_number 2
_symmetry_cell_setting 'triclinic'
loop_
_space_group_symop_operation_xyz
x,y,z
-x,-y,-z
loop_
_atom_site_type_symbol
_atom_site_label
_atom_site_fract_x
_atom_site_fract_y
_atom_site_fract_z
Si Si1 0.483548 0.758359 0.721898
Si Si2 0.341478 0.319820 0.340722
Si Si3 0.129364 0.035328 0.238503
Si Si4 0.292496 0.140078 0.574579
Si Si5 0.717124 0.631141 0.096590
Si Si6 0.034952 0.041211 0.775954
Si Si7 0.161626 0.734504 0.654223
Si Si8 0.306620 0.666607 0.492974
O O1 0.529048 0.770207 0.583547
O O2 0.431560 0.635159 0.635616
O O3 0.391231 0.946487 0.706023
O O4 0.588951 0.671669 0.970073
O O5 0.330915 0.214700 0.472152
O O6 0.300582 0.511651 0.380183
O O7 0.266510 0.331090 0.083053
O O8 0.178133 0.148470 0.387612
O O9 0.226683 0.836017 0.306248
O O10 0.079593 0.105615 0.995870
O O11 0.031926 0.051921 0.250475
O O12 0.265473 0.248022 0.734288
O O13 0.807655 0.432899 0.217586
O O14 0.951199 0.209649 0.584440
O O15 0.138993 0.896683 0.768077
O O16 0.265334 0.692495 0.647376
#
# Coordination Sequence:
#
# PCOD8040511 Si02
#       8
#     2   2   2   2   2   2   2   2
#     4   9  22  36  58  88 116 160 193 232 278 343
#     4  10  21  36  60  81 124 154 193 234 282 335
#     4   9  20  37  65  81 113 150 192 245 287 350
#     4  11  20  42  56  87 120 155 190 231 292 348
#     4  10  22  36  59  83 123 156 187 233 288 340
#     4   9  19  39  61  86 110 144 199 242 302 325
#     4  10  19  36  60  86 115 149 186 253 283 344
#     4  10  18  37  60  87 117 150 198 239 282 334
#
# _framework density 19.423537
#
# number of rings (size 3 to 8) (size 9 to 14) (size 15 to 20)
#    0.750    1.500    1.250    1.875    0.000    0.500 
#    9.000    1.250    0.000    0.000    0.000    0.000 
#    0.000    0.000    0.000    0.000    0.000    0.000 
#
# Total GULP energy -198320.640505 kJ/mol
# GULP energy per Si atom -12395.040032 kJ/mol
# Density = 1.937933 g / cm^3
# Si number density = 19.423537 Si / 1000 Ang^3
#
#
#
# Elastic Constant Matrix: (Units=GPa)
#
#
# Indices 1 2 3 4 5 6 
#
# 1 51.1285 16.9642 28.1901 22.2176 1.9213 -6.2899
# 2 16.9642 78.0460 41.7931 3.5511 -1.5163 -3.2454
# 3 28.1901 41.7931 122.0145 13.6684 -2.0033 -4.5839
# 4 22.2176 3.5511 13.6684 29.8423 1.4894 -2.7788
# 5 1.9213 -1.5163 -2.0033 1.4894 28.6944 1.8163
# 6 -6.2899 -3.2454 -4.5839 -2.7788 1.8163 17.1466
#
#
#
# Elastic Compliance Matrix: (Units=1/GPa)
#
#
# Indices 1 2 3 4 5 6 
#
# 1 0.033407 -0.004058 -0.003632 -0.021956 -0.002019 0.007171
# 2 -0.004058 0.016244 -0.004971 0.003407 0.000559 0.000750
# 3 -0.003632 -0.004971 0.010956 -0.001736 0.000817 0.000288
# 4 -0.021956 0.003407 -0.001736 0.050339 -0.001109 0.000402
# 5 -0.002019 0.000559 0.000817 -0.001109 0.035405 -0.004347
# 6 0.007171 0.000750 0.000288 0.000402 -0.004347 0.061696
#
#
# Mechanical properties :
#
#
# Convention : Reuss Voigt Hill
#
# Bulk Modulus (GPa) = 28.34109 47.23153 37.78631
# Shear Modulus (GPa) = 20.39735 26.08609 23.24172
#
# Velocity S-wave (km/s) = 3.24410 3.66869 3.46291
# Velocity P-wave (km/s) = 5.35304 6.50501 5.95694
#
# Compressibility (1/GPa) = 0.03528445
#
# Stress axis : x y z
#
# Youngs Moduli (GPa) = 29.93393 61.56183 91.27182
#
# Poissons Ratio (x) = 0.24984 0.33153
# Poissons Ratio (y) = 0.12148 0.45368
# Poissons Ratio (z) = 0.10873 0.30600
#
# Static dielectric constant tensor:
#      x y z
#    x 3.458120 -0.102450 -0.035400 
#    y -0.102450 3.388320 -0.037570 
#    z -0.035400 -0.037570 3.572420 
# 
# 
# High freq. dielectric constant tensor:
#      x y z
#    x 1.742400 -0.013410 -0.009330 
#    y -0.013410 1.747660 -0.001780 
#    z -0.009330 -0.001780 1.755720 
# 
# From -- ./inp_files/327748.got.cif
#   From: 2010.06.25/outbox.cif.g09.slc.cpg/sg2_164_cif.got.tgz:327748.got - 2010.06.27 13:26:56.
