data_PCOD8040465
_publ_section_title
;
Structure prediction by ZEFSAII (Michael W. Deem and Ramdas Pophale) SiO2 
 PCOD8040465
Probable space group: P -1
;
_chemical_formula_sum "Si O2"
_cell_formula_units_Z 14
_cell_length_a 7.718215
_cell_length_b 9.143750
_cell_length_c 10.845590
_cell_angle_alpha 89.749341
_cell_angle_beta 63.089865
_cell_angle_gamma 109.404047
_cell_volume 632.772768
_symmetry_space_group_name_H-M "P -1"
_symmetry_group_IT_number 2
_symmetry_cell_setting 'triclinic'
loop_
_space_group_symop_operation_xyz
x,y,z
-x,-y,-z
loop_
_atom_site_type_symbol
_atom_site_label
_atom_site_fract_x
_atom_site_fract_y
_atom_site_fract_z
Si Si1 0.671493 0.437058 0.242342
Si Si2 0.356013 0.161510 0.473029
Si Si3 0.279887 0.283942 0.931343
Si Si4 0.978482 0.661088 0.784882
Si Si5 0.728160 0.182479 0.524487
Si Si6 0.095796 0.242143 0.741507
Si Si7 0.267855 0.684533 0.218732
O O1 0.443551 0.304381 0.346040
O O2 0.657111 0.527154 0.120014
O O3 0.753796 0.571201 0.322721
O O4 0.845152 0.357241 0.180026
O O5 0.523584 0.192908 0.528142
O O6 0.142406 0.154761 0.607996
O O7 0.314510 0.996481 0.418549
O O8 0.147662 0.181522 0.857627
O O9 0.483435 0.240410 0.887850
O O10 0.141074 0.246540 0.099653
O O11 0.813732 0.497188 0.789908
O O12 0.081853 0.767306 0.633556
O O13 0.781467 0.299668 0.622011
O O14 0.852216 0.223332 0.820473
#
# Coordination Sequence:
#
# PCOD8040465 Si02
#       7
#     2   2   2   2   2   2   2
#     4   8  18  32  60  81 112 144 189 227 281 326
#     4  10  18  37  57  85 113 149 192 229 279 333
#     4  10  20  37  60  84 117 144 187 232 284 334
#     4  10  20  36  57  88 113 148 185 234 285 331
#     4  10  21  35  60  84 114 149 191 231 279 337
#     4   9  20  34  61  86 112 145 187 236 280 329
#     4  11  21  36  59  86 114 147 191 234 278 332
#
# _framework density 22.124846000000002
#
# number of rings (size 3 to 8) (size 9 to 14) (size 15 to 20)
#    0.857    1.429    1.429    1.714    0.000    2.857 
#    0.000    0.714    0.000    1.714    0.000    0.000 
#    0.000    0.000    0.000    0.000    0.000    0.000 
#
# Total GULP energy -173516.304423 kJ/mol
# GULP energy per Si atom -12394.021744 kJ/mol
# Density = 2.207449 g / cm^3
# Si number density = 22.124846 Si / 1000 Ang^3
#
#
#
# Elastic Constant Matrix: (Units=GPa)
#
#
# Indices 1 2 3 4 5 6 
#
# 1 97.9659 2.6503 33.9442 4.4325 -27.0765 7.7188
# 2 2.6503 11.7151 5.5197 6.9161 0.6251 -4.5055
# 3 33.9442 5.5197 132.5668 8.1707 -20.4356 3.0164
# 4 4.4325 6.9161 8.1707 15.1780 -4.1732 2.4169
# 5 -27.0765 0.6251 -20.4356 -4.1732 27.8808 7.3956
# 6 7.7188 -4.5055 3.0164 2.4169 7.3956 14.1556
#
#
#
# Elastic Compliance Matrix: (Units=1/GPa)
#
#
# Indices 1 2 3 4 5 6 
#
# 1 0.043219 -0.113093 0.005913 0.081220 0.093811 -0.123702
# 2 -0.113093 0.532092 -0.031521 -0.355220 -0.321780 0.466509
# 3 0.005913 -0.031521 0.010891 0.019033 0.025858 -0.032337
# 4 0.081220 -0.355220 0.019033 0.313081 0.237572 -0.338982
# 5 0.093811 -0.321780 0.025858 0.237572 0.280535 -0.346212
# 6 -0.123702 0.466509 -0.032337 -0.338982 -0.346212 0.532229
#
#
# Mechanical properties :
#
#
# Convention : Reuss Voigt Hill
#
# Bulk Modulus (GPa) = 3.23838 36.27515 19.75676
# Shear Modulus (GPa) = 2.38962 24.78511 13.58737
#
# Velocity S-wave (km/s) = 1.04039 3.35063 2.48084
# Velocity P-wave (km/s) = 1.70589 5.60359 4.14188
#
# Compressibility (1/GPa) = 0.30879649
#
# Stress axis : x y z
#
# Youngs Moduli (GPa) = 23.13822 1.87938 91.82209
#
# Poissons Ratio (x) = 0.21255 -0.54292
# Poissons Ratio (y) = 2.61678 2.89436
# Poissons Ratio (z) = -0.13681 0.05924
#
# Static dielectric constant tensor:
#      x y z
#    x 3.936860 -0.016050 -0.155500 
#    y -0.016050 3.605640 0.075620 
#    z -0.155500 0.075620 3.683820 
# 
# 
# High freq. dielectric constant tensor:
#      x y z
#    x 1.865950 0.000540 -0.015140 
#    y 0.000540 1.832930 0.015880 
#    z -0.015140 0.015880 1.856470 
# 
# From -- ./inp_files/379811.got.cif
#   From: 2010.06.25/outbox.cif.g09.slc.cpg/sg2_190_cif.got.tgz:379811.got - 2010.06.27 13:26:56.
