data_PCOD8040994
_publ_section_title
;
Structure prediction by ZEFSAII (Michael W. Deem and Ramdas Pophale) SiO2 
 PCOD8040994
Probable space group: P -1
;
_chemical_formula_sum "Si O2"
_cell_formula_units_Z 14
_cell_length_a 17.383413
_cell_length_b 9.309219
_cell_length_c 11.401846
_cell_angle_alpha 116.975735
_cell_angle_beta 151.491407
_cell_angle_gamma 83.251879
_cell_volume 589.026382
_symmetry_space_group_name_H-M "P -1"
_symmetry_group_IT_number 2
_symmetry_cell_setting 'triclinic'
loop_
_space_group_symop_operation_xyz
x,y,z
-x,-y,-z
loop_
_atom_site_type_symbol
_atom_site_label
_atom_site_fract_x
_atom_site_fract_y
_atom_site_fract_z
Si Si1 0.289857 0.298428 0.490604
Si Si2 0.928239 0.602575 0.367377
Si Si3 0.842765 0.548813 0.813185
Si Si4 0.259180 0.246329 0.690937
Si Si5 0.484746 0.179461 0.537053
Si Si6 0.585492 0.719257 0.751446
Si Si7 0.018501 0.855348 0.377336
O O1 0.129647 0.313867 0.211514
O O2 0.196269 0.173716 0.443095
O O3 0.333799 0.165414 0.425922
O O4 0.496811 0.542198 0.886922
O O5 0.897610 0.715399 0.466746
O O6 0.092922 0.780632 0.553588
O O7 0.000000 0.500000 0.500000
O O8 0.714224 0.417920 0.940473
O O9 0.586860 0.332729 0.401163
O O10 0.889040 0.672209 0.039409
O O11 0.000000 0.500000 0.000000
O O12 0.216828 0.063670 0.649347
O O13 0.384417 0.133132 0.257114
O O14 0.500000 0.000000 0.500000
O O15 0.500000 0.500000 0.500000
O O16 0.830125 0.853012 0.182056
#
# Coordination Sequence:
#
# PCOD8040994 Si02
#       7
#     2   2   2   2   2   2   2
#     4  10  22  46  65  98 141 176 217 281 344 393
#     4  11  24  40  62  96 134 168 226 278 323 398
#     4  11  23  39  70  97 135 174 221 282 335 390
#     4  10  24  42  70  92 137 183 217 269 344 408
#     4  11  22  40  68  95 128 176 223 273 333 391
#     4  10  18  41  66  89 132 168 218 279 321 384
#     4  11  22  44  69  98 127 182 232 269 336 396
#
# _framework density 23.768035999999999
#
# number of rings (size 3 to 8) (size 9 to 14) (size 15 to 20)
#    0.000    1.429    5.714    1.286    4.000    1.714 
#    0.000    0.714    0.000    0.000    0.000    0.000 
#    0.000    0.000    0.000    0.000    0.000    0.000 
#
# Total GULP energy -173482.595731 kJ/mol
# GULP energy per Si atom -12391.613981 kJ/mol
# Density = 2.371394 g / cm^3
# Si number density = 23.768036 Si / 1000 Ang^3
#
#
#
# Elastic Constant Matrix: (Units=GPa)
#
#
# Indices 1 2 3 4 5 6 
#
# 1 124.1087 78.1246 31.5560 -3.1720 2.8211 30.5254
# 2 78.1246 198.9413 33.2596 -12.9677 3.6837 29.8871
# 3 31.5560 33.2596 70.4370 -10.8179 16.3049 7.7624
# 4 -3.1720 -12.9677 -10.8179 37.3140 8.0044 -0.4378
# 5 2.8211 3.6837 16.3049 8.0044 27.6763 -6.2583
# 6 30.5254 29.8871 7.7624 -0.4378 -6.2583 49.9496
#
#
#
# Elastic Compliance Matrix: (Units=1/GPa)
#
#
# Indices 1 2 3 4 5 6 
#
# 1 0.012414 -0.003654 -0.003730 -0.001520 0.000787 -0.004735
# 2 -0.003654 0.007066 -0.000911 0.002090 -0.001081 -0.001971
# 3 -0.003730 -0.000911 0.021426 0.008811 -0.015197 -0.002332
# 4 -0.001520 0.002090 0.008811 0.033279 -0.015700 -0.003366
# 5 0.000787 -0.001081 -0.015197 -0.015700 0.051694 0.008867
# 6 -0.004735 -0.001971 -0.002332 -0.003366 0.008867 0.025537
#
#
# Mechanical properties :
#
#
# Convention : Reuss Voigt Hill
#
# Bulk Modulus (GPa) = 41.12497 75.48526 58.30512
# Shear Modulus (GPa) = 28.39107 39.69109 34.04108
#
# Velocity S-wave (km/s) = 3.45991 4.09092 3.78858
# Velocity P-wave (km/s) = 5.77075 7.35814 6.61225
#
# Compressibility (1/GPa) = 0.02431613
#
# Stress axis : x y z
#
# Youngs Moduli (GPa) = 80.55665 141.52265 46.67131
#
# Poissons Ratio (x) = 0.51706 0.17409
# Poissons Ratio (y) = 0.29432 0.04253
# Poissons Ratio (z) = 0.30048 0.12897
#
# Static dielectric constant tensor:
#      x y z
#    x 4.893330 -0.357270 0.073230 
#    y -0.357270 4.926600 -0.307970 
#    z 0.073230 -0.307970 4.945400 
# 
# 
# High freq. dielectric constant tensor:
#      x y z
#    x 1.940070 0.026280 -0.020530 
#    y 0.026280 1.942620 0.005600 
#    z -0.020530 0.005600 1.947460 
# 
# From -- ./inp_files/357585.got.cif
#   From: 2010.06.25/outbox.cif.g09.slc.cpg/sg2_179_cif.got.tgz:357585.got - 2010.06.27 13:26:56.
