data_PCOD8040784
_publ_section_title
;
Structure prediction by ZEFSAII (Michael W. Deem and Ramdas Pophale) SiO2 
 PCOD8040784
Probable space group: P -1
;
_chemical_formula_sum "Si O2"
_cell_formula_units_Z 16
_cell_length_a 8.985254
_cell_length_b 11.225344
_cell_length_c 12.207368
_cell_angle_alpha 131.628248
_cell_angle_beta 56.564774
_cell_angle_gamma 95.205728
_cell_volume 689.185706
_symmetry_space_group_name_H-M "P -1"
_symmetry_group_IT_number 2
_symmetry_cell_setting 'triclinic'
loop_
_space_group_symop_operation_xyz
x,y,z
-x,-y,-z
loop_
_atom_site_type_symbol
_atom_site_label
_atom_site_fract_x
_atom_site_fract_y
_atom_site_fract_z
Si Si1 0.192905 0.877182 0.779415
Si Si2 0.908929 0.864418 0.441596
Si Si3 0.679845 0.507140 0.587788
Si Si4 0.621237 0.772355 0.596080
Si Si5 0.146050 0.154507 0.802229
Si Si6 0.599756 0.658890 0.144582
Si Si7 0.737240 0.469851 0.189458
Si Si8 0.748170 0.415364 0.741735
O O1 0.220680 0.676787 0.633245
O O2 0.383885 0.872972 0.762229
O O3 0.177681 0.963976 0.718608
O O4 0.000000 0.000000 0.000000
O O5 0.704626 0.918713 0.627621
O O6 0.879350 0.837707 0.311448
O O7 0.051258 0.681692 0.331657
O O8 0.000000 0.000000 0.500000
O O9 0.711615 0.657915 0.599999
O O10 0.442240 0.579862 0.740915
O O11 0.785847 0.476672 0.644302
O O12 0.699780 0.643049 0.380063
O O13 0.343478 0.177543 0.769423
O O14 0.949228 0.307294 0.032372
O O15 0.739660 0.509539 0.083125
O O16 0.369902 0.708478 0.299805
O O17 0.619688 0.592118 0.970984
#
# Coordination Sequence:
#
# PCOD8040784 Si02
#       8
#     2   2   2   2   2   2   2   2
#     4  11  24  42  66 103 133 172 227 283 331 399
#     4  12  26  41  63  99 142 176 216 275 339 396
#     4  10  22  42  67  94 135 176 221 275 335 396
#     4  11  23  42  67  95 134 181 226 273 330 400
#     4  12  22  39  71  97 136 172 225 274 339 396
#     4  10  20  37  65 100 129 173 220 272 327 396
#     4  10  18  38  67 102 127 169 224 276 324 398
#     4  10  22  40  62  98 137 168 222 274 326 395
#
# _framework density 23.215803000000001
#
# number of rings (size 3 to 8) (size 9 to 14) (size 15 to 20)
#    0.000    1.250    2.500    4.875    1.750    1.000 
#    0.000    1.250    0.000    4.500    0.000    0.000 
#    0.000    0.000    0.000    0.000    0.000    0.000 
#
# Total GULP energy -198354.085026 kJ/mol
# GULP energy per Si atom -12397.130314 kJ/mol
# Density = 2.316296 g / cm^3
# Si number density = 23.215803 Si / 1000 Ang^3
#
#
#
# Elastic Constant Matrix: (Units=GPa)
#
#
# Indices 1 2 3 4 5 6 
#
# 1 104.4612 48.5118 33.1760 -12.6238 3.9410 -5.9552
# 2 48.5118 134.1478 38.3691 -25.3436 -3.2373 -2.1257
# 3 33.1760 38.3691 83.3846 -16.1941 -6.7357 -0.8230
# 4 -12.6238 -25.3436 -16.1941 26.9034 -10.2891 4.0818
# 5 3.9410 -3.2373 -6.7357 -10.2891 29.0669 2.6378
# 6 -5.9552 -2.1257 -0.8230 4.0818 2.6378 39.8722
#
#
#
# Elastic Compliance Matrix: (Units=1/GPa)
#
#
# Indices 1 2 3 4 5 6 
#
# 1 0.012651 -0.003871 -0.003909 -0.001866 -0.003899 0.002051
# 2 -0.003871 0.011250 -0.001234 0.010259 0.005251 -0.001401
# 3 -0.003909 -0.001234 0.016807 0.010546 0.008195 -0.001925
# 4 -0.001866 0.010259 0.010546 0.063889 0.027167 -0.007852
# 5 -0.003899 0.005251 0.008195 0.027167 0.047583 -0.006062
# 6 0.002051 -0.001401 -0.001925 -0.007852 -0.006062 0.026477
#
#
# Mechanical properties :
#
#
# Convention : Reuss Voigt Hill
#
# Bulk Modulus (GPa) = 44.09176 62.45636 53.27406
# Shear Modulus (GPa) = 24.48062 32.63096 28.55579
#
# Velocity S-wave (km/s) = 3.25080 3.75313 3.51096
# Velocity P-wave (km/s) = 5.75531 6.76330 6.27957
#
# Compressibility (1/GPa) = 0.02267997
#
# Stress axis : x y z
#
# Youngs Moduli (GPa) = 79.04761 88.88984 59.49956
#
# Poissons Ratio (x) = 0.34407 0.23259
# Poissons Ratio (y) = 0.30598 0.07341
# Poissons Ratio (z) = 0.30901 0.10967
#
# Static dielectric constant tensor:
#      x y z
#    x 4.471400 -0.012600 -0.128550 
#    y -0.012600 4.335040 -0.160240 
#    z -0.128550 -0.160240 3.919400 
# 
# 
# High freq. dielectric constant tensor:
#      x y z
#    x 1.918550 -0.009820 -0.014360 
#    y -0.009820 1.924710 -0.018080 
#    z -0.014360 -0.018080 1.893870 
# 
# From -- ./inp_files/308180.got.cif
#   From: 2010.06.25/outbox.cif.g09.slc.cpg/sg2_155_cif.got.tgz:308180.got - 2010.06.27 13:26:56.
