data_PCOD8040992
_publ_section_title
;
Structure prediction by ZEFSAII (Michael W. Deem and Ramdas Pophale) SiO2 
 PCOD8040992
Probable space group: P -1
;
_chemical_formula_sum "Si O2"
_cell_formula_units_Z 12
_cell_length_a 12.639462
_cell_length_b 9.689334
_cell_length_c 8.701895
_cell_angle_alpha 65.490455
_cell_angle_beta 91.187814
_cell_angle_gamma 44.858002
_cell_volume 596.035909
_symmetry_space_group_name_H-M "P -1"
_symmetry_group_IT_number 2
_symmetry_cell_setting 'triclinic'
loop_
_space_group_symop_operation_xyz
x,y,z
-x,-y,-z
loop_
_atom_site_type_symbol
_atom_site_label
_atom_site_fract_x
_atom_site_fract_y
_atom_site_fract_z
Si Si1 0.494226 0.957768 0.695926
Si Si2 0.150341 0.749160 0.209546
Si Si3 0.139557 0.420919 0.436809
Si Si4 0.498700 0.390238 0.192301
Si Si5 0.819542 0.756909 0.806224
Si Si6 0.683774 0.241268 0.560222
O O1 0.471356 0.806282 0.790431
O O2 0.668025 0.822051 0.844163
O O3 0.500000 0.000000 0.500000
O O4 0.317948 0.232978 0.627370
O O5 0.090403 0.643396 0.273891
O O6 0.321714 0.580834 0.193112
O O7 0.178787 0.788962 0.362469
O O8 0.000000 0.000000 0.000000
O O9 0.168150 0.276381 0.360885
O O10 0.000000 0.500000 0.500000
O O11 0.658241 0.259696 0.367134
O O12 0.500000 0.500000 0.000000
O O13 0.760215 0.994313 0.737194
O O14 0.000000 0.500000 0.000000
O O15 0.500000 0.500000 0.500000
#
# Coordination Sequence:
#
# PCOD8040992 Si02
#       6
#     2   2   2   2   2   2
#     4  10  18  41  66  83 125 171 213 255 326 378
#     4  11  23  40  63  95 131 164 208 270 328 385
#     4  11  23  42  66  91 127 174 214 261 325 389
#     4  11  22  40  66  93 123 172 214 262 328 385
#     4  11  21  41  70  95 125 172 220 267 325 391
#     4  10  21  40  65  94 129 168 215 268 324 387
#
# _framework density 20.133016000000001
#
# number of rings (size 3 to 8) (size 9 to 14) (size 15 to 20)
#    0.000    1.333    6.667    2.000    2.333    0.000 
#    3.000    2.500    0.000    0.000    0.000    0.000 
#    0.000    0.000    0.000    0.000    0.000    0.000 
#
# Total GULP energy -148665.256674 kJ/mol
# GULP energy per Si atom -12388.771390 kJ/mol
# Density = 2.008719 g / cm^3
# Si number density = 20.133016 Si / 1000 Ang^3
#
#
#
# Elastic Constant Matrix: (Units=GPa)
#
#
# Indices 1 2 3 4 5 6 
#
# 1 121.2054 46.5826 63.2805 -7.9713 -7.3553 -10.1572
# 2 46.5826 79.7931 38.3210 -25.7873 -4.8114 2.9620
# 3 63.2805 38.3210 124.0618 -29.3771 -0.9850 -4.7828
# 4 -7.9713 -25.7873 -29.3771 39.3335 -1.7573 -0.7315
# 5 -7.3553 -4.8114 -0.9850 -1.7573 48.8880 -8.6682
# 6 -10.1572 2.9620 -4.7828 -0.7315 -8.6682 40.5388
#
#
#
# Elastic Compliance Matrix: (Units=1/GPa)
#
#
# Indices 1 2 3 4 5 6 
#
# 1 0.014525 -0.007560 -0.006513 -0.006732 0.001719 0.003669
# 2 -0.007560 0.021017 0.000183 0.012366 0.000846 -0.003004
# 3 -0.006513 0.000183 0.013406 0.008797 -0.000373 0.000016
# 4 -0.006732 0.012366 0.008797 0.038803 0.001689 -0.000491
# 5 0.001719 0.000846 -0.000373 0.001689 0.021737 0.005003
# 6 0.003669 -0.003004 0.000016 -0.000491 0.005003 0.026869
#
#
# Mechanical properties :
#
#
# Convention : Reuss Voigt Hill
#
# Bulk Modulus (GPa) = 47.23746 69.04762 58.14254
# Shear Modulus (GPa) = 29.20675 37.54381 33.37528
#
# Velocity S-wave (km/s) = 3.81292 4.32300 4.07595
# Velocity P-wave (km/s) = 6.54967 7.69987 7.14794
#
# Compressibility (1/GPa) = 0.02116964
#
# Stress axis : x y z
#
# Youngs Moduli (GPa) = 68.84510 47.58121 74.59075
#
# Poissons Ratio (x) = 0.35972 0.48579
# Poissons Ratio (y) = 0.52048 -0.01369
# Poissons Ratio (z) = 0.44837 -0.00873
#
# Static dielectric constant tensor:
#      x y z
#    x 4.733970 0.159000 0.342930 
#    y 0.159000 3.758750 -0.245460 
#    z 0.342930 -0.245460 3.657780 
# 
# 
# High freq. dielectric constant tensor:
#      x y z
#    x 1.789600 0.012520 0.014750 
#    y 0.012520 1.778900 -0.032220 
#    z 0.014750 -0.032220 1.780380 
# 
# From -- ./inp_files/144511.got.cif
#   From: 2010.06.25/outbox.cif.g09.slc.cpg/sg2_73_cif.got.tgz:144511.got - 2010.06.27 13:26:56.
