data_PCOD8040456
_publ_section_title
;
Structure prediction by ZEFSAII (Michael W. Deem and Ramdas Pophale) SiO2 
 PCOD8040456
Probable space group: P -1
;
_chemical_formula_sum "Si O2"
_cell_formula_units_Z 14
_cell_length_a 8.658896
_cell_length_b 18.286785
_cell_length_c 11.840708
_cell_angle_alpha 130.215735
_cell_angle_beta 117.838560
_cell_angle_gamma 31.333609
_cell_volume 727.457791
_symmetry_space_group_name_H-M "P -1"
_symmetry_group_IT_number 2
_symmetry_cell_setting 'triclinic'
loop_
_space_group_symop_operation_xyz
x,y,z
-x,-y,-z
loop_
_atom_site_type_symbol
_atom_site_label
_atom_site_fract_x
_atom_site_fract_y
_atom_site_fract_z
Si Si1 0.638049 0.723900 0.522555
Si Si2 0.658866 0.964657 0.193891
Si Si3 0.960458 0.789758 0.897148
Si Si4 0.869415 0.367961 0.872517
Si Si5 0.669421 0.535981 0.192377
Si Si6 0.312882 0.458145 0.466930
Si Si7 0.537834 0.553509 0.731870
O O1 0.611648 0.669431 0.348640
O O2 0.603353 0.677962 0.579079
O O3 0.955435 0.639352 0.541559
O O4 0.370766 0.922559 0.635020
O O5 0.789641 0.825642 0.185836
O O6 0.331830 0.078693 0.150881
O O7 0.887954 0.874059 0.075501
O O8 0.082114 0.627147 0.803417
O O9 0.230401 0.726100 0.862454
O O10 0.645100 0.379377 0.826788
O O11 0.822102 0.431831 0.794820
O O12 0.796131 0.482752 0.054754
O O13 0.506213 0.458042 0.584615
O O14 0.392794 0.409122 0.312812
#
# Coordination Sequence:
#
# PCOD8040456 Si02
#       7
#     2   2   2   2   2   2   2
#     4  11  18  34  53  87 101 131 175 229 254 301
#     4  10  19  28  54  83 112 129 167 220 271 299
#     4   9  16  33  52  78 102 144 178 205 243 326
#     4   9  18  33  51  79 103 141 172 210 256 321
#     4   9  17  32  55  72 104 140 182 206 245 312
#     4  10  20  32  59  77 101 137 185 215 248 303
#     4  10  18  37  56  76  99 145 182 209 242 323
#
# _framework density 19.245104000000001
#
# number of rings (size 3 to 8) (size 9 to 14) (size 15 to 20)
#    0.000    2.286    4.286    1.714    0.000    0.571 
#    0.000    2.143    0.000    0.000    0.000    0.000 
#    0.000    0.000    0.000    0.000    0.000    0.000 
#
# Total GULP energy -173540.091570 kJ/mol
# GULP energy per Si atom -12395.720826 kJ/mol
# Density = 1.920130 g / cm^3
# Si number density = 19.245104 Si / 1000 Ang^3
#
#
#
# Elastic Constant Matrix: (Units=GPa)
#
#
# Indices 1 2 3 4 5 6 
#
# 1 58.8931 18.5875 25.7080 -6.1654 -21.3820 8.3992
# 2 18.5875 105.4761 48.4803 -9.1587 -12.7524 -1.7774
# 3 25.7080 48.4803 138.5953 3.1010 -9.3642 13.0119
# 4 -6.1654 -9.1587 3.1010 34.1907 2.8165 -5.7368
# 5 -21.3820 -12.7524 -9.3642 2.8165 28.0356 -6.1923
# 6 8.3992 -1.7774 13.0119 -5.7368 -6.1923 13.8684
#
#
#
# Elastic Compliance Matrix: (Units=1/GPa)
#
#
# Indices 1 2 3 4 5 6 
#
# 1 0.025563 -0.000984 -0.002908 0.002496 0.016874 -0.004312
# 2 -0.000984 0.013538 -0.005443 0.005532 0.005749 0.012293
# 3 -0.002908 -0.005443 0.010706 -0.004766 -0.003393 -0.012468
# 4 0.002496 0.005532 -0.004766 0.034602 0.003687 0.019628
# 5 0.016874 0.005749 -0.003393 0.003687 0.053912 0.019298
# 6 -0.004312 0.012293 -0.012468 0.019628 0.019298 0.104727
#
#
# Mechanical properties :
#
#
# Convention : Reuss Voigt Hill
#
# Bulk Modulus (GPa) = 32.11528 54.27958 43.19743
# Shear Modulus (GPa) = 18.37576 29.23152 23.80364
#
# Velocity S-wave (km/s) = 3.09338 3.90154 3.52073
# Velocity P-wave (km/s) = 5.42977 6.96862 6.24676
#
# Compressibility (1/GPa) = 0.03113783
#
# Stress axis : x y z
#
# Youngs Moduli (GPa) = 39.11966 73.86400 93.40140
#
# Poissons Ratio (x) = 0.07266 0.27165
# Poissons Ratio (y) = 0.03848 0.50835
# Poissons Ratio (z) = 0.11378 0.40201
#
# Static dielectric constant tensor:
#      x y z
#    x 3.197050 -0.089190 -0.317790 
#    y -0.089190 3.581170 -0.106190 
#    z -0.317790 -0.106190 3.716910 
# 
# 
# High freq. dielectric constant tensor:
#      x y z
#    x 1.702090 -0.009380 -0.018310 
#    y -0.009380 1.740130 -0.013820 
#    z -0.018310 -0.013820 1.757960 
# 
# From -- ./inp_files/254749.got.cif
#   From: 2010.06.25/outbox.cif.g09.slc.cpg/sg2_128_cif.got.tgz:254749.got - 2010.06.27 13:26:56.
