data_PCOD8040535
_publ_section_title
;
Structure prediction by ZEFSAII (Michael W. Deem and Ramdas Pophale) SiO2 
 PCOD8040535
Probable space group: P -1
;
_chemical_formula_sum "Si O2"
_cell_formula_units_Z 16
_cell_length_a 12.380655
_cell_length_b 8.230947
_cell_length_c 15.600328
_cell_angle_alpha 65.514075
_cell_angle_beta 150.653756
_cell_angle_gamma 116.461519
_cell_volume 696.255970
_symmetry_space_group_name_H-M "P -1"
_symmetry_group_IT_number 2
_symmetry_cell_setting 'triclinic'
loop_
_space_group_symop_operation_xyz
x,y,z
-x,-y,-z
loop_
_atom_site_type_symbol
_atom_site_label
_atom_site_fract_x
_atom_site_fract_y
_atom_site_fract_z
Si Si1 0.029067 0.088431 0.592482
Si Si2 0.302231 0.257520 0.984841
Si Si3 0.032174 0.738380 0.781987
Si Si4 0.834145 0.388922 0.633930
Si Si5 0.694812 0.086464 0.728716
Si Si6 0.636576 0.235926 0.361904
Si Si7 0.514461 0.790702 0.055679
Si Si8 0.956976 0.119453 0.064900
O O1 0.841881 0.210087 0.449220
O O2 0.269784 0.226218 0.733333
O O3 0.000000 0.000000 0.500000
O O4 0.016446 0.936072 0.690805
O O5 0.456096 0.318480 0.162105
O O6 0.453378 0.297317 0.995664
O O7 0.085127 0.348700 0.813170
O O8 0.221776 0.041456 0.980763
O O9 0.979256 0.730519 0.849148
O O10 0.847417 0.589345 0.638325
O O11 0.277762 0.684272 0.951337
O O12 0.667208 0.243774 0.608662
O O13 0.725828 0.379671 0.466814
O O14 0.459505 0.965608 0.621702
O O15 0.835755 0.189837 0.883567
O O16 0.821896 0.943112 0.802062
O O17 0.500000 0.000000 0.000000
#
# Coordination Sequence:
#
# PCOD8040535 Si02
#       8
#     2   2   2   2   2   2   2   2
#     4  11  22  39  64  94 119 158 214 251 293 369
#     4  10  19  39  64  87 119 161 208 246 297 361
#     4  11  23  38  62  88 129 158 198 255 314 356
#     4  11  23  41  56  93 130 161 198 253 308 364
#     4   9  20  36  65  87 117 161 210 249 297 355
#     4  11  21  40  66  88 120 165 208 248 295 366
#     4  10  18  37  61  88 115 157 200 248 299 356
#     4   9  17  37  63  90 112 159 213 246 292 366
#
# _framework density 22.980053999999999
#
# number of rings (size 3 to 8) (size 9 to 14) (size 15 to 20)
#    0.000    1.750    3.750    3.375    1.750    1.000 
#    2.250    3.750    0.000    0.000    0.000    0.000 
#    0.000    0.000    0.000    0.000    0.000    0.000 
#
# Total GULP energy -198364.719825 kJ/mol
# GULP energy per Si atom -12397.794989 kJ/mol
# Density = 2.292775 g / cm^3
# Si number density = 22.980054 Si / 1000 Ang^3
#
#
#
# Elastic Constant Matrix: (Units=GPa)
#
#
# Indices 1 2 3 4 5 6 
#
# 1 103.8040 4.7426 31.3015 18.1333 -26.1326 -24.1907
# 2 4.7426 38.7064 15.5710 26.9544 -14.0542 -21.4625
# 3 31.3015 15.5710 118.2649 26.2965 -23.8841 -13.5876
# 4 18.1333 26.9544 26.2965 32.2356 -9.3663 -11.3444
# 5 -26.1326 -14.0542 -23.8841 -9.3663 44.0743 17.2148
# 6 -24.1907 -21.4625 -13.5876 -11.3444 17.2148 21.4142
#
#
#
# Elastic Compliance Matrix: (Units=1/GPa)
#
#
# Indices 1 2 3 4 5 6 
#
# 1 0.124609 0.383495 0.021092 -0.268574 -0.006176 0.401195
# 2 0.383495 1.326031 0.077796 -0.922677 -0.029697 1.346682
# 3 0.021092 0.077796 0.015779 -0.061972 0.002690 0.076818
# 4 -0.268574 -0.922677 -0.061972 0.686175 0.017281 -0.917863
# 5 -0.006176 -0.029697 0.002690 0.017281 0.036145 -0.054937
# 6 0.401195 1.346682 0.076818 -0.917863 -0.054937 1.456292
#
#
# Mechanical properties :
#
#
# Convention : Reuss Voigt Hill
#
# Bulk Modulus (GPa) = 0.41132 40.44505 20.42818
# Shear Modulus (GPa) = 1.43239 33.48884 17.46062
#
# Velocity S-wave (km/s) = 0.79036 3.82160 2.75947
# Velocity P-wave (km/s) = 1.00612 6.09189 4.36597
#
# Compressibility (1/GPa) = 2.43118510
#
# Stress axis : x y z
#
# Youngs Moduli (GPa) = 8.02508 0.75413 63.37606
#
# Poissons Ratio (x) = -0.28921 -1.33675
# Poissons Ratio (y) = -3.07758 -4.93039
# Poissons Ratio (z) = -0.16927 -0.05867
#
# Static dielectric constant tensor:
#      x y z
#    x 4.267940 0.030110 -0.048980 
#    y 0.030110 3.784850 0.359610 
#    z -0.048980 0.359610 4.408480 
# 
# 
# High freq. dielectric constant tensor:
#      x y z
#    x 1.913160 -0.010080 -0.005900 
#    y -0.010080 1.871440 0.023830 
#    z -0.005900 0.023830 1.908740 
# 
# From -- ./inp_files/397700.got.cif
#   From: 2010.06.25/outbox.cif.g09.slc.cpg/sg2_199_cif.got.tgz:397700.got - 2010.06.27 13:26:56.
