data_PCOD8040080
_publ_section_title
;
Structure prediction by ZEFSAII (Michael W. Deem and Ramdas Pophale) SiO2 
 PCOD8040080
Probable space group: P -1
;
_chemical_formula_sum "Si O2"
_cell_formula_units_Z 16
_cell_length_a 19.989643
_cell_length_b 9.551290
_cell_length_c 11.876750
_cell_angle_alpha 48.652538
_cell_angle_beta 137.666710
_cell_angle_gamma 97.420542
_cell_volume 806.717204
_symmetry_space_group_name_H-M "P -1"
_symmetry_group_IT_number 2
_symmetry_cell_setting 'triclinic'
loop_
_space_group_symop_operation_xyz
x,y,z
-x,-y,-z
loop_
_atom_site_type_symbol
_atom_site_label
_atom_site_fract_x
_atom_site_fract_y
_atom_site_fract_z
Si Si1 0.153591 0.938248 0.338069
Si Si2 0.616446 0.448283 0.339435
Si Si3 0.347898 0.206515 0.877021
Si Si4 0.369618 0.209457 0.149374
Si Si5 0.034641 0.698853 0.274503
Si Si6 0.787223 0.958862 0.973271
Si Si7 0.361008 0.780972 0.125096
Si Si8 0.310567 0.699093 0.868913
O O1 0.310369 0.697837 0.610416
O O2 0.060847 0.877469 0.243512
O O3 0.185004 0.956521 0.497727
O O4 0.063920 0.205128 0.010605
O O5 0.620011 0.671419 0.237296
O O6 0.707259 0.234934 0.664504
O O7 0.459744 0.579133 0.076950
O O8 0.181128 0.399837 0.594443
O O9 0.423655 0.153687 0.117606
O O10 0.404047 0.929935 0.051879
O O11 0.500000 0.000000 0.500000
O O12 0.268691 0.168594 0.063171
O O13 0.293117 0.501520 0.934391
O O14 0.951686 0.733834 0.262574
O O15 0.761787 0.034618 0.032959
O O16 0.500000 0.500000 0.500000
O O17 0.293712 0.758601 0.949096
#
# Coordination Sequence:
#
# PCOD8040080 Si02
#       8
#     2   2   2   2   2   2   2   2
#     4   9  19  33  59  93 108 146 193 260 282 327
#     4  10  18  35  63  88 114 148 198 244 292 334
#     4  10  22  38  63  87 112 155 200 234 287 349
#     4  11  20  34  55  88 115 149 192 244 283 340
#     4   9  18  38  62  84 113 146 208 238 279 337
#     4  10  21  37  64  83 117 160 192 234 290 348
#     4  11  23  41  54  85 126 160 182 232 300 358
#     4  12  20  35  58  86 126 148 191 242 303 337
#
# _framework density 19.833468
#
# number of rings (size 3 to 8) (size 9 to 14) (size 15 to 20)
#    0.000    1.750    5.000    1.875    0.000    2.500 
#    0.000    1.250    0.000    0.000    0.000    0.000 
#    0.000    0.000    0.000    0.000    0.000    0.000 
#
# Total GULP energy -198236.583545 kJ/mol
# GULP energy per Si atom -12389.786472 kJ/mol
# Density = 1.978833 g / cm^3
# Si number density = 19.833468 Si / 1000 Ang^3
#
#
#
# Elastic Constant Matrix: (Units=GPa)
#
#
# Indices 1 2 3 4 5 6 
#
# 1 107.8729 37.0603 27.4109 5.7593 1.4776 10.8233
# 2 37.0603 92.1662 14.3195 5.5588 -11.5651 1.1566
# 3 27.4109 14.3195 77.7493 17.9786 -5.9431 -1.6073
# 4 5.7593 5.5588 17.9786 33.6047 1.6221 -18.6821
# 5 1.4776 -11.5651 -5.9431 1.6221 35.1477 1.1181
# 6 10.8233 1.1566 -1.6073 -18.6821 1.1181 29.3683
#
#
#
# Elastic Compliance Matrix: (Units=1/GPa)
#
#
# Indices 1 2 3 4 5 6 
#
# 1 0.012484 -0.004529 -0.003109 -0.003294 -0.002178 -0.006606
# 2 -0.004529 0.013375 -0.000136 -0.001633 0.004646 -0.000081
# 3 -0.003109 -0.000136 0.016853 -0.011700 0.003651 -0.005508
# 4 -0.003294 -0.001633 -0.011700 0.058238 -0.006271 0.037924
# 5 -0.002178 0.004646 0.003651 -0.006271 0.031117 -0.004354
# 6 -0.006606 -0.000081 -0.005508 0.037924 -0.004354 0.060476
#
#
# Mechanical properties :
#
#
# Convention : Reuss Voigt Hill
#
# Bulk Modulus (GPa) = 36.81004 48.37439 42.59222
# Shear Modulus (GPa) = 23.02606 32.89068 27.95837
#
# Velocity S-wave (km/s) = 3.41100 4.07669 3.75861
# Velocity P-wave (km/s) = 5.84064 6.82660 6.35278
#
# Compressibility (1/GPa) = 0.02716650
#
# Stress axis : x y z
#
# Youngs Moduli (GPa) = 80.09949 74.76865 59.33496
#
# Poissons Ratio (x) = 0.33862 0.18445
# Poissons Ratio (y) = 0.36276 0.00804
# Poissons Ratio (z) = 0.24900 0.01014
#
# Static dielectric constant tensor:
#      x y z
#    x 3.850910 0.116460 -0.188330 
#    y 0.116460 3.439270 0.092690 
#    z -0.188330 0.092690 3.788590 
# 
# 
# High freq. dielectric constant tensor:
#      x y z
#    x 1.774610 0.014270 -0.024530 
#    y 0.014270 1.744290 0.005390 
#    z -0.024530 0.005390 1.777350 
# 
# From -- ./inp_files/357812.got.cif
#   From: 2010.06.25/outbox.cif.g09.slc.cpg/sg2_179_cif.got.tgz:357812.got - 2010.06.27 13:26:56.
