data_PCOD8040921
_publ_section_title
;
Structure prediction by ZEFSAII (Michael W. Deem and Ramdas Pophale) SiO2 
 PCOD8040921
Probable space group: P -1
;
_chemical_formula_sum "Si O2"
_cell_formula_units_Z 16
_cell_length_a 11.499939
_cell_length_b 10.487994
_cell_length_c 11.694819
_cell_angle_alpha 55.607090
_cell_angle_beta 106.267775
_cell_angle_gamma 61.856990
_cell_volume 677.509528
_symmetry_space_group_name_H-M "P -1"
_symmetry_group_IT_number 2
_symmetry_cell_setting 'triclinic'
loop_
_space_group_symop_operation_xyz
x,y,z
-x,-y,-z
loop_
_atom_site_type_symbol
_atom_site_label
_atom_site_fract_x
_atom_site_fract_y
_atom_site_fract_z
Si Si1 0.694362 0.614729 0.805101
Si Si2 0.120228 0.720791 0.191323
Si Si3 0.962551 0.333987 0.318823
Si Si4 0.282519 0.114177 0.695100
Si Si5 0.727695 0.922723 0.646413
Si Si6 0.791437 0.812417 0.105955
Si Si7 0.484532 0.217065 0.646382
Si Si8 0.609489 0.544510 0.043282
O O1 0.799475 0.403953 0.846994
O O2 0.799708 0.673587 0.807089
O O3 0.458466 0.874869 0.592510
O O4 0.723358 0.500438 0.989336
O O5 0.317766 0.522810 0.430278
O O6 0.975656 0.741057 0.194046
O O7 0.000000 0.000000 0.000000
O O8 0.831397 0.625615 0.128950
O O9 0.804589 0.348585 0.281788
O O10 0.091137 0.175113 0.318462
O O11 0.102887 0.211243 0.530389
O O12 0.225140 0.231249 0.746423
O O13 0.367553 0.172393 0.614884
O O14 0.446839 0.819158 0.914651
O O15 0.663032 0.058970 0.682382
O O16 0.591471 0.103897 0.857105
O O17 0.500000 0.500000 0.000000
#
# Coordination Sequence:
#
# PCOD8040921 Si02
#       8
#     2   2   2   2   2   2   2   2
#     4  10  19  42  67  95 143 166 236 289 349 414
#     4  11  26  43  67 102 143 187 232 293 357 420
#     4  12  23  42  74 106 138 183 242 294 349 420
#     4  12  24  45  67 106 143 185 243 288 346 423
#     4  10  18  39  73 105 124 178 235 301 343 402
#     4  12  25  40  73 106 138 192 240 284 348 425
#     4  11  23  43  72 105 144 178 236 297 349 415
#     4  12  28  43  67 101 143 189 231 295 362 417
#
# _framework density 23.615901000000001
#
# number of rings (size 3 to 8) (size 9 to 14) (size 15 to 20)
#    0.000    0.750    6.250    1.500    3.500    2.000 
#    0.000    0.000    5.500    0.000    0.000    0.000 
#    0.000    0.000    0.000    0.000    0.000    0.000 
#
# Total GULP energy -198255.474884 kJ/mol
# GULP energy per Si atom -12390.967180 kJ/mol
# Density = 2.356215 g / cm^3
# Si number density = 23.615901 Si / 1000 Ang^3
#
#
#
# Elastic Constant Matrix: (Units=GPa)
#
#
# Indices 1 2 3 4 5 6 
#
# 1 91.9296 42.8193 34.9566 -8.0247 34.0755 -0.0454
# 2 42.8193 88.2309 43.0502 -12.5990 1.1585 -15.5329
# 3 34.9566 43.0502 131.0210 -3.9826 26.4981 -4.5057
# 4 -8.0247 -12.5990 -3.9826 40.2704 4.8941 -1.0033
# 5 34.0755 1.1585 26.4981 4.8941 33.8093 0.2002
# 6 -0.0454 -15.5329 -4.5057 -1.0033 0.2002 16.8708
#
#
#
# Elastic Compliance Matrix: (Units=1/GPa)
#
#
# Indices 1 2 3 4 5 6 
#
# 1 0.031590 -0.019234 0.004655 0.004650 -0.035408 -0.015684
# 2 -0.019234 0.029050 -0.008495 0.002029 0.024611 0.024254
# 3 0.004655 -0.008495 0.011854 0.001010 -0.013811 -0.004419
# 4 0.004650 0.002029 0.001010 0.027756 -0.009589 0.003915
# 5 -0.035408 0.024611 -0.013811 -0.009589 0.076530 0.017397
# 6 -0.015684 0.024254 -0.004419 0.003915 0.017397 0.080409
#
#
# Mechanical properties :
#
#
# Convention : Reuss Voigt Hill
#
# Bulk Modulus (GPa) = 37.95917 61.42595 49.69256
# Shear Modulus (GPa) = 16.01955 30.88045 23.45000
#
# Velocity S-wave (km/s) = 2.60732 3.62002 3.15457
# Velocity P-wave (km/s) = 5.01723 6.59845 5.86141
#
# Compressibility (1/GPa) = 0.02634410
#
# Stress axis : x y z
#
# Youngs Moduli (GPa) = 31.65596 34.42353 84.36258
#
# Poissons Ratio (x) = 0.66211 -0.39268
# Poissons Ratio (y) = 0.60888 0.71666
# Poissons Ratio (z) = -0.14735 0.29243
#
# Static dielectric constant tensor:
#      x y z
#    x 4.364240 -0.229890 0.205870 
#    y -0.229890 4.192920 -0.159690 
#    z 0.205870 -0.159690 4.507960 
# 
# 
# High freq. dielectric constant tensor:
#      x y z
#    x 1.912400 -0.025240 0.028340 
#    y -0.025240 1.923800 -0.000010 
#    z 0.028340 -0.000010 1.949420 
# 
# From -- ./inp_files/427592.got.cif
#   From: 2010.06.25/outbox.cif.g09.slc.cpg/sg2_214_cif.got.tgz:427592.got - 2010.06.27 13:26:56.
