data_PCOD8040734
_publ_section_title
;
Structure prediction by ZEFSAII (Michael W. Deem and Ramdas Pophale) SiO2 
 PCOD8040734
Probable space group: P -1
;
_chemical_formula_sum "Si O2"
_cell_formula_units_Z 16
_cell_length_a 8.526444
_cell_length_b 11.494652
_cell_length_c 14.475332
_cell_angle_alpha 67.427595
_cell_angle_beta 114.314907
_cell_angle_gamma 139.740733
_cell_volume 829.647516
_symmetry_space_group_name_H-M "P -1"
_symmetry_group_IT_number 2
_symmetry_cell_setting 'triclinic'
loop_
_space_group_symop_operation_xyz
x,y,z
-x,-y,-z
loop_
_atom_site_type_symbol
_atom_site_label
_atom_site_fract_x
_atom_site_fract_y
_atom_site_fract_z
Si Si1 0.746268 0.920188 0.999321
Si Si2 0.766557 0.342903 0.110476
Si Si3 0.151863 0.465344 0.506009
Si Si4 0.824602 0.251873 0.953394
Si Si5 0.090209 0.151211 0.605897
Si Si6 0.870283 0.594076 0.694925
Si Si7 0.294483 0.228729 0.440102
Si Si8 0.554543 0.760255 0.192078
O O1 0.530484 0.795973 0.906514
O O2 0.811078 0.095607 0.992742
O O3 0.641522 0.781838 0.101348
O O4 0.000000 0.000000 0.000000
O O5 0.915742 0.554710 0.081027
O O6 0.868215 0.314882 0.229186
O O7 0.804475 0.284193 0.044146
O O8 0.048460 0.277625 0.576072
O O9 0.159746 0.478965 0.392671
O O10 0.423814 0.618056 0.569397
O O11 0.000000 0.500000 0.500000
O O12 0.588856 0.180490 0.858792
O O13 0.290926 0.235487 0.548204
O O14 0.193974 0.122962 0.724341
O O15 0.821349 0.960562 0.568712
O O16 0.873261 0.746143 0.646687
O O17 0.646192 0.444412 0.756268
#
# Coordination Sequence:
#
# PCOD8040734 Si02
#       8
#     2   2   2   2   2   2   2   2
#     4  11  24  40  56  88 128 154 179 245 306 348
#     4   9  19  38  61  88 109 150 207 239 280 346
#     4  11  22  41  57  86 133 152 181 243 300 347
#     4   9  20  37  62  86 111 152 198 248 285 331
#     4  10  20  37  61  92 107 156 203 235 283 347
#     4  10  19  38  66  86 110 156 203 243 281 337
#     4  10  20  36  63  86 117 148 197 249 283 330
#     4  10  18  38  63  82 112 150 208 235 276 346
#
# _framework density 19.285298999999998
#
# number of rings (size 3 to 8) (size 9 to 14) (size 15 to 20)
#    0.000    2.000    2.500    3.000    3.500    1.000 
#    6.750    0.000    0.000    0.000    0.000    0.000 
#    0.000    0.000    0.000    0.000    0.000    0.000 
#
# Total GULP energy -198283.259624 kJ/mol
# GULP energy per Si atom -12392.703727 kJ/mol
# Density = 1.924141 g / cm^3
# Si number density = 19.285299 Si / 1000 Ang^3
#
#
#
# Elastic Constant Matrix: (Units=GPa)
#
#
# Indices 1 2 3 4 5 6 
#
# 1 100.3502 66.7832 41.4317 3.1013 13.5978 8.8621
# 2 66.7832 105.5101 37.4843 -1.9128 11.3015 0.8700
# 3 41.4317 37.4843 111.9518 6.1697 16.0443 5.1723
# 4 3.1013 -1.9128 6.1697 23.9768 9.0562 6.7555
# 5 13.5978 11.3015 16.0443 9.0562 19.4907 -0.1096
# 6 8.8621 0.8700 5.1723 6.7555 -0.1096 30.0671
#
#
#
# Elastic Compliance Matrix: (Units=1/GPa)
#
#
# Indices 1 2 3 4 5 6 
#
# 1 0.019301 -0.010638 -0.002588 0.000893 -0.005611 -0.005157
# 2 -0.010638 0.017168 -0.001706 0.003656 -0.002816 0.002100
# 3 -0.002588 -0.001706 0.011473 0.000124 -0.006714 -0.001214
# 4 0.000893 0.003656 0.000124 0.056613 -0.029225 -0.013217
# 5 -0.005611 -0.002816 -0.006714 -0.029225 0.076014 0.009733
# 6 -0.005157 0.002100 -0.001214 -0.013217 0.009733 0.037932
#
#
# Mechanical properties :
#
#
# Convention : Reuss Voigt Hill
#
# Bulk Modulus (GPa) = 55.31722 67.69007 61.50364
# Shear Modulus (GPa) = 19.65474 26.18111 22.91792
#
# Velocity S-wave (km/s) = 3.19589 3.68852 3.45100
# Velocity P-wave (km/s) = 6.50877 7.30176 6.91664
#
# Compressibility (1/GPa) = 0.01807755
#
# Stress axis : x y z
#
# Youngs Moduli (GPa) = 51.81051 58.24916 87.16095
#
# Poissons Ratio (x) = 0.61963 0.22559
# Poissons Ratio (y) = 0.55114 0.14873
# Poissons Ratio (z) = 0.13409 0.09940
#
# Static dielectric constant tensor:
#      x y z
#    x 3.192510 0.155050 0.189130 
#    y 0.155050 3.653930 0.005840 
#    z 0.189130 0.005840 3.830310 
# 
# 
# High freq. dielectric constant tensor:
#      x y z
#    x 1.711140 0.009760 0.019610 
#    y 0.009760 1.758610 -0.000350 
#    z 0.019610 -0.000350 1.758500 
# 
# From -- ./inp_files/272270.got.cif
#   From: 2010.06.25/outbox.cif.g09.slc.cpg/sg2_137_cif.got.tgz:272270.got - 2010.06.27 13:26:56.
