data_PCOD8040571
_publ_section_title
;
Structure prediction by ZEFSAII (Michael W. Deem and Ramdas Pophale) SiO2 
 PCOD8040571
Probable space group: P -1
;
_chemical_formula_sum "Si O2"
_cell_formula_units_Z 16
_cell_length_a 11.189079
_cell_length_b 15.556840
_cell_length_c 7.456933
_cell_angle_alpha 53.886702
_cell_angle_beta 69.981992
_cell_angle_gamma 36.023025
_cell_volume 591.513846
_symmetry_space_group_name_H-M "P -1"
_symmetry_group_IT_number 2
_symmetry_cell_setting 'triclinic'
loop_
_space_group_symop_operation_xyz
x,y,z
-x,-y,-z
loop_
_atom_site_type_symbol
_atom_site_label
_atom_site_fract_x
_atom_site_fract_y
_atom_site_fract_z
Si Si1 0.463424 0.296727 0.317693
Si Si2 0.121424 0.825188 0.245957
Si Si3 0.796230 0.737380 0.005574
Si Si4 0.594922 0.908728 0.374595
Si Si5 0.968682 0.394000 0.329236
Si Si6 0.559080 0.583187 0.175283
Si Si7 0.222452 0.747130 0.680763
Si Si8 0.927921 0.296772 0.886921
O O1 0.449841 0.185182 0.528519
O O2 0.686469 0.197123 0.390579
O O3 0.457758 0.304780 0.090177
O O4 0.266517 0.491513 0.261285
O O5 0.367600 0.694449 0.271384
O O6 0.071566 0.851413 0.452359
O O7 0.061308 0.756542 0.255753
O O8 0.000000 0.000000 0.000000
O O9 0.923100 0.676544 0.833353
O O10 0.864261 0.773669 0.082208
O O11 0.540718 0.924834 0.894172
O O12 0.856129 0.577902 0.224987
O O13 0.850368 0.758027 0.430230
O O14 0.500000 0.000000 0.500000
O O15 0.773676 0.441528 0.358344
O O16 0.576350 0.466687 0.185138
O O17 0.086867 0.794307 0.859377
#
# Coordination Sequence:
#
# PCOD8040571 Si02
#       8
#     2   2   2   2   2   2   2   2
#     4  11  19  38  69  96 132 179 224 275 338 406
#     4  12  28  43  62 102 142 175 223 286 337 400
#     4  10  19  35  63 100 136 172 225 282 331 401
#     4  10  21  33  59 105 138 168 233 282 330 403
#     4  10  18  37  62  98 134 177 224 279 334 398
#     4  11  20  41  66  94 134 177 223 272 340 410
#     4  11  23  42  68  97 130 179 232 266 340 416
#     4  11  21  43  70  97 135 179 222 277 346 408
#
# _framework density 27.049239
#
# number of rings (size 3 to 8) (size 9 to 14) (size 15 to 20)
#    0.000    1.250    6.250    2.625    1.750    1.500 
#    2.250    0.000    0.000    3.750    0.000    0.000 
#    0.000    0.000    0.000    0.000    0.000    0.000 
#
# Total GULP energy -198324.191963 kJ/mol
# GULP energy per Si atom -12395.261998 kJ/mol
# Density = 2.698767 g / cm^3
# Si number density = 27.049239 Si / 1000 Ang^3
#
#
#
# Elastic Constant Matrix: (Units=GPa)
#
#
# Indices 1 2 3 4 5 6 
#
# 1 179.6342 48.3765 33.1846 -20.5734 31.2585 0.9900
# 2 48.3765 55.0293 50.0165 -22.8491 21.7820 8.7811
# 3 33.1846 50.0165 118.4826 -10.9639 38.3041 0.9907
# 4 -20.5734 -22.8491 -10.9639 50.0096 6.0464 8.4701
# 5 31.2585 21.7820 38.3041 6.0464 38.2920 0.3616
# 6 0.9900 8.7811 0.9907 8.4701 0.3616 29.9912
#
#
#
# Elastic Compliance Matrix: (Units=1/GPa)
#
#
# Indices 1 2 3 4 5 6 
#
# 1 0.008027 -0.007146 0.002514 0.000953 -0.005168 0.001537
# 2 -0.007146 0.060673 -0.015102 0.027792 -0.017729 -0.024665
# 3 0.002514 -0.015102 0.017380 -0.001499 -0.010651 0.004316
# 4 0.000953 0.027792 -0.001499 0.038467 -0.020985 -0.018730
# 5 -0.005168 -0.017729 -0.010651 -0.020985 0.054283 0.010985
# 6 0.001537 -0.024665 0.004316 -0.018730 0.010985 0.045529
#
#
# Mechanical properties :
#
#
# Convention : Reuss Voigt Hill
#
# Bulk Modulus (GPa) = 21.45330 68.47793 44.96562
# Shear Modulus (GPa) = 17.89793 38.42979 28.16386
#
# Velocity S-wave (km/s) = 2.57510 3.77335 3.23027
# Velocity P-wave (km/s) = 4.09756 6.65997 5.52925
#
# Compressibility (1/GPa) = 0.04661287
#
# Stress axis : x y z
#
# Youngs Moduli (GPa) = 124.58444 16.48178 57.53874
#
# Poissons Ratio (x) = 0.11778 -0.14468
# Poissons Ratio (y) = 0.89027 0.86894
# Poissons Ratio (z) = -0.31326 0.24890
#
# Static dielectric constant tensor:
#      x y z
#    x 5.040380 0.052950 0.380600 
#    y 0.052950 4.861330 -0.338530 
#    z 0.380600 -0.338530 5.295950 
# 
# 
# High freq. dielectric constant tensor:
#      x y z
#    x 2.095630 0.007640 0.007730 
#    y 0.007640 2.074430 0.000900 
#    z 0.007730 0.000900 2.100410 
# 
# From -- ./inp_files/269751.got.cif
#   From: 2010.06.25/outbox.cif.g09.slc.cpg/sg2_135_cif.got.tgz:269751.got - 2010.06.27 13:26:56.
