data_PCOD8040059
_publ_section_title
;
Structure prediction by ZEFSAII (Michael W. Deem and Ramdas Pophale) SiO2 
 PCOD8040059
Probable space group: P -1
;
_chemical_formula_sum "Si O2"
_cell_formula_units_Z 14
_cell_length_a 9.089883
_cell_length_b 20.408708
_cell_length_c 9.054982
_cell_angle_alpha 150.599829
_cell_angle_beta 120.671837
_cell_angle_gamma 51.928989
_cell_volume 647.590643
_symmetry_space_group_name_H-M "P -1"
_symmetry_group_IT_number 2
_symmetry_cell_setting 'triclinic'
loop_
_space_group_symop_operation_xyz
x,y,z
-x,-y,-z
loop_
_atom_site_type_symbol
_atom_site_label
_atom_site_fract_x
_atom_site_fract_y
_atom_site_fract_z
Si Si1 0.280289 0.914731 0.618481
Si Si2 0.614227 0.190609 0.219127
Si Si3 0.963226 0.246667 0.835835
Si Si4 0.294767 0.056590 0.437538
Si Si5 0.670021 0.448645 0.869608
Si Si6 0.304730 0.263574 0.602434
Si Si7 0.797508 0.764121 0.820377
O O1 0.270178 0.898473 0.756819
O O2 0.179771 0.820011 0.304983
O O3 0.494469 0.860463 0.575381
O O4 0.183834 0.082253 0.856788
O O5 0.641092 0.342421 0.523409
O O6 0.394285 0.230030 0.197928
O O7 0.709638 0.086377 0.925149
O O8 0.862013 0.369764 0.903556
O O9 0.141320 0.109812 0.591331
O O10 0.030899 0.326660 0.158670
O O11 0.236717 0.197739 0.576096
O O12 0.500000 0.000000 0.500000
O O13 0.500000 0.500000 0.000000
O O14 0.681609 0.583983 0.052085
O O15 0.174236 0.291456 0.443492
#
# Coordination Sequence:
#
# PCOD8040059 Si02
#       7
#     2   2   2   2   2   2   2
#     4  10  18  35  62  91 118 156 211 251 295 355
#     4  10  19  37  64  87 122 160 200 248 312 356
#     4  11  24  35  63  93 130 155 205 258 306 360
#     4  12  23  41  65  95 123 161 203 261 310 362
#     4  11  22  41  62  90 126 167 204 251 304 365
#     4  11  21  40  67  86 125 167 203 249 310 364
#     4  11  18  36  63  97 115 159 214 255 296 362
#
# _framework density 21.618596
#
# number of rings (size 3 to 8) (size 9 to 14) (size 15 to 20)
#    0.000    1.143    8.571    1.286    0.000    3.429 
#    0.000    0.714    0.000    0.000    0.000    0.000 
#    0.000    0.000    0.000    0.000    0.000    0.000 
#
# Total GULP energy -173529.690022 kJ/mol
# GULP energy per Si atom -12394.977859 kJ/mol
# Density = 2.156939 g / cm^3
# Si number density = 21.618596 Si / 1000 Ang^3
#
#
#
# Elastic Constant Matrix: (Units=GPa)
#
#
# Indices 1 2 3 4 5 6 
#
# 1 35.6511 11.5091 19.3282 -11.9186 6.8867 -0.0935
# 2 11.5091 67.7537 32.2590 -19.5022 10.2537 -16.1985
# 3 19.3282 32.2590 117.1537 -5.6221 21.6164 10.7369
# 4 -11.9186 -19.5022 -5.6221 36.9493 1.5172 7.7840
# 5 6.8867 10.2537 21.6164 1.5172 33.8415 4.7670
# 6 -0.0935 -16.1985 10.7369 7.7840 4.7670 30.4715
#
#
#
# Elastic Compliance Matrix: (Units=1/GPa)
#
#
# Indices 1 2 3 4 5 6 
#
# 1 0.034963 -0.000193 -0.004274 0.010829 -0.004740 -0.000514
# 2 -0.000193 0.024825 -0.006598 0.009314 -0.005662 0.014027
# 3 -0.004274 -0.006598 0.012362 -0.001362 -0.003994 -0.006904
# 4 0.010829 0.009314 -0.001362 0.036101 -0.005363 -0.002919
# 5 -0.004740 -0.005662 -0.003994 -0.005363 0.035846 -0.005855
# 6 -0.000514 0.014027 -0.006904 -0.002919 -0.005855 0.044367
#
#
# Mechanical properties :
#
#
# Convention : Reuss Voigt Hill
#
# Bulk Modulus (GPa) = 19.99160 38.52789 29.25974
# Shear Modulus (GPa) = 22.00056 30.74995 26.37525
#
# Velocity S-wave (km/s) = 3.19355 3.77554 3.49668
# Velocity P-wave (km/s) = 4.78183 6.07179 5.46500
#
# Compressibility (1/GPa) = 0.05002101
#
# Stress axis : x y z
#
# Youngs Moduli (GPa) = 28.60133 40.28213 80.89341
#
# Poissons Ratio (x) = 0.00777 0.34573
# Poissons Ratio (y) = 0.00552 0.53372
# Poissons Ratio (z) = 0.12224 0.26577
#
# Static dielectric constant tensor:
#      x y z
#    x 3.710100 -0.095210 0.219580 
#    y -0.095210 4.060640 -0.118370 
#    z 0.219580 -0.118370 4.112220 
# 
# 
# High freq. dielectric constant tensor:
#      x y z
#    x 1.821980 -0.009690 0.021330 
#    y -0.009690 1.849930 -0.006010 
#    z 0.021330 -0.006010 1.845180 
# 
# From -- ./inp_files/176844.got.cif
#   From: 2010.06.25/outbox.cif.g09.slc.cpg/sg2_89_cif.got.tgz:176844.got - 2010.06.27 13:26:56.
