data_PCOD8040620
_publ_section_title
;
Structure prediction by ZEFSAII (Michael W. Deem and Ramdas Pophale) SiO2 
 PCOD8040620
Probable space group: P -1
;
_chemical_formula_sum "Si O2"
_cell_formula_units_Z 16
_cell_length_a 7.360727
_cell_length_b 11.507243
_cell_length_c 21.018346
_cell_angle_alpha 28.262308
_cell_angle_beta 53.542250
_cell_angle_gamma 64.594695
_cell_volume 656.860785
_symmetry_space_group_name_H-M "P -1"
_symmetry_group_IT_number 2
_symmetry_cell_setting 'triclinic'
loop_
_space_group_symop_operation_xyz
x,y,z
-x,-y,-z
loop_
_atom_site_type_symbol
_atom_site_label
_atom_site_fract_x
_atom_site_fract_y
_atom_site_fract_z
Si Si1 0.195046 0.014398 0.741490
Si Si2 0.132687 0.356737 0.414725
Si Si3 0.394008 0.236516 0.230959
Si Si4 0.721468 0.927814 0.160138
Si Si5 0.213704 0.903493 0.542044
Si Si6 0.487631 0.424370 0.404051
Si Si7 0.223246 0.991705 0.261074
Si Si8 0.842645 0.425157 0.827784
O O1 0.150826 0.020963 0.823194
O O2 0.341078 0.298086 0.557079
O O3 0.952283 0.941548 0.787490
O O4 0.348998 0.812416 0.792273
O O5 0.321080 0.528913 0.340221
O O6 0.107534 0.543043 0.273018
O O7 0.895930 0.255191 0.552695
O O8 0.230073 0.116303 0.488958
O O9 0.403914 0.514697 0.125944
O O10 0.195155 0.026808 0.415170
O O11 0.311471 0.224085 0.180474
O O12 0.716062 0.646744 0.269397
O O13 0.448372 0.924748 0.216523
O O14 0.857875 0.145001 0.978874
O O15 0.447659 0.806328 0.536120
O O16 0.019863 0.646854 0.722560
#
# Coordination Sequence:
#
# PCOD8040620 Si02
#       8
#     2   2   2   2   2   2   2   2
#     4   9  21  38  63  88 114 163 207 245 289 351
#     4  10  19  38  67  91 108 154 211 250 297 346
#     4   9  17  37  63  90 117 149 205 252 296 344
#     4  11  25  41  55  92 131 161 192 239 310 359
#     4  10  18  37  65  90 115 153 203 253 299 342
#     4  10  22  39  63  88 119 158 206 253 280 361
#     4  10  19  39  65  88 117 156 206 246 293 352
#     4  11  21  38  61  90 127 156 188 251 310 360
#
# _framework density 24.358281000000002
#
# number of rings (size 3 to 8) (size 9 to 14) (size 15 to 20)
#    0.000    2.000    2.500    1.500    0.000    6.000 
#    4.500    1.250    0.000    0.000    0.000    0.000 
#    0.000    0.000    0.000    0.000    0.000    0.000 
#
# Total GULP energy -198256.275941 kJ/mol
# GULP energy per Si atom -12391.017246 kJ/mol
# Density = 2.430284 g / cm^3
# Si number density = 24.358281 Si / 1000 Ang^3
#
#
#
# Elastic Constant Matrix: (Units=GPa)
#
#
# Indices 1 2 3 4 5 6 
#
# 1 120.8541 10.0753 22.2864 2.4157 19.7087 21.3867
# 2 10.0753 35.4308 7.6046 -6.7555 6.5262 0.5925
# 3 22.2864 7.6046 94.0082 -1.3753 23.7869 13.0147
# 4 2.4157 -6.7555 -1.3753 24.0172 4.7690 3.6929
# 5 19.7087 6.5262 23.7869 4.7690 21.9822 3.1771
# 6 21.3867 0.5925 13.0147 3.6929 3.1771 18.9679
#
#
#
# Elastic Compliance Matrix: (Units=1/GPa)
#
#
# Indices 1 2 3 4 5 6 
#
# 1 0.012258 -0.000982 0.002071 0.003043 -0.011597 -0.013861
# 2 -0.000982 0.032887 0.001026 0.012019 -0.012474 -0.000874
# 3 0.002071 0.001026 0.016949 0.006914 -0.020275 -0.011947
# 4 0.003043 0.012019 0.006914 0.051935 -0.022902 -0.014826
# 5 -0.011597 -0.012474 -0.020275 -0.022902 0.083931 0.017777
# 6 -0.013861 -0.000874 -0.011947 -0.014826 0.017777 0.076483
#
#
# Mechanical properties :
#
#
# Convention : Reuss Voigt Hill
#
# Bulk Modulus (GPa) = 15.07761 36.69174 25.88467
# Shear Modulus (GPa) = 17.10459 27.01526 22.05993
#
# Velocity S-wave (km/s) = 2.65280 3.33390 3.01266
# Velocity P-wave (km/s) = 3.94797 5.46954 4.76982
#
# Compressibility (1/GPa) = 0.06632353
#
# Stress axis : x y z
#
# Youngs Moduli (GPa) = 81.58200 30.40696 59.00201
#
# Poissons Ratio (x) = 0.02986 -0.12221
# Poissons Ratio (y) = 0.08012 -0.06052
# Poissons Ratio (z) = -0.16899 -0.03119
#
# Static dielectric constant tensor:
#      x y z
#    x 4.202600 -0.231920 0.131750 
#    y -0.231920 4.481550 0.096390 
#    z 0.131750 0.096390 4.093890 
# 
# 
# High freq. dielectric constant tensor:
#      x y z
#    x 1.964410 -0.015770 0.006950 
#    y -0.015770 1.971340 0.011300 
#    z 0.006950 0.011300 1.939430 
# 
# From -- ./inp_files/588552.got.cif
#   From: 2010.06.25/outbox.cif.g09.slc.cpg/sg2_295_cif.got.tgz:588552.got - 2010.06.27 13:26:56.
