data_PCOD8040677
_publ_section_title
;
Structure prediction by ZEFSAII (Michael W. Deem and Ramdas Pophale) SiO2 
 PCOD8040677
Probable space group: P -1
;
_chemical_formula_sum "Si O2"
_cell_formula_units_Z 12
_cell_length_a 9.497964
_cell_length_b 7.411344
_cell_length_c 15.691549
_cell_angle_alpha 45.963338
_cell_angle_beta 72.384920
_cell_angle_gamma 50.157974
_cell_volume 588.964290
_symmetry_space_group_name_H-M "P -1"
_symmetry_group_IT_number 2
_symmetry_cell_setting 'triclinic'
loop_
_space_group_symop_operation_xyz
x,y,z
-x,-y,-z
loop_
_atom_site_type_symbol
_atom_site_label
_atom_site_fract_x
_atom_site_fract_y
_atom_site_fract_z
Si Si1 0.260088 0.120320 0.252327
Si Si2 0.858875 0.882622 0.899606
Si Si3 0.349334 0.072645 0.728684
Si Si4 0.167076 0.298201 0.867577
Si Si5 0.123281 0.784649 0.468937
Si Si6 0.867454 0.120031 0.252419
O O1 0.294232 0.005015 0.184495
O O2 0.058427 0.474927 0.185232
O O3 0.424878 0.129446 0.250147
O O4 0.262741 0.863439 0.391798
O O5 0.983674 0.995100 0.815484
O O6 0.772601 0.973190 0.981568
O O7 0.000000 0.500000 0.000000
O O8 0.285111 0.102078 0.827593
O O9 0.247260 0.414293 0.591518
O O10 0.304269 0.870944 0.749678
O O11 0.218372 0.525367 0.814649
O O12 0.000000 0.000000 0.500000
O O13 0.982318 0.863056 0.391867
#
# Coordination Sequence:
#
# PCOD8040677 Si02
#       6
#     2   2   2   2   2   2
#     4   9  19  34  55  80 103 137 179 210 259 313
#     4   7  15  36  55  72 108 145 162 212 265 299
#     4  12  20  32  59  80 103 138 175 219 257 303
#     4   9  19  39  56  72 113 142 167 212 262 311
#     4  10  18  38  57  69 108 146 166 211 274 304
#     4   9  19  34  55  80 103 137 179 210 259 313
#
# _framework density 20.374749999999999
#
# number of rings (size 3 to 8) (size 9 to 14) (size 15 to 20)
#    0.000    3.333    3.333    1.000    0.000    1.333 
#    0.000   13.333    0.000    0.000    0.000    0.000 
#    0.000    0.000    0.000    0.000    0.000    0.000 
#
# Total GULP energy -148693.553838 kJ/mol
# GULP energy per Si atom -12391.129486 kJ/mol
# Density = 2.032838 g / cm^3
# Si number density = 20.374750 Si / 1000 Ang^3
#
#
#
# Elastic Constant Matrix: (Units=GPa)
#
#
# Indices 1 2 3 4 5 6 
#
# 1 190.3871 39.4268 39.6492 12.2370 -13.3810 -11.6199
# 2 39.4268 51.7054 20.6613 14.5396 -1.0824 0.6900
# 3 39.6492 20.6613 117.5259 30.3503 9.7929 1.0841
# 4 12.2370 14.5396 30.3503 27.6083 3.6629 1.9964
# 5 -13.3810 -1.0824 9.7929 3.6629 12.8680 3.8316
# 6 -11.6199 0.6900 1.0841 1.9964 3.8316 12.1180
#
#
#
# Elastic Compliance Matrix: (Units=1/GPa)
#
#
# Indices 1 2 3 4 5 6 
#
# 1 0.007619 -0.004862 -0.002561 0.000593 0.007725 0.005272
# 2 -0.004862 0.026458 -0.000161 -0.011517 0.002029 -0.004898
# 3 -0.002561 -0.000161 0.013379 -0.012295 -0.009800 0.001480
# 4 0.000593 -0.011517 -0.012295 0.056657 -0.005559 -0.005252
# 5 0.007725 0.002029 -0.009800 -0.005559 0.101839 -0.023117
# 6 0.005272 -0.004898 0.001480 -0.005252 -0.023117 0.095898
#
#
# Mechanical properties :
#
#
# Convention : Reuss Voigt Hill
#
# Bulk Modulus (GPa) = 30.97017 62.12143 46.54580
# Shear Modulus (GPa) = 15.25409 27.84427 21.54918
#
# Velocity S-wave (km/s) = 2.73916 3.70077 3.25567
# Velocity P-wave (km/s) = 5.02367 6.98689 6.08498
#
# Compressibility (1/GPa) = 0.03228913
#
# Stress axis : x y z
#
# Youngs Moduli (GPa) = 131.24744 37.79516 74.74384
#
# Poissons Ratio (x) = 0.18375 0.19143
# Poissons Ratio (y) = 0.63809 0.01203
# Poissons Ratio (z) = 0.33614 0.00608
#
# Static dielectric constant tensor:
#      x y z
#    x 3.579130 0.038380 0.195740 
#    y 0.038380 3.302410 0.564120 
#    z 0.195740 0.564120 4.781030 
# 
# 
# High freq. dielectric constant tensor:
#      x y z
#    x 1.785130 -0.000740 0.006140 
#    y -0.000740 1.750130 0.024210 
#    z 0.006140 0.024210 1.817220 
# 
# From -- ./inp_files/233303.got.cif
#   From: 2010.06.25/outbox.cif.g09.slc.cpg/sg2_117_cif.got.tgz:233303.got - 2010.06.27 13:26:56.
