data_PCOD8040252
_publ_section_title
;
Structure prediction by ZEFSAII (Michael W. Deem and Ramdas Pophale) SiO2 
 PCOD8040252
Probable space group: P -1
;
_chemical_formula_sum "Si O2"
_cell_formula_units_Z 16
_cell_length_a 15.031905
_cell_length_b 10.348163
_cell_length_c 15.940594
_cell_angle_alpha 110.260527
_cell_angle_beta 152.092561
_cell_angle_gamma 51.605498
_cell_volume 758.354775
_symmetry_space_group_name_H-M "P -1"
_symmetry_group_IT_number 2
_symmetry_cell_setting 'triclinic'
loop_
_space_group_symop_operation_xyz
x,y,z
-x,-y,-z
loop_
_atom_site_type_symbol
_atom_site_label
_atom_site_fract_x
_atom_site_fract_y
_atom_site_fract_z
Si Si1 0.189266 0.545599 0.982135
Si Si2 0.066601 0.415478 0.706326
Si Si3 0.915625 0.136008 0.381866
Si Si4 0.982332 0.261633 0.745328
Si Si5 0.433160 0.825719 0.037234
Si Si6 0.431539 0.428039 0.754788
Si Si7 0.807828 0.606559 0.785590
Si Si8 0.401090 0.789701 0.622523
O O1 0.150387 0.511121 0.847179
O O2 0.893501 0.691979 0.816162
O O3 0.325163 0.626330 0.108806
O O4 0.373142 0.344998 0.146220
O O5 0.106622 0.264886 0.766388
O O6 0.256963 0.294388 0.755639
O O7 0.745215 0.590075 0.450395
O O8 0.793723 0.343678 0.354412
O O9 0.688925 0.173160 0.149110
O O10 0.000000 0.000000 0.500000
O O11 0.186044 0.018497 0.523711
O O12 0.833614 0.450090 0.722009
O O13 0.751034 0.276173 0.527936
O O14 0.242255 0.052352 0.959572
O O15 0.428551 0.716384 0.082382
O O16 0.509487 0.778127 0.617662
O O17 0.000000 0.500000 0.000000
#
# Coordination Sequence:
#
# PCOD8040252 Si02
#       8
#     2   2   2   2   2   2   2   2
#     4  10  20  37  59  87 118 151 197 243 295 342
#     4  11  21  36  58  85 119 158 198 237 293 351
#     4  11  20  36  61  89 117 156 192 242 292 346
#     4  10  20  36  61  88 115 156 197 249 288 352
#     4  11  23  36  56  91 124 158 192 239 301 352
#     4  12  22  38  59  87 128 157 190 240 300 359
#     4   9  20  34  59  90 114 148 199 257 287 335
#     4  10  18  36  59  92 112 148 202 247 293 335
#
# _framework density 21.098305
#
# number of rings (size 3 to 8) (size 9 to 14) (size 15 to 20)
#    0.000    1.500    3.750    2.250    0.000    3.000 
#    0.000    0.000    0.000    6.000    3.250    0.000 
#    0.000    0.000    0.000    0.000    0.000    0.000 
#
# Total GULP energy -198279.838295 kJ/mol
# GULP energy per Si atom -12392.489893 kJ/mol
# Density = 2.105028 g / cm^3
# Si number density = 21.098305 Si / 1000 Ang^3
#
#
#
# Elastic Constant Matrix: (Units=GPa)
#
#
# Indices 1 2 3 4 5 6 
#
# 1 137.9431 37.6072 31.4648 -14.5427 16.3882 -3.7827
# 2 37.6072 34.4860 14.6538 -6.7508 -0.9741 -7.5117
# 3 31.4648 14.6538 80.6390 12.1246 -1.7975 6.4793
# 4 -14.5427 -6.7508 12.1246 25.0060 1.7098 -2.7985
# 5 16.3882 -0.9741 -1.7975 1.7098 39.8163 -6.9437
# 6 -3.7827 -7.5117 6.4793 -2.7985 -6.9437 29.3060
#
#
#
# Elastic Compliance Matrix: (Units=1/GPa)
#
#
# Indices 1 2 3 4 5 6 
#
# 1 0.012566 -0.011249 -0.003861 0.006422 -0.006114 -0.001243
# 2 -0.011249 0.050751 -0.007808 0.012234 0.007838 0.016308
# 3 -0.003861 -0.007808 0.018075 -0.014058 0.001513 -0.007480
# 4 0.006422 0.012234 -0.014058 0.055367 -0.003339 0.011569
# 5 -0.006114 0.007838 0.001513 -0.003339 0.029347 0.007520
# 6 -0.001243 0.016308 -0.007480 0.011569 0.007520 0.042683
#
#
# Mechanical properties :
#
#
# Convention : Reuss Voigt Hill
#
# Bulk Modulus (GPa) = 28.12547 46.72445 37.42496
# Shear Modulus (GPa) = 18.76329 30.11515 24.43922
#
# Velocity S-wave (km/s) = 2.98539 3.78216 3.40715
# Velocity P-wave (km/s) = 5.02425 6.42395 5.76672
#
# Compressibility (1/GPa) = 0.03555496
#
# Stress axis : x y z
#
# Youngs Moduli (GPa) = 79.57747 19.70401 55.32554
#
# Poissons Ratio (x) = 0.22166 0.21362
# Poissons Ratio (y) = 0.89520 0.43199
# Poissons Ratio (z) = 0.30726 0.15385
#
# Static dielectric constant tensor:
#      x y z
#    x 4.367590 -0.377950 0.586740 
#    y -0.377950 3.653710 -0.057090 
#    z 0.586740 -0.057090 4.046090 
# 
# 
# High freq. dielectric constant tensor:
#      x y z
#    x 1.832480 -0.010710 0.015400 
#    y -0.010710 1.782990 0.021440 
#    z 0.015400 0.021440 1.836220 
# 
# From -- ./inp_files/214264.got.cif
#   From: 2010.06.25/outbox.cif.g09.slc.cpg/sg2_108_cif.got.tgz:214264.got - 2010.06.27 13:26:56.
