data_PCOD8040458
_publ_section_title
;
Structure prediction by ZEFSAII (Michael W. Deem and Ramdas Pophale) SiO2 
 PCOD8040458
Probable space group: P -1
;
_chemical_formula_sum "Si O2"
_cell_formula_units_Z 16
_cell_length_a 17.437139
_cell_length_b 15.983440
_cell_length_c 15.439198
_cell_angle_alpha 18.728010
_cell_angle_beta 142.810612
_cell_angle_gamma 135.878206
_cell_volume 820.116738
_symmetry_space_group_name_H-M "P -1"
_symmetry_group_IT_number 2
_symmetry_cell_setting 'triclinic'
loop_
_space_group_symop_operation_xyz
x,y,z
-x,-y,-z
loop_
_atom_site_type_symbol
_atom_site_label
_atom_site_fract_x
_atom_site_fract_y
_atom_site_fract_z
Si Si1 0.665262 0.567413 0.909093
Si Si2 0.403875 0.373097 0.847930
Si Si3 0.700562 0.302779 0.709280
Si Si4 0.216804 0.116141 0.527888
Si Si5 0.412365 0.282147 0.130950
Si Si6 0.468087 0.082920 0.699143
Si Si7 0.876493 0.357413 0.177557
Si Si8 0.171229 0.229458 0.572714
O O1 0.549371 0.406785 0.965582
O O2 0.690819 0.664369 0.934888
O O3 0.621758 0.815653 0.563261
O O4 0.795842 0.391137 0.161597
O O5 0.307794 0.627296 0.470757
O O6 0.343678 0.294524 0.962056
O O7 0.418822 0.152489 0.001929
O O8 0.550337 0.290787 0.611079
O O9 0.745815 0.539126 0.570626
O O10 0.792438 0.019111 0.085598
O O11 0.370342 0.004540 0.759650
O O12 0.191093 0.111692 0.610367
O O13 0.132049 0.924961 0.594739
O O14 0.176834 0.413130 0.164124
O O15 0.500000 0.000000 0.500000
O O16 0.500000 0.500000 0.000000
O O17 0.023677 0.363041 0.327575
#
# Coordination Sequence:
#
# PCOD8040458 Si02
#       8
#     2   2   2   2   2   2   2   2
#     4   9  19  33  58  90 111 143 178 231 291 331
#     4  10  18  37  56  83 117 144 177 228 288 335
#     4  11  24  38  56  80 114 157 189 223 279 334
#     4  11  23  38  61  84 109 144 189 245 289 319
#     4  10  19  30  56  88 117 137 175 226 284 345
#     4  10  19  36  58  82 118 144 179 234 289 332
#     4  11  22  39  61  81 115 145 186 240 284 323
#     4  12  24  40  56  81 111 155 200 226 265 339
#
# _framework density 19.509418
#
# number of rings (size 3 to 8) (size 9 to 14) (size 15 to 20)
#    0.000    1.500    3.750    2.250    0.000    1.000 
#    0.000    0.000    0.000    1.500    0.000    0.000 
#    0.000    0.000    0.000    0.000    0.000    0.000 
#
# Total GULP energy -198275.312934 kJ/mol
# GULP energy per Si atom -12392.207058 kJ/mol
# Density = 1.946501 g / cm^3
# Si number density = 19.509418 Si / 1000 Ang^3
#
#
#
# Elastic Constant Matrix: (Units=GPa)
#
#
# Indices 1 2 3 4 5 6 
#
# 1 107.0682 56.1272 36.2089 10.9821 7.4388 -17.6173
# 2 56.1272 74.9548 36.9834 -2.5858 9.0935 -1.3192
# 3 36.2089 36.9834 90.5847 0.8054 -8.9921 -6.4471
# 4 10.9821 -2.5858 0.8054 32.9932 1.8549 -4.4552
# 5 7.4388 9.0935 -8.9921 1.8549 24.0789 -4.9363
# 6 -17.6173 -1.3192 -6.4471 -4.4552 -4.9363 23.4100
#
#
#
# Elastic Compliance Matrix: (Units=1/GPa)
#
#
# Indices 1 2 3 4 5 6 
#
# 1 0.020100 -0.015000 -0.000657 -0.006172 0.002441 0.013440
# 2 -0.015000 0.030564 -0.008850 0.006526 -0.013507 -0.013609
# 3 -0.000657 -0.008850 0.016408 -0.000720 0.010894 0.005686
# 4 -0.006172 0.006526 -0.000720 0.033230 -0.003143 0.001186
# 5 0.002441 -0.013507 0.010894 -0.003143 0.053200 0.014695
# 6 0.013440 -0.013609 0.005686 0.001186 0.014695 0.056954
#
#
# Mechanical properties :
#
#
# Convention : Reuss Voigt Hill
#
# Bulk Modulus (GPa) = 55.37493 59.02739 57.20116
# Shear Modulus (GPa) = 18.83314 25.64896 22.24105
#
# Velocity S-wave (km/s) = 3.11036 3.62981 3.38008
# Velocity P-wave (km/s) = 6.42996 6.92018 6.67957
#
# Compressibility (1/GPa) = 0.01805871
#
# Stress axis : x y z
#
# Youngs Moduli (GPa) = 49.75099 32.71781 60.94683
#
# Poissons Ratio (x) = 0.49076 0.04003
# Poissons Ratio (y) = 0.74625 0.53940
# Poissons Ratio (z) = 0.03268 0.28956
#
# Static dielectric constant tensor:
#      x y z
#    x 3.824940 -0.249540 -0.132230 
#    y -0.249540 3.689160 -0.067990 
#    z -0.132230 -0.067990 3.582450 
# 
# 
# High freq. dielectric constant tensor:
#      x y z
#    x 1.744980 -0.006480 -0.019380 
#    y -0.006480 1.749130 -0.015640 
#    z -0.019380 -0.015640 1.759920 
# 
# From -- ./inp_files/98289.got.cif
#   From: 2010.06.25/outbox.cif.g09.slc.cpg/sg2_50_cif.got.tgz:98289.got - 2010.06.27 13:26:56.
