data_PCOD8040836
_publ_section_title
;
Structure prediction by ZEFSAII (Michael W. Deem and Ramdas Pophale) SiO2 
 PCOD8040836
Probable space group: P -1
;
_chemical_formula_sum "Si O2"
_cell_formula_units_Z 14
_cell_length_a 11.328024
_cell_length_b 7.445104
_cell_length_c 9.023750
_cell_angle_alpha 129.270536
_cell_angle_beta 86.595782
_cell_angle_gamma 77.003907
_cell_volume 553.176826
_symmetry_space_group_name_H-M "P -1"
_symmetry_group_IT_number 2
_symmetry_cell_setting 'triclinic'
loop_
_space_group_symop_operation_xyz
x,y,z
-x,-y,-z
loop_
_atom_site_type_symbol
_atom_site_label
_atom_site_fract_x
_atom_site_fract_y
_atom_site_fract_z
Si Si1 0.319408 0.115012 0.424109
Si Si2 0.681313 0.188514 0.004829
Si Si3 0.907807 0.871302 0.372216
Si Si4 0.056385 0.655161 0.678641
Si Si5 0.722682 0.236368 0.355561
Si Si6 0.487501 0.653960 0.357072
Si Si7 0.935647 0.240977 0.950305
O O1 0.399964 0.860402 0.365098
O O2 0.170111 0.219818 0.542803
O O3 0.389134 0.305235 0.560403
O O4 0.323406 0.045439 0.212898
O O5 0.714767 0.103357 0.129318
O O6 0.544826 0.403844 0.126608
O O7 0.786060 0.292225 0.978024
O O8 0.003984 0.667435 0.149504
O O9 0.795299 0.035883 0.364821
O O10 0.000000 0.000000 0.500000
O O11 0.205098 0.567641 0.579975
O O12 0.000000 0.500000 0.500000
O O13 0.033691 0.619531 0.835742
O O14 0.002513 0.945380 0.799564
O O15 0.588859 0.385660 0.514694
#
# Coordination Sequence:
#
# PCOD8040836 Si02
#       7
#     2   2   2   2   2   2   2
#     4  10  22  39  63  84 113 164 198 237 294 354
#     4  11  20  37  60  87 119 155 192 249 295 342
#     4  10  18  39  61  83 120 157 192 243 298 344
#     4   9  18  36  59  85 118 152 187 238 296 347
#     4   9  21  37  59  87 119 151 196 248 287 349
#     4  10  22  41  58  85 120 153 202 239 289 356
#     4   9  19  34  56  88 117 148 191 240 290 348
#
# _framework density 25.308361999999999
#
# number of rings (size 3 to 8) (size 9 to 14) (size 15 to 20)
#    0.000    2.286    1.429    1.714    0.000    2.857 
#    0.000   13.571    0.000    0.000    0.000    0.000 
#    0.000    0.000    0.000    0.000    0.000    0.000 
#
# Total GULP energy -173449.492211 kJ/mol
# GULP energy per Si atom -12389.249444 kJ/mol
# Density = 2.525076 g / cm^3
# Si number density = 25.308362 Si / 1000 Ang^3
#
#
#
# Elastic Constant Matrix: (Units=GPa)
#
#
# Indices 1 2 3 4 5 6 
#
# 1 121.2277 21.4377 61.3728 -10.8799 -27.6766 10.3205
# 2 21.4377 30.8340 19.6856 -16.4620 -8.9602 6.5180
# 3 61.3728 19.6856 202.9808 -10.2950 -5.7845 14.6571
# 4 -10.8799 -16.4620 -10.2950 34.4610 2.3026 -5.9968
# 5 -27.6766 -8.9602 -5.7845 2.3026 61.7295 -10.0894
# 6 10.3205 6.5180 14.6571 -5.9968 -10.0894 41.8169
#
#
#
# Elastic Compliance Matrix: (Units=1/GPa)
#
#
# Indices 1 2 3 4 5 6 
#
# 1 0.011547 -0.004867 -0.002888 0.000170 0.004186 -0.000044
# 2 -0.004867 0.049889 -0.002051 0.021096 0.003766 -0.001922
# 3 -0.002888 -0.002051 0.006053 -0.000248 -0.001249 -0.001426
# 4 0.000170 0.021096 -0.000248 0.039443 0.002122 0.002925
# 5 0.004186 0.003766 -0.001249 0.002122 0.019034 0.003714
# 6 -0.000044 -0.001922 -0.001426 0.002925 0.003714 0.026040
#
#
# Mechanical properties :
#
#
# Convention : Reuss Voigt Hill
#
# Bulk Modulus (GPa) = 20.88691 62.22610 41.55650
# Shear Modulus (GPa) = 26.65579 44.43791 35.54685
#
# Velocity S-wave (km/s) = 3.24889 4.19484 3.75180
# Velocity P-wave (km/s) = 4.72701 6.93562 5.93496
#
# Compressibility (1/GPa) = 0.04787688
#
# Stress axis : x y z
#
# Youngs Moduli (GPa) = 86.60617 20.04460 165.19404
#
# Poissons Ratio (x) = 0.09756 0.47708
# Poissons Ratio (y) = 0.42154 0.33874
# Poissons Ratio (z) = 0.25012 0.04110
#
# Static dielectric constant tensor:
#      x y z
#    x 5.111610 0.079170 -0.605160 
#    y 0.079170 5.141030 -0.313550 
#    z -0.605160 -0.313550 5.055280 
# 
# 
# High freq. dielectric constant tensor:
#      x y z
#    x 2.022750 -0.014540 -0.020680 
#    y -0.014540 2.012630 -0.011430 
#    z -0.020680 -0.011430 2.026100 
# 
# From -- ./inp_files/245933.got.cif
#   From: 2010.06.25/outbox.cif.g09.slc.cpg/sg2_123_cif.got.tgz:245933.got - 2010.06.27 13:26:56.
