data_PCOD8040225
_publ_section_title
;
Structure prediction by ZEFSAII (Michael W. Deem and Ramdas Pophale) SiO2 
 PCOD8040225
Probable space group: P -1
;
_chemical_formula_sum "Si O2"
_cell_formula_units_Z 16
_cell_length_a 9.265581
_cell_length_b 11.604365
_cell_length_c 15.814219
_cell_angle_alpha 60.486211
_cell_angle_beta 88.778943
_cell_angle_gamma 41.653734
_cell_volume 787.096726
_symmetry_space_group_name_H-M "P -1"
_symmetry_group_IT_number 2
_symmetry_cell_setting 'triclinic'
loop_
_space_group_symop_operation_xyz
x,y,z
-x,-y,-z
loop_
_atom_site_type_symbol
_atom_site_label
_atom_site_fract_x
_atom_site_fract_y
_atom_site_fract_z
Si Si1 0.584693 0.618680 0.175712
Si Si2 0.370927 0.740511 0.425067
Si Si3 0.143508 0.306914 0.309125
Si Si4 0.716447 0.012233 0.814381
Si Si5 0.508838 0.199234 0.440540
Si Si6 0.644279 0.522640 0.018588
Si Si7 0.176312 0.847418 0.635171
Si Si8 0.721975 0.728951 0.870399
O O1 0.326518 0.882332 0.132487
O O2 0.534059 0.653536 0.063949
O O3 0.642670 0.424585 0.274433
O O4 0.823965 0.533894 0.228497
O O5 0.500000 0.500000 0.500000
O O6 0.434236 0.783393 0.328674
O O7 0.532863 0.664229 0.533492
O O8 0.040008 0.988798 0.344975
O O9 0.224911 0.354312 0.360248
O O10 0.246448 0.269412 0.229594
O O11 0.278789 0.066764 0.424700
O O12 0.582180 0.968849 0.826653
O O13 0.035252 0.752923 0.884367
O O14 0.626192 0.177987 0.360934
O O15 0.500000 0.500000 0.000000
O O16 0.565945 0.709262 0.892055
O O17 0.000000 0.000000 0.500000
O O18 0.000000 0.500000 0.000000
#
# Coordination Sequence:
#
# PCOD8040225 Si02
#       8
#     2   2   2   2   2   2   2   2
#     4  12  22  41  66  90 127 170 209 263 322 379
#     4  11  20  37  63  94 134 170 210 258 319 385
#     4  11  20  39  61  89 126 166 210 261 313 375
#     4  11  22  41  67  94 125 167 216 255 323 392
#     4  10  21  35  61  91 124 169 212 256 313 374
#     4  11  25  45  67  93 126 165 214 271 322 373
#     4  10  18  36  58  89 123 169 206 246 319 368
#     4  10  20  42  65  87 124 169 209 261 318 375
#
# _framework density 20.327870999999998
#
# number of rings (size 3 to 8) (size 9 to 14) (size 15 to 20)
#    0.000    1.250    7.500    1.500    1.750    1.000 
#    0.000    4.375    0.000    0.000    0.000    0.000 
#    0.000    0.000    0.000    0.000    0.000    0.000 
#
# Total GULP energy -198240.820739 kJ/mol
# GULP energy per Si atom -12390.051296 kJ/mol
# Density = 2.028160 g / cm^3
# Si number density = 20.327871 Si / 1000 Ang^3
#
#
#
# Elastic Constant Matrix: (Units=GPa)
#
#
# Indices 1 2 3 4 5 6 
#
# 1 136.7273 36.0911 45.7959 8.8734 -27.4926 14.1088
# 2 36.0911 118.2821 36.1034 7.9279 -17.0729 19.1032
# 3 45.7959 36.1034 66.4366 5.1374 -32.6333 8.6778
# 4 8.8734 7.9279 5.1374 26.2717 3.2762 -7.2585
# 5 -27.4926 -17.0729 -32.6333 3.2762 44.9699 4.1628
# 6 14.1088 19.1032 8.6778 -7.2585 4.1628 27.6093
#
#
#
# Elastic Compliance Matrix: (Units=1/GPa)
#
#
# Indices 1 2 3 4 5 6 
#
# 1 0.010470 -0.000055 -0.003716 -0.005076 0.004624 -0.006176
# 2 -0.000055 0.011795 -0.002891 -0.006015 0.003650 -0.009356
# 3 -0.003716 -0.002891 0.032445 -0.010383 0.022075 -0.012356
# 4 -0.005076 -0.006015 -0.010383 0.053491 -0.019318 0.026995
# 5 0.004624 0.003650 0.022075 -0.019318 0.046084 -0.023854
# 6 -0.006176 -0.009356 -0.012356 0.026995 -0.023854 0.060426
#
#
# Mechanical properties :
#
#
# Convention : Reuss Voigt Hill
#
# Bulk Modulus (GPa) = 24.16427 61.93630 43.05029
# Shear Modulus (GPa) = 20.67560 33.33391 27.00475
#
# Velocity S-wave (km/s) = 3.19267 4.05385 3.64876
# Velocity P-wave (km/s) = 5.05014 7.24199 6.24301
#
# Compressibility (1/GPa) = 0.04138342
#
# Stress axis : x y z
#
# Youngs Moduli (GPa) = 95.51403 84.78292 30.82170
#
# Poissons Ratio (x) = 0.00468 0.11454
# Poissons Ratio (y) = 0.00527 0.08912
# Poissons Ratio (z) = 0.35496 0.24514
#
# Static dielectric constant tensor:
#      x y z
#    x 4.940630 -0.248900 -0.673930 
#    y -0.248900 3.704280 0.388790 
#    z -0.673930 0.388790 3.606780 
# 
# 
# High freq. dielectric constant tensor:
#      x y z
#    x 1.803260 0.008470 -0.029340 
#    y 0.008470 1.777410 0.019930 
#    z -0.029340 0.019930 1.787930 
# 
# From -- ./inp_files/437382.got.cif
#   From: 2010.06.25/outbox.cif.g09.slc.cpg/sg2_219_cif.got.tgz:437382.got - 2010.06.27 13:26:56.
