data_PCOD8040010
_publ_section_title
;
Structure prediction by ZEFSAII (Michael W. Deem and Ramdas Pophale) SiO2 
 PCOD8040010
Probable space group: P -1
;
_chemical_formula_sum "Si O2"
_cell_formula_units_Z 16
_cell_length_a 14.821530
_cell_length_b 9.475729
_cell_length_c 14.958222
_cell_angle_alpha 140.427215
_cell_angle_beta 147.409657
_cell_angle_gamma 54.412888
_cell_volume 706.777880
_symmetry_space_group_name_H-M "P -1"
_symmetry_group_IT_number 2
_symmetry_cell_setting 'triclinic'
loop_
_space_group_symop_operation_xyz
x,y,z
-x,-y,-z
loop_
_atom_site_type_symbol
_atom_site_label
_atom_site_fract_x
_atom_site_fract_y
_atom_site_fract_z
Si Si1 0.199615 0.997919 0.656860
Si Si2 0.686712 0.648201 0.225904
Si Si3 0.731881 0.904602 0.572283
Si Si4 0.803957 0.299669 0.042620
Si Si5 0.916156 0.464694 0.727844
Si Si6 0.878872 0.886738 0.993221
Si Si7 0.569199 0.300771 0.676833
Si Si8 0.785705 0.743614 0.036725
O O1 0.295287 0.151748 0.733195
O O2 0.277689 0.093333 0.863351
O O3 0.221642 0.741206 0.530277
O O4 0.000000 0.000000 0.500000
O O5 0.741334 0.758191 0.420598
O O6 0.805766 0.474661 0.211458
O O7 0.500000 0.500000 0.000000
O O8 0.634720 0.749415 0.496682
O O9 0.622975 0.103160 0.565085
O O10 0.921341 0.021678 0.816592
O O11 0.991595 0.372511 0.193316
O O12 0.772034 0.044342 0.928245
O O13 0.659518 0.318883 0.859011
O O14 0.050812 0.358606 0.847051
O O15 0.823549 0.624253 0.789804
O O16 0.835168 0.895892 0.065433
O O17 0.625980 0.535789 0.786290
#
# Coordination Sequence:
#
# PCOD8040010 Si02
#       8
#     2   2   2   2   2   2   2   2
#     4  10  18  35  61  86 118 156 209 248 292 348
#     4  12  22  39  66  91 117 163 209 248 299 373
#     4  11  22  36  63  95 111 163 207 251 290 368
#     4  11  22  42  58  92 129 161 191 265 307 357
#     4  10  20  37  61  87 121 164 204 245 299 361
#     4  12  24  35  65  93 127 153 209 255 308 348
#     4  10  21  41  64  85 126 157 208 246 299 364
#     4  10  19  37  58  90 118 163 202 256 289 361
#
# _framework density 22.637947
#
# number of rings (size 3 to 8) (size 9 to 14) (size 15 to 20)
#    0.000    1.250    7.500    2.250    1.750    0.500 
#    0.000    0.000    2.750    5.250    0.000    0.000 
#    0.000    0.000    0.000    0.000    0.000    0.000 
#
# Total GULP energy -198342.964718 kJ/mol
# GULP energy per Si atom -12396.435295 kJ/mol
# Density = 2.258642 g / cm^3
# Si number density = 22.637947 Si / 1000 Ang^3
#
#
#
# Elastic Constant Matrix: (Units=GPa)
#
#
# Indices 1 2 3 4 5 6 
#
# 1 90.6667 23.4043 28.1028 10.2280 -5.1525 7.4039
# 2 23.4043 68.7030 19.0712 25.2471 -6.3050 15.2633
# 3 28.1028 19.0712 94.0463 39.6500 -5.2095 -7.3080
# 4 10.2280 25.2471 39.6500 29.1227 -5.0760 3.4606
# 5 -5.1525 -6.3050 -5.2095 -5.0760 54.4946 21.0318
# 6 7.4039 15.2633 -7.3080 3.4606 21.0318 25.8526
#
#
#
# Elastic Compliance Matrix: (Units=1/GPa)
#
#
# Indices 1 2 3 4 5 6 
#
# 1 0.015113 -0.005108 -0.010870 0.016215 0.005596 -0.011108
# 2 -0.005108 0.029779 0.008603 -0.032935 0.006265 -0.014374
# 3 -0.010870 0.008603 0.041635 -0.066270 -0.013749 0.029859
# 4 0.016215 -0.032935 -0.066270 0.156527 0.022698 -0.043351
# 5 0.005596 0.006265 -0.013749 0.022698 0.036621 -0.042019
# 6 -0.011108 -0.014374 0.029859 -0.043351 -0.042019 0.098775
#
#
# Mechanical properties :
#
#
# Convention : Reuss Voigt Hill
#
# Bulk Modulus (GPa) = 13.93206 43.84141 28.88673
# Shear Modulus (GPa) = 11.98680 34.08315 23.03497
#
# Velocity S-wave (km/s) = 2.30358 3.88438 3.19335
# Velocity P-wave (km/s) = 3.63909 6.28699 5.13660
#
# Compressibility (1/GPa) = 0.07177689
#
# Stress axis : x y z
#
# Youngs Moduli (GPa) = 66.16759 33.58096 24.01848
#
# Poissons Ratio (x) = 0.17155 0.26107
# Poissons Ratio (y) = 0.33801 -0.20664
# Poissons Ratio (z) = 0.71921 -0.28890
#
# Static dielectric constant tensor:
#      x y z
#    x 4.358900 0.000720 -0.291530 
#    y 0.000720 3.605860 0.569070 
#    z -0.291530 0.569070 4.610710 
# 
# 
# High freq. dielectric constant tensor:
#      x y z
#    x 1.902240 0.005140 -0.008390 
#    y 0.005140 1.844110 0.039960 
#    z -0.008390 0.039960 1.900960 
# 
# From -- ./inp_files/529183.got.cif
#   From: 2010.06.25/outbox.cif.g09.slc.cpg/sg2_265_cif.got.tgz:529183.got - 2010.06.27 13:26:56.
