data_PCOD8040906
_publ_section_title
;
Structure prediction by ZEFSAII (Michael W. Deem and Ramdas Pophale) SiO2 
 PCOD8040906
Probable space group: P -1
;
_chemical_formula_sum "Si O2"
_cell_formula_units_Z 16
_cell_length_a 13.811713
_cell_length_b 9.835721
_cell_length_c 9.341151
_cell_angle_alpha 44.336933
_cell_angle_beta 77.388536
_cell_angle_gamma 101.180853
_cell_volume 742.752405
_symmetry_space_group_name_H-M "P -1"
_symmetry_group_IT_number 2
_symmetry_cell_setting 'triclinic'
loop_
_space_group_symop_operation_xyz
x,y,z
-x,-y,-z
loop_
_atom_site_type_symbol
_atom_site_label
_atom_site_fract_x
_atom_site_fract_y
_atom_site_fract_z
Si Si1 0.952430 0.867672 0.466691
Si Si2 0.537339 0.692234 0.461025
Si Si3 0.219410 0.600764 0.029274
Si Si4 0.590042 0.173699 0.986233
Si Si5 0.783835 0.950826 0.276970
Si Si6 0.337120 0.924656 0.233752
Si Si7 0.702916 0.435873 0.271393
Si Si8 0.169669 0.070603 0.044060
O O1 0.899349 0.601060 0.714487
O O2 0.851330 0.902632 0.412845
O O3 0.046728 0.939810 0.258690
O O4 0.000000 0.000000 0.500000
O O5 0.500000 0.500000 0.500000
O O6 0.651433 0.734684 0.478541
O O7 0.430879 0.630903 0.647249
O O8 0.577997 0.928658 0.191969
O O9 0.326748 0.647921 0.059265
O O10 0.241166 0.514324 0.939140
O O11 0.211462 0.822038 0.845053
O O12 0.464074 0.148452 0.054505
O O13 0.647310 0.240176 0.759705
O O14 0.844147 0.999539 0.064701
O O15 0.288080 0.770205 0.507286
O O16 0.251704 0.005106 0.151211
O O17 0.777039 0.661112 0.170750
#
# Coordination Sequence:
#
# PCOD8040906 Si02
#       8
#     2   2   2   2   2   2   2   2
#     4  12  29  48  68  94 136 181 234 286 328 384
#     4  10  18  39  69 105 137 170 213 271 339 406
#     4  11  25  47  65 101 138 175 225 279 339 398
#     4   9  20  39  65 103 138 169 216 271 339 410
#     4  11  26  45  73  99 134 175 228 278 336 398
#     4  10  21  39  70 101 138 172 212 275 338 400
#     4  11  24  38  72 101 140 175 214 273 345 401
#     4  12  24  47  66 102 128 177 237 269 328 405
#
# _framework density 21.541499999999999
#
# number of rings (size 3 to 8) (size 9 to 14) (size 15 to 20)
#    0.000    1.250    5.000    0.375    3.500    8.500 
#    0.000    1.250    0.000    0.000    0.000    0.000 
#    0.000    0.000    0.000    0.000    0.000    0.000 
#
# Total GULP energy -198401.493086 kJ/mol
# GULP energy per Si atom -12400.093318 kJ/mol
# Density = 2.149247 g / cm^3
# Si number density = 21.541500 Si / 1000 Ang^3
#
#
#
# Elastic Constant Matrix: (Units=GPa)
#
#
# Indices 1 2 3 4 5 6 
#
# 1 104.0440 36.4082 19.2629 -3.5649 -7.1422 17.2523
# 2 36.4082 80.5444 25.9067 -3.4452 1.1883 6.0526
# 3 19.2629 25.9067 84.6627 2.0076 -25.5333 4.2173
# 4 -3.5649 -3.4452 2.0076 35.0363 2.6428 -3.3244
# 5 -7.1422 1.1883 -25.5333 2.6428 23.4724 8.7133
# 6 17.2523 6.0526 4.2173 -3.3244 8.7133 30.8045
#
#
#
# Elastic Compliance Matrix: (Units=1/GPa)
#
#
# Indices 1 2 3 4 5 6 
#
# 1 0.013880 -0.006689 0.002996 -0.001290 0.011808 -0.010349
# 2 -0.006689 0.018305 -0.009186 0.003414 -0.015641 0.006200
# 3 0.002996 -0.009186 0.025182 -0.005949 0.034537 -0.013732
# 4 -0.001290 0.003414 -0.005949 0.030865 -0.013486 0.008012
# 5 0.011808 -0.015641 0.034537 -0.013486 0.100207 -0.038068
# 6 -0.010349 0.006200 -0.013732 0.008012 -0.038068 0.050553
#
#
# Mechanical properties :
#
#
# Convention : Reuss Voigt Hill
#
# Bulk Modulus (GPa) = 31.63778 48.04520 39.84149
# Shear Modulus (GPa) = 18.16292 30.37418 24.26855
#
# Velocity S-wave (km/s) = 2.90687 3.75911 3.36012
# Velocity P-wave (km/s) = 5.09758 6.41819 5.79562
#
# Compressibility (1/GPa) = 0.03160778
#
# Stress axis : x y z
#
# Youngs Moduli (GPa) = 72.04724 54.63039 39.71117
#
# Poissons Ratio (x) = 0.36545 -0.11898
# Poissons Ratio (y) = 0.48196 0.36479
# Poissons Ratio (z) = -0.21587 0.50184
#
# Static dielectric constant tensor:
#      x y z
#    x 4.123540 0.159970 -0.157800 
#    y 0.159970 3.731070 -0.039800 
#    z -0.157800 -0.039800 3.992200 
# 
# 
# High freq. dielectric constant tensor:
#      x y z
#    x 1.847990 0.005380 -0.001530 
#    y 0.005380 1.837060 -0.001430 
#    z -0.001530 -0.001430 1.852240 
# 
# From -- ./inp_files/297380.got.cif
#   From: 2010.06.25/outbox.cif.g09.slc.cpg/sg2_149_cif.got.tgz:297380.got - 2010.06.27 13:26:56.
