data_PCOD8040699
_publ_section_title
;
Structure prediction by ZEFSAII (Michael W. Deem and Ramdas Pophale) SiO2 
 PCOD8040699
Probable space group: P -1
;
_chemical_formula_sum "Si O2"
_cell_formula_units_Z 16
_cell_length_a 12.266458
_cell_length_b 12.269110
_cell_length_c 11.200453
_cell_angle_alpha 84.426263
_cell_angle_beta 67.308179
_cell_angle_gamma 33.275480
_cell_volume 764.009852
_symmetry_space_group_name_H-M "P -1"
_symmetry_group_IT_number 2
_symmetry_cell_setting 'triclinic'
loop_
_space_group_symop_operation_xyz
x,y,z
-x,-y,-z
loop_
_atom_site_type_symbol
_atom_site_label
_atom_site_fract_x
_atom_site_fract_y
_atom_site_fract_z
Si Si1 0.351297 0.709111 0.616041
Si Si2 0.564504 0.400304 0.141049
Si Si3 0.794133 0.765415 0.306053
Si Si4 0.813879 0.134681 0.832064
Si Si5 0.247039 0.242795 0.938384
Si Si6 0.634779 0.042732 0.936029
Si Si7 0.301322 0.391482 0.235964
Si Si8 0.420488 0.241986 0.463763
O O1 0.500000 0.500000 0.500000
O O2 0.323900 0.691096 0.765547
O O3 0.495334 0.705424 0.538427
O O4 0.068604 0.956390 0.678595
O O5 0.415237 0.633219 0.167187
O O6 0.368880 0.463898 0.202084
O O7 0.780502 0.210715 0.973155
O O8 0.706696 0.850318 0.198400
O O9 0.765754 0.662733 0.375804
O O10 0.065724 0.576029 0.236725
O O11 0.643556 0.980334 0.412522
O O12 0.797040 0.016673 0.843616
O O13 0.459915 0.157343 0.886798
O O14 0.000000 0.500000 0.000000
O O15 0.208713 0.190194 0.071718
O O16 0.496444 0.166740 0.105796
O O17 0.289290 0.352641 0.378769
#
# Coordination Sequence:
#
# PCOD8040699 Si02
#       8
#     2   2   2   2   2   2   2   2
#     4  11  24  42  61  90 127 165 206 259 310 364
#     4   9  21  39  65  93 119 159 207 255 309 366
#     4  11  21  37  63  87 116 164 198 245 306 363
#     4  10  21  41  64  90 122 162 209 252 304 371
#     4  11  22  38  58  89 125 153 192 252 308 364
#     4  10  22  37  58  91 122 155 196 252 308 356
#     4  10  18  38  60  87 121 150 200 251 299 359
#     4  10  23  39  58  86 121 158 210 243 294 369
#
# _framework density 20.942138
#
# number of rings (size 3 to 8) (size 9 to 14) (size 15 to 20)
#    0.000    1.750    2.500    1.500    0.000    3.500 
#    2.250    2.500    0.000    0.000    0.000    0.000 
#    0.000    0.000    0.000    0.000    0.000    0.000 
#
# Total GULP energy -198265.603435 kJ/mol
# GULP energy per Si atom -12391.600215 kJ/mol
# Density = 2.089447 g / cm^3
# Si number density = 20.942138 Si / 1000 Ang^3
#
#
#
# Elastic Constant Matrix: (Units=GPa)
#
#
# Indices 1 2 3 4 5 6 
#
# 1 95.8666 31.4254 22.0665 2.0292 6.6640 -1.4874
# 2 31.4254 83.9391 20.8715 -0.1999 0.8061 2.8716
# 3 22.0665 20.8715 54.2410 7.2309 -1.1039 -2.0785
# 4 2.0292 -0.1999 7.2309 34.8174 -0.7067 2.0867
# 5 6.6640 0.8061 -1.1039 -0.7067 17.5741 0.4088
# 6 -1.4874 2.8716 -2.0785 2.0867 0.4088 32.5856
#
#
#
# Elastic Compliance Matrix: (Units=1/GPa)
#
#
# Indices 1 2 3 4 5 6 
#
# 1 0.012944 -0.003872 -0.003832 -0.000128 -0.004994 0.000758
# 2 -0.003872 0.014472 -0.004225 0.001308 0.000634 -0.001813
# 3 -0.003832 -0.004225 0.022350 -0.004498 0.002826 0.001876
# 4 -0.000128 0.001308 -0.004498 0.029829 0.000960 -0.002330
# 5 -0.004994 0.000634 0.002826 0.000960 0.059004 -0.000905
# 6 0.000758 -0.001813 0.001876 -0.002330 -0.000905 0.031163
#
#
# Mechanical properties :
#
#
# Convention : Reuss Voigt Hill
#
# Bulk Modulus (GPa) = 38.59512 42.53039 40.56276
# Shear Modulus (GPa) = 24.72132 27.64099 26.18115
#
# Velocity S-wave (km/s) = 3.43951 3.63695 3.53960
# Velocity P-wave (km/s) = 5.85175 6.16353 6.00967
#
# Compressibility (1/GPa) = 0.02591001
#
# Stress axis : x y z
#
# Youngs Moduli (GPa) = 77.25673 69.09720 44.74336
#
# Poissons Ratio (x) = 0.26751 0.17144
# Poissons Ratio (y) = 0.29910 0.18903
# Poissons Ratio (z) = 0.29602 0.29192
#
# Static dielectric constant tensor:
#      x y z
#    x 3.671230 0.189360 -0.146920 
#    y 0.189360 3.746310 -0.003720 
#    z -0.146920 -0.003720 3.341620 
# 
# 
# High freq. dielectric constant tensor:
#      x y z
#    x 1.817660 0.005360 0.000640 
#    y 0.005360 1.834910 -0.003850 
#    z 0.000640 -0.003850 1.801270 
# 
# From -- ./inp_files/423664.got.cif
#   From: 2010.06.25/outbox.cif.g09.slc.cpg/sg2_212_cif.got.tgz:423664.got - 2010.06.27 13:26:56.
