data_PCOD8040065
_publ_section_title
;
Structure prediction by ZEFSAII (Michael W. Deem and Ramdas Pophale) SiO2 
 PCOD8040065
Probable space group: P -1
;
_chemical_formula_sum "Si O2"
_cell_formula_units_Z 16
_cell_length_a 10.067712
_cell_length_b 5.258119
_cell_length_c 18.932856
_cell_angle_alpha 115.501759
_cell_angle_beta 90.965381
_cell_angle_gamma 115.003942
_cell_volume 795.236658
_symmetry_space_group_name_H-M "P -1"
_symmetry_group_IT_number 2
_symmetry_cell_setting 'triclinic'
loop_
_space_group_symop_operation_xyz
x,y,z
-x,-y,-z
loop_
_atom_site_type_symbol
_atom_site_label
_atom_site_fract_x
_atom_site_fract_y
_atom_site_fract_z
Si Si1 0.008161 0.309121 0.212889
Si Si2 0.181902 0.707640 0.033605
Si Si3 0.194282 0.963069 0.212035
Si Si4 0.655305 0.380144 0.456980
Si Si5 0.843454 0.043692 0.455277
Si Si6 0.149797 0.075512 0.965126
Si Si7 0.029677 0.750867 0.376863
Si Si8 0.649640 0.785852 0.623335
O O1 0.120812 0.609165 0.202296
O O2 0.940039 0.424392 0.291664
O O3 0.878231 0.072946 0.131025
O O4 0.081318 0.111161 0.226140
O O5 0.241665 0.933946 0.129757
O O6 0.244211 0.940576 0.994188
O O7 0.000000 0.500000 0.000000
O O8 0.248860 0.459691 0.004055
O O9 0.337725 0.210096 0.290570
O O10 0.738120 0.712033 0.454889
O O11 0.632936 0.459048 0.547797
O O12 0.492296 0.164189 0.394283
O O13 0.745498 0.177852 0.429959
O O14 0.947030 0.971015 0.392816
O O15 0.955815 0.304707 0.545458
O O16 0.000000 0.000000 0.000000
O O17 0.196763 0.916556 0.366201
#
# Coordination Sequence:
#
# PCOD8040065 Si02
#       8
#     2   2   2   2   2   2   2   2
#     4  11  18  27  43  67  98 129 159 199 246 300
#     4  10  15  25  38  58  92 135 148 180 248 313
#     4  11  18  27  43  67  98 129 159 199 246 300
#     4  10  21  38  54  71 103 141 172 205 257 306
#     4  10  21  38  54  71 103 141 172 205 257 306
#     4  10  15  25  38  58  92 135 148 180 248 313
#     4   9  21  34  53  79 102 132 173 217 252 294
#     4   9  21  34  53  79 102 132 173 217 252 294
#
# _framework density 20.119797999999999
#
# number of rings (size 3 to 8) (size 9 to 14) (size 15 to 20)
#    0.000    2.000    5.000    0.750    0.000   13.000 
#    0.000    0.000    0.000    0.000    0.000    0.000 
#    0.000    6.000    0.000    0.000    0.000    0.000 
#
# Total GULP energy -198233.066326 kJ/mol
# GULP energy per Si atom -12389.566645 kJ/mol
# Density = 2.007400 g / cm^3
# Si number density = 20.119798 Si / 1000 Ang^3
#
#
#
# Elastic Constant Matrix: (Units=GPa)
#
#
# Indices 1 2 3 4 5 6 
#
# 1 64.4419 25.5200 36.0375 2.5978 5.4337 -15.8956
# 2 25.5200 82.1067 26.1449 9.0795 2.5878 -31.7163
# 3 36.0375 26.1449 189.5806 -0.6027 11.0185 -17.5022
# 4 2.5978 9.0795 -0.6027 20.3814 -11.0963 -3.5985
# 5 5.4337 2.5878 11.0185 -11.0963 22.7389 -2.1909
# 6 -15.8956 -31.7163 -17.5022 -3.5985 -2.1909 24.2608
#
#
#
# Elastic Compliance Matrix: (Units=1/GPa)
#
#
# Indices 1 2 3 4 5 6 
#
# 1 0.020148 -0.001909 -0.002607 -0.002378 -0.003710 0.008136
# 2 -0.001909 0.025616 -0.000180 -0.007388 -0.003015 0.030739
# 3 -0.002607 -0.000180 0.006131 -0.000216 -0.002216 0.002247
# 4 -0.002378 -0.007388 -0.000216 0.073753 0.037791 0.002981
# 5 -0.003710 -0.003015 -0.002216 0.037791 0.065061 0.003510
# 6 0.008136 0.030739 0.002247 0.002981 0.003510 0.089114
#
#
# Mechanical properties :
#
#
# Convention : Reuss Voigt Hill
#
# Bulk Modulus (GPa) = 23.52907 56.83713 40.18310
# Shear Modulus (GPa) = 16.48083 30.03802 23.25943
#
# Velocity S-wave (km/s) = 2.86516 3.86807 3.40376
# Velocity P-wave (km/s) = 4.76082 6.94694 5.95506
#
# Compressibility (1/GPa) = 0.04250061
#
# Stress axis : x y z
#
# Youngs Moduli (GPa) = 49.63364 39.03838 163.10999
#
# Poissons Ratio (x) = 0.07454 0.42529
# Poissons Ratio (y) = 0.09477 0.02938
# Poissons Ratio (z) = 0.12941 0.00703
#
# Static dielectric constant tensor:
#      x y z
#    x 3.367700 -0.590710 0.042940 
#    y -0.590710 4.491450 0.048700 
#    z 0.042940 0.048700 4.259540 
# 
# 
# High freq. dielectric constant tensor:
#      x y z
#    x 1.723870 -0.040860 0.003280 
#    y -0.040860 1.780080 0.003840 
#    z 0.003280 0.003840 1.798560 
# 
# From -- ./inp_files/109423.got.cif
#   From: 2010.06.25/outbox.cif.g09.slc.cpg/sg2_55_cif.got.tgz:109423.got - 2010.06.27 13:26:56.
