data_PCOD8040812
_publ_section_title
;
Structure prediction by ZEFSAII (Michael W. Deem and Ramdas Pophale) SiO2 
 PCOD8040812
Probable space group: P -1
;
_chemical_formula_sum "Si O2"
_cell_formula_units_Z 16
_cell_length_a 15.147127
_cell_length_b 14.346153
_cell_length_c 13.086811
_cell_angle_alpha 150.865671
_cell_angle_beta 41.955569
_cell_angle_gamma 149.199174
_cell_volume 708.706600
_symmetry_space_group_name_H-M "P -1"
_symmetry_group_IT_number 2
_symmetry_cell_setting 'triclinic'
loop_
_space_group_symop_operation_xyz
x,y,z
-x,-y,-z
loop_
_atom_site_type_symbol
_atom_site_label
_atom_site_fract_x
_atom_site_fract_y
_atom_site_fract_z
Si Si1 0.642709 0.998523 0.425526
Si Si2 0.834313 0.160196 0.865112
Si Si3 0.386534 0.584184 0.396965
Si Si4 0.789478 0.470344 0.072425
Si Si5 0.201659 0.204465 0.013717
Si Si6 0.567539 0.702858 0.774109
Si Si7 0.153699 0.477301 0.161580
Si Si8 0.219853 0.801130 0.833765
O O1 0.565629 0.806976 0.402901
O O2 0.713285 0.920196 0.204167
O O3 0.500000 0.000000 0.500000
O O4 0.800168 0.271760 0.593002
O O5 0.778343 0.234946 0.887914
O O6 0.698701 0.859795 0.714887
O O7 0.835377 0.301571 0.100000
O O8 0.032331 0.270566 0.789124
O O9 0.424900 0.508418 0.396856
O O10 0.278156 0.671577 0.597975
O O11 0.273766 0.344674 0.192667
O O12 0.774966 0.477045 0.970104
O O13 0.626309 0.429148 0.221439
O O14 0.246625 0.398867 0.072125
O O15 0.000000 0.000000 0.000000
O O16 0.625901 0.898341 0.004540
O O17 0.946178 0.261959 0.140187
#
# Coordination Sequence:
#
# PCOD8040812 Si02
#       8
#     2   2   2   2   2   2   2   2
#     4  12  27  41  61  93 128 170 218 266 320 381
#     4   8  20  38  66  96 125 163 212 261 319 382
#     4  12  24  40  64  91 129 164 214 263 322 380
#     4  10  18  38  69  91 125 171 207 260 324 378
#     4  12  27  41  65  91 126 171 217 266 321 381
#     4  10  21  38  65  91 127 165 207 261 317 380
#     4  11  23  42  65  89 131 170 219 260 323 380
#     4   9  22  40  64  94 125 167 211 263 318 380
#
# _framework density 22.576336999999999
#
# number of rings (size 3 to 8) (size 9 to 14) (size 15 to 20)
#    0.750    0.750    1.250    3.750    5.250    1.000 
#    2.250    0.625    2.750    2.250    0.000    0.000 
#    0.000    0.000    0.000    0.000    0.000    0.000 
#
# Total GULP energy -198370.509690 kJ/mol
# GULP energy per Si atom -12398.156856 kJ/mol
# Density = 2.252495 g / cm^3
# Si number density = 22.576337 Si / 1000 Ang^3
#
#
#
# Elastic Constant Matrix: (Units=GPa)
#
#
# Indices 1 2 3 4 5 6 
#
# 1 78.8701 19.8737 0.4232 1.3885 -23.2901 -0.4029
# 2 19.8737 113.0090 11.1893 -3.1807 -17.1758 10.0030
# 3 0.4232 11.1893 68.7761 -2.1158 -13.0484 11.2190
# 4 1.3885 -3.1807 -2.1158 21.5767 0.6187 -9.7554
# 5 -23.2901 -17.1758 -13.0484 0.6187 31.0669 2.3057
# 6 -0.4029 10.0030 11.2190 -9.7554 2.3057 41.3270
#
#
#
# Elastic Compliance Matrix: (Units=1/GPa)
#
#
# Indices 1 2 3 4 5 6 
#
# 1 0.016939 -0.001140 0.002816 -0.002072 0.013408 -0.001561
# 2 -0.001140 0.010035 -0.000297 0.000224 0.004755 -0.002572
# 3 0.002816 -0.000297 0.017239 -0.001258 0.009614 -0.005414
# 4 -0.002072 0.000224 -0.001258 0.052306 -0.003952 0.012834
# 5 0.013408 0.004755 0.009614 -0.003952 0.049530 -0.007327
# 6 -0.001561 -0.002572 -0.005414 0.012834 -0.007327 0.029713
#
#
# Mechanical properties :
#
#
# Convention : Reuss Voigt Hill
#
# Bulk Modulus (GPa) = 21.28932 35.95862 28.62397
# Shear Modulus (GPa) = 26.50240 34.07205 30.28722
#
# Velocity S-wave (km/s) = 3.42994 3.88905 3.66669
# Velocity P-wave (km/s) = 5.01362 6.01069 5.53465
#
# Compressibility (1/GPa) = 0.04697190
#
# Stress axis : x y z
#
# Youngs Moduli (GPa) = 59.03455 99.64687 58.00638
#
# Poissons Ratio (x) = 0.11360 -0.16334
# Poissons Ratio (y) = 0.06730 0.01723
# Poissons Ratio (z) = -0.16624 0.02960
#
# Static dielectric constant tensor:
#      x y z
#    x 3.904440 0.138920 -0.157750 
#    y 0.138920 3.832840 0.266500 
#    z -0.157750 0.266500 3.653210 
# 
# 
# High freq. dielectric constant tensor:
#      x y z
#    x 1.895610 -0.001080 -0.008060 
#    y -0.001080 1.904660 0.005390 
#    z -0.008060 0.005390 1.858230 
# 
# From -- ./inp_files/534562.got.cif
#   From: 2010.06.25/outbox.cif.g09.slc.cpg/sg2_268_cif.got.tgz:534562.got - 2010.06.27 13:26:56.
