data_PCOD8040006
_publ_section_title
;
Structure prediction by ZEFSAII (Michael W. Deem and Ramdas Pophale) SiO2 
 PCOD8040006
Probable space group: P -1
;
_chemical_formula_sum "Si O2"
_cell_formula_units_Z 12
_cell_length_a 11.409691
_cell_length_b 9.496396
_cell_length_c 9.069711
_cell_angle_alpha 61.562736
_cell_angle_beta 130.821632
_cell_angle_gamma 98.705085
_cell_volume 634.763415
_symmetry_space_group_name_H-M "P -1"
_symmetry_group_IT_number 2
_symmetry_cell_setting 'triclinic'
loop_
_space_group_symop_operation_xyz
x,y,z
-x,-y,-z
loop_
_atom_site_type_symbol
_atom_site_label
_atom_site_fract_x
_atom_site_fract_y
_atom_site_fract_z
Si Si1 0.499655 0.054425 0.676426
Si Si2 0.285765 0.224835 0.174532
Si Si3 0.654756 0.451359 0.053130
Si Si4 0.301775 0.801769 0.022708
Si Si5 0.001161 0.892313 0.909881
Si Si6 0.216958 0.894397 0.602944
O O1 0.419170 0.202568 0.424517
O O2 0.663048 0.937389 0.805525
O O3 0.378212 0.938778 0.656895
O O4 0.547410 0.136502 0.822522
O O5 0.271904 0.391681 0.987916
O O6 0.109938 0.234664 0.090408
O O7 0.500000 0.500000 0.000000
O O8 0.626213 0.377255 0.904571
O O9 0.772443 0.301879 0.314401
O O10 0.209627 0.928691 0.756764
O O11 0.178353 0.791049 0.059424
O O12 0.935220 0.007071 0.658552
O O13 0.000000 0.000000 0.000000
#
# Coordination Sequence:
#
# PCOD8040006 Si02
#       6
#     2   2   2   2   2   2
#     4  10  18  35  61  85 106 148 194 227 266 334
#     4  10  20  35  56  85 117 144 182 233 280 325
#     4  10  21  36  57  82 120 143 180 239 288 315
#     4  10  21  35  62  84 111 147 192 224 278 335
#     4  11  21  37  59  82 112 152 189 225 273 342
#     4   9  21  36  58  82 113 144 189 232 276 320
#
# _framework density 18.904681
#
# number of rings (size 3 to 8) (size 9 to 14) (size 15 to 20)
#    1.000    1.000    3.333    1.000    0.000    1.333 
#    0.000    0.833    0.000    0.000    0.000    0.000 
#    0.000    0.000    0.000    0.000    0.000    0.000 
#
# Total GULP energy -148662.608157 kJ/mol
# GULP energy per Si atom -12388.550680 kJ/mol
# Density = 1.886165 g / cm^3
# Si number density = 18.904681 Si / 1000 Ang^3
#
#
#
# Elastic Constant Matrix: (Units=GPa)
#
#
# Indices 1 2 3 4 5 6 
#
# 1 108.2246 39.7298 21.4260 -10.2325 -4.7277 -4.7020
# 2 39.7298 81.5995 29.8137 0.6162 0.7694 -1.5508
# 3 21.4260 29.8137 43.9216 5.0847 -1.9204 10.5205
# 4 -10.2325 0.6162 5.0847 32.1750 0.3911 -14.9389
# 5 -4.7277 0.7694 -1.9204 0.3911 19.5973 -3.7752
# 6 -4.7020 -1.5508 10.5205 -14.9389 -3.7752 36.4620
#
#
#
# Elastic Compliance Matrix: (Units=1/GPa)
#
#
# Indices 1 2 3 4 5 6 
#
# 1 0.013312 -0.004167 -0.006237 0.008636 0.003996 0.007291
# 2 -0.004167 0.018831 -0.012205 0.002376 -0.002114 0.004540
# 3 -0.006237 -0.012205 0.041031 -0.017742 -0.000598 -0.020493
# 4 0.008636 0.002376 -0.017742 0.049008 0.004450 0.026874
# 5 0.003996 -0.002114 -0.000598 0.004450 0.053460 0.007956
# 6 0.007291 0.004540 -0.020493 0.026874 0.007956 0.046306
#
#
# Mechanical properties :
#
#
# Convention : Reuss Voigt Hill
#
# Bulk Modulus (GPa) = 35.76842 46.18719 40.97781
# Shear Modulus (GPa) = 18.08409 27.16528 22.62469
#
# Velocity S-wave (km/s) = 3.09624 3.79484 3.46320
# Velocity P-wave (km/s) = 5.63416 6.60952 6.14123
#
# Compressibility (1/GPa) = 0.02795762
#
# Stress axis : x y z
#
# Youngs Moduli (GPa) = 75.11757 53.10278 24.37166
#
# Poissons Ratio (x) = 0.22129 0.15200
# Poissons Ratio (y) = 0.31304 0.29745
# Poissons Ratio (z) = 0.46850 0.64810
#
# Static dielectric constant tensor:
#      x y z
#    x 3.555460 -0.024310 -0.179930 
#    y -0.024310 3.242030 0.016390 
#    z -0.179930 0.016390 3.310000 
# 
# 
# High freq. dielectric constant tensor:
#      x y z
#    x 1.748950 -0.003160 -0.011540 
#    y -0.003160 1.712170 0.005280 
#    z -0.011540 0.005280 1.713130 
# 
# From -- ./inp_files/146267.got.cif
#   From: 2010.06.25/outbox.cif.g09.slc.cpg/sg2_74_cif.got.tgz:146267.got - 2010.06.27 13:26:56.
