data_PCOD8040508
_publ_section_title
;
Structure prediction by ZEFSAII (Michael W. Deem and Ramdas Pophale) SiO2 
 PCOD8040508
Probable space group: P -1
;
_chemical_formula_sum "Si O2"
_cell_formula_units_Z 16
_cell_length_a 8.990556
_cell_length_b 20.627457
_cell_length_c 21.239009
_cell_angle_alpha 19.636283
_cell_angle_beta 140.463463
_cell_angle_gamma 132.362584
_cell_volume 816.768388
_symmetry_space_group_name_H-M "P -1"
_symmetry_group_IT_number 2
_symmetry_cell_setting 'triclinic'
loop_
_space_group_symop_operation_xyz
x,y,z
-x,-y,-z
loop_
_atom_site_type_symbol
_atom_site_label
_atom_site_fract_x
_atom_site_fract_y
_atom_site_fract_z
Si Si1 0.160938 0.803170 0.877695
Si Si2 0.173793 0.231552 0.455796
Si Si3 0.547184 0.535381 0.156933
Si Si4 0.946477 0.747349 0.084009
Si Si5 0.850663 0.377506 0.602762
Si Si6 0.680855 0.176350 0.619309
Si Si7 0.681457 0.427225 0.736735
Si Si8 0.141463 0.466440 0.012462
O O1 0.910388 0.733992 0.851327
O O2 0.104277 0.041069 0.637692
O O3 0.353630 0.698738 0.983653
O O4 0.268231 0.735718 0.042610
O O5 0.406832 0.159429 0.553286
O O6 0.229035 0.376538 0.395324
O O7 0.951778 0.346735 0.235223
O O8 0.747295 0.632249 0.103330
O O9 0.685309 0.359355 0.408124
O O10 0.421446 0.448530 0.136668
O O11 0.991102 0.725955 0.192604
O O12 0.190513 0.666280 0.199513
O O13 0.842803 0.978434 0.822146
O O14 0.790222 0.208313 0.693606
O O15 0.603475 0.521011 0.416556
O O16 0.000000 0.500000 0.500000
O O17 0.000000 0.500000 0.000000
#
# Coordination Sequence:
#
# PCOD8040508 Si02
#       8
#     2   2   2   2   2   2   2   2
#     4  10  18  37  60  85 119 158 195 241 290 344
#     4  10  19  36  64  86 118 161 194 239 297 341
#     4  11  20  37  60  90 121 151 200 249 287 340
#     4  12  24  38  61  87 121 156 192 244 298 344
#     4  11  21  43  65  83 117 154 192 245 295 345
#     4  11  21  37  61  90 115 154 198 239 289 353
#     4  10  23  41  58  89 122 151 196 241 289 354
#     4   9  18  32  57  95 119 144 203 255 277 336
#
# _framework density 19.589396000000001
#
# number of rings (size 3 to 8) (size 9 to 14) (size 15 to 20)
#    0.000    1.500    7.500    0.750    0.000    4.000 
#    0.000    3.125    0.000    4.500    0.000    0.000 
#    0.000    0.000    0.000    0.000    0.000    0.000 
#
# Total GULP energy -198403.922364 kJ/mol
# GULP energy per Si atom -12400.245148 kJ/mol
# Density = 1.954481 g / cm^3
# Si number density = 19.589396 Si / 1000 Ang^3
#
#
#
# Elastic Constant Matrix: (Units=GPa)
#
#
# Indices 1 2 3 4 5 6 
#
# 1 64.7568 18.8095 24.9509 -11.8701 14.3189 9.5046
# 2 18.8095 70.7861 39.7254 1.0054 2.0761 17.4468
# 3 24.9509 39.7254 101.9419 -22.9672 -7.0083 4.2440
# 4 -11.8701 1.0054 -22.9672 33.7197 5.5179 -1.1637
# 5 14.3189 2.0761 -7.0083 5.5179 30.1063 -2.2338
# 6 9.5046 17.4468 4.2440 -1.1637 -2.2338 23.3796
#
#
#
# Elastic Compliance Matrix: (Units=1/GPa)
#
#
# Indices 1 2 3 4 5 6 
#
# 1 0.023065 -0.001505 -0.003983 0.007414 -0.013781 -0.008478
# 2 -0.001505 0.024969 -0.010846 -0.008721 -0.003178 -0.016790
# 3 -0.003983 -0.010846 0.017345 0.010115 0.005389 0.007583
# 4 0.007414 -0.008721 0.010115 0.040798 -0.007830 0.002941
# 5 -0.013781 -0.003178 0.005389 -0.007830 0.043477 0.010760
# 6 -0.008478 -0.016790 0.007583 0.002941 0.010760 0.058546
#
#
# Mechanical properties :
#
#
# Convention : Reuss Voigt Hill
#
# Bulk Modulus (GPa) = 30.57139 44.93960 37.75549
# Shear Modulus (GPa) = 19.85920 27.70772 23.78346
#
# Velocity S-wave (km/s) = 3.18743 3.76496 3.48817
# Velocity P-wave (km/s) = 5.40243 6.47229 5.96141
#
# Compressibility (1/GPa) = 0.03271033
#
# Stress axis : x y z
#
# Youngs Moduli (GPa) = 43.35609 40.04914 57.65480
#
# Poissons Ratio (x) = 0.06028 0.22963
# Poissons Ratio (y) = 0.06526 0.62534
# Poissons Ratio (z) = 0.17268 0.43438
#
# Static dielectric constant tensor:
#      x y z
#    x 3.228050 0.091030 -0.057320 
#    y 0.091030 3.723330 0.146510 
#    z -0.057320 0.146510 3.553880 
# 
# 
# High freq. dielectric constant tensor:
#      x y z
#    x 1.736050 0.009970 -0.012140 
#    y 0.009970 1.767750 0.007340 
#    z -0.012140 0.007340 1.761800 
# 
# From -- ./inp_files/202717.got.cif
#   From: 2010.06.25/outbox.cif.g09.slc.cpg/sg2_102_cif.got.tgz:202717.got - 2010.06.27 13:26:56.
