data_PCOD8040138
_publ_section_title
;
Structure prediction by ZEFSAII (Michael W. Deem and Ramdas Pophale) SiO2 
 PCOD8040138
Probable space group: P -1
;
_chemical_formula_sum "Si O2"
_cell_formula_units_Z 16
_cell_length_a 9.739439
_cell_length_b 21.272519
_cell_length_c 8.976992
_cell_angle_alpha 60.414001
_cell_angle_beta 55.718215
_cell_angle_gamma 28.649859
_cell_volume 736.813563
_symmetry_space_group_name_H-M "P -1"
_symmetry_group_IT_number 2
_symmetry_cell_setting 'triclinic'
loop_
_space_group_symop_operation_xyz
x,y,z
-x,-y,-z
loop_
_atom_site_type_symbol
_atom_site_label
_atom_site_fract_x
_atom_site_fract_y
_atom_site_fract_z
Si Si1 0.305878 0.007229 0.183035
Si Si2 0.288952 0.740275 0.879548
Si Si3 0.710469 0.900665 0.626332
Si Si4 0.393275 0.621217 0.437199
Si Si5 0.242592 0.472856 0.399707
Si Si6 0.354755 0.356494 0.949612
Si Si7 0.648974 0.795824 0.008200
Si Si8 0.160589 0.634379 0.089560
O O1 0.278849 0.033561 0.345646
O O2 0.974881 0.113619 0.191987
O O3 0.500000 0.000000 0.000000
O O4 0.476275 0.872699 0.182524
O O5 0.478697 0.641656 0.743085
O O6 0.510291 0.703113 0.897787
O O7 0.112980 0.733395 0.062725
O O8 0.574071 0.880609 0.822510
O O9 0.043608 0.756847 0.536095
O O10 0.500000 0.000000 0.500000
O O11 0.500000 0.500000 0.500000
O O12 0.624524 0.575502 0.461075
O O13 0.458633 0.642046 0.223201
O O14 0.074460 0.609468 0.302370
O O15 0.000000 0.500000 0.500000
O O16 0.429499 0.256461 0.932265
O O17 0.000000 0.500000 0.000000
O O18 0.996864 0.677738 0.980759
O O19 0.500000 0.500000 0.000000
#
# Coordination Sequence:
#
# PCOD8040138 Si02
#       8
#     2   2   2   2   2   2   2   2
#     4  10  21  42  70  92 128 179 231 268 320 411
#     4  11  21  41  66  91 129 178 227 263 322 407
#     4  11  24  45  71 102 138 176 231 288 337 399
#     4  12  25  44  69 104 139 174 225 286 343 399
#     4  11  22  39  65  96 134 171 214 281 344 391
#     4  12  26  43  67 103 140 175 220 282 345 400
#     4  11  23  44  69  97 138 176 231 275 328 411
#     4  10  18  35  66  94 119 173 224 265 323 399
#
# _framework density 21.715128
#
# number of rings (size 3 to 8) (size 9 to 14) (size 15 to 20)
#    0.000    1.000    3.750    5.250    3.500    1.500 
#    0.000    1.875    0.000    0.000    0.000    0.000 
#    0.000    0.000    0.000    0.000    0.000    0.000 
#
# Total GULP energy -198253.888600 kJ/mol
# GULP energy per Si atom -12390.868037 kJ/mol
# Density = 2.166570 g / cm^3
# Si number density = 21.715128 Si / 1000 Ang^3
#
#
#
# Elastic Constant Matrix: (Units=GPa)
#
#
# Indices 1 2 3 4 5 6 
#
# 1 128.5358 51.5457 19.1115 -5.5957 14.7725 -5.6112
# 2 51.5457 114.1294 36.2089 -1.2561 12.4009 -2.4465
# 3 19.1115 36.2089 68.6330 -5.1551 3.3144 -1.1821
# 4 -5.5957 -1.2561 -5.1551 32.9801 -3.0854 10.4724
# 5 14.7725 12.4009 3.3144 -3.0854 42.5699 -8.8557
# 6 -5.6112 -2.4465 -1.1821 10.4724 -8.8557 47.2192
#
#
#
# Elastic Compliance Matrix: (Units=1/GPa)
#
#
# Indices 1 2 3 4 5 6 
#
# 1 0.009756 -0.004041 -0.000395 0.001153 -0.002031 0.000303
# 2 -0.004041 0.012520 -0.005480 -0.001227 -0.001919 -0.000056
# 3 -0.000395 -0.005480 0.017742 0.002665 0.000464 -0.000391
# 4 0.001153 -0.001227 0.002665 0.033204 0.000680 -0.007096
# 5 -0.002031 -0.001919 0.000464 0.000680 0.025669 0.004334
# 6 0.000303 -0.000056 -0.000391 -0.007096 0.004334 0.023588
#
#
# Mechanical properties :
#
#
# Convention : Reuss Voigt Hill
#
# Bulk Modulus (GPa) = 49.53947 58.33671 53.93809
# Shear Modulus (GPa) = 33.54811 38.18265 35.86538
#
# Velocity S-wave (km/s) = 3.93481 4.19781 4.06844
# Velocity P-wave (km/s) = 6.59595 7.10059 6.85291
#
# Compressibility (1/GPa) = 0.02018592
#
# Stress axis : x y z
#
# Youngs Moduli (GPa) = 102.50016 79.87507 56.36217
#
# Poissons Ratio (x) = 0.32279 0.02225
# Poissons Ratio (y) = 0.41422 0.30887
# Poissons Ratio (z) = 0.04046 0.43773
#
# Static dielectric constant tensor:
#      x y z
#    x 4.691960 1.247280 -0.952930 
#    y 1.247280 6.808510 -2.800710 
#    z -0.952930 -2.800710 6.591140 
# 
# 
# High freq. dielectric constant tensor:
#      x y z
#    x 1.858930 -0.006080 0.011090 
#    y -0.006080 1.861950 -0.003200 
#    z 0.011090 -0.003200 1.835220 
# 
# From -- ./inp_files/223395.got.cif
#   From: 2010.06.25/outbox.cif.g09.slc.cpg/sg2_112_cif.got.tgz:223395.got - 2010.06.27 13:26:56.
