data_PCOD8040088
_publ_section_title
;
Structure prediction by ZEFSAII (Michael W. Deem and Ramdas Pophale) SiO2 
 PCOD8040088
Probable space group: P -1
;
_chemical_formula_sum "Si O2"
_cell_formula_units_Z 14
_cell_length_a 11.376421
_cell_length_b 10.685459
_cell_length_c 9.613073
_cell_angle_alpha 56.831141
_cell_angle_beta 72.862868
_cell_angle_gamma 40.165988
_cell_volume 614.221521
_symmetry_space_group_name_H-M "P -1"
_symmetry_group_IT_number 2
_symmetry_cell_setting 'triclinic'
loop_
_space_group_symop_operation_xyz
x,y,z
-x,-y,-z
loop_
_atom_site_type_symbol
_atom_site_label
_atom_site_fract_x
_atom_site_fract_y
_atom_site_fract_z
Si Si1 0.760238 0.725643 0.000018
Si Si2 0.823265 0.865432 0.651168
Si Si3 0.305528 0.160023 0.548115
Si Si4 0.404039 0.370310 0.492171
Si Si5 0.196852 0.639669 0.675423
Si Si6 0.372307 0.961207 0.919347
Si Si7 0.503220 0.516287 0.154309
O O1 0.879861 0.685794 0.855078
O O2 0.550360 0.907688 0.900642
O O3 0.812305 0.517284 0.163872
O O4 0.781680 0.828524 0.052390
O O5 0.843462 0.757680 0.563795
O O6 0.972192 0.868900 0.592571
O O7 0.618967 0.123367 0.595778
O O8 0.266706 0.355325 0.516832
O O9 0.500000 0.000000 0.500000
O O10 0.307078 0.025944 0.742659
O O11 0.321956 0.531978 0.556662
O O12 0.392983 0.485006 0.289209
O O13 0.285964 0.670345 0.740213
O O14 0.406188 0.761270 0.077379
O O15 0.500000 0.500000 0.000000
#
# Coordination Sequence:
#
# PCOD8040088 Si02
#       7
#     2   2   2   2   2   2   2
#     4  10  18  36  60  90 122 154 204 261 302 354
#     4  11  22  37  65  94 124 158 207 264 299 360
#     4  10  18  35  63  91 120 157 205 252 305 351
#     4  11  22  42  62  90 128 167 200 249 310 370
#     4  11  24  40  62  95 123 163 209 249 314 365
#     4  10  18  37  63  88 118 163 206 248 308 363
#     4  11  24  39  64  91 125 168 205 248 309 375
#
# _framework density 22.79308
#
# number of rings (size 3 to 8) (size 9 to 14) (size 15 to 20)
#    0.000    1.429    4.286    4.286    2.000    1.143 
#    0.000    0.000    0.000    5.143    0.000    0.000 
#    0.000    0.000    0.000    0.000    0.000    0.000 
#
# Total GULP energy -173504.037693 kJ/mol
# GULP energy per Si atom -12393.145550 kJ/mol
# Density = 2.274120 g / cm^3
# Si number density = 22.793080 Si / 1000 Ang^3
#
#
#
# Elastic Constant Matrix: (Units=GPa)
#
#
# Indices 1 2 3 4 5 6 
#
# 1 84.6525 5.4290 16.3006 15.4894 10.3862 -9.4529
# 2 5.4290 31.4136 1.4553 20.9600 3.6230 -10.9320
# 3 16.3006 1.4553 137.3916 23.9771 -2.9215 -9.8857
# 4 15.4894 20.9600 23.9771 24.2277 15.2724 -2.2693
# 5 10.3862 3.6230 -2.9215 15.2724 40.0251 2.9196
# 6 -9.4529 -10.9320 -9.8857 -2.2693 2.9196 21.5675
#
#
#
# Elastic Compliance Matrix: (Units=1/GPa)
#
#
# Indices 1 2 3 4 5 6 
#
# 1 -0.004355 -0.120265 -0.031748 0.164143 -0.049030 -0.053512
# 2 -0.120265 -0.789236 -0.208917 1.128794 -0.315080 -0.387091
# 3 -0.031748 -0.208917 -0.045471 0.285787 -0.077921 -0.100033
# 4 0.164143 1.128794 0.285787 -1.536940 0.421966 0.556256
# 5 -0.049030 -0.315080 -0.077921 0.421966 -0.088762 -0.160497
# 6 -0.053512 -0.387091 -0.100033 0.556256 -0.160497 -0.138890
#
#
# Mechanical properties :
#
#
# Convention : Reuss Voigt Hill
#
# Bulk Modulus (GPa) = -0.64065 33.31415 16.33675
# Shear Modulus (GPa) = -2.08151 32.51558 15.21703
#
# Velocity S-wave (km/s) = -0.95666 3.78107 2.58663
# Velocity P-wave (km/s) = 1.22554 5.80600 4.01296
#
# Compressibility (1/GPa) = -1.56092107
#
# Stress axis : x y z
#
# Youngs Moduli (GPa) = -229.62773 -1.26705 -21.99201
#
# Poissons Ratio (x) = -0.15238 -0.69820
# Poissons Ratio (y) = -27.61617 -4.59450
# Poissons Ratio (z) = -7.29022 -0.26471
#
# Static dielectric constant tensor:
#      x y z
#    x 4.586000 -0.024070 0.150670 
#    y -0.024070 3.965780 0.102890 
#    z 0.150670 0.102890 4.300270 
# 
# 
# High freq. dielectric constant tensor:
#      x y z
#    x 1.894110 0.006980 -0.001550 
#    y 0.006980 1.870980 0.006580 
#    z -0.001550 0.006580 1.920080 
# 
# From -- ./inp_files/204488.got.cif
#   From: 2010.06.25/outbox.cif.g09.slc.cpg/sg2_103_cif.got.tgz:204488.got - 2010.06.27 13:26:56.
