data_PCOD8040144
_publ_section_title
;
Structure prediction by ZEFSAII (Michael W. Deem and Ramdas Pophale) SiO2 
 PCOD8040144
Probable space group: P -1
;
_chemical_formula_sum "Si O2"
_cell_formula_units_Z 16
_cell_length_a 11.723098
_cell_length_b 8.868846
_cell_length_c 14.084146
_cell_angle_alpha 59.954115
_cell_angle_beta 97.728628
_cell_angle_gamma 137.221680
_cell_volume 790.371995
_symmetry_space_group_name_H-M "P -1"
_symmetry_group_IT_number 2
_symmetry_cell_setting 'triclinic'
loop_
_space_group_symop_operation_xyz
x,y,z
-x,-y,-z
loop_
_atom_site_type_symbol
_atom_site_label
_atom_site_fract_x
_atom_site_fract_y
_atom_site_fract_z
Si Si1 0.833723 0.525521 0.420084
Si Si2 0.469620 0.547081 0.584250
Si Si3 0.984471 0.589629 0.754496
Si Si4 0.790717 0.030857 0.172669
Si Si5 0.001584 0.226197 0.835887
Si Si6 0.138245 0.284231 0.029161
Si Si7 0.697643 0.260468 0.973428
Si Si8 0.849622 0.144838 0.508832
O O1 0.657238 0.432592 0.458501
O O2 0.863359 0.607213 0.289316
O O3 0.795175 0.272796 0.501047
O O4 0.015845 0.787308 0.420027
O O5 0.500000 0.500000 0.500000
O O6 0.377892 0.298135 0.723813
O O7 0.660996 0.821240 0.570524
O O8 0.917672 0.313253 0.822152
O O9 0.026490 0.716332 0.616317
O O10 0.814626 0.471176 0.830439
O O11 0.162556 0.825670 0.765780
O O12 0.954145 0.113278 0.120145
O O13 0.763936 0.155984 0.056567
O O14 0.129022 0.313486 0.908168
O O15 0.836326 0.894883 0.902293
O O16 0.304471 0.589284 0.995340
O O17 0.500000 0.000000 0.000000
#
# Coordination Sequence:
#
# PCOD8040144 Si02
#       8
#     2   2   2   2   2   2   2   2
#     4  10  23  42  64  92 127 168 213 261 315 367
#     4  12  24  40  64  95 127 166 216 255 315 377
#     4  10  19  40  63  84 121 162 204 246 312 367
#     4  11  20  40  59  89 122 158 202 251 305 377
#     4  10  18  35  67  87 112 161 207 249 305 367
#     4  10  19  36  65  86 115 161 199 248 309 362
#     4  11  23  38  59  92 126 157 200 257 312 374
#     4  10  23  43  66  90 127 171 210 264 310 372
#
# _framework density 20.243632999999999
#
# number of rings (size 3 to 8) (size 9 to 14) (size 15 to 20)
#    0.000    1.500    5.000    1.125    0.000    2.500 
#    0.000    4.375    0.000    0.000    0.000    0.000 
#    0.000    0.000    0.000    0.000    0.000    0.000 
#
# Total GULP energy -198238.357928 kJ/mol
# GULP energy per Si atom -12389.897370 kJ/mol
# Density = 2.019756 g / cm^3
# Si number density = 20.243633 Si / 1000 Ang^3
#
#
#
# Elastic Constant Matrix: (Units=GPa)
#
#
# Indices 1 2 3 4 5 6 
#
# 1 58.2914 48.5335 21.8785 3.4096 -4.7625 -7.1436
# 2 48.5335 163.2957 35.8187 -22.4039 -0.3531 -8.0835
# 3 21.8785 35.8187 67.0127 -9.0627 -2.4591 -13.8215
# 4 3.4096 -22.4039 -9.0627 31.5483 -7.5653 -6.6359
# 5 -4.7625 -0.3531 -2.4591 -7.5653 15.0895 -4.0560
# 6 -7.1436 -8.0835 -13.8215 -6.6359 -4.0560 24.1424
#
#
#
# Elastic Compliance Matrix: (Units=1/GPa)
#
#
# Indices 1 2 3 4 5 6 
#
# 1 0.026712 -0.008033 -0.005738 -0.009761 0.002316 -0.000364
# 2 -0.008033 0.010150 -0.000581 0.009554 0.003444 0.003894
# 3 -0.005738 -0.000581 0.023019 0.013682 0.013438 0.017305
# 4 -0.009761 0.009554 0.013682 0.058770 0.037042 0.030521
# 5 0.002316 0.003444 0.013438 0.037042 0.097548 0.036102
# 6 -0.000364 0.003894 0.017305 0.030521 0.036102 0.066978
#
#
# Mechanical properties :
#
#
# Convention : Reuss Voigt Hill
#
# Bulk Modulus (GPa) = 32.07391 55.67345 43.87368
# Shear Modulus (GPa) = 15.51479 26.31399 20.91439
#
# Velocity S-wave (km/s) = 2.77140 3.60928 3.21773
# Velocity P-wave (km/s) = 5.11070 6.70303 5.96028
#
# Compressibility (1/GPa) = 0.03117799
#
# Stress axis : x y z
#
# Youngs Moduli (GPa) = 37.43566 98.52465 43.44246
#
# Poissons Ratio (x) = 0.79144 0.24926
# Poissons Ratio (y) = 0.30072 0.02524
# Poissons Ratio (z) = 0.21479 0.05724
#
# Static dielectric constant tensor:
#      x y z
#    x 3.921170 -0.379410 -0.025970 
#    y -0.379410 4.036600 -0.013690 
#    z -0.025970 -0.013690 3.747810 
# 
# 
# High freq. dielectric constant tensor:
#      x y z
#    x 1.767760 -0.033110 0.000390 
#    y -0.033110 1.799750 0.004710 
#    z 0.000390 0.004710 1.797010 
# 
# From -- ./inp_files/258023.got.cif
#   From: 2010.06.25/outbox.cif.g09.slc.cpg/sg2_130_cif.got.tgz:258023.got - 2010.06.27 13:26:56.
