data_PCOD8040903
_publ_section_title
;
Structure prediction by ZEFSAII (Michael W. Deem and Ramdas Pophale) SiO2 
 PCOD8040903
Probable space group: P -1
;
_chemical_formula_sum "Si O2"
_cell_formula_units_Z 16
_cell_length_a 14.542204
_cell_length_b 13.819127
_cell_length_c 10.753731
_cell_angle_alpha 53.870239
_cell_angle_beta 40.255855
_cell_angle_gamma 30.278097
_cell_volume 687.927479
_symmetry_space_group_name_H-M "P -1"
_symmetry_group_IT_number 2
_symmetry_cell_setting 'triclinic'
loop_
_space_group_symop_operation_xyz
x,y,z
-x,-y,-z
loop_
_atom_site_type_symbol
_atom_site_label
_atom_site_fract_x
_atom_site_fract_y
_atom_site_fract_z
Si Si1 0.130900 0.653480 0.521144
Si Si2 0.520157 0.215163 0.158037
Si Si3 0.668057 0.266913 0.186061
Si Si4 0.879548 0.577342 0.400611
Si Si5 0.359159 0.471020 0.672284
Si Si6 0.744118 0.048322 0.493592
Si Si7 0.759758 0.464684 0.972682
Si Si8 0.467134 0.048041 0.643909
O O1 0.398040 0.481587 0.326961
O O2 0.001433 0.624998 0.614531
O O3 0.148087 0.625567 0.673469
O O4 0.975164 0.872544 0.474248
O O5 0.687217 0.171695 0.116168
O O6 0.270022 0.344869 0.379208
O O7 0.624374 0.017406 0.154053
O O8 0.484528 0.325042 0.993020
O O9 0.792486 0.113418 0.286338
O O10 0.807081 0.298430 0.999911
O O11 0.722511 0.719140 0.334892
O O12 0.049359 0.574754 0.252675
O O13 0.500000 0.500000 0.500000
O O14 0.531331 0.243033 0.647390
O O15 0.241695 0.530873 0.881245
O O16 0.684187 0.959020 0.561905
O O17 0.500000 0.000000 0.500000
#
# Coordination Sequence:
#
# PCOD8040903 Si02
#       8
#     2   2   2   2   2   2   2   2
#     4  10  21  42  71  90 122 177 213 253 326 371
#     4  10  21  41  67  91 129 169 207 264 326 379
#     4  10  21  43  62  97 134 159 209 271 314 381
#     4  10  21  41  65  93 128 165 208 268 321 370
#     4  11  23  45  63  91 135 167 211 268 306 378
#     4  11  20  41  70  93 124 173 213 259 317 375
#     4  12  23  40  64  94 130 169 211 260 324 375
#     4  10  18  39  68  93 128 164 212 264 314 375
#
# _framework density 23.258265000000002
#
# number of rings (size 3 to 8) (size 9 to 14) (size 15 to 20)
#    0.000    1.500    7.500    1.500    0.000    4.000 
#    4.500    1.875    0.000    0.000    0.000    0.000 
#    0.000    0.000    0.000    0.000    0.000    0.000 
#
# Total GULP energy -198217.868036 kJ/mol
# GULP energy per Si atom -12388.616752 kJ/mol
# Density = 2.320533 g / cm^3
# Si number density = 23.258265 Si / 1000 Ang^3
#
#
#
# Elastic Constant Matrix: (Units=GPa)
#
#
# Indices 1 2 3 4 5 6 
#
# 1 101.7789 38.5009 43.6057 -17.3609 -10.4805 2.2199
# 2 38.5009 141.6701 19.5633 -31.8938 3.9107 -25.2739
# 3 43.6057 19.5633 47.0646 -20.2981 -15.5622 -1.9268
# 4 -17.3609 -31.8938 -20.2981 35.7515 1.8503 2.1463
# 5 -10.4805 3.9107 -15.5622 1.8503 31.4596 -19.4941
# 6 2.2199 -25.2739 -1.9268 2.1463 -19.4941 39.5107
#
#
#
# Elastic Compliance Matrix: (Units=1/GPa)
#
#
# Indices 1 2 3 4 5 6 
#
# 1 0.019475 -0.005252 -0.022461 -0.006876 -0.009755 -0.009988
# 2 -0.005252 0.011697 0.007332 0.011075 0.006395 0.010689
# 3 -0.022461 0.007332 0.065588 0.029252 0.038912 0.026761
# 4 -0.006876 0.011075 0.029252 0.049369 0.016925 0.014566
# 5 -0.009755 0.006395 0.038912 0.016925 0.071264 0.040778
# 6 -0.009988 0.010689 0.026761 0.014566 0.040778 0.053341
#
#
# Mechanical properties :
#
#
# Convention : Reuss Voigt Hill
#
# Bulk Modulus (GPa) = 17.85729 54.87262 36.36495
# Shear Modulus (GPa) = 15.14410 33.93393 24.53902
#
# Velocity S-wave (km/s) = 2.55449 3.82384 3.25170
# Velocity P-wave (km/s) = 4.04908 6.56807 5.45594
#
# Compressibility (1/GPa) = 0.05599954
#
# Stress axis : x y z
#
# Youngs Moduli (GPa) = 51.34672 85.49274 15.24676
#
# Poissons Ratio (x) = 0.44897 0.34246
# Poissons Ratio (y) = 0.26965 -0.11179
# Poissons Ratio (z) = 1.15330 -0.62686
#
# Static dielectric constant tensor:
#      x y z
#    x 4.460150 -0.009710 -0.047300 
#    y -0.009710 4.803760 -0.548610 
#    z -0.047300 -0.548610 3.880610 
# 
# 
# High freq. dielectric constant tensor:
#      x y z
#    x 1.927580 -0.006640 -0.014690 
#    y -0.006640 1.927220 -0.040130 
#    z -0.014690 -0.040130 1.877330 
# 
# From -- ./inp_files/454609.got.cif
#   From: 2010.06.25/outbox.cif.g09.slc.cpg/sg2_228_cif.got.tgz:454609.got - 2010.06.27 13:26:56.
