data_PCOD8040271
_publ_section_title
;
Structure prediction by ZEFSAII (Michael W. Deem and Ramdas Pophale) SiO2 
 PCOD8040271
Probable space group: P -1
;
_chemical_formula_sum "Si O2"
_cell_formula_units_Z 12
_cell_length_a 13.711894
_cell_length_b 8.811605
_cell_length_c 8.229658
_cell_angle_alpha 35.819211
_cell_angle_beta 97.776546
_cell_angle_gamma 117.797030
_cell_volume 454.624316
_symmetry_space_group_name_H-M "P -1"
_symmetry_group_IT_number 2
_symmetry_cell_setting 'triclinic'
loop_
_space_group_symop_operation_xyz
x,y,z
-x,-y,-z
loop_
_atom_site_type_symbol
_atom_site_label
_atom_site_fract_x
_atom_site_fract_y
_atom_site_fract_z
Si Si1 0.446190 0.437958 0.718671
Si Si2 0.092185 0.842005 0.847319
Si Si3 0.690674 0.808120 0.668624
Si Si4 0.363430 0.731991 0.643101
Si Si5 0.003272 0.774486 0.464528
Si Si6 0.186519 0.859144 0.187134
O O1 0.500000 0.500000 0.500000
O O2 0.555106 0.576235 0.754229
O O3 0.376777 0.605382 0.582270
O O4 0.336258 0.048183 0.065937
O O5 0.197641 0.017128 0.583644
O O6 0.998946 0.934774 0.728407
O O7 0.014056 0.440086 0.190815
O O8 0.161595 0.992836 0.905274
O O9 0.706562 0.103157 0.520847
O O10 0.705267 0.577268 0.981260
O O11 0.500000 0.000000 0.500000
O O12 0.892507 0.535481 0.515172
O O13 0.136310 0.926798 0.278722
#
# Coordination Sequence:
#
# PCOD8040271 Si02
#       6
#     2   2   2   2   2   2
#     4  11  20  40  61  95 116 150 203 251 286 346
#     4  10  18  36  60  84 111 158 197 231 285 359
#     4  11  22  42  61  87 123 161 189 236 305 361
#     4  10  23  42  58  82 127 165 187 231 304 363
#     4   9  19  35  55  89 118 154 187 246 299 335
#     4   9  20  34  57  89 121 147 194 253 289 335
#
# _framework density 26.395420999999999
#
# number of rings (size 3 to 8) (size 9 to 14) (size 15 to 20)
#    1.000    1.000    1.667    3.500    0.000    0.000 
#    9.000    8.333    0.000    6.000    0.000    0.000 
#    0.000    0.000    0.000    0.000    0.000    0.000 
#
# Total GULP energy -148691.760432 kJ/mol
# GULP energy per Si atom -12390.980036 kJ/mol
# Density = 2.633534 g / cm^3
# Si number density = 26.395421 Si / 1000 Ang^3
#
#
#
# Elastic Constant Matrix: (Units=GPa)
#
#
# Indices 1 2 3 4 5 6 
#
# 1 144.7476 41.0955 76.5689 -9.6267 -18.6069 -20.6454
# 2 41.0955 77.4924 56.7620 -1.0258 -6.7160 -23.7383
# 3 76.5689 56.7620 174.8563 17.3403 -15.9434 -31.0987
# 4 -9.6267 -1.0258 17.3403 54.6723 -9.4329 -22.3009
# 5 -18.6069 -6.7160 -15.9434 -9.4329 58.5668 -7.9351
# 6 -20.6454 -23.7383 -31.0987 -22.3009 -7.9351 46.3430
#
#
#
# Elastic Compliance Matrix: (Units=1/GPa)
#
#
# Indices 1 2 3 4 5 6 
#
# 1 0.010813 -0.000948 -0.003690 0.005955 0.004014 0.005408
# 2 -0.000948 0.020488 -0.004695 0.006626 0.003283 0.010672
# 3 -0.003690 -0.004695 0.009347 -0.003363 0.000383 0.000671
# 4 0.005955 0.006626 -0.003363 0.030278 0.009317 0.019956
# 5 0.004014 0.003283 0.000383 0.009317 0.021953 0.011969
# 6 0.005408 0.010672 0.000671 0.019956 0.011969 0.041557
#
#
# Mechanical properties :
#
#
# Convention : Reuss Voigt Hill
#
# Bulk Modulus (GPa) = 45.49369 82.88323 64.18846
# Shear Modulus (GPa) = 31.16644 46.76109 38.96376
#
# Velocity S-wave (km/s) = 3.43993 4.21356 3.84625
# Velocity P-wave (km/s) = 5.74895 7.42569 6.64045
#
# Compressibility (1/GPa) = 0.02198107
#
# Stress axis : x y z
#
# Youngs Moduli (GPa) = 92.48040 48.80893 106.99023
#
# Poissons Ratio (x) = 0.04628 0.39478
# Poissons Ratio (y) = 0.08768 0.50236
# Poissons Ratio (z) = 0.34124 0.22918
#
# Static dielectric constant tensor:
#      x y z
#    x 5.035350 -0.255600 0.077470 
#    y -0.255600 5.426160 -0.296700 
#    z 0.077470 -0.296700 4.949850 
# 
# 
# High freq. dielectric constant tensor:
#      x y z
#    x 2.054000 0.012160 -0.020110 
#    y 0.012160 2.084220 0.000670 
#    z -0.020110 0.000670 2.065100 
# 
# From -- ./inp_files/142799.got.cif
#   From: 2010.06.25/outbox.cif.g09.slc.cpg/sg2_72_cif.got.tgz:142799.got - 2010.06.27 13:26:56.
