data_PCOD8040538
_publ_section_title
;
Structure prediction by ZEFSAII (Michael W. Deem and Ramdas Pophale) SiO2 
 PCOD8040538
Probable space group: P -1
;
_chemical_formula_sum "Si O2"
_cell_formula_units_Z 16
_cell_length_a 11.384858
_cell_length_b 17.006511
_cell_length_c 9.422753
_cell_angle_alpha 80.987749
_cell_angle_beta 115.694411
_cell_angle_gamma 44.684318
_cell_volume 785.535349
_symmetry_space_group_name_H-M "P -1"
_symmetry_group_IT_number 2
_symmetry_cell_setting 'triclinic'
loop_
_space_group_symop_operation_xyz
x,y,z
-x,-y,-z
loop_
_atom_site_type_symbol
_atom_site_label
_atom_site_fract_x
_atom_site_fract_y
_atom_site_fract_z
Si Si1 0.807950 0.120636 0.736478
Si Si2 0.061591 0.129515 0.749015
Si Si3 0.718780 0.108162 0.279027
Si Si4 0.442803 0.954338 0.238867
Si Si5 0.020211 0.246796 0.423188
Si Si6 0.235941 0.447832 0.798771
Si Si7 0.199773 0.026268 0.383757
Si Si8 0.699107 0.654728 0.437838
O O1 0.491142 0.278570 0.557736
O O2 0.821804 0.203831 0.666711
O O3 0.925144 0.991356 0.726746
O O4 0.000000 0.000000 0.000000
O O5 0.941292 0.254865 0.534638
O O6 0.259142 0.959524 0.828437
O O7 0.201754 0.102959 0.959931
O O8 0.614235 0.104226 0.350764
O O9 0.491302 0.295442 0.075763
O O10 0.000000 0.000000 0.500000
O O11 0.657117 0.910630 0.364820
O O12 0.580637 0.802961 0.286190
O O13 0.348721 0.990172 0.341697
O O14 0.974913 0.205810 0.284918
O O15 0.849194 0.416142 0.251263
O O16 0.300880 0.405294 0.677805
O O17 0.999741 0.510572 0.695641
#
# Coordination Sequence:
#
# PCOD8040538 Si02
#       8
#     2   2   2   2   2   2   2   2
#     4  11  18  35  65  89 116 158 217 249 279 351
#     4  11  20  36  63  92 111 159 215 245 283 365
#     4  11  21  36  64  91 116 158 209 248 292 365
#     4  10  18  37  61  88 120 159 210 248 289 355
#     4  10  23  36  57  90 129 157 189 252 322 353
#     4  10  20  40  59  88 129 155 197 252 311 356
#     4  10  21  35  61  91 118 158 207 246 298 359
#     4   9  19  34  64  89 111 163 205 252 297 338
#
# _framework density 20.368275000000001
#
# number of rings (size 3 to 8) (size 9 to 14) (size 15 to 20)
#    0.000    1.750    5.000    0.750    0.000    0.000 
#    0.000    8.750    5.500    0.000    0.000    0.000 
#    0.000    0.000    0.000    0.000    0.000    0.000 
#
# Total GULP energy -198211.472188 kJ/mol
# GULP energy per Si atom -12388.217012 kJ/mol
# Density = 2.032192 g / cm^3
# Si number density = 20.368275 Si / 1000 Ang^3
#
#
#
# Elastic Constant Matrix: (Units=GPa)
#
#
# Indices 1 2 3 4 5 6 
#
# 1 97.3528 25.0776 47.9308 0.4872 -12.8592 -12.3614
# 2 25.0776 101.6711 48.7604 4.0045 -6.9750 5.6942
# 3 47.9308 48.7604 108.5393 -4.6889 -4.1635 -4.7214
# 4 0.4872 4.0045 -4.6889 25.8061 0.7065 -5.8815
# 5 -12.8592 -6.9750 -4.1635 0.7065 24.9404 1.0238
# 6 -12.3614 5.6942 -4.7214 -5.8815 1.0238 31.9090
#
#
#
# Elastic Compliance Matrix: (Units=1/GPa)
#
#
# Indices 1 2 3 4 5 6 
#
# 1 0.014707 -0.000692 -0.005753 -0.000313 0.006245 0.004712
# 2 -0.000692 0.013503 -0.006034 -0.004266 0.002716 -0.004444
# 3 -0.005753 -0.006034 0.014635 0.004195 -0.002406 0.001864
# 4 -0.000313 -0.004266 0.004195 0.042323 -0.002228 0.009133
# 5 0.006245 0.002716 -0.002406 -0.002228 0.043746 -0.000236
# 6 0.004712 -0.004444 0.001864 0.009133 -0.000236 0.035924
#
#
# Mechanical properties :
#
#
# Convention : Reuss Voigt Hill
#
# Bulk Modulus (GPa) = 55.90535 61.23340 58.56938
# Shear Modulus (GPa) = 25.54162 28.91739 27.22951
#
# Velocity S-wave (km/s) = 3.54501 3.77201 3.66027
# Velocity P-wave (km/s) = 6.65305 7.00708 6.83236
#
# Compressibility (1/GPa) = 0.01788738
#
# Stress axis : x y z
#
# Youngs Moduli (GPa) = 67.99391 74.05522 68.33123
#
# Poissons Ratio (x) = 0.05122 0.39311
# Poissons Ratio (y) = 0.04703 0.41233
# Poissons Ratio (z) = 0.39117 0.44687
#
# Static dielectric constant tensor:
#      x y z
#    x 4.431380 0.300130 0.828260 
#    y 0.300130 4.432540 1.177160 
#    z 0.828260 1.177160 5.107630 
# 
# 
# High freq. dielectric constant tensor:
#      x y z
#    x 1.803400 0.000950 -0.002450 
#    y 0.000950 1.791210 0.026710 
#    z -0.002450 0.026710 1.765350 
# 
# From -- ./inp_files/259694.got.cif
#   From: 2010.06.25/outbox.cif.g09.slc.cpg/sg2_130_cif.got.tgz:259694.got - 2010.06.27 13:26:56.
