data_PCOD8040020
_publ_section_title
;
Structure prediction by ZEFSAII (Michael W. Deem and Ramdas Pophale) SiO2 
 PCOD8040020
Probable space group: P -1
;
_chemical_formula_sum "Si O2"
_cell_formula_units_Z 14
_cell_length_a 20.453932
_cell_length_b 9.248141
_cell_length_c 8.483415
_cell_angle_alpha 68.999958
_cell_angle_beta 49.893606
_cell_angle_gamma 31.995796
_cell_volume 576.143174
_symmetry_space_group_name_H-M "P -1"
_symmetry_group_IT_number 2
_symmetry_cell_setting 'triclinic'
loop_
_space_group_symop_operation_xyz
x,y,z
-x,-y,-z
loop_
_atom_site_type_symbol
_atom_site_label
_atom_site_fract_x
_atom_site_fract_y
_atom_site_fract_z
Si Si1 0.392957 0.942511 0.607913
Si Si2 0.722185 0.684930 0.921203
Si Si3 0.368039 0.904489 0.316339
Si Si4 0.617442 0.713867 0.595384
Si Si5 0.038844 0.306917 0.775990
Si Si6 0.718872 0.383878 0.855886
Si Si7 0.894418 0.827213 0.930376
O O1 0.297546 0.259795 0.609434
O O2 0.439617 0.798879 0.423462
O O3 0.568803 0.684181 0.532746
O O4 0.272320 0.019455 0.863943
O O5 0.699746 0.823550 0.745798
O O6 0.741756 0.477426 0.918281
O O7 0.885621 0.481459 0.845190
O O8 0.556486 0.961193 0.176742
O O9 0.211682 0.025654 0.511129
O O10 0.530139 0.600707 0.077206
O O11 0.741672 0.424292 0.631530
O O12 0.053121 0.197950 0.965364
O O13 0.031952 0.502498 0.756264
O O14 0.861081 0.029777 0.795280
#
# Coordination Sequence:
#
# PCOD8040020 Si02
#       7
#     2   2   2   2   2   2   2
#     4  10  18  35  61  90 117 162 201 240 297 370
#     4  11  19  39  63  92 118 167 197 254 296 377
#     4  10  20  38  65  90 119 158 207 250 300 357
#     4  10  19  35  63  91 118 162 204 247 298 363
#     4  10  22  40  63  84 126 172 197 232 318 380
#     4  11  22  39  65  96 121 148 211 267 291 337
#     4  10  23  40  62  90 126 160 202 252 302 362
#
# _framework density 24.299517000000002
#
# number of rings (size 3 to 8) (size 9 to 14) (size 15 to 20)
#    0.000    1.714    4.286    1.286    0.000    3.429 
#    0.000    0.714    3.143    0.000    0.000    0.000 
#    0.000    0.000    0.000    0.000    0.000    0.000 
#
# Total GULP energy -173534.414590 kJ/mol
# GULP energy per Si atom -12395.315328 kJ/mol
# Density = 2.424421 g / cm^3
# Si number density = 24.299517 Si / 1000 Ang^3
#
#
#
# Elastic Constant Matrix: (Units=GPa)
#
#
# Indices 1 2 3 4 5 6 
#
# 1 90.3550 21.5118 12.1917 -13.1686 -3.2841 -22.1780
# 2 21.5118 109.4184 9.8601 -40.4831 9.8251 -8.3991
# 3 12.1917 9.8601 43.5291 -16.2644 -0.4962 -4.5530
# 4 -13.1686 -40.4831 -16.2644 32.9880 -9.2967 -0.7043
# 5 -3.2841 9.8251 -0.4962 -9.2967 20.6308 -3.9692
# 6 -22.1780 -8.3991 -4.5530 -0.7043 -3.9692 17.4454
#
#
#
# Elastic Compliance Matrix: (Units=1/GPa)
#
#
# Indices 1 2 3 4 5 6 
#
# 1 0.022987 0.005602 0.006206 0.025651 0.020237 0.039180
# 2 0.005602 0.022320 0.010793 0.039158 0.013021 0.025229
# 3 0.006206 0.010793 0.037197 0.040486 0.020587 0.029112
# 4 0.025651 0.039158 0.040486 0.126953 0.059124 0.080606
# 5 0.020237 0.013021 0.020587 0.059124 0.083953 0.058857
# 6 0.039180 0.025229 0.029112 0.080606 0.058857 0.143521
#
#
# Mechanical properties :
#
#
# Convention : Reuss Voigt Hill
#
# Bulk Modulus (GPa) = 7.83038 36.71440 22.27239
# Shear Modulus (GPa) = 11.51282 27.52877 19.52080
#
# Velocity S-wave (km/s) = 2.17903 3.36950 2.83740
# Velocity P-wave (km/s) = 3.09198 5.50272 4.46320
#
# Compressibility (1/GPa) = 0.12770769
#
# Stress axis : x y z
#
# Youngs Moduli (GPa) = 43.50239 44.80219 26.88364
#
# Poissons Ratio (x) = -0.25099 -0.16684
# Poissons Ratio (y) = -0.24371 -0.29016
# Poissons Ratio (z) = -0.26997 -0.48356
#
# Static dielectric constant tensor:
#      x y z
#    x 4.260810 -0.273410 -0.040590 
#    y -0.273410 4.087800 -0.199460 
#    z -0.040590 -0.199460 4.579570 
# 
# 
# High freq. dielectric constant tensor:
#      x y z
#    x 1.958330 -0.026990 -0.005370 
#    y -0.026990 1.929650 -0.019060 
#    z -0.005370 -0.019060 1.970640 
# 
# From -- ./inp_files/205516.got.cif
#   From: 2010.06.25/outbox.cif.g09.slc.cpg/sg2_103_cif.got.tgz:205516.got - 2010.06.27 13:26:56.
