data_PCOD8040638
_publ_section_title
;
Structure prediction by ZEFSAII (Michael W. Deem and Ramdas Pophale) SiO2 
 PCOD8040638
Probable space group: P -1
;
_chemical_formula_sum "Si O2"
_cell_formula_units_Z 16
_cell_length_a 8.450140
_cell_length_b 20.743447
_cell_length_c 12.473244
_cell_angle_alpha 32.462438
_cell_angle_beta 51.342536
_cell_angle_gamma 38.947888
_cell_volume 734.467093
_symmetry_space_group_name_H-M "P -1"
_symmetry_group_IT_number 2
_symmetry_cell_setting 'triclinic'
loop_
_space_group_symop_operation_xyz
x,y,z
-x,-y,-z
loop_
_atom_site_type_symbol
_atom_site_label
_atom_site_fract_x
_atom_site_fract_y
_atom_site_fract_z
Si Si1 0.946803 0.249137 0.267421
Si Si2 0.220109 0.600647 0.519515
Si Si3 0.119701 0.728800 0.972709
Si Si4 0.136439 0.423669 0.658641
Si Si5 0.679304 0.185959 0.813879
Si Si6 0.652614 0.532292 0.122904
Si Si7 0.000614 0.983932 0.274299
Si Si8 0.531908 0.826007 0.853702
O O1 0.818243 0.261997 0.189957
O O2 0.829212 0.420711 0.109044
O O3 0.252179 0.149320 0.265817
O O4 0.876878 0.165340 0.495949
O O5 0.500000 0.500000 0.500000
O O6 0.054643 0.557546 0.590100
O O7 0.131486 0.769238 0.298512
O O8 0.228741 0.580703 0.670035
O O9 0.981915 0.893978 0.847174
O O10 0.362786 0.605473 0.113126
O O11 0.934497 0.680706 0.118220
O O12 0.438190 0.317890 0.662186
O O13 0.000000 0.500000 0.500000
O O14 0.571261 0.165141 0.996097
O O15 0.848649 0.045368 0.860186
O O16 0.664885 0.668262 0.955895
O O17 0.710446 0.045899 0.290854
#
# Coordination Sequence:
#
# PCOD8040638 Si02
#       8
#     2   2   2   2   2   2   2   2
#     4  12  23  44  64  94 131 174 222 267 320 381
#     4  10  18  37  66  93 127 159 211 269 323 363
#     4  11  24  43  63  97 136 173 211 268 326 386
#     4  11  23  38  67 100 135 160 208 274 334 371
#     4  11  21  43  66  95 128 172 214 266 320 388
#     4  11  21  39  70  92 126 173 216 268 321 384
#     4  11  26  41  69  89 135 179 215 257 328 390
#     4  11  23  42  65  96 127 165 224 276 315 376
#
# _framework density 21.784503999999998
#
# number of rings (size 3 to 8) (size 9 to 14) (size 15 to 20)
#    0.000    1.000    5.000    3.375    1.750    0.500 
#    0.000    0.000    0.000    0.000    0.000    0.000 
#    0.000    0.000    0.000    0.000    0.000    0.000 
#
# Total GULP energy -198254.438162 kJ/mol
# GULP energy per Si atom -12390.902385 kJ/mol
# Density = 2.173492 g / cm^3
# Si number density = 21.784504 Si / 1000 Ang^3
#
#
#
# Elastic Constant Matrix: (Units=GPa)
#
#
# Indices 1 2 3 4 5 6 
#
# 1 106.0239 36.1838 34.4348 6.9223 -6.1254 22.9418
# 2 36.1838 115.2738 29.8838 -7.5930 -4.4432 32.9930
# 3 34.4348 29.8838 83.5338 -2.2979 -3.1856 15.4421
# 4 6.9223 -7.5930 -2.2979 3.4899 -5.4516 3.6057
# 5 -6.1254 -4.4432 -3.1856 -5.4516 27.3338 5.5502
# 6 22.9418 32.9930 15.4421 3.6057 5.5502 38.3816
#
#
#
# Elastic Compliance Matrix: (Units=1/GPa)
#
#
# Indices 1 2 3 4 5 6 
#
# 1 0.004927 0.015650 0.002695 0.110814 0.032687 -0.032619
# 2 0.015650 -0.026272 -0.016204 -0.253123 -0.063849 0.052761
# 3 0.002695 -0.016204 0.009390 -0.092636 -0.023606 0.020657
# 4 0.110814 -0.253123 -0.092636 -1.652165 -0.439341 0.407362
# 5 0.032687 -0.063849 -0.023606 -0.439341 -0.076580 0.097192
# 6 -0.032619 0.052761 0.020657 0.407362 0.097192 -0.060436
#
#
# Mechanical properties :
#
#
# Convention : Reuss Voigt Hill
#
# Bulk Modulus (GPa) = -130.33116 56.20404 -37.06356
# Shear Modulus (GPa) = -2.76553 27.46299 12.34873
#
# Velocity S-wave (km/s) = -1.12794 3.55444 2.38346
# Velocity P-wave (km/s) = 7.85199 6.53463 3.07833
#
# Compressibility (1/GPa) = -0.00767276
#
# Stress axis : x y z
#
# Youngs Moduli (GPa) = 202.95595 -38.06388 106.49551
#
# Poissons Ratio (x) = 0.59570 -0.28702
# Poissons Ratio (y) = -3.17624 1.72568
# Poissons Ratio (z) = -0.54699 -0.61680
#
# Static dielectric constant tensor:
#      x y z
#    x 4.214930 0.282350 0.003490 
#    y 0.282350 3.971830 -0.147040 
#    z 0.003490 -0.147040 3.794220 
# 
# 
# High freq. dielectric constant tensor:
#      x y z
#    x 1.860090 0.017910 0.004910 
#    y 0.017910 1.848450 -0.001000 
#    z 0.004910 -0.001000 1.850340 
# 
# From -- ./inp_files/343709.got.cif
#   From: 2010.06.25/outbox.cif.g09.slc.cpg/sg2_172_cif.got.tgz:343709.got - 2010.06.27 13:26:56.
