data_PCOD8040408
_publ_section_title
;
Structure prediction by ZEFSAII (Michael W. Deem and Ramdas Pophale) SiO2 
 PCOD8040408
Probable space group: P -1
;
_chemical_formula_sum "Si O2"
_cell_formula_units_Z 14
_cell_length_a 13.536497
_cell_length_b 25.408018
_cell_length_c 15.199652
_cell_angle_alpha 153.855402
_cell_angle_beta 35.602703
_cell_angle_gamma 160.750551
_cell_volume 737.799420
_symmetry_space_group_name_H-M "P -1"
_symmetry_group_IT_number 2
_symmetry_cell_setting 'triclinic'
loop_
_space_group_symop_operation_xyz
x,y,z
-x,-y,-z
loop_
_atom_site_type_symbol
_atom_site_label
_atom_site_fract_x
_atom_site_fract_y
_atom_site_fract_z
Si Si1 0.797373 0.338885 0.986110
Si Si2 0.718660 0.773154 0.527242
Si Si3 0.633334 0.091816 0.444587
Si Si4 0.855147 0.632279 0.098289
Si Si5 0.340209 0.513748 0.586764
Si Si6 0.435695 0.212818 0.678822
Si Si7 0.280458 0.074335 0.396931
O O1 0.638143 0.358517 0.175365
O O2 0.000000 0.500000 0.000000
O O3 0.019045 0.404200 0.992124
O O4 0.527558 0.092598 0.782525
O O5 0.703365 0.639829 0.284795
O O6 0.510032 0.641883 0.565919
O O7 0.576127 0.800000 0.611944
O O8 0.070234 0.006681 0.651638
O O9 0.580064 0.194895 0.606958
O O10 0.992208 0.271825 0.454971
O O11 0.500000 0.000000 0.500000
O O12 0.595320 0.431518 0.918089
O O13 0.138088 0.856930 0.174539
O O14 0.500000 0.500000 0.500000
O O15 0.507842 0.226676 0.544279
O O16 0.000000 0.000000 0.500000
#
# Coordination Sequence:
#
# PCOD8040408 Si02
#       7
#     2   2   2   2   2   2   2
#     4  12  22  39  64  87 112 157 203 239 291 361
#     4  10  22  38  58  94 127 148 193 256 296 336
#     4  12  22  39  64  87 112 157 203 239 291 361
#     4  10  18  36  65  87 115 161 205 235 284 354
#     4  12  26  40  60  90 126 147 190 256 306 342
#     4  10  18  36  65  87 115 161 205 235 284 354
#     4   8  18  34  58  90 123 151 200 246 285 342
#
# _framework density 18.975346999999999
#
# number of rings (size 3 to 8) (size 9 to 14) (size 15 to 20)
#    0.000    1.714    5.714    1.714    0.000    6.857 
#    0.000    1.429    0.000    0.000    0.000    0.000 
#    0.000    0.000    0.000    0.000    0.000    0.000 
#
# Total GULP energy -173558.723498 kJ/mol
# GULP energy per Si atom -12397.051678 kJ/mol
# Density = 1.893216 g / cm^3
# Si number density = 18.975347 Si / 1000 Ang^3
#
#
#
# Elastic Constant Matrix: (Units=GPa)
#
#
# Indices 1 2 3 4 5 6 
#
# 1 154.2167 58.6579 36.5864 0.9869 -8.1406 -19.7569
# 2 58.6579 99.9729 46.2604 5.9786 10.2193 -16.2490
# 3 36.5864 46.2604 157.5439 18.2145 12.2374 -4.3598
# 4 0.9869 5.9786 18.2145 31.1943 11.0349 6.5912
# 5 -8.1406 10.2193 12.2374 11.0349 30.5034 2.9801
# 6 -19.7569 -16.2490 -4.3598 6.5912 2.9801 36.3479
#
#
#
# Elastic Compliance Matrix: (Units=1/GPa)
#
#
# Indices 1 2 3 4 5 6 
#
# 1 0.009138 -0.004988 -0.000831 -0.000976 0.004558 0.002441
# 2 -0.004988 0.015548 -0.002829 -0.000038 -0.005820 0.004384
# 3 -0.000831 -0.002829 0.007877 -0.003631 -0.001119 -0.000022
# 4 -0.000976 -0.000038 -0.003631 0.040213 -0.012632 -0.007239
# 5 0.004558 -0.005820 -0.001119 -0.012632 0.041098 -0.001337
# 6 0.002441 0.004384 -0.000022 -0.007239 -0.001337 0.032218
#
#
# Mechanical properties :
#
#
# Convention : Reuss Voigt Hill
#
# Bulk Modulus (GPa) = 65.50199 77.19368 71.34784
# Shear Modulus (GPa) = 29.67707 37.62438 33.65072
#
# Velocity S-wave (km/s) = 3.95901 4.45770 4.21573
# Velocity P-wave (km/s) = 7.44935 8.20147 7.83444
#
# Compressibility (1/GPa) = 0.01526671
#
# Stress axis : x y z
#
# Youngs Moduli (GPa) = 109.42861 64.31545 126.94633
#
# Poissons Ratio (x) = 0.32081 0.10552
# Poissons Ratio (y) = 0.54583 0.35919
# Poissons Ratio (z) = 0.09096 0.18198
#
# Static dielectric constant tensor:
#      x y z
#    x 4.426920 -0.299490 -0.051070 
#    y -0.299490 3.381240 0.192340 
#    z -0.051070 0.192340 3.694800 
# 
# 
# High freq. dielectric constant tensor:
#      x y z
#    x 1.765080 -0.003160 -0.002100 
#    y -0.003160 1.703370 0.016900 
#    z -0.002100 0.016900 1.745750 
# 
# From -- ./inp_files/227416.got.cif
#   From: 2010.06.25/outbox.cif.g09.slc.cpg/sg2_114_cif.got.tgz:227416.got - 2010.06.27 13:26:56.
