data_PCOD8040565
_publ_section_title
;
Structure prediction by ZEFSAII (Michael W. Deem and Ramdas Pophale) SiO2 
 PCOD8040565
Probable space group: P -1
;
_chemical_formula_sum "Si O2"
_cell_formula_units_Z 14
_cell_length_a 8.900692
_cell_length_b 8.318563
_cell_length_c 12.347318
_cell_angle_alpha 84.420775
_cell_angle_beta 119.753297
_cell_angle_gamma 62.838238
_cell_volume 641.132839
_symmetry_space_group_name_H-M "P -1"
_symmetry_group_IT_number 2
_symmetry_cell_setting 'triclinic'
loop_
_space_group_symop_operation_xyz
x,y,z
-x,-y,-z
loop_
_atom_site_type_symbol
_atom_site_label
_atom_site_fract_x
_atom_site_fract_y
_atom_site_fract_z
Si Si1 0.383096 0.009881 0.178541
Si Si2 0.933492 0.760047 0.131556
Si Si3 0.569359 0.264494 0.451708
Si Si4 0.854996 0.680528 0.742675
Si Si5 0.635726 0.318083 0.714393
Si Si6 0.168555 0.076813 0.677920
Si Si7 0.985055 0.846011 0.599654
O O1 0.209566 0.163751 0.194160
O O2 0.447373 0.788996 0.239871
O O3 0.589358 0.008998 0.258443
O O4 0.280735 0.075740 0.018700
O O5 0.898766 0.799823 0.244163
O O6 0.988652 0.542701 0.141958
O O7 0.126318 0.765778 0.156183
O O8 0.352765 0.281984 0.390319
O O9 0.654390 0.273323 0.597197
O O10 0.523952 0.442169 0.343949
O O11 0.751110 0.053422 0.482291
O O12 0.986378 0.704961 0.696966
O O13 0.993788 0.229306 0.512780
O O14 0.154845 0.888313 0.695488
#
# Coordination Sequence:
#
# PCOD8040565 Si02
#       7
#     2   2   2   2   2   2   2
#     4  12  22  41  62  86 120 162 198 238 285 354
#     4  11  24  41  58  88 125 156 198 238 287 359
#     4  10  18  37  62  93 113 141 199 258 285 342
#     4  11  22  39  65  91 111 157 203 244 292 341
#     4  10  21  36  66  88 114 153 202 244 296 338
#     4  11  24  40  60  88 122 159 190 243 304 349
#     4  11  21  41  64  85 124 150 194 250 303 345
#
# _framework density 21.836347
#
# number of rings (size 3 to 8) (size 9 to 14) (size 15 to 20)
#    0.000    1.143    4.286    2.571    0.000    0.571 
#    5.143    0.714    0.000    0.000    0.000    0.000 
#    0.000    0.000    0.000    0.000    0.000    0.000 
#
# Total GULP energy -173590.072941 kJ/mol
# GULP energy per Si atom -12399.290924 kJ/mol
# Density = 2.178665 g / cm^3
# Si number density = 21.836347 Si / 1000 Ang^3
#
#
#
# Elastic Constant Matrix: (Units=GPa)
#
#
# Indices 1 2 3 4 5 6 
#
# 1 105.0914 26.0932 39.8680 -9.1136 -0.6784 42.9575
# 2 26.0932 67.6464 23.4450 -6.8947 -9.1360 21.1271
# 3 39.8680 23.4450 78.0480 -3.3566 1.5272 15.1225
# 4 -9.1136 -6.8947 -3.3566 31.2974 -0.5919 -6.5931
# 5 -0.6784 -9.1360 1.5272 -0.5919 30.2967 2.9416
# 6 42.9575 21.1271 15.1225 -6.5931 2.9416 35.9728
#
#
#
# Elastic Compliance Matrix: (Units=1/GPa)
#
#
# Indices 1 2 3 4 5 6 
#
# 1 0.021766 0.002368 -0.007111 0.001004 0.003962 -0.024534
# 2 0.002368 0.021080 -0.005018 0.002132 0.008002 -0.013363
# 3 -0.007111 -0.005018 0.017139 -0.000469 -0.002972 0.004390
# 4 0.001004 0.002132 -0.000469 0.033483 0.000974 0.003804
# 5 0.003962 0.008002 -0.002972 0.000974 0.036746 -0.011007
# 6 -0.024534 -0.013363 0.004390 0.003804 -0.011007 0.064697
#
#
# Mechanical properties :
#
#
# Convention : Reuss Voigt Hill
#
# Bulk Modulus (GPa) = 24.71243 47.73314 36.22278
# Shear Modulus (GPa) = 21.93760 30.27203 26.10482
#
# Velocity S-wave (km/s) = 3.17304 3.72736 3.46132
# Velocity P-wave (km/s) = 4.97654 6.35856 5.70952
#
# Compressibility (1/GPa) = 0.04046546
#
# Stress axis : x y z
#
# Youngs Moduli (GPa) = 45.94244 47.43935 58.34486
#
# Poissons Ratio (x) = -0.11235 0.41487
# Poissons Ratio (y) = -0.10881 0.29276
# Poissons Ratio (z) = 0.32668 0.23804
#
# Static dielectric constant tensor:
#      x y z
#    x 3.932700 0.084250 0.048940 
#    y 0.084250 4.001850 0.080860 
#    z 0.048940 0.080860 3.750570 
# 
# 
# High freq. dielectric constant tensor:
#      x y z
#    x 1.861060 0.011940 0.003090 
#    y 0.011940 1.851710 0.013450 
#    z 0.003090 0.013450 1.848750 
# 
# From -- ./inp_files/182844.got.cif
#   From: 2010.06.25/outbox.cif.g09.slc.cpg/sg2_92_cif.got.tgz:182844.got - 2010.06.27 13:26:56.
