data_PCOD8040038
_publ_section_title
;
Structure prediction by ZEFSAII (Michael W. Deem and Ramdas Pophale) SiO2 
 PCOD8040038
Probable space group: P -1
;
_chemical_formula_sum "Si O2"
_cell_formula_units_Z 16
_cell_length_a 9.630309
_cell_length_b 12.350738
_cell_length_c 12.091237
_cell_angle_alpha 132.277041
_cell_angle_beta 124.648740
_cell_angle_gamma 72.206248
_cell_volume 868.364716
_symmetry_space_group_name_H-M "P -1"
_symmetry_group_IT_number 2
_symmetry_cell_setting 'triclinic'
loop_
_space_group_symop_operation_xyz
x,y,z
-x,-y,-z
loop_
_atom_site_type_symbol
_atom_site_label
_atom_site_fract_x
_atom_site_fract_y
_atom_site_fract_z
Si Si1 0.387546 0.344108 0.960162
Si Si2 0.433127 0.781521 0.397226
Si Si3 0.798569 0.726721 0.571394
Si Si4 0.521977 0.094484 0.735561
Si Si5 0.045755 0.343458 0.173745
Si Si6 0.818512 0.501427 0.864487
Si Si7 0.749623 0.518357 0.214553
Si Si8 0.895538 0.038283 0.874908
O O1 0.425524 0.175268 0.843817
O O2 0.268333 0.383791 0.833712
O O3 0.283558 0.371798 0.042709
O O4 0.564258 0.449511 0.123166
O O5 0.596317 0.722454 0.483174
O O6 0.453239 0.794544 0.282291
O O7 0.274045 0.663824 0.275376
O O8 0.406659 0.942087 0.544794
O O9 0.856066 0.676130 0.681921
O O10 0.847412 0.618140 0.423615
O O11 0.882748 0.893974 0.690940
O O12 0.704501 0.062206 0.840518
O O13 0.160646 0.460228 0.229702
O O14 0.863060 0.391488 0.151517
O O15 0.998234 0.189347 0.977353
O O16 0.000000 0.500000 0.000000
O O17 0.000000 0.000000 0.000000
#
# Coordination Sequence:
#
# PCOD8040038 Si02
#       8
#     2   2   2   2   2   2   2   2
#     4  11  20  35  59  83 115 147 190 236 277 336
#     4  10  20  35  57  87 109 147 193 233 279 334
#     4  10  20  36  60  85 112 144 196 240 270 330
#     4  10  18  35  62  81 109 149 193 237 272 323
#     4  11  22  36  58  84 119 152 180 232 296 333
#     4  12  23  38  55  83 121 151 183 232 291 346
#     4  11  19  36  57  88 110 142 196 238 277 324
#     4   9  19  35  57  86 112 144 191 234 275 332
#
# _framework density 18.425438
#
# number of rings (size 3 to 8) (size 9 to 14) (size 15 to 20)
#    0.000    1.500    5.000    1.875    0.000    0.500 
#    0.000    1.875    0.000    6.750    0.000    0.000 
#    0.000    0.000    0.000    0.000    0.000    0.000 
#
# Total GULP energy -198312.665998 kJ/mol
# GULP energy per Si atom -12394.541625 kJ/mol
# Density = 1.838350 g / cm^3
# Si number density = 18.425438 Si / 1000 Ang^3
#
#
#
# Elastic Constant Matrix: (Units=GPa)
#
#
# Indices 1 2 3 4 5 6 
#
# 1 73.7513 41.0761 35.0549 0.0024 0.9200 -2.3167
# 2 41.0761 95.7292 46.1692 -0.9743 4.0473 -4.1182
# 3 35.0549 46.1692 112.0903 13.2020 -0.9208 5.7148
# 4 0.0024 -0.9743 13.2020 38.3333 -4.9453 7.6972
# 5 0.9200 4.0473 -0.9208 -4.9453 30.2578 3.1143
# 6 -2.3167 -4.1182 5.7148 7.6972 3.1143 28.4592
#
#
#
# Elastic Compliance Matrix: (Units=1/GPa)
#
#
# Indices 1 2 3 4 5 6 
#
# 1 0.018745 -0.006364 -0.003389 0.000822 0.000205 0.001041
# 2 -0.006364 0.015692 -0.004770 0.001246 -0.002115 0.002605
# 3 -0.003389 -0.004770 0.012532 -0.003832 0.000757 -0.002529
# 4 0.000822 0.001246 -0.003832 0.029647 0.005318 -0.007584
# 5 0.000205 -0.002115 0.000757 0.005318 0.034804 -0.005688
# 6 0.001041 0.002605 -0.002529 -0.007584 -0.005688 0.038781
#
#
# Mechanical properties :
#
#
# Convention : Reuss Voigt Hill
#
# Bulk Modulus (GPa) = 55.79568 58.46348 57.12958
# Shear Modulus (GPa) = 26.99490 30.02810 28.51150
#
# Velocity S-wave (km/s) = 3.83180 4.04134 3.93797
# Velocity P-wave (km/s) = 7.06573 7.31951 7.19374
#
# Compressibility (1/GPa) = 0.01792253
#
# Stress axis : x y z
#
# Youngs Moduli (GPa) = 53.34895 63.72874 79.79346
#
# Poissons Ratio (x) = 0.40558 0.27042
# Poissons Ratio (y) = 0.33952 0.38060
# Poissons Ratio (z) = 0.18080 0.30398
#
# Static dielectric constant tensor:
#      x y z
#    x 3.327870 -0.238550 0.053200 
#    y -0.238550 3.531830 0.231120 
#    z 0.053200 0.231120 3.870210 
# 
# 
# High freq. dielectric constant tensor:
#      x y z
#    x 1.681020 -0.032380 0.003570 
#    y -0.032380 1.713530 0.005760 
#    z 0.003570 0.005760 1.733020 
# 
# From -- ./inp_files/256964.got.cif
#   From: 2010.06.25/outbox.cif.g09.slc.cpg/sg2_129_cif.got.tgz:256964.got - 2010.06.27 13:26:56.
