data_PCOD8040454
_publ_section_title
;
Structure prediction by ZEFSAII (Michael W. Deem and Ramdas Pophale) SiO2 
 PCOD8040454
Probable space group: P -1
;
_chemical_formula_sum "Si O2"
_cell_formula_units_Z 16
_cell_length_a 11.033655
_cell_length_b 15.771119
_cell_length_c 12.075839
_cell_angle_alpha 42.339157
_cell_angle_beta 117.040118
_cell_angle_gamma 83.971191
_cell_volume 854.437744
_symmetry_space_group_name_H-M "P -1"
_symmetry_group_IT_number 2
_symmetry_cell_setting 'triclinic'
loop_
_space_group_symop_operation_xyz
x,y,z
-x,-y,-z
loop_
_atom_site_type_symbol
_atom_site_label
_atom_site_fract_x
_atom_site_fract_y
_atom_site_fract_z
Si Si1 0.655269 0.369540 0.832090
Si Si2 0.804763 0.733148 0.588741
Si Si3 0.672419 0.233424 0.754377
Si Si4 0.761218 0.394930 0.501404
Si Si5 0.652065 0.963620 0.931642
Si Si6 0.935132 0.690519 0.134063
Si Si7 0.987690 0.642905 0.525484
Si Si8 0.039948 0.648889 0.971220
O O1 0.750031 0.208914 0.935870
O O2 0.556890 0.557303 0.545375
O O3 0.481325 0.417970 0.785874
O O4 0.827182 0.315967 0.031574
O O5 0.951122 0.686286 0.598860
O O6 0.825060 0.569020 0.770012
O O7 0.577707 0.921549 0.280956
O O8 0.863718 0.763768 0.696497
O O9 0.801723 0.223700 0.725478
O O10 0.682420 0.081214 0.879624
O O11 0.858202 0.421404 0.607291
O O12 0.865900 0.347294 0.471674
O O13 0.748238 0.889399 0.920975
O O14 0.772966 0.788257 0.232846
O O15 0.900776 0.564550 0.248422
O O16 0.942302 0.731247 0.971636
#
# Coordination Sequence:
#
# PCOD8040454 Si02
#       8
#     2   2   2   2   2   2   2   2
#     4   9  16  32  53  79 104 137 172 218 255 314
#     4  10  21  34  55  77 104 144 180 213 256 311
#     4   9  17  29  54  81 105 129 176 213 268 296
#     4   9  16  31  52  78 105 135 167 216 264 311
#     4  11  20  34  53  86 106 132 176 227 259 309
#     4  10  20  34  54  81 109 137 171 217 276 308
#     4  10  22  35  50  80 112 140 169 216 274 313
#     4  10  18  37  56  74 106 142 181 212 253 320
#
# _framework density 18.725764000000002
#
# number of rings (size 3 to 8) (size 9 to 14) (size 15 to 20)
#    0.750    1.500    2.500    1.875    1.750    2.500 
#    2.250    0.625    0.000    0.750    0.000    0.000 
#    0.000    0.000    0.000    0.000    0.000    0.000 
#
# Total GULP energy -198261.060896 kJ/mol
# GULP energy per Si atom -12391.316306 kJ/mol
# Density = 1.868314 g / cm^3
# Si number density = 18.725764 Si / 1000 Ang^3
#
#
#
# Elastic Constant Matrix: (Units=GPa)
#
#
# Indices 1 2 3 4 5 6 
#
# 1 112.8519 48.6835 31.2609 8.6087 17.1349 -10.1393
# 2 48.6835 116.2725 31.0519 3.1383 11.0160 -6.4941
# 3 31.2609 31.0519 43.3503 0.1741 7.5678 -3.4512
# 4 8.6087 3.1383 0.1741 25.7841 -0.5243 0.4171
# 5 17.1349 11.0160 7.5678 -0.5243 17.1348 3.9901
# 6 -10.1393 -6.4941 -3.4512 0.4171 3.9901 22.8872
#
#
#
# Elastic Compliance Matrix: (Units=1/GPa)
#
#
# Indices 1 2 3 4 5 6 
#
# 1 0.014480 -0.002897 -0.005734 -0.004795 -0.011833 0.006879
# 2 -0.002897 0.011677 -0.005713 -0.000492 -0.002477 0.001609
# 3 -0.005734 -0.005713 0.032312 0.002261 -0.005160 0.001570
# 4 -0.004795 -0.000492 0.002261 0.040616 0.006228 -0.003749
# 5 -0.011833 -0.002477 -0.005160 0.006228 0.079058 -0.020620
# 6 0.006879 0.001609 0.001570 -0.003749 -0.020620 0.051096
#
#
# Mechanical properties :
#
#
# Convention : Reuss Voigt Hill
#
# Bulk Modulus (GPa) = 33.57815 54.94080 44.25947
# Shear Modulus (GPa) = 18.66694 23.92643 21.29668
#
# Velocity S-wave (km/s) = 3.16073 3.57841 3.37604
# Velocity P-wave (km/s) = 5.59381 6.81738 6.23568
#
# Compressibility (1/GPa) = 0.02978127
#
# Stress axis : x y z
#
# Youngs Moduli (GPa) = 69.06250 85.63985 30.94853
#
# Poissons Ratio (x) = 0.24806 0.17746
# Poissons Ratio (y) = 0.20004 0.17680
# Poissons Ratio (z) = 0.39601 0.48924
#
# Static dielectric constant tensor:
#      x y z
#    x 3.419760 -0.043160 0.101340 
#    y -0.043160 3.386490 0.009340 
#    z 0.101340 0.009340 3.072400 
# 
# 
# High freq. dielectric constant tensor:
#      x y z
#    x 1.725030 -0.002970 0.011040 
#    y -0.002970 1.723310 -0.005540 
#    z 0.011040 -0.005540 1.680840 
# 
# From -- ./inp_files/432603.got.cif
#   From: 2010.06.25/outbox.cif.g09.slc.cpg/sg2_217_cif.got.tgz:432603.got - 2010.06.27 13:26:56.
