data_PCOD8040381
_publ_section_title
;
Structure prediction by ZEFSAII (Michael W. Deem and Ramdas Pophale) SiO2 
 PCOD8040381
Probable space group: P -1
;
_chemical_formula_sum "Si O2"
_cell_formula_units_Z 14
_cell_length_a 13.992819
_cell_length_b 8.793635
_cell_length_c 7.874584
_cell_angle_alpha 96.118667
_cell_angle_beta 79.709189
_cell_angle_gamma 139.322188
_cell_volume 620.775542
_symmetry_space_group_name_H-M "P -1"
_symmetry_group_IT_number 2
_symmetry_cell_setting 'triclinic'
loop_
_space_group_symop_operation_xyz
x,y,z
-x,-y,-z
loop_
_atom_site_type_symbol
_atom_site_label
_atom_site_fract_x
_atom_site_fract_y
_atom_site_fract_z
Si Si1 0.150069 0.583512 0.135255
Si Si2 0.201776 0.568084 0.475593
Si Si3 0.649092 0.721014 0.262627
Si Si4 0.322049 0.367959 0.381659
Si Si5 0.864172 0.741044 0.071706
Si Si6 0.969604 0.112507 0.631412
Si Si7 0.195072 0.776807 0.800713
O O1 0.225593 0.694284 0.309905
O O2 0.981878 0.439151 0.181774
O O3 0.164422 0.420443 0.077926
O O4 0.237247 0.777179 0.980985
O O5 0.284377 0.502175 0.432227
O O6 0.263594 0.741900 0.634403
O O7 0.021713 0.319372 0.523907
O O8 0.476199 0.538180 0.251578
O O9 0.669558 0.705155 0.449824
O O10 0.714275 0.660628 0.122861
O O11 0.741483 0.981390 0.222475
O O12 0.202155 0.116638 0.287169
O O13 0.915589 0.728767 0.231373
O O14 0.000000 0.000000 0.000000
O O15 0.000000 0.000000 0.500000
#
# Coordination Sequence:
#
# PCOD8040381 Si02
#       7
#     2   2   2   2   2   2   2
#     4  11  23  39  63  98 125 170 216 266 321 374
#     4  11  21  42  66  95 127 170 215 265 319 384
#     4  11  22  40  63  98 131 169 210 270 324 381
#     4  10  22  39  65  96 127 168 222 258 324 382
#     4  12  20  38  65  92 130 164 216 268 312 371
#     4  10  18  36  63  93 120 159 216 262 303 373
#     4  11  23  40  62  96 133 165 213 267 320 389
#
# _framework density 22.552433000000001
#
# number of rings (size 3 to 8) (size 9 to 14) (size 15 to 20)
#    0.000    1.143    5.714    3.000    0.000    0.571 
#    0.000    3.571    0.000    0.000    0.000    0.000 
#    0.000    0.000    0.000    0.000    0.000    0.000 
#
# Total GULP energy -173471.522497 kJ/mol
# GULP energy per Si atom -12390.823036 kJ/mol
# Density = 2.250110 g / cm^3
# Si number density = 22.552433 Si / 1000 Ang^3
#
#
#
# Elastic Constant Matrix: (Units=GPa)
#
#
# Indices 1 2 3 4 5 6 
#
# 1 98.9422 29.2392 48.2160 -6.9779 -10.3524 -1.9435
# 2 29.2392 25.4840 22.9855 1.1270 1.0931 1.0485
# 3 48.2160 22.9855 120.0602 -6.3614 10.8524 -6.4743
# 4 -6.9779 1.1270 -6.3614 25.2863 -6.3629 -2.3277
# 5 -10.3524 1.0931 10.8524 -6.3629 46.7701 -8.7920
# 6 -1.9435 1.0485 -6.4743 -2.3277 -8.7920 37.4178
#
#
#
# Elastic Compliance Matrix: (Units=1/GPa)
#
#
# Indices 1 2 3 4 5 6 
#
# 1 0.018971 -0.018775 -0.004134 0.007088 0.007108 0.002907
# 2 -0.018775 0.066921 -0.005590 -0.011965 -0.007227 -0.006260
# 3 -0.004134 -0.005590 0.011475 0.001356 -0.003018 0.001303
# 4 0.007088 -0.011965 0.001356 0.045117 0.008763 0.005804
# 5 0.007108 -0.007227 -0.003018 0.008763 0.026289 0.006772
# 6 0.002907 -0.006260 0.001303 0.005804 0.006772 0.029229
#
#
# Mechanical properties :
#
#
# Convention : Reuss Voigt Hill
#
# Bulk Modulus (GPa) = 24.77274 49.48531 37.12902
# Shear Modulus (GPa) = 18.62503 31.49789 25.06146
#
# Velocity S-wave (km/s) = 2.87689 3.74123 3.33716
# Velocity P-wave (km/s) = 4.69507 6.37593 5.59893
#
# Compressibility (1/GPa) = 0.04036696
#
# Stress axis : x y z
#
# Youngs Moduli (GPa) = 52.71276 14.94300 87.14948
#
# Poissons Ratio (x) = 0.28056 0.36030
# Poissons Ratio (y) = 0.98969 0.48718
# Poissons Ratio (z) = 0.21793 0.08353
#
# Static dielectric constant tensor:
#      x y z
#    x 3.294120 -0.710610 -0.823730 
#    y -0.710610 3.686200 -0.879020 
#    z -0.823730 -0.879020 3.660270 
# 
# 
# High freq. dielectric constant tensor:
#      x y z
#    x 1.879820 -0.026790 0.002420 
#    y -0.026790 1.863380 -0.010450 
#    z 0.002420 -0.010450 1.903720 
# 
# From -- ./inp_files/298788.got.cif
#   From: 2010.06.25/outbox.cif.g09.slc.cpg/sg2_150_cif.got.tgz:298788.got - 2010.06.27 13:26:56.
