data_PCOD8040990
_publ_section_title
;
Structure prediction by ZEFSAII (Michael W. Deem and Ramdas Pophale) SiO2 
 PCOD8040990
Probable space group: P -1
;
_chemical_formula_sum "Si O2"
_cell_formula_units_Z 16
_cell_length_a 8.366363
_cell_length_b 15.390337
_cell_length_c 9.659199
_cell_angle_alpha 36.657502
_cell_angle_beta 99.508352
_cell_angle_gamma 109.409982
_cell_volume 688.891491
_symmetry_space_group_name_H-M "P -1"
_symmetry_group_IT_number 2
_symmetry_cell_setting 'triclinic'
loop_
_space_group_symop_operation_xyz
x,y,z
-x,-y,-z
loop_
_atom_site_type_symbol
_atom_site_label
_atom_site_fract_x
_atom_site_fract_y
_atom_site_fract_z
Si Si1 0.535694 0.891757 0.792185
Si Si2 0.877266 0.886631 0.738372
Si Si3 0.392746 0.594249 0.296527
Si Si4 0.541869 0.908368 0.249320
Si Si5 0.777659 0.335302 0.568756
Si Si6 0.746772 0.368431 0.042569
Si Si7 0.908528 0.065114 0.020622
Si Si8 0.127733 0.428842 0.949330
O O1 0.721088 0.948572 0.672210
O O2 0.389799 0.808467 0.760678
O O3 0.492953 0.031044 0.682145
O O4 0.528684 0.767581 0.071338
O O5 0.970926 0.871817 0.912133
O O6 0.801915 0.711476 0.892537
O O7 0.000000 0.000000 0.500000
O O8 0.500000 0.500000 0.500000
O O9 0.237682 0.596910 0.369890
O O10 0.299889 0.531499 0.216410
O O11 0.414189 0.732336 0.441068
O O12 0.742516 0.928787 0.233139
O O13 0.500000 0.000000 0.000000
O O14 0.888950 0.475871 0.310344
O O15 0.864319 0.204295 0.763069
O O16 0.738500 0.456459 0.070726
O O17 0.935840 0.355377 0.076278
O O18 0.000000 0.000000 0.000000
#
# Coordination Sequence:
#
# PCOD8040990 Si02
#       8
#     2   2   2   2   2   2   2   2
#     4  10  21  42  67  92 136 178 230 281 335 421
#     4  12  27  45  66 100 140 183 236 289 350 414
#     4  10  20  40  66  99 132 181 231 282 341 408
#     4  10  18  41  65  95 135 171 226 276 342 411
#     4  11  23  41  70 104 134 183 232 287 352 409
#     4   9  23  43  65  92 139 184 226 281 348 416
#     4  11  24  43  70 103 139 179 233 295 347 411
#     4  11  24  46  67  99 142 178 233 292 346 420
#
# _framework density 23.225718000000001
#
# number of rings (size 3 to 8) (size 9 to 14) (size 15 to 20)
#    0.750    0.750    2.500    3.750    0.000    8.500 
#    2.250    1.875    0.000    0.000    0.000    0.000 
#    0.000    0.000    0.000    0.000    0.000    0.000 
#
# Total GULP energy -198311.870516 kJ/mol
# GULP energy per Si atom -12394.491907 kJ/mol
# Density = 2.317286 g / cm^3
# Si number density = 23.225718 Si / 1000 Ang^3
#
#
#
# Elastic Constant Matrix: (Units=GPa)
#
#
# Indices 1 2 3 4 5 6 
#
# 1 113.7349 37.2225 14.2165 12.0168 -15.3683 -18.6948
# 2 37.2225 120.9780 19.8973 22.7238 -7.0065 -6.7015
# 3 14.2165 19.8973 79.2105 18.0830 -3.7418 -16.7592
# 4 12.0168 22.7238 18.0830 28.0539 -0.0948 -2.7407
# 5 -15.3683 -7.0065 -3.7418 -0.0948 37.7073 0.3986
# 6 -18.6948 -6.7015 -16.7592 -2.7407 0.3986 47.5249
#
#
#
# Elastic Compliance Matrix: (Units=1/GPa)
#
#
# Indices 1 2 3 4 5 6 
#
# 1 0.011027 -0.002527 0.000220 -0.002426 0.004000 0.003886
# 2 -0.002527 0.010507 -0.000556 -0.007079 0.000851 -0.000124
# 3 0.000220 -0.000556 0.016040 -0.009479 0.001500 0.005105
# 4 -0.002426 -0.007079 -0.009479 0.048276 -0.003097 -0.002485
# 5 0.004000 0.000851 0.001500 -0.003097 0.028430 0.001805
# 6 0.003886 -0.000124 0.005105 -0.002485 0.001805 0.024195
#
#
# Mechanical properties :
#
#
# Convention : Reuss Voigt Hill
#
# Bulk Modulus (GPa) = 31.39686 50.73288 41.06487
# Shear Modulus (GPa) = 32.29660 38.82969 35.56314
#
# Velocity S-wave (km/s) = 3.73306 4.09325 3.91730
# Velocity P-wave (km/s) = 5.66820 6.65060 6.17895
#
# Compressibility (1/GPa) = 0.03185032
#
# Stress axis : x y z
#
# Youngs Moduli (GPa) = 90.68525 95.17538 62.34529
#
# Poissons Ratio (x) = 0.24046 -0.01374
# Poissons Ratio (y) = 0.22912 0.03464
# Poissons Ratio (z) = -0.01999 0.05288
#
# Static dielectric constant tensor:
#      x y z
#    x 3.729510 0.337610 -0.969670 
#    y 0.337610 4.413460 0.233510 
#    z -0.969670 0.233510 3.457170 
# 
# 
# High freq. dielectric constant tensor:
#      x y z
#    x 1.912910 0.001990 -0.013100 
#    y 0.001990 1.926110 0.014600 
#    z -0.013100 0.014600 1.905180 
# 
# From -- ./inp_files/205255.got.cif
#   From: 2010.06.25/outbox.cif.g09.slc.cpg/sg2_103_cif.got.tgz:205255.got - 2010.06.27 13:26:56.
