data_PCOD8040228
_publ_section_title
;
Structure prediction by ZEFSAII (Michael W. Deem and Ramdas Pophale) SiO2 
 PCOD8040228
Probable space group: P -1
;
_chemical_formula_sum "Si O2"
_cell_formula_units_Z 14
_cell_length_a 8.951656
_cell_length_b 18.920490
_cell_length_c 14.671239
_cell_angle_alpha 28.677346
_cell_angle_beta 140.469369
_cell_angle_gamma 144.765579
_cell_volume 674.389126
_symmetry_space_group_name_H-M "P -1"
_symmetry_group_IT_number 2
_symmetry_cell_setting 'triclinic'
loop_
_space_group_symop_operation_xyz
x,y,z
-x,-y,-z
loop_
_atom_site_type_symbol
_atom_site_label
_atom_site_fract_x
_atom_site_fract_y
_atom_site_fract_z
Si Si1 0.074326 0.182445 0.009968
Si Si2 0.254769 0.389225 0.696656
Si Si3 0.290430 0.889525 0.911694
Si Si4 0.980959 0.730328 0.773686
Si Si5 0.242479 0.189358 0.751298
Si Si6 0.641512 0.365096 0.032211
Si Si7 0.416127 0.250648 0.569736
O O1 0.387560 0.263464 0.093003
O O2 0.909082 0.193197 0.004952
O O3 0.040336 0.285782 0.791130
O O4 0.993367 0.996440 0.149592
O O5 0.164677 0.299537 0.657993
O O6 0.307200 0.580866 0.501697
O O7 0.534926 0.394331 0.850688
O O8 0.123659 0.859828 0.774776
O O9 0.463597 0.088241 0.785177
O O10 0.487741 0.810233 0.088709
O O11 0.777329 0.780335 0.571676
O O12 0.195828 0.737414 0.792374
O O13 0.832308 0.546795 0.956696
O O14 0.279443 0.268303 0.578864
#
# Coordination Sequence:
#
# PCOD8040228 Si02
#       7
#     2   2   2   2   2   2   2
#     4   9  19  34  56  84 109 139 183 225 264 325
#     4   9  18  36  57  79 106 141 183 224 260 313
#     4  11  21  36  57  82 110 148 176 219 277 327
#     4  10  18  36  59  78 108 144 183 219 270 322
#     4  11  20  37  58  81 107 150 181 216 271 329
#     4   8  18  34  57  81 103 139 186 221 261 317
#     4  10  21  34  55  85 111 137 184 227 264 319
#
# _framework density 20.759529000000001
#
# number of rings (size 3 to 8) (size 9 to 14) (size 15 to 20)
#    0.857    1.429    1.429    3.000    0.000    0.571 
#    0.000    5.714    0.000    6.857    0.000    0.000 
#    0.000    0.000    0.000    0.000    0.000    0.000 
#
# Total GULP energy -173507.729212 kJ/mol
# GULP energy per Si atom -12393.409229 kJ/mol
# Density = 2.071228 g / cm^3
# Si number density = 20.759529 Si / 1000 Ang^3
#
#
#
# Elastic Constant Matrix: (Units=GPa)
#
#
# Indices 1 2 3 4 5 6 
#
# 1 60.0383 14.1592 31.9505 -13.7224 -12.3526 3.8998
# 2 14.1592 57.6474 19.2735 -10.9608 -8.5027 1.7183
# 3 31.9505 19.2735 49.0010 -12.6558 -15.5064 -2.3080
# 4 -13.7224 -10.9608 -12.6558 30.6926 4.9488 -7.6902
# 5 -12.3526 -8.5027 -15.5064 4.9488 31.8829 -1.3205
# 6 3.8998 1.7183 -2.3080 -7.6902 -1.3205 37.8889
#
#
#
# Elastic Compliance Matrix: (Units=1/GPa)
#
#
# Indices 1 2 3 4 5 6 
#
# 1 0.026606 -0.000089 -0.015724 0.004398 0.001841 -0.002735
# 2 -0.000089 0.020590 -0.006427 0.004301 0.001647 -0.000386
# 3 -0.015724 -0.006427 0.038283 0.006307 0.010077 0.005873
# 4 0.004398 0.004301 0.006307 0.040698 -0.000068 0.007994
# 5 0.001841 0.001647 0.010077 -0.000068 0.037497 0.001643
# 6 -0.002735 -0.000386 0.005873 0.007994 0.001643 0.028730
#
#
# Mechanical properties :
#
#
# Convention : Reuss Voigt Hill
#
# Bulk Modulus (GPa) = 24.39002 33.05036 28.72019
# Shear Modulus (GPa) = 19.95624 26.84645 23.40134
#
# Velocity S-wave (km/s) = 3.10386 3.60003 3.36111
# Velocity P-wave (km/s) = 4.96181 5.76501 5.37843
#
# Compressibility (1/GPa) = 0.04100037
#
# Stress axis : x y z
#
# Youngs Moduli (GPa) = 37.58494 48.56842 26.12154
#
# Poissons Ratio (x) = 0.00431 0.41073
# Poissons Ratio (y) = 0.00333 0.16787
# Poissons Ratio (z) = 0.59098 0.31213
#
# Static dielectric constant tensor:
#      x y z
#    x 3.426920 0.073190 -0.179150 
#    y 0.073190 3.785370 -0.128540 
#    z -0.179150 -0.128540 3.428570 
# 
# 
# High freq. dielectric constant tensor:
#      x y z
#    x 1.792840 0.004840 -0.006800 
#    y 0.004840 1.818770 -0.012730 
#    z -0.006800 -0.012730 1.789440 
# 
# From -- ./inp_files/507261.got.cif
#   From: 2010.06.25/outbox.cif.g09.slc.cpg/sg2_254_cif.got.tgz:507261.got - 2010.06.27 13:26:56.
