data_PCOD8040642
_publ_section_title
;
Structure prediction by ZEFSAII (Michael W. Deem and Ramdas Pophale) SiO2 
 PCOD8040642
Probable space group: P -1
;
_chemical_formula_sum "Si O2"
_cell_formula_units_Z 16
_cell_length_a 12.170849
_cell_length_b 21.971071
_cell_length_c 18.515461
_cell_angle_alpha 160.218107
_cell_angle_beta 152.655465
_cell_angle_gamma 39.024201
_cell_volume 712.193604
_symmetry_space_group_name_H-M "P -1"
_symmetry_group_IT_number 2
_symmetry_cell_setting 'triclinic'
loop_
_space_group_symop_operation_xyz
x,y,z
-x,-y,-z
loop_
_atom_site_type_symbol
_atom_site_label
_atom_site_fract_x
_atom_site_fract_y
_atom_site_fract_z
Si Si1 0.445071 0.110238 0.024888
Si Si2 0.067518 0.910800 0.071432
Si Si3 0.713294 0.668337 0.355122
Si Si4 0.537367 0.916091 0.720330
Si Si5 0.952404 0.144899 0.837303
Si Si6 0.972460 0.430524 0.677057
Si Si7 0.473506 0.831234 0.140871
Si Si8 0.399157 0.515307 0.133857
O O1 0.667268 0.327344 0.397019
O O2 0.171558 0.126528 0.893113
O O3 0.500000 0.000000 0.000000
O O4 0.435907 0.984432 0.808541
O O5 0.192897 0.772931 0.951198
O O6 0.972439 0.841698 0.019523
O O7 0.297558 0.124303 0.440078
O O8 0.828908 0.925709 0.904944
O O9 0.655990 0.623064 0.355255
O O10 0.985702 0.667314 0.483236
O O11 0.500000 0.500000 0.000000
O O12 0.356830 0.687434 0.346786
O O13 0.513581 0.056035 0.799740
O O14 0.920377 0.339898 0.012441
O O15 0.688374 0.963944 0.469997
O O16 0.141742 0.395631 0.802989
O O17 0.532019 0.635571 0.943318
#
# Coordination Sequence:
#
# PCOD8040642 Si02
#       8
#     2   2   2   2   2   2   2   2
#     4  12  25  48  72  97 141 190 240 288 345 421
#     4  12  23  43  73 103 146 183 229 295 351 419
#     4  10  18  37  67 100 140 179 224 284 340 415
#     4  12  26  47  70 104 150 179 233 295 357 408
#     4  12  24  45  73 105 137 190 242 285 347 422
#     4  11  22  44  70 106 138 187 240 288 343 423
#     4  12  25  45  73 107 143 184 229 291 368 412
#     4  11  24  44  69 106 148 183 231 289 358 420
#
# _framework density 22.465800999999999
#
# number of rings (size 3 to 8) (size 9 to 14) (size 15 to 20)
#    0.000    0.500    5.000    4.875    0.000    2.000 
#    2.250    1.250    0.000    0.000    0.000    0.000 
#    0.000    0.000    0.000    0.000    0.000    0.000 
#
# Total GULP energy -198385.039384 kJ/mol
# GULP energy per Si atom -12399.064962 kJ/mol
# Density = 2.241467 g / cm^3
# Si number density = 22.465801 Si / 1000 Ang^3
#
#
#
# Elastic Constant Matrix: (Units=GPa)
#
#
# Indices 1 2 3 4 5 6 
#
# 1 107.3004 37.7291 22.9011 4.4569 -15.7907 -6.4260
# 2 37.7291 127.7516 23.3913 17.3961 -8.6486 6.8759
# 3 22.9011 23.3913 66.8490 13.2915 -7.1766 4.3382
# 4 4.4569 17.3961 13.2915 37.3900 -2.7688 4.8641
# 5 -15.7907 -8.6486 -7.1766 -2.7688 31.9946 -2.2178
# 6 -6.4260 6.8759 4.3382 4.8641 -2.2178 33.6418
#
#
#
# Elastic Compliance Matrix: (Units=1/GPa)
#
#
# Indices 1 2 3 4 5 6 
#
# 1 0.011840 -0.002951 -0.002920 0.000903 0.004706 0.003421
# 2 -0.002951 0.009548 -0.001518 -0.003286 0.000374 -0.001819
# 3 -0.002920 -0.001518 0.017750 -0.004914 0.001585 -0.001721
# 4 0.000903 -0.003286 -0.004914 0.030350 0.000884 -0.002852
# 5 0.004706 0.000374 0.001585 0.000884 0.034302 0.002752
# 6 0.003421 -0.001819 -0.001721 -0.002852 0.002752 0.031566
#
#
# Mechanical properties :
#
#
# Convention : Reuss Voigt Hill
#
# Bulk Modulus (GPa) = 41.05177 52.21600 46.63388
# Shear Modulus (GPa) = 31.59484 35.13060 33.36272
#
# Velocity S-wave (km/s) = 3.75421 3.95870 3.85781
# Velocity P-wave (km/s) = 6.09137 6.64740 6.37545
#
# Compressibility (1/GPa) = 0.02435949
#
# Stress axis : x y z
#
# Youngs Moduli (GPa) = 84.45700 104.73550 56.33907
#
# Poissons Ratio (x) = 0.30904 0.16451
# Poissons Ratio (y) = 0.24920 0.08555
# Poissons Ratio (z) = 0.24662 0.15904
#
# Static dielectric constant tensor:
#      x y z
#    x 1.769410 1.321750 -0.257880 
#    y 1.321750 3.199980 0.236960 
#    z -0.257880 0.236960 4.105820 
# 
# 
# High freq. dielectric constant tensor:
#      x y z
#    x 1.878970 -0.005520 -0.003460 
#    y -0.005520 1.887610 0.010320 
#    z -0.003460 0.010320 1.887970 
# 
# From -- ./inp_files/399118.got.cif
#   From: 2010.06.25/outbox.cif.g09.slc.cpg/sg2_200_cif.got.tgz:399118.got - 2010.06.27 13:26:56.
