data_PCOD8040703
_publ_section_title
;
Structure prediction by ZEFSAII (Michael W. Deem and Ramdas Pophale) SiO2 
 PCOD8040703
Probable space group: P -1
;
_chemical_formula_sum "Si O2"
_cell_formula_units_Z 16
_cell_length_a 9.075543
_cell_length_b 14.229501
_cell_length_c 15.081402
_cell_angle_alpha 147.160390
_cell_angle_beta 51.136541
_cell_angle_gamma 114.339371
_cell_volume 791.265832
_symmetry_space_group_name_H-M "P -1"
_symmetry_group_IT_number 2
_symmetry_cell_setting 'triclinic'
loop_
_space_group_symop_operation_xyz
x,y,z
-x,-y,-z
loop_
_atom_site_type_symbol
_atom_site_label
_atom_site_fract_x
_atom_site_fract_y
_atom_site_fract_z
Si Si1 0.174057 0.618425 0.822678
Si Si2 0.120016 0.460783 0.014271
Si Si3 0.544623 0.172977 0.076921
Si Si4 0.280337 0.979731 0.290027
Si Si5 0.842407 0.185801 0.627523
Si Si6 0.516751 0.726929 0.503053
Si Si7 0.681346 0.478621 0.481467
Si Si8 0.471837 0.809428 0.386985
O O1 0.263127 0.790261 0.919955
O O2 0.321543 0.467072 0.709312
O O3 0.138802 0.555179 0.683998
O O4 0.967534 0.666995 0.989931
O O5 0.099212 0.646753 0.219760
O O6 0.343345 0.357073 0.834680
O O7 0.000000 0.500000 0.000000
O O8 0.350987 0.342003 0.303055
O O9 0.500000 0.000000 0.000000
O O10 0.598700 0.154776 0.937383
O O11 0.384285 0.139687 0.376645
O O12 0.046291 0.044000 0.408789
O O13 0.290984 0.887895 0.309886
O O14 0.712589 0.232821 0.625597
O O15 0.318161 0.697833 0.600270
O O16 0.440662 0.809222 0.502877
O O17 0.500000 0.500000 0.500000
O O18 0.500000 0.000000 0.500000
#
# Coordination Sequence:
#
# PCOD8040703 Si02
#       8
#     2   2   2   2   2   2   2   2
#     4  10  19  36  62  90 117 158 206 251 301 365
#     4  12  23  41  66  89 122 165 208 248 309 375
#     4  10  19  30  57  92 122 142 200 263 304 346
#     4  11  20  36  59  91 121 157 211 249 297 363
#     4  11  25  37  58  90 127 164 203 254 307 364
#     4  10  18  38  61  83 122 160 196 251 298 366
#     4   8  18  33  57  91 113 156 200 255 300 351
#     4  12  25  41  59  92 129 162 203 257 315 358
#
# _framework density 20.220765
#
# number of rings (size 3 to 8) (size 9 to 14) (size 15 to 20)
#    0.000    1.750    3.750    3.375    5.250    0.000 
#    0.000    0.000    0.000    3.000    0.000    0.000 
#    0.000    0.000    0.000    0.000    0.000    0.000 
#
# Total GULP energy -198219.134277 kJ/mol
# GULP energy per Si atom -12388.695892 kJ/mol
# Density = 2.017474 g / cm^3
# Si number density = 20.220765 Si / 1000 Ang^3
#
#
#
# Elastic Constant Matrix: (Units=GPa)
#
#
# Indices 1 2 3 4 5 6 
#
# 1 84.5520 25.3294 28.7766 -5.8126 11.2219 -9.1722
# 2 25.3294 139.6633 40.1522 -8.0317 12.3815 -2.8234
# 3 28.7766 40.1522 80.2467 -13.1362 20.6273 -1.2073
# 4 -5.8126 -8.0317 -13.1362 39.4912 2.4142 9.7977
# 5 11.2219 12.3815 20.6273 2.4142 24.1658 3.9651
# 6 -9.1722 -2.8234 -1.2073 9.7977 3.9651 29.5976
#
#
#
# Elastic Compliance Matrix: (Units=1/GPa)
#
#
# Indices 1 2 3 4 5 6 
#
# 1 0.014400 -0.001165 -0.003576 -0.000266 -0.003799 0.004803
# 2 -0.001165 0.008495 -0.003547 0.000354 -0.000869 0.000304
# 3 -0.003576 -0.003547 0.020269 0.006590 -0.014338 -0.000880
# 4 -0.000266 0.000354 0.006590 0.030173 -0.007254 -0.008796
# 5 -0.003799 -0.000869 -0.014338 -0.007254 0.057731 -0.007178
# 6 0.004803 0.000304 -0.000880 -0.008796 -0.007178 0.039141
#
#
# Mechanical properties :
#
#
# Convention : Reuss Voigt Hill
#
# Bulk Modulus (GPa) = 37.60888 54.77540 46.19214
# Shear Modulus (GPa) = 25.55627 32.66450 29.11038
#
# Velocity S-wave (km/s) = 3.55894 4.02356 3.79836
# Velocity P-wave (km/s) = 5.96050 6.98089 6.49078
#
# Compressibility (1/GPa) = 0.02658946
#
# Stress axis : x y z
#
# Youngs Moduli (GPa) = 69.44483 117.72256 49.33561
#
# Poissons Ratio (x) = 0.13715 0.17640
# Poissons Ratio (y) = 0.08090 0.17497
# Poissons Ratio (z) = 0.24831 0.41751
#
# Static dielectric constant tensor:
#      x y z
#    x 3.420600 0.083240 0.180050 
#    y 0.083240 4.651070 -0.488760 
#    z 0.180050 -0.488760 4.067240 
# 
# 
# High freq. dielectric constant tensor:
#      x y z
#    x 1.742150 0.007320 0.027020 
#    y 0.007320 1.811330 -0.010120 
#    z 0.027020 -0.010120 1.789580 
# 
# From -- ./inp_files/505711.got.cif
#   From: 2010.06.25/outbox.cif.g09.slc.cpg/sg2_253_cif.got.tgz:505711.got - 2010.06.27 13:26:56.
