data_PCOD8040808
_publ_section_title
;
Structure prediction by ZEFSAII (Michael W. Deem and Ramdas Pophale) SiO2 
 PCOD8040808
Probable space group: P -1
;
_chemical_formula_sum "Si O2"
_cell_formula_units_Z 16
_cell_length_a 9.202192
_cell_length_b 11.909567
_cell_length_c 9.074614
_cell_angle_alpha 122.471050
_cell_angle_beta 107.559672
_cell_angle_gamma 62.050983
_cell_volume 739.506495
_symmetry_space_group_name_H-M "P -1"
_symmetry_group_IT_number 2
_symmetry_cell_setting 'triclinic'
loop_
_space_group_symop_operation_xyz
x,y,z
-x,-y,-z
loop_
_atom_site_type_symbol
_atom_site_label
_atom_site_fract_x
_atom_site_fract_y
_atom_site_fract_z
Si Si1 0.900684 0.863948 0.617088
Si Si2 0.412891 0.410858 0.996975
Si Si3 0.882387 0.631210 0.653702
Si Si4 0.067755 0.115530 0.671667
Si Si5 0.443457 0.384312 0.332797
Si Si6 0.112748 0.653561 0.987960
Si Si7 0.242399 0.887922 0.782548
Si Si8 0.293261 0.848832 0.096806
O O1 0.834117 0.774718 0.643141
O O2 0.869212 0.825548 0.411764
O O3 0.093333 0.831390 0.682048
O O4 0.793346 0.034280 0.723485
O O5 0.416916 0.423781 0.182118
O O6 0.221908 0.485361 0.941488
O O7 0.500000 0.500000 0.000000
O O8 0.511113 0.239930 0.869223
O O9 0.719304 0.606721 0.626665
O O10 0.000000 0.500000 0.500000
O O11 0.960936 0.651389 0.845633
O O12 0.938779 0.254983 0.812039
O O13 0.208674 0.030265 0.773330
O O14 0.000000 0.000000 0.500000
O O15 0.500000 0.500000 0.500000
O O16 0.585621 0.230033 0.299671
O O17 0.213316 0.728183 0.975686
O O18 0.260328 0.929879 0.986595
#
# Coordination Sequence:
#
# PCOD8040808 Si02
#       8
#     2   2   2   2   2   2   2   2
#     4  11  21  40  69 101 136 171 232 280 336 410
#     4   9  23  39  69 105 130 180 221 281 341 408
#     4  12  28  45  67 101 137 185 231 286 350 401
#     4  10  21  35  66 106 131 176 223 276 334 411
#     4  11  26  44  67  94 134 182 232 283 337 419
#     4  11  21  42  67 100 143 173 228 283 336 405
#     4  10  19  37  65  95 128 176 224 268 333 403
#     4  10  18  38  69 102 130 180 223 268 341 413
#
# _framework density 21.636050999999998
#
# number of rings (size 3 to 8) (size 9 to 14) (size 15 to 20)
#    0.000    1.500    3.750    1.875    8.750    0.500 
#    0.000    6.250    0.000    0.000    0.000    0.000 
#    0.000    0.000    0.000    0.000    0.000    0.000 
#
# Total GULP energy -198293.954757 kJ/mol
# GULP energy per Si atom -12393.372172 kJ/mol
# Density = 2.158681 g / cm^3
# Si number density = 21.636051 Si / 1000 Ang^3
#
#
#
# Elastic Constant Matrix: (Units=GPa)
#
#
# Indices 1 2 3 4 5 6 
#
# 1 125.4212 58.7786 48.0830 -0.5282 -17.8793 -7.7464
# 2 58.7786 132.8230 44.0089 -24.4749 -8.3558 -19.5936
# 3 48.0830 44.0089 92.4189 -3.1442 -20.7946 -9.8531
# 4 -0.5282 -24.4749 -3.1442 34.9249 4.7602 -8.8565
# 5 -17.8793 -8.3558 -20.7946 4.7602 29.0038 5.6596
# 6 -7.7464 -19.5936 -9.8531 -8.8565 5.6596 31.7154
#
#
#
# Elastic Compliance Matrix: (Units=1/GPa)
#
#
# Indices 1 2 3 4 5 6 
#
# 1 0.012399 -0.005851 -0.003065 -0.006016 0.005569 -0.004212
# 2 -0.005851 0.015475 -0.004074 0.014381 -0.006789 0.012093
# 3 -0.003065 -0.004074 0.016256 -0.002856 0.009187 -0.000652
# 4 -0.006016 0.014381 -0.002856 0.045674 -0.013336 0.021662
# 5 0.005569 -0.006789 0.009187 -0.013336 0.047094 -0.012108
# 6 -0.004212 0.012093 -0.000652 0.021662 -0.012108 0.045980
#
#
# Mechanical properties :
#
#
# Convention : Reuss Voigt Hill
#
# Bulk Modulus (GPa) = 55.10010 72.48933 63.79471
# Shear Modulus (GPa) = 23.26604 32.44833 27.85718
#
# Velocity S-wave (km/s) = 3.28279 3.87684 3.59212
# Velocity P-wave (km/s) = 6.31593 7.32233 6.83767
#
# Compressibility (1/GPa) = 0.01814879
#
# Stress axis : x y z
#
# Youngs Moduli (GPa) = 80.65424 64.62224 61.51739
#
# Poissons Ratio (x) = 0.37808 0.18857
# Poissons Ratio (y) = 0.47188 0.25062
# Poissons Ratio (z) = 0.24723 0.26327
#
# Static dielectric constant tensor:
#      x y z
#    x 3.817580 -0.106620 -0.323370 
#    y -0.106620 4.310680 -0.286090 
#    z -0.323370 -0.286090 3.880690 
# 
# 
# High freq. dielectric constant tensor:
#      x y z
#    x 1.827760 -0.008730 -0.033180 
#    y -0.008730 1.869370 -0.010390 
#    z -0.033180 -0.010390 1.842710 
# 
# From -- ./inp_files/190273.got.cif
#   From: 2010.06.25/outbox.cif.g09.slc.cpg/sg2_96_cif.got.tgz:190273.got - 2010.06.27 13:26:56.
