data_PCOD8040542
_publ_section_title
;
Structure prediction by ZEFSAII (Michael W. Deem and Ramdas Pophale) SiO2 
 PCOD8040542
Probable space group: P -1
;
_chemical_formula_sum "Si O2"
_cell_formula_units_Z 14
_cell_length_a 13.996043
_cell_length_b 15.921694
_cell_length_c 10.928635
_cell_angle_alpha 54.887940
_cell_angle_beta 31.853562
_cell_angle_gamma 35.897127
_cell_volume 701.638716
_symmetry_space_group_name_H-M "P -1"
_symmetry_group_IT_number 2
_symmetry_cell_setting 'triclinic'
loop_
_space_group_symop_operation_xyz
x,y,z
-x,-y,-z
loop_
_atom_site_type_symbol
_atom_site_label
_atom_site_fract_x
_atom_site_fract_y
_atom_site_fract_z
Si Si1 0.610611 0.994319 0.076105
Si Si2 0.771484 0.283129 0.950948
Si Si3 0.205516 0.571749 0.411506
Si Si4 0.368797 0.786476 0.058720
Si Si5 0.910858 0.863884 0.608533
Si Si6 0.782790 0.849542 0.260578
Si Si7 0.052930 0.518182 0.292761
O O1 0.810117 0.923869 0.804183
O O2 0.533756 0.137801 0.095501
O O3 0.771579 0.865026 0.113465
O O4 0.340684 0.046941 0.286148
O O5 0.865126 0.337941 0.714592
O O6 0.696887 0.213452 0.011644
O O7 0.010550 0.158832 0.891219
O O8 0.525804 0.420244 0.190392
O O9 0.109828 0.681674 0.537466
O O10 0.055902 0.527406 0.635725
O O11 0.094202 0.883944 0.353525
O O12 0.620998 0.606753 0.976757
O O13 0.884513 0.691474 0.306067
O O14 0.500000 0.000000 0.500000
O O15 0.000000 0.500000 0.500000
#
# Coordination Sequence:
#
# PCOD8040542 Si02
#       7
#     2   2   2   2   2   2   2
#     4  11  24  42  62  91 127 160 200 257 306 351
#     4  10  20  34  61  91 122 153 208 248 301 361
#     4  10  18  37  61  91 114 163 208 247 288 366
#     4  11  21  39  68  90 115 165 214 241 297 371
#     4  10  22  42  67  85 120 167 211 244 297 368
#     4  12  24  38  57  94 130 153 195 259 315 356
#     4  12  20  37  64  90 122 163 203 246 306 363
#
# _framework density 19.953288000000001
#
# number of rings (size 3 to 8) (size 9 to 14) (size 15 to 20)
#    0.000    1.143    4.286    4.714    0.000    0.571 
#    2.571    3.571    0.000    0.000    0.000    0.000 
#    0.000    0.000    0.000    0.000    0.000    0.000 
#
# Total GULP energy -173511.926270 kJ/mol
# GULP energy per Si atom -12393.709019 kJ/mol
# Density = 1.990787 g / cm^3
# Si number density = 19.953288 Si / 1000 Ang^3
#
#
#
# Elastic Constant Matrix: (Units=GPa)
#
#
# Indices 1 2 3 4 5 6 
#
# 1 104.9522 54.5125 30.4952 8.8667 -7.9484 -6.2288
# 2 54.5125 102.3408 36.6983 8.4811 -1.2310 -5.4669
# 3 30.4952 36.6983 89.3167 21.0310 -7.6930 -8.2680
# 4 8.8667 8.4811 21.0310 31.0492 6.1655 -4.8192
# 5 -7.9484 -1.2310 -7.6930 6.1655 27.4446 1.2666
# 6 -6.2288 -5.4669 -8.2680 -4.8192 1.2666 32.3010
#
#
#
# Elastic Compliance Matrix: (Units=1/GPa)
#
#
# Indices 1 2 3 4 5 6 
#
# 1 0.013846 -0.006731 -0.001084 -0.002015 0.003820 0.000803
# 2 -0.006731 0.014773 -0.004316 0.001440 -0.002840 0.000424
# 3 -0.001084 -0.004316 0.016578 -0.010808 0.006501 0.001436
# 4 -0.002015 0.001440 -0.010808 0.042995 -0.013394 0.004028
# 5 0.003820 -0.002840 0.006501 -0.013394 0.042328 -0.001738
# 6 0.000803 0.000424 0.001436 0.004028 -0.001738 0.032222
#
#
# Mechanical properties :
#
#
# Convention : Reuss Voigt Hill
#
# Bulk Modulus (GPa) = 47.76760 60.00242 53.88501
# Shear Modulus (GPa) = 25.77546 29.81920 27.79733
#
# Velocity S-wave (km/s) = 3.59805 3.87001 3.73650
# Velocity P-wave (km/s) = 6.42285 7.07856 6.75866
#
# Compressibility (1/GPa) = 0.02093469
#
# Stress axis : x y z
#
# Youngs Moduli (GPa) = 72.22122 67.68911 60.32196
#
# Poissons Ratio (x) = 0.45560 0.06540
# Poissons Ratio (y) = 0.48610 0.26038
# Poissons Ratio (z) = 0.07830 0.29218
#
# Static dielectric constant tensor:
#      x y z
#    x 3.925340 0.226880 -0.310170 
#    y 0.226880 3.572640 0.130350 
#    z -0.310170 0.130350 3.961060 
# 
# 
# High freq. dielectric constant tensor:
#      x y z
#    x 1.773030 0.026230 -0.019800 
#    y 0.026230 1.754110 0.021770 
#    z -0.019800 0.021770 1.789670 
# 
# From -- ./inp_files/236563.got.cif
#   From: 2010.06.25/outbox.cif.g09.slc.cpg/sg2_119_cif.got.tgz:236563.got - 2010.06.27 13:26:56.
