data_PCOD8040573
_publ_section_title
;
Structure prediction by ZEFSAII (Michael W. Deem and Ramdas Pophale) SiO2 
 PCOD8040573
Probable space group: P -1
;
_chemical_formula_sum "Si O2"
_cell_formula_units_Z 16
_cell_length_a 19.689169
_cell_length_b 17.644106
_cell_length_c 9.967722
_cell_angle_alpha 133.707723
_cell_angle_beta 144.656444
_cell_angle_gamma 23.216212
_cell_volume 763.060175
_symmetry_space_group_name_H-M "P -1"
_symmetry_group_IT_number 2
_symmetry_cell_setting 'triclinic'
loop_
_space_group_symop_operation_xyz
x,y,z
-x,-y,-z
loop_
_atom_site_type_symbol
_atom_site_label
_atom_site_fract_x
_atom_site_fract_y
_atom_site_fract_z
Si Si1 0.510269 0.779050 0.070440
Si Si2 0.087050 0.631707 0.719373
Si Si3 0.660527 0.226781 0.423789
Si Si4 0.170550 0.682749 0.187075
Si Si5 0.299080 0.002760 0.630756
Si Si6 0.836254 0.794498 0.904033
Si Si7 0.092994 0.442427 0.735713
Si Si8 0.283370 0.206698 0.023851
O O1 0.654883 0.595294 0.181900
O O2 0.684566 0.670305 0.096498
O O3 0.404467 0.962773 0.194466
O O4 0.321345 0.850998 0.782674
O O5 0.949680 0.788843 0.571317
O O6 0.979208 0.596697 0.530214
O O7 0.075135 0.716585 0.931490
O O8 0.420872 0.459299 0.342587
O O9 0.845509 0.178336 0.664382
O O10 0.698816 0.120696 0.481437
O O11 0.021895 0.745944 0.144145
O O12 0.352451 0.034384 0.885928
O O13 0.496801 0.888230 0.706379
O O14 0.889915 0.680128 0.722168
O O15 0.856108 0.703736 0.955160
O O16 0.139578 0.361906 0.860793
#
# Coordination Sequence:
#
# PCOD8040573 Si02
#       8
#     2   2   2   2   2   2   2   2
#     4  11  21  38  59  88 120 154 197 242 291 346
#     4  10  22  38  56  86 124 156 190 246 293 349
#     4  10  19  41  64  84 115 159 202 243 281 350
#     4  10  23  38  61  90 117 156 204 236 292 349
#     4  10  18  37  63  83 120 157 193 241 298 345
#     4  12  21  35  62  89 120 155 194 240 300 350
#     4  11  21  38  60  88 127 149 195 245 297 352
#     4  10  19  34  57  96 115 150 195 244 295 351
#
# _framework density 20.968202999999999
#
# number of rings (size 3 to 8) (size 9 to 14) (size 15 to 20)
#    0.000    1.500    5.000    2.250    0.000    1.500 
#    2.250    0.000    0.000    0.750    0.000    0.000 
#    0.000    0.000    0.000    0.000    0.000    0.000 
#
# Total GULP energy -198208.959604 kJ/mol
# GULP energy per Si atom -12388.059975 kJ/mol
# Density = 2.092048 g / cm^3
# Si number density = 20.968203 Si / 1000 Ang^3
#
#
#
# Elastic Constant Matrix: (Units=GPa)
#
#
# Indices 1 2 3 4 5 6 
#
# 1 97.4321 43.8681 43.0969 3.6524 15.4104 8.2991
# 2 43.8681 117.1469 48.8410 9.2927 -3.3896 2.4701
# 3 43.0969 48.8410 105.2673 8.5768 3.3507 14.8963
# 4 3.6524 9.2927 8.5768 28.2134 8.8736 2.5018
# 5 15.4104 -3.3896 3.3507 8.8736 25.8239 2.5935
# 6 8.2991 2.4701 14.8963 2.5018 2.5935 38.7666
#
#
#
# Elastic Compliance Matrix: (Units=1/GPa)
#
#
# Indices 1 2 3 4 5 6 
#
# 1 0.015963 -0.004906 -0.004112 0.004363 -0.011028 -0.001068
# 2 -0.004906 0.012487 -0.003851 -0.004475 0.006444 0.001592
# 3 -0.004112 -0.003851 0.013701 -0.002450 0.001422 -0.004076
# 4 0.004363 -0.004475 -0.002450 0.042689 -0.017411 -0.001297
# 5 -0.011028 0.006444 0.001422 -0.017411 0.052045 -0.000954
# 6 -0.001068 0.001592 -0.004076 -0.001297 -0.000954 0.027637
#
#
# Mechanical properties :
#
#
# Convention : Reuss Voigt Hill
#
# Bulk Modulus (GPa) = 60.92810 65.71760 63.32285
# Shear Modulus (GPa) = 25.54529 30.83014 28.18771
#
# Velocity S-wave (km/s) = 3.49418 3.83865 3.67046
# Velocity P-wave (km/s) = 6.73792 7.14538 6.94464
#
# Compressibility (1/GPa) = 0.01641279
#
# Stress axis : x y z
#
# Youngs Moduli (GPa) = 62.64420 80.08507 72.98665
#
# Poissons Ratio (x) = 0.39288 0.30016
# Poissons Ratio (y) = 0.30732 0.28106
# Poissons Ratio (z) = 0.25762 0.30839
#
# Static dielectric constant tensor:
#      x y z
#    x 3.655730 0.225800 0.152080 
#    y 0.225800 4.007690 0.082640 
#    z 0.152080 0.082640 3.917340 
# 
# 
# High freq. dielectric constant tensor:
#      x y z
#    x 1.796640 0.018930 0.001100 
#    y 0.018930 1.831030 0.000880 
#    z 0.001100 0.000880 1.807950 
# 
# From -- ./inp_files/475594.got.cif
#   From: 2010.06.25/outbox.cif.g09.slc.cpg/sg2_238_cif.got.tgz:475594.got - 2010.06.27 13:26:56.
