data_PCOD8040498
_publ_section_title
;
Structure prediction by ZEFSAII (Michael W. Deem and Ramdas Pophale) SiO2 
 PCOD8040498
Probable space group: P -1
;
_chemical_formula_sum "Si O2"
_cell_formula_units_Z 14
_cell_length_a 11.580006
_cell_length_b 11.310489
_cell_length_c 13.497590
_cell_angle_alpha 133.129328
_cell_angle_beta 146.480649
_cell_angle_gamma 61.094697
_cell_volume 695.833131
_symmetry_space_group_name_H-M "P -1"
_symmetry_group_IT_number 2
_symmetry_cell_setting 'triclinic'
loop_
_space_group_symop_operation_xyz
x,y,z
-x,-y,-z
loop_
_atom_site_type_symbol
_atom_site_label
_atom_site_fract_x
_atom_site_fract_y
_atom_site_fract_z
Si Si1 0.828322 0.256636 0.215387
Si Si2 0.842893 0.632145 0.127642
Si Si3 0.208999 0.799982 0.362167
Si Si4 0.221195 0.108273 0.434453
Si Si5 0.903227 0.476130 0.574557
Si Si6 0.351291 0.125125 0.747776
Si Si7 0.484187 0.356139 0.620917
O O1 0.808031 0.315765 0.347581
O O2 0.988546 0.132993 0.252428
O O3 0.905276 0.411672 0.286529
O O4 0.602986 0.156228 0.959716
O O5 0.762522 0.793083 0.200555
O O6 0.978014 0.682927 0.152614
O O7 0.002828 0.573074 0.284471
O O8 0.639142 0.486148 0.877051
O O9 0.384955 0.689919 0.406095
O O10 0.201311 0.909971 0.319640
O O11 0.270538 0.924220 0.571862
O O12 0.295789 0.200633 0.645640
O O13 0.393334 0.187614 0.520618
O O14 0.711447 0.568188 0.515107
#
# Coordination Sequence:
#
# PCOD8040498 Si02
#       7
#     2   2   2   2   2   2   2
#     4  10  18  37  59  93 112 147 197 247 283 334
#     4  12  22  40  61  87 118 156 194 238 288 346
#     4  10  24  42  56  86 126 152 192 236 291 354
#     4   9  21  39  63  84 117 147 200 240 285 339
#     4  10  21  34  61  90 117 144 199 244 283 341
#     4  10  21  37  62  87 115 153 190 243 292 332
#     4  11  22  41  62  85 117 157 193 239 290 342
#
# _framework density 20.119765999999998
#
# number of rings (size 3 to 8) (size 9 to 14) (size 15 to 20)
#    0.857    0.857    2.857    2.143    0.000    1.714 
#    5.143    2.857    0.000    0.000    0.000    0.000 
#    0.000    0.000    0.000    0.000    0.000    0.000 
#
# Total GULP energy -173556.369419 kJ/mol
# GULP energy per Si atom -12396.883530 kJ/mol
# Density = 2.007397 g / cm^3
# Si number density = 20.119766 Si / 1000 Ang^3
#
#
#
# Elastic Constant Matrix: (Units=GPa)
#
#
# Indices 1 2 3 4 5 6 
#
# 1 86.5053 28.6552 20.5871 -5.2073 16.5616 -19.0568
# 2 28.6552 63.5942 29.6368 -4.7880 2.6476 -10.2605
# 3 20.5871 29.6368 89.5272 -18.0771 13.4412 6.2974
# 4 -5.2073 -4.7880 -18.0771 20.5041 -4.5244 3.1197
# 5 16.5616 2.6476 13.4412 -4.5244 27.7934 -1.1366
# 6 -19.0568 -10.2605 6.2974 3.1197 -1.1366 30.8213
#
#
#
# Elastic Compliance Matrix: (Units=1/GPa)
#
#
# Indices 1 2 3 4 5 6 
#
# 1 0.017371 -0.005173 -0.001999 -0.001920 -0.008824 0.009296
# 2 -0.005173 0.022375 -0.007971 -0.003077 0.004565 0.006358
# 3 -0.001999 -0.007971 0.018575 0.014304 -0.005086 -0.009320
# 4 -0.001920 -0.003077 0.014304 0.062846 0.004287 -0.011337
# 5 -0.008824 0.004565 -0.005086 0.004287 0.043890 -0.001712
# 6 0.009296 0.006358 -0.009320 -0.011337 -0.001712 0.043298
#
#
# Mechanical properties :
#
#
# Convention : Reuss Voigt Hill
#
# Bulk Modulus (GPa) = 35.66988 44.15385 39.91186
# Shear Modulus (GPa) = 20.16243 26.54028 23.35135
#
# Velocity S-wave (km/s) = 3.16906 3.63590 3.41048
# Velocity P-wave (km/s) = 5.58192 6.29440 5.94884
#
# Compressibility (1/GPa) = 0.02803486
#
# Stress axis : x y z
#
# Youngs Moduli (GPa) = 57.56772 44.69337 53.83461
#
# Poissons Ratio (x) = 0.23121 0.10760
# Poissons Ratio (y) = 0.29781 0.42912
# Poissons Ratio (z) = 0.11506 0.35626
#
# Static dielectric constant tensor:
#      x y z
#    x 3.429420 -0.066150 0.125860 
#    y -0.066150 3.537680 0.010770 
#    z 0.125860 0.010770 3.505280 
# 
# 
# High freq. dielectric constant tensor:
#      x y z
#    x 1.775940 -0.013220 0.017410 
#    y -0.013220 1.780800 -0.003550 
#    z 0.017410 -0.003550 1.779220 
# 
# From -- ./inp_files/380397.got.cif
#   From: 2010.06.25/outbox.cif.g09.slc.cpg/sg2_191_cif.got.tgz:380397.got - 2010.06.27 13:26:56.
