data_PCOD8040353
_publ_section_title
;
Structure prediction by ZEFSAII (Michael W. Deem and Ramdas Pophale) SiO2 
 PCOD8040353
Probable space group: P -1
;
_chemical_formula_sum "Si O2"
_cell_formula_units_Z 12
_cell_length_a 9.440157
_cell_length_b 17.004424
_cell_length_c 5.016858
_cell_angle_alpha 59.881845
_cell_angle_beta 130.673838
_cell_angle_gamma 131.264671
_cell_volume 455.441645
_symmetry_space_group_name_H-M "P -1"
_symmetry_group_IT_number 2
_symmetry_cell_setting 'triclinic'
loop_
_space_group_symop_operation_xyz
x,y,z
-x,-y,-z
loop_
_atom_site_type_symbol
_atom_site_label
_atom_site_fract_x
_atom_site_fract_y
_atom_site_fract_z
Si Si1 0.250567 0.460064 0.759253
Si Si2 0.678494 0.420303 0.854941
Si Si3 0.779165 0.111696 0.133950
Si Si4 0.226510 0.285527 0.324627
Si Si5 0.225030 0.009508 0.181579
Si Si6 0.483545 0.796942 0.140910
O O1 0.181681 0.487302 0.348184
O O2 0.500000 0.500000 0.000000
O O3 0.213779 0.529427 0.818103
O O4 0.139064 0.335907 0.908937
O O5 0.415038 0.379168 0.582875
O O6 0.700119 0.316718 0.011171
O O7 0.016335 0.202117 0.374485
O O8 0.682228 0.016560 0.393459
O O9 0.619838 0.158696 0.853555
O O10 0.807323 0.075027 0.940898
O O11 0.340402 0.222157 0.448611
O O12 0.398343 0.125272 0.095539
O O13 0.000000 0.000000 0.000000
#
# Coordination Sequence:
#
# PCOD8040353 Si02
#       6
#     2   2   2   2   2   2
#     4  10  18  36  62  90 121 168 203 257 306 366
#     4   9  21  36  62  90 123 164 210 249 314 366
#     4  12  26  45  63  98 128 164 212 263 313 376
#     4   9  21  40  66  90 127 166 211 250 317 367
#     4  12  25  45  68  93 127 168 211 259 318 374
#     4  10  24  43  66  95 128 169 207 264 314 373
#
# _framework density 26.348051999999999
#
# number of rings (size 3 to 8) (size 9 to 14) (size 15 to 20)
#    1.000    0.667    1.667    3.500    0.000    9.333 
#    0.000    1.667    0.000    0.000    0.000    0.000 
#    0.000    0.000    0.000    0.000    0.000    0.000 
#
# Total GULP energy -148675.694035 kJ/mol
# GULP energy per Si atom -12389.641170 kJ/mol
# Density = 2.628808 g / cm^3
# Si number density = 26.348052 Si / 1000 Ang^3
#
#
#
# Elastic Constant Matrix: (Units=GPa)
#
#
# Indices 1 2 3 4 5 6 
#
# 1 158.8925 55.7969 41.8636 -13.6959 3.0011 -30.0653
# 2 55.7969 97.7301 39.1111 -38.3527 8.6391 -5.7980
# 3 41.8636 39.1111 74.0201 -19.4635 -4.1675 -21.7454
# 4 -13.6959 -38.3527 -19.4635 37.6430 -8.3450 2.0798
# 5 3.0011 8.6391 -4.1675 -8.3450 37.7499 -4.3671
# 6 -30.0653 -5.7980 -21.7454 2.0798 -4.3671 33.8252
#
#
#
# Elastic Compliance Matrix: (Units=1/GPa)
#
#
# Indices 1 2 3 4 5 6 
#
# 1 0.009802 -0.006198 -0.001032 -0.003556 0.000581 0.007280
# 2 -0.006198 0.023051 -0.006106 0.017947 -0.002285 -0.006882
# 3 -0.001032 -0.006106 0.023354 0.006285 0.007016 0.013569
# 4 -0.003556 0.017947 0.006285 0.048427 0.007804 0.001986
# 5 0.000581 -0.002285 0.007016 0.007804 0.030402 0.008081
# 6 0.007280 -0.006882 0.013569 0.001986 0.008081 0.044499
#
#
# Mechanical properties :
#
#
# Convention : Reuss Voigt Hill
#
# Bulk Modulus (GPa) = 33.85794 67.13176 50.49485
# Shear Modulus (GPa) = 23.14256 34.76836 28.95546
#
# Velocity S-wave (km/s) = 2.96690 3.63654 3.31865
# Velocity P-wave (km/s) = 4.96133 6.57014 5.82158
#
# Compressibility (1/GPa) = 0.02953517
#
# Stress axis : x y z
#
# Youngs Moduli (GPa) = 102.01860 43.38154 42.82001
#
# Poissons Ratio (x) = 0.26888 0.04420
# Poissons Ratio (y) = 0.63232 0.26144
# Poissons Ratio (z) = 0.10531 0.26487
#
# Static dielectric constant tensor:
#      x y z
#    x 4.778570 -0.068760 0.110540 
#    y -0.068760 5.524740 -1.174230 
#    z 0.110540 -1.174230 5.285820 
# 
# 
# High freq. dielectric constant tensor:
#      x y z
#    x 2.051890 0.001280 0.008810 
#    y 0.001280 2.064290 -0.029200 
#    z 0.008810 -0.029200 2.032100 
# 
# From -- ./inp_files/46858.got.cif
#   From: 2010.06.25/outbox.cif.g09.slc.cpg/sg2_24_cif.got.tgz:46858.got - 2010.06.27 13:26:56.
