data_PCOD8040430
_publ_section_title
;
Structure prediction by ZEFSAII (Michael W. Deem and Ramdas Pophale) SiO2 
 PCOD8040430
Probable space group: P -1
;
_chemical_formula_sum "Si O2"
_cell_formula_units_Z 16
_cell_length_a 16.958033
_cell_length_b 10.361974
_cell_length_c 8.869092
_cell_angle_alpha 76.923305
_cell_angle_beta 31.008022
_cell_angle_gamma 66.102782
_cell_volume 709.414001
_symmetry_space_group_name_H-M "P -1"
_symmetry_group_IT_number 2
_symmetry_cell_setting 'triclinic'
loop_
_space_group_symop_operation_xyz
x,y,z
-x,-y,-z
loop_
_atom_site_type_symbol
_atom_site_label
_atom_site_fract_x
_atom_site_fract_y
_atom_site_fract_z
Si Si1 0.851693 0.233154 0.991044
Si Si2 0.358750 0.936850 0.670745
Si Si3 0.607317 0.484971 0.115867
Si Si4 0.463071 0.918245 0.822450
Si Si5 0.763085 0.476567 0.294544
Si Si6 0.685503 0.628662 0.671549
Si Si7 0.303617 0.313514 0.889934
Si Si8 0.792885 0.820130 0.659352
O O1 0.773894 0.115713 0.171183
O O2 0.757408 0.345091 0.981244
O O3 0.843362 0.309628 0.148578
O O4 0.045935 0.147562 0.647086
O O5 0.324769 0.962947 0.899655
O O6 0.557846 0.827454 0.378444
O O7 0.365665 0.065246 0.518627
O O8 0.439970 0.459257 0.398733
O O9 0.581170 0.624885 0.221866
O O10 0.642826 0.522291 0.878913
O O11 0.518258 0.751215 0.831460
O O12 0.371303 0.027342 0.084203
O O13 0.809755 0.512332 0.375412
O O14 0.817538 0.570977 0.062454
O O15 0.771644 0.723771 0.583131
O O16 0.177292 0.278375 0.213423
#
# Coordination Sequence:
#
# PCOD8040430 Si02
#       8
#     2   2   2   2   2   2   2   2
#     4  11  21  39  61  91 120 148 198 239 305 345
#     4  10  18  36  67  87 106 153 205 253 269 344
#     4  10  19  33  61  92 115 146 191 252 293 339
#     4  10  21  39  64  86 112 155 208 238 285 342
#     4  11  19  34  63  88 117 152 195 247 286 354
#     4  11  22  37  59  89 122 154 196 239 296 347
#     4   9  16  34  57  86 110 145 198 230 289 333
#     4  10  24  37  56  90 121 161 186 243 294 346
#
# _framework density 22.553826000000001
#
# number of rings (size 3 to 8) (size 9 to 14) (size 15 to 20)
#    0.000    1.750    3.750    1.500    0.000    5.500 
#    0.000    0.625    0.000    0.000    0.000    0.000 
#    0.000    0.000    0.000    0.000    0.000    0.000 
#
# Total GULP energy -198233.416666 kJ/mol
# GULP energy per Si atom -12389.588542 kJ/mol
# Density = 2.250249 g / cm^3
# Si number density = 22.553826 Si / 1000 Ang^3
#
#
#
# Elastic Constant Matrix: (Units=GPa)
#
#
# Indices 1 2 3 4 5 6 
#
# 1 65.7877 21.1600 44.2593 2.7787 28.3198 13.5723
# 2 21.1600 63.7827 19.3912 -7.3237 14.5613 8.3930
# 3 44.2593 19.3912 90.1788 -6.0072 10.0430 11.2719
# 4 2.7787 -7.3237 -6.0072 18.7155 0.8848 6.4816
# 5 28.3198 14.5613 10.0430 0.8848 33.9765 0.0243
# 6 13.5723 8.3930 11.2719 6.4816 0.0243 33.2060
#
#
#
# Elastic Compliance Matrix: (Units=1/GPa)
#
#
# Indices 1 2 3 4 5 6 
#
# 1 0.040971 -0.001868 -0.015839 -0.007277 -0.028471 -0.009456
# 2 -0.001868 0.020217 -0.001235 0.010169 -0.007003 -0.005907
# 3 -0.015839 -0.001235 0.018928 0.007986 0.007929 -0.001204
# 4 -0.007277 0.010169 0.007986 0.066458 -0.002373 -0.015277
# 5 -0.028471 -0.007003 0.007929 -0.002373 0.053875 0.011139
# 6 -0.009456 -0.005907 -0.001204 -0.015277 0.011139 0.038856
#
#
# Mechanical properties :
#
#
# Convention : Reuss Voigt Hill
#
# Bulk Modulus (GPa) = 23.67850 43.26334 33.47092
# Shear Modulus (GPa) = 17.16650 26.17552 21.67101
#
# Velocity S-wave (km/s) = 2.76186 3.41042 3.10313
# Velocity P-wave (km/s) = 4.54884 5.89338 5.26421
#
# Compressibility (1/GPa) = 0.04223240
#
# Stress axis : x y z
#
# Youngs Moduli (GPa) = 24.40726 49.46315 52.83305
#
# Poissons Ratio (x) = 0.09242 0.83681
# Poissons Ratio (y) = 0.04560 0.06523
# Poissons Ratio (z) = 0.38658 0.06107
#
# Static dielectric constant tensor:
#      x y z
#    x 4.008110 0.205920 0.487790 
#    y 0.205920 4.075170 -0.200070 
#    z 0.487790 -0.200070 3.856820 
# 
# 
# High freq. dielectric constant tensor:
#      x y z
#    x 1.875980 0.023680 0.034710 
#    y 0.023680 1.885210 -0.014750 
#    z 0.034710 -0.014750 1.865240 
# 
# From -- ./inp_files/333188.got.cif
#   From: 2010.06.25/outbox.cif.g09.slc.cpg/sg2_167_cif.got.tgz:333188.got - 2010.06.27 13:26:56.
