data_PCOD8040802
_publ_section_title
;
Structure prediction by ZEFSAII (Michael W. Deem and Ramdas Pophale) SiO2 
 PCOD8040802
Probable space group: P -1
;
_chemical_formula_sum "Si O2"
_cell_formula_units_Z 12
_cell_length_a 18.494326
_cell_length_b 18.757174
_cell_length_c 8.521744
_cell_angle_alpha 31.684546
_cell_angle_beta 158.136764
_cell_angle_gamma 158.332014
_cell_volume 405.035616
_symmetry_space_group_name_H-M "P -1"
_symmetry_group_IT_number 2
_symmetry_cell_setting 'triclinic'
loop_
_space_group_symop_operation_xyz
x,y,z
-x,-y,-z
loop_
_atom_site_type_symbol
_atom_site_label
_atom_site_fract_x
_atom_site_fract_y
_atom_site_fract_z
Si Si1 0.785538 0.313869 0.517522
Si Si2 0.808317 0.459213 0.849932
Si Si3 0.596556 0.886289 0.497493
Si Si4 0.790386 0.011731 0.990308
Si Si5 0.632763 0.677056 0.550528
Si Si6 0.123654 0.255150 0.758512
O O1 0.829415 0.174612 0.847777
O O2 0.000000 0.500000 0.500000
O O3 0.466751 0.203006 0.040547
O O4 0.874426 0.395582 0.723525
O O5 0.719786 0.286151 0.887242
O O6 0.607954 0.354134 0.796386
O O7 0.758697 0.569372 0.443780
O O8 0.614236 0.949786 0.591373
O O9 0.743479 0.812896 0.920953
O O10 0.784252 0.076256 0.406270
O O11 0.101606 0.105004 0.409687
O O12 0.500000 0.500000 0.500000
O O13 0.792644 0.681230 0.008197
#
# Coordination Sequence:
#
# PCOD8040802 Si02
#       6
#     2   2   2   2   2   2
#     4  11  26  45  63  88 134 177 218 263 320 380
#     4  11  22  41  67  96 129 170 212 263 320 379
#     4   9  19  38  65  97 127 161 211 260 326 383
#     4  10  23  44  63  93 134 164 215 270 318 378
#     4  10  18  38  68  97 121 162 209 257 322 379
#     4   9  20  37  66  98 138 157 204 271 320 381
#
# _framework density 29.627023999999999
#
# number of rings (size 3 to 8) (size 9 to 14) (size 15 to 20)
#    0.000    2.000    1.667    3.000    0.000    7.333 
#    0.000    5.833    0.000    0.000    0.000    0.000 
#    0.000    0.000    0.000    0.000    0.000    0.000 
#
# Total GULP energy -148681.272836 kJ/mol
# GULP energy per Si atom -12390.106070 kJ/mol
# Density = 2.955959 g / cm^3
# Si number density = 29.627024 Si / 1000 Ang^3
#
#
#
# Elastic Constant Matrix: (Units=GPa)
#
#
# Indices 1 2 3 4 5 6 
#
# 1 137.9396 58.0842 25.5142 7.4733 -23.9471 7.7796
# 2 58.0842 175.8332 69.0760 30.5779 -2.5030 29.6356
# 3 25.5142 69.0760 148.4644 49.4145 -9.5037 0.6959
# 4 7.4733 30.5779 49.4145 55.4280 -8.9604 -13.6530
# 5 -23.9471 -2.5030 -9.5037 -8.9604 38.2448 4.8009
# 6 7.7796 29.6356 0.6959 -13.6530 4.8009 56.9641
#
#
#
# Elastic Compliance Matrix: (Units=1/GPa)
#
#
# Indices 1 2 3 4 5 6 
#
# 1 0.009679 -0.003379 -0.000353 0.001967 0.006163 0.000392
# 2 -0.003379 0.009345 -0.002534 -0.004105 -0.002449 -0.005147
# 3 -0.000353 -0.002534 0.010759 -0.008267 0.000448 -0.000784
# 4 0.001967 -0.004105 -0.008267 0.030382 0.004918 0.008835
# 5 0.006163 -0.002449 0.000448 0.004918 0.031239 -0.001027
# 6 0.000392 -0.005147 -0.000784 0.008835 -0.001027 0.022393
#
#
# Mechanical properties :
#
#
# Convention : Reuss Voigt Hill
#
# Bulk Modulus (GPa) = 57.96658 85.28734 71.62696
# Shear Modulus (GPa) = 37.85591 50.76488 44.31039
#
# Velocity S-wave (km/s) = 3.57844 4.14389 3.87150
# Velocity P-wave (km/s) = 6.05653 7.19342 6.64932
#
# Compressibility (1/GPa) = 0.01725132
#
# Stress axis : x y z
#
# Youngs Moduli (GPa) = 103.31626 107.00608 92.94337
#
# Poissons Ratio (x) = 0.36158 0.03283
# Poissons Ratio (y) = 0.34911 0.23550
# Poissons Ratio (z) = 0.03649 0.27114
#
# Static dielectric constant tensor:
#      x y z
#    x 5.839010 0.577070 -0.381730 
#    y 0.577070 5.962590 0.989840 
#    z -0.381730 0.989840 6.581800 
# 
# 
# High freq. dielectric constant tensor:
#      x y z
#    x 2.226290 0.036660 -0.007950 
#    y 0.036660 2.233860 0.029870 
#    z -0.007950 0.029870 2.240620 
# 
# From -- ./inp_files/349209.got.cif
#   From: 2010.06.25/outbox.cif.g09.slc.cpg/sg2_175_cif.got.tgz:349209.got - 2010.06.27 13:26:56.
