data_PCOD8040833
_publ_section_title
;
Structure prediction by ZEFSAII (Michael W. Deem and Ramdas Pophale) SiO2 
 PCOD8040833
Probable space group: P -1
;
_chemical_formula_sum "Si O2"
_cell_formula_units_Z 16
_cell_length_a 8.729702
_cell_length_b 13.911718
_cell_length_c 9.115376
_cell_angle_alpha 90.573483
_cell_angle_beta 94.901866
_cell_angle_gamma 45.730843
_cell_volume 787.887867
_symmetry_space_group_name_H-M "P -1"
_symmetry_group_IT_number 2
_symmetry_cell_setting 'triclinic'
loop_
_space_group_symop_operation_xyz
x,y,z
-x,-y,-z
loop_
_atom_site_type_symbol
_atom_site_label
_atom_site_fract_x
_atom_site_fract_y
_atom_site_fract_z
Si Si1 0.158806 0.183100 0.714822
Si Si2 0.106083 0.552271 0.480917
Si Si3 0.528281 0.402151 0.387338
Si Si4 0.110929 0.865223 0.426387
Si Si5 0.586489 0.029211 0.878148
Si Si6 0.301488 0.531483 0.796281
Si Si7 0.026783 0.771163 0.985756
Si Si8 0.346317 0.780585 0.140746
O O1 0.419307 0.082093 0.732425
O O2 0.065335 0.308817 0.613841
O O3 0.087964 0.113460 0.639282
O O4 0.065192 0.231398 0.871679
O O5 0.308463 0.439092 0.388665
O O6 0.161563 0.577431 0.639945
O O7 0.000000 0.500000 0.500000
O O8 0.500000 0.500000 0.500000
O O9 0.739303 0.249751 0.441445
O O10 0.545359 0.442744 0.227415
O O11 0.255891 0.832847 0.299100
O O12 0.000000 0.000000 0.500000
O O13 0.594054 0.140552 0.918695
O O14 0.831784 0.889276 0.863436
O O15 0.500000 0.000000 0.000000
O O16 0.436823 0.377693 0.842672
O O17 0.154357 0.626880 0.921572
O O18 0.173077 0.801891 0.024925
#
# Coordination Sequence:
#
# PCOD8040833 Si02
#       8
#     2   2   2   2   2   2   2   2
#     4  10  21  43  64  87 130 166 202 261 315 361
#     4  11  21  38  64  93 127 167 198 251 317 369
#     4  10  18  39  60  87 128 154 201 256 302 355
#     4  11  22  38  64  94 120 162 210 255 305 372
#     4  10  23  43  59  85 127 170 204 254 308 371
#     4  11  21  40  66  98 124 157 210 263 306 368
#     4  10  23  41  66  91 122 165 214 258 308 367
#     4  11  21  40  67  90 121 164 209 256 315 368
#
# _framework density 20.307458
#
# number of rings (size 3 to 8) (size 9 to 14) (size 15 to 20)
#    0.000    1.500    5.000    2.250    1.750    0.000 
#    2.250    8.125    0.000    0.000    0.000    0.000 
#    0.000    0.000    0.000    0.000    0.000    0.000 
#
# Total GULP energy -198297.428875 kJ/mol
# GULP energy per Si atom -12393.589305 kJ/mol
# Density = 2.026124 g / cm^3
# Si number density = 20.307458 Si / 1000 Ang^3
#
#
#
# Elastic Constant Matrix: (Units=GPa)
#
#
# Indices 1 2 3 4 5 6 
#
# 1 123.8065 68.8481 35.7550 -9.8660 7.3908 9.4471
# 2 68.8481 179.8616 59.0313 3.2782 3.6181 -7.4519
# 3 35.7550 59.0313 64.1177 1.9557 4.6287 -2.9669
# 4 -9.8660 3.2782 1.9557 36.4940 -7.0101 0.2177
# 5 7.3908 3.6181 4.6287 -7.0101 24.2488 -11.3795
# 6 9.4471 -7.4519 -2.9669 0.2177 -11.3795 36.2032
#
#
#
# Elastic Compliance Matrix: (Units=1/GPa)
#
#
# Indices 1 2 3 4 5 6 
#
# 1 0.012004 -0.003700 -0.003331 0.002984 -0.004190 -0.005502
# 2 -0.003700 0.009162 -0.006348 -0.001107 0.002052 0.002983
# 3 -0.003331 -0.006348 0.023600 -0.002152 -0.002881 0.000604
# 4 0.002984 -0.001107 -0.002152 0.030159 0.009085 0.001491
# 5 -0.004190 0.002052 -0.002881 0.009085 0.053914 0.018171
# 6 -0.005502 0.002983 0.000604 0.001491 0.018171 0.035424
#
#
# Mechanical properties :
#
#
# Convention : Reuss Voigt Hill
#
# Bulk Modulus (GPa) = 55.53040 77.22829 66.37934
# Shear Modulus (GPa) = 25.37747 32.99931 29.18839
#
# Velocity S-wave (km/s) = 3.53889 4.03548 3.79532
# Velocity P-wave (km/s) = 6.64097 7.73470 7.20861
#
# Compressibility (1/GPa) = 0.01800815
#
# Stress axis : x y z
#
# Youngs Moduli (GPa) = 83.30308 109.14465 42.37249
#
# Poissons Ratio (x) = 0.40382 0.14114
# Poissons Ratio (y) = 0.30821 0.26900
# Poissons Ratio (z) = 0.27748 0.69290
#
# Static dielectric constant tensor:
#      x y z
#    x 4.328310 -0.139710 -0.005900 
#    y -0.139710 3.758690 -0.256620 
#    z -0.005900 -0.256620 3.651090 
# 
# 
# High freq. dielectric constant tensor:
#      x y z
#    x 1.800960 -0.005750 0.001590 
#    y -0.005750 1.799220 -0.021370 
#    z 0.001590 -0.021370 1.774440 
# 
# From -- ./inp_files/188638.got.cif
#   From: 2010.06.25/outbox.cif.g09.slc.cpg/sg2_95_cif.got.tgz:188638.got - 2010.06.27 13:26:56.
