data_PCOD8040962
_publ_section_title
;
Structure prediction by ZEFSAII (Michael W. Deem and Ramdas Pophale) SiO2 
 PCOD8040962
Probable space group: P -1
;
_chemical_formula_sum "Si O2"
_cell_formula_units_Z 16
_cell_length_a 11.468368
_cell_length_b 9.746330
_cell_length_c 14.152192
_cell_angle_alpha 114.012572
_cell_angle_beta 147.948969
_cell_angle_gamma 65.203053
_cell_volume 757.691821
_symmetry_space_group_name_H-M "P -1"
_symmetry_group_IT_number 2
_symmetry_cell_setting 'triclinic'
loop_
_space_group_symop_operation_xyz
x,y,z
-x,-y,-z
loop_
_atom_site_type_symbol
_atom_site_label
_atom_site_fract_x
_atom_site_fract_y
_atom_site_fract_z
Si Si1 0.653014 0.200857 0.169853
Si Si2 0.567146 0.185187 0.727832
Si Si3 0.169967 0.764323 0.902329
Si Si4 0.171402 0.148576 0.816671
Si Si5 0.996927 0.887134 0.107476
Si Si6 0.736149 0.639839 0.574193
Si Si7 0.422259 0.153879 0.307540
Si Si8 0.228466 0.703584 0.527798
O O1 0.719353 0.258233 0.130090
O O2 0.752548 0.297719 0.346018
O O3 0.750109 0.025573 0.205167
O O4 0.386230 0.229933 0.002001
O O5 0.350568 0.289464 0.566543
O O6 0.763521 0.182273 0.785727
O O7 0.505459 0.018251 0.655886
O O8 0.634712 0.261523 0.892831
O O9 0.998594 0.646287 0.765209
O O10 0.030950 0.931336 0.869227
O O11 0.021117 0.165786 0.812358
O O12 0.024803 0.230906 0.654607
O O13 0.813274 0.824399 0.900585
O O14 0.592511 0.731541 0.583321
O O15 0.701827 0.466125 0.510305
O O16 0.608590 0.187903 0.372143
#
# Coordination Sequence:
#
# PCOD8040962 Si02
#       8
#     2   2   2   2   2   2   2   2
#     4  10  23  43  66  91 119 162 218 256 297 368
#     4  11  22  39  69  93 120 166 210 256 303 360
#     4  10  22  40  64  92 121 159 214 260 298 360
#     4  10  22  41  67  91 121 161 208 262 308 353
#     4  10  18  40  68  93 119 158 213 264 298 353
#     4  12  25  40  61  96 133 163 198 251 319 376
#     4  11  21  41  66  94 126 162 210 254 302 371
#     4  12  26  41  61  96 132 162 199 255 317 372
#
# _framework density 21.116762999999999
#
# number of rings (size 3 to 8) (size 9 to 14) (size 15 to 20)
#    0.000    1.250    3.750    2.625    5.250    2.500 
#    0.000    2.500    0.000    0.000    0.000    0.000 
#    0.000    0.000    0.000    0.000    0.000    0.000 
#
# Total GULP energy -198513.523131 kJ/mol
# GULP energy per Si atom -12407.095196 kJ/mol
# Density = 2.106870 g / cm^3
# Si number density = 21.116763 Si / 1000 Ang^3
#
#
#
# Elastic Constant Matrix: (Units=GPa)
#
#
# Indices 1 2 3 4 5 6 
#
# 1 100.2689 28.7431 45.9064 3.7733 -14.7053 1.9975
# 2 28.7431 57.8261 40.1467 7.7909 7.8210 2.1546
# 3 45.9064 40.1467 100.8240 6.4696 -16.0931 -3.0271
# 4 3.7733 7.7909 6.4696 15.1884 -0.6932 1.5009
# 5 -14.7053 7.8210 -16.0931 -0.6932 29.4578 4.1271
# 6 1.9975 2.1546 -3.0271 1.5009 4.1271 11.7005
#
#
#
# Elastic Compliance Matrix: (Units=1/GPa)
#
#
# Indices 1 2 3 4 5 6 
#
# 1 0.014320 -0.006038 -0.003137 0.001737 0.007796 -0.005117
# 2 -0.006038 0.033292 -0.012862 -0.010942 -0.019097 -0.000288
# 3 -0.003137 -0.012862 0.018416 -0.000313 0.011385 0.003693
# 4 0.001737 -0.010942 -0.000313 0.072451 0.006710 -0.010024
# 5 0.007796 -0.019097 0.011385 0.006710 0.051219 -0.013796
# 6 -0.005117 -0.000288 0.003693 -0.010024 -0.013796 0.093500
#
#
# Mechanical properties :
#
#
# Convention : Reuss Voigt Hill
#
# Bulk Modulus (GPa) = 45.54800 54.27904 49.91352
# Shear Modulus (GPa) = 14.94368 20.87752 17.91060
#
# Velocity S-wave (km/s) = 2.66309 3.14772 2.91549
# Velocity P-wave (km/s) = 5.57427 6.24267 5.91791
#
# Compressibility (1/GPa) = 0.02195486
#
# Stress axis : x y z
#
# Youngs Moduli (GPa) = 69.83257 30.03747 54.30071
#
# Poissons Ratio (x) = 0.18137 0.17032
# Poissons Ratio (y) = 0.42165 0.69840
# Poissons Ratio (z) = 0.21903 0.38634
#
# Static dielectric constant tensor:
#      x y z
#    x 3.776880 0.081600 -0.151490 
#    y 0.081600 3.434310 0.061110 
#    z -0.151490 0.061110 3.976770 
# 
# 
# High freq. dielectric constant tensor:
#      x y z
#    x 1.831450 0.006160 -0.008060 
#    y 0.006160 1.794860 0.004800 
#    z -0.008060 0.004800 1.844810 
# 
# From -- ./inp_files/272481.got.cif
#   From: 2010.06.25/outbox.cif.g09.slc.cpg/sg2_137_cif.got.tgz:272481.got - 2010.06.27 13:26:56.
