data_PCOD8040911
_publ_section_title
;
Structure prediction by ZEFSAII (Michael W. Deem and Ramdas Pophale) SiO2 
 PCOD8040911
Probable space group: P -1
;
_chemical_formula_sum "Si O2"
_cell_formula_units_Z 16
_cell_length_a 12.071531
_cell_length_b 18.355441
_cell_length_c 25.218636
_cell_angle_alpha 17.104567
_cell_angle_beta 25.892676
_cell_angle_gamma 30.310315
_cell_volume 717.428511
_symmetry_space_group_name_H-M "P -1"
_symmetry_group_IT_number 2
_symmetry_cell_setting 'triclinic'
loop_
_space_group_symop_operation_xyz
x,y,z
-x,-y,-z
loop_
_atom_site_type_symbol
_atom_site_label
_atom_site_fract_x
_atom_site_fract_y
_atom_site_fract_z
Si Si1 0.011454 0.229149 0.375690
Si Si2 0.568882 0.570124 0.795790
Si Si3 0.269491 0.870809 0.216584
Si Si4 0.996346 0.937603 0.389307
Si Si5 0.226473 0.901539 0.777591
Si Si6 0.612819 0.328607 0.305747
Si Si7 0.566767 0.167477 0.158607
Si Si8 0.553956 0.399137 0.398791
O O1 0.819144 0.442580 0.286492
O O2 0.914580 0.165792 0.520322
O O3 0.306856 0.299772 0.201898
O O4 0.000000 0.000000 0.500000
O O5 0.792705 0.764731 0.568053
O O6 0.303792 0.685517 0.853040
O O7 0.515177 0.510517 0.798418
O O8 0.647207 0.313383 0.969583
O O9 0.326103 0.575822 0.395113
O O10 0.235310 0.947528 0.239582
O O11 0.023637 0.946339 0.236037
O O12 0.500000 0.000000 0.000000
O O13 0.892616 0.221247 0.244055
O O14 0.212663 0.797745 0.916317
O O15 0.461734 0.081417 0.554262
O O16 0.612453 0.474625 0.259923
O O17 0.531665 0.879967 0.359604
#
# Coordination Sequence:
#
# PCOD8040911 Si02
#       8
#     2   2   2   2   2   2   2   2
#     4  10  19  39  65  92 133 165 209 263 322 372
#     4  11  19  35  69 107 118 154 226 283 307 362
#     4  12  27  43  62  92 136 177 213 254 323 399
#     4  11  20  40  68  97 125 168 218 271 316 369
#     4  10  19  38  65  92 128 163 216 265 321 367
#     4  10  18  39  69  95 122 166 218 277 312 356
#     4  10  21  36  67  99 124 163 212 274 325 360
#     4  10  24  43  60  95 135 180 198 256 334 387
#
# _framework density 22.301871999999999
#
# number of rings (size 3 to 8) (size 9 to 14) (size 15 to 20)
#    0.000    1.500    7.500    1.125    1.750    2.500 
#    4.500    1.875    0.000    0.000    0.000    0.000 
#    0.000    0.000    0.000    0.000    0.000    0.000 
#
# Total GULP energy -198338.212440 kJ/mol
# GULP energy per Si atom -12396.138278 kJ/mol
# Density = 2.225111 g / cm^3
# Si number density = 22.301872 Si / 1000 Ang^3
#
#
#
# Elastic Constant Matrix: (Units=GPa)
#
#
# Indices 1 2 3 4 5 6 
#
# 1 155.0692 39.0531 8.6003 4.9783 45.1891 -2.6888
# 2 39.0531 115.5662 18.9089 -0.5149 10.7948 1.0503
# 3 8.6003 18.9089 50.4937 1.4958 27.5627 3.7803
# 4 4.9783 -0.5149 1.4958 28.1641 -0.0771 12.5504
# 5 45.1891 10.7948 27.5627 -0.0771 38.4869 5.2193
# 6 -2.6888 1.0503 3.7803 12.5504 5.2193 33.7345
#
#
#
# Elastic Compliance Matrix: (Units=1/GPa)
#
#
# Indices 1 2 3 4 5 6 
#
# 1 0.015178 -0.004937 0.013838 -0.006445 -0.027231 0.006424
# 2 -0.004937 0.010828 -0.007871 0.002450 0.008686 -0.002104
# 3 0.013838 -0.007871 0.046470 -0.008146 -0.048236 0.006634
# 4 -0.006445 0.002450 -0.008146 0.045650 0.015388 -0.019041
# 5 -0.027231 0.008686 -0.048236 0.015388 0.092409 -0.017058
# 6 0.006424 -0.002104 0.006634 -0.019041 -0.017058 0.039201
#
#
# Mechanical properties :
#
#
# Convention : Reuss Voigt Hill
#
# Bulk Modulus (GPa) = 13.41607 50.47261 31.94434
# Shear Modulus (GPa) = 18.34725 37.04823 27.69774
#
# Velocity S-wave (km/s) = 2.87135 4.08022 3.52795
# Velocity P-wave (km/s) = 4.12572 6.69913 5.56327
#
# Compressibility (1/GPa) = 0.07453745
#
# Stress axis : x y z
#
# Youngs Moduli (GPa) = 65.88307 92.35488 21.51924
#
# Poissons Ratio (x) = 0.45594 -0.29779
# Poissons Ratio (y) = 0.32526 0.16937
# Poissons Ratio (z) = -0.91170 0.72689
#
# Static dielectric constant tensor:
#      x y z
#    x 4.352070 -0.279130 0.246170 
#    y -0.279130 4.685640 -0.012770 
#    z 0.246170 -0.012770 3.828660 
# 
# 
# High freq. dielectric constant tensor:
#      x y z
#    x 1.892300 -0.004290 0.020670 
#    y -0.004290 1.843170 -0.005510 
#    z 0.020670 -0.005510 1.865830 
# 
# From -- ./inp_files/571006.got.cif
#   From: 2010.06.25/outbox.cif.g09.slc.cpg/sg2_286_cif.got.tgz:571006.got - 2010.06.27 13:26:56.
