data_PCOD8040361
_publ_section_title
;
Structure prediction by ZEFSAII (Michael W. Deem and Ramdas Pophale) SiO2 
 PCOD8040361
Probable space group: P -1
;
_chemical_formula_sum "Si O2"
_cell_formula_units_Z 16
_cell_length_a 12.654904
_cell_length_b 13.938655
_cell_length_c 8.714879
_cell_angle_alpha 103.551697
_cell_angle_beta 39.614315
_cell_angle_gamma 126.093511
_cell_volume 716.562962
_symmetry_space_group_name_H-M "P -1"
_symmetry_group_IT_number 2
_symmetry_cell_setting 'triclinic'
loop_
_space_group_symop_operation_xyz
x,y,z
-x,-y,-z
loop_
_atom_site_type_symbol
_atom_site_label
_atom_site_fract_x
_atom_site_fract_y
_atom_site_fract_z
Si Si1 0.722293 0.542082 0.822809
Si Si2 0.994723 0.215105 0.191165
Si Si3 0.345838 0.681106 0.021560
Si Si4 0.344126 0.763624 0.385609
Si Si5 0.807859 0.817235 0.534879
Si Si6 0.253040 0.388885 0.677413
Si Si7 0.843874 0.900416 0.863087
Si Si8 0.092045 0.486959 0.689913
O O1 0.874015 0.682510 0.781343
O O2 0.664709 0.438397 0.973999
O O3 0.842114 0.543122 0.546662
O O4 0.500000 0.500000 0.000000
O O5 0.027475 0.111126 0.152412
O O6 0.740321 0.156622 0.456860
O O7 0.101959 0.280074 0.932930
O O8 0.294945 0.725192 0.246825
O O9 0.173348 0.626818 0.055971
O O10 0.592358 0.799341 0.727415
O O11 0.190166 0.635638 0.620286
O O12 0.600473 0.841863 0.167048
O O13 0.770884 0.690414 0.474801
O O14 0.831093 0.827679 0.697563
O O15 0.019949 0.946897 0.264395
O O16 0.500000 0.500000 0.500000
O O17 0.173051 0.467150 0.748073
#
# Coordination Sequence:
#
# PCOD8040361 Si02
#       8
#     2   2   2   2   2   2   2   2
#     4  11  18  33  62  89 122 162 206 263 314 375
#     4  12  22  39  61  92 127 167 210 253 319 380
#     4  10  18  36  62  93 122 158 209 271 319 352
#     4  10  20  38  64  97 124 159 215 262 311 376
#     4  10  23  45  65  92 124 163 217 261 309 371
#     4  12  26  40  61  97 130 167 203 257 331 384
#     4  10  23  45  70  89 121 173 218 264 301 361
#     4  11  20  37  60  93 126 159 211 266 314 367
#
# _framework density 22.328811999999999
#
# number of rings (size 3 to 8) (size 9 to 14) (size 15 to 20)
#    0.000    1.250    2.500    6.750    0.000    1.000 
#    4.500    2.500    0.000    0.000    0.000    0.000 
#    0.000    0.000    0.000    0.000    0.000    0.000 
#
# Total GULP energy -198303.257931 kJ/mol
# GULP energy per Si atom -12393.953621 kJ/mol
# Density = 2.227799 g / cm^3
# Si number density = 22.328812 Si / 1000 Ang^3
#
#
#
# Elastic Constant Matrix: (Units=GPa)
#
#
# Indices 1 2 3 4 5 6 
#
# 1 124.1625 14.7329 41.3042 -6.1116 -30.4614 -16.9007
# 2 14.7329 49.4664 14.8098 -3.9420 -9.5067 2.4504
# 3 41.3042 14.8098 98.0183 -14.3787 -22.0071 -8.8813
# 4 -6.1116 -3.9420 -14.3787 24.6099 -1.2904 -8.5326
# 5 -30.4614 -9.5067 -22.0071 -1.2904 35.4850 1.3030
# 6 -16.9007 2.4504 -8.8813 -8.5326 1.3030 13.7597
#
#
#
# Elastic Compliance Matrix: (Units=1/GPa)
#
#
# Indices 1 2 3 4 5 6 
#
# 1 0.015858 -0.002883 0.001641 0.015281 0.013340 0.029264
# 2 -0.002883 0.022773 -0.003298 -0.002967 0.001905 -0.011745
# 3 0.001641 -0.003298 0.017656 0.019452 0.011265 0.024996
# 4 0.015281 -0.002967 0.019452 0.085150 0.024460 0.082340
# 5 0.013340 0.001905 0.011265 0.024460 0.046768 0.034056
# 6 0.029264 -0.011745 0.024996 0.082340 0.034056 0.174680
#
#
# Mechanical properties :
#
#
# Convention : Reuss Voigt Hill
#
# Bulk Modulus (GPa) = 21.18243 45.92678 33.55460
# Shear Modulus (GPa) = 12.89654 28.15760 20.52707
#
# Velocity S-wave (km/s) = 2.40588 3.55497 3.03530
# Velocity P-wave (km/s) = 4.15029 6.12074 5.22917
#
# Compressibility (1/GPa) = 0.04720894
#
# Stress axis : x y z
#
# Youngs Moduli (GPa) = 63.05855 43.91156 56.63651
#
# Poissons Ratio (x) = 0.12658 -0.09295
# Poissons Ratio (y) = 0.18178 0.18679
# Poissons Ratio (z) = -0.10349 0.14482
#
# Static dielectric constant tensor:
#      x y z
#    x 4.123060 -0.072280 -0.270200 
#    y -0.072280 3.841970 0.020980 
#    z -0.270200 0.020980 4.203150 
# 
# 
# High freq. dielectric constant tensor:
#      x y z
#    x 1.878140 -0.001430 -0.012680 
#    y -0.001430 1.850500 0.003910 
#    z -0.012680 0.003910 1.889450 
# 
# From -- ./inp_files/273289.got.cif
#   From: 2010.06.25/outbox.cif.g09.slc.cpg/sg2_137_cif.got.tgz:273289.got - 2010.06.27 13:26:56.
