data_PCOD8040959
_publ_section_title
;
Structure prediction by ZEFSAII (Michael W. Deem and Ramdas Pophale) SiO2 
 PCOD8040959
Probable space group: P -1
;
_chemical_formula_sum "Si O2"
_cell_formula_units_Z 14
_cell_length_a 12.005142
_cell_length_b 11.053554
_cell_length_c 15.390370
_cell_angle_alpha 28.493204
_cell_angle_beta 141.694416
_cell_angle_gamma 133.187842
_cell_volume 603.820287
_symmetry_space_group_name_H-M "P -1"
_symmetry_group_IT_number 2
_symmetry_cell_setting 'triclinic'
loop_
_space_group_symop_operation_xyz
x,y,z
-x,-y,-z
loop_
_atom_site_type_symbol
_atom_site_label
_atom_site_fract_x
_atom_site_fract_y
_atom_site_fract_z
Si Si1 0.002466 0.358857 0.498550
Si Si2 0.521228 0.096088 0.172581
Si Si3 0.739229 0.920303 0.575822
Si Si4 0.300436 0.394218 0.088962
Si Si5 0.167418 0.176992 0.982440
Si Si6 0.322603 0.071797 0.793702
Si Si7 0.027701 0.770053 0.730894
O O1 0.206567 0.301534 0.622791
O O2 0.000000 0.500000 0.500000
O O3 0.882052 0.109165 0.587940
O O4 0.904992 0.540282 0.256043
O O5 0.596993 0.064692 0.336390
O O6 0.607451 0.887790 0.289494
O O7 0.559057 0.383513 0.982613
O O8 0.304002 0.073419 0.056291
O O9 0.640870 0.758546 0.691778
O O10 0.848211 0.723750 0.704361
O O11 0.290760 0.187149 0.137609
O O12 0.095146 0.509392 0.893462
O O13 0.000000 0.000000 0.000000
O O14 0.187563 0.838237 0.853107
O O15 0.500000 0.000000 0.000000
O O16 0.000000 0.000000 0.500000
#
# Coordination Sequence:
#
# PCOD8040959 Si02
#       7
#     2   2   2   2   2   2   2
#     4  11  23  43  70 101 146 187 228 290 356 416
#     4  11  24  47  70 101 143 180 238 301 341 418
#     4  11  22  40  73 104 134 185 238 285 352 420
#     4  11  22  40  72 101 135 182 238 284 348 421
#     4  12  26  46  66  99 144 188 231 292 364 421
#     4  10  21  40  71 100 139 185 229 288 356 408
#     4  10  18  40  68 101 139 182 227 289 348 414
#
# _framework density 23.185708000000002
#
# number of rings (size 3 to 8) (size 9 to 14) (size 15 to 20)
#    0.000    1.143    4.286    3.429    0.000    1.714 
#    7.714    0.714    0.000    0.000    0.000    0.000 
#    0.000    0.000    0.000    0.000    0.000    0.000 
#
# Total GULP energy -173442.959619 kJ/mol
# GULP energy per Si atom -12388.782830 kJ/mol
# Density = 2.313294 g / cm^3
# Si number density = 23.185708 Si / 1000 Ang^3
#
#
#
# Elastic Constant Matrix: (Units=GPa)
#
#
# Indices 1 2 3 4 5 6 
#
# 1 176.3722 54.1544 64.8074 -0.1458 15.1769 0.5323
# 2 54.1544 74.7554 28.1350 9.3909 -1.8286 -1.0077
# 3 64.8074 28.1350 110.4815 9.6837 -11.2267 6.8676
# 4 -0.1458 9.3909 9.6837 33.4336 -0.4019 -1.5793
# 5 15.1769 -1.8286 -11.2267 -0.4019 57.1566 -0.5723
# 6 0.5323 -1.0077 6.8676 -1.5793 -0.5723 42.8813
#
#
#
# Elastic Compliance Matrix: (Units=1/GPa)
#
#
# Indices 1 2 3 4 5 6 
#
# 1 0.009420 -0.005471 -0.004792 0.002950 -0.003591 0.000583
# 2 -0.005471 0.018334 -0.000875 -0.004875 0.001838 0.000484
# 3 -0.004792 -0.000875 0.012909 -0.003569 0.003734 -0.002110
# 4 0.002950 -0.004875 -0.003569 0.032384 -0.001397 0.001594
# 5 -0.003591 0.001838 0.003734 -0.001397 0.019229 -0.000305
# 6 0.000583 0.000484 -0.002110 0.001594 -0.000305 0.023717
#
#
# Mechanical properties :
#
#
# Convention : Reuss Voigt Hill
#
# Bulk Modulus (GPa) = 54.39283 72.86695 63.62989
# Shear Modulus (GPa) = 34.62618 40.99513 37.81066
#
# Velocity S-wave (km/s) = 3.86868 4.20946 4.04267
# Velocity P-wave (km/s) = 6.59289 7.42441 7.02097
#
# Compressibility (1/GPa) = 0.01838478
#
# Stress axis : x y z
#
# Youngs Moduli (GPa) = 106.15253 54.54391 77.46676
#
# Poissons Ratio (x) = 0.29843 0.37125
# Poissons Ratio (y) = 0.58079 0.06782
# Poissons Ratio (z) = 0.50872 0.04775
#
# Static dielectric constant tensor:
#      x y z
#    x 4.639360 -0.194460 0.151640 
#    y -0.194460 4.085380 -0.189470 
#    z 0.151640 -0.189470 4.700260 
# 
# 
# High freq. dielectric constant tensor:
#      x y z
#    x 1.940870 -0.015730 0.014510 
#    y -0.015730 1.884030 0.016700 
#    z 0.014510 0.016700 1.909410 
# 
# From -- ./inp_files/451057.got.cif
#   From: 2010.06.25/outbox.cif.g09.slc.cpg/sg2_226_cif.got.tgz:451057.got - 2010.06.27 13:26:56.
