data_PCOD8040289
_publ_section_title
;
Structure prediction by ZEFSAII (Michael W. Deem and Ramdas Pophale) SiO2 
 PCOD8040289
Probable space group: P -1
;
_chemical_formula_sum "Si O2"
_cell_formula_units_Z 16
_cell_length_a 28.860537
_cell_length_b 13.705007
_cell_length_c 10.981395
_cell_angle_alpha 159.207375
_cell_angle_beta 148.454216
_cell_angle_gamma 31.243518
_cell_volume 765.977914
_symmetry_space_group_name_H-M "P -1"
_symmetry_group_IT_number 2
_symmetry_cell_setting 'triclinic'
loop_
_space_group_symop_operation_xyz
x,y,z
-x,-y,-z
loop_
_atom_site_type_symbol
_atom_site_label
_atom_site_fract_x
_atom_site_fract_y
_atom_site_fract_z
Si Si1 0.740498 0.586753 0.365923
Si Si2 0.643134 0.717341 0.529630
Si Si3 0.324921 0.757013 0.656056
Si Si4 0.488511 0.251755 0.530966
Si Si5 0.423538 0.803416 0.708754
Si Si6 0.329972 0.920049 0.388306
Si Si7 0.192746 0.682690 0.449665
Si Si8 0.892511 0.643771 0.952011
O O1 0.648561 0.752142 0.436789
O O2 0.835777 0.545405 0.603299
O O3 0.734412 0.770739 0.444058
O O4 0.735538 0.273003 0.951277
O O5 0.539174 0.761642 0.402444
O O6 0.715615 0.394947 0.347119
O O7 0.691738 0.930172 0.954021
O O8 0.424184 0.551535 0.683934
O O9 0.334568 0.772189 0.549183
O O10 0.238797 0.638378 0.363924
O O11 0.595255 0.240553 0.737577
O O12 0.472930 0.987422 0.113514
O O13 0.500000 0.500000 0.500000
O O14 0.385013 0.964593 0.684159
O O15 0.131401 0.475501 0.109160
O O16 0.129225 0.013329 0.704100
O O17 0.000000 0.500000 0.000000
#
# Coordination Sequence:
#
# PCOD8040289 Si02
#       8
#     2   2   2   2   2   2   2   2
#     4  11  24  39  56  84 126 149 187 244 305 379
#     4   9  20  37  57  80 122 157 199 239 290 346
#     4  10  19  36  62  82 118 157 214 252 272 324
#     4  10  22  35  58  80 112 165 219 248 275 323
#     4  11  22  39  57  82 117 166 225 256 268 323
#     4  12  25  37  55  84 123 166 195 244 301 331
#     4  10  18  36  60  92 117 142 193 246 292 346
#     4  11  22  40  66  91 118 151 187 240 308 380
#
# _framework density 20.88833
#
# number of rings (size 3 to 8) (size 9 to 14) (size 15 to 20)
#    0.000    1.500    3.750    3.000    5.250    1.000 
#    0.000    0.000    0.000    0.000    0.000    5.250 
#    0.000    0.000    0.000    0.000    0.000    0.000 
#
# Total GULP energy -198272.571604 kJ/mol
# GULP energy per Si atom -12392.035725 kJ/mol
# Density = 2.084079 g / cm^3
# Si number density = 20.888330 Si / 1000 Ang^3
#
#
#
# Elastic Constant Matrix: (Units=GPa)
#
#
# Indices 1 2 3 4 5 6 
#
# 1 106.5628 32.2689 17.4822 4.0053 22.7703 12.0210
# 2 32.2689 79.5033 39.6762 13.8370 13.7012 4.0269
# 3 17.4822 39.6762 57.3611 16.4896 17.1050 4.7273
# 4 4.0053 13.8370 16.4896 31.9263 3.2793 7.0113
# 5 22.7703 13.7012 17.1050 3.2793 31.3395 -0.6675
# 6 12.0210 4.0269 4.7273 7.0113 -0.6675 31.4610
#
#
#
# Elastic Compliance Matrix: (Units=1/GPa)
#
#
# Indices 1 2 3 4 5 6 
#
# 1 0.012841 -0.004662 0.001873 0.001442 -0.008573 -0.005094
# 2 -0.004662 0.021042 -0.013084 -0.002293 0.001604 0.001599
# 3 0.001873 -0.013084 0.032571 -0.009658 -0.012451 -0.002047
# 4 0.001442 -0.002293 -0.009658 0.038642 0.001025 -0.007396
# 5 -0.008573 0.001604 -0.012451 0.001025 0.044245 0.005652
# 6 -0.005094 0.001599 -0.002047 -0.007396 0.005652 0.035603
#
#
# Mechanical properties :
#
#
# Convention : Reuss Voigt Hill
#
# Bulk Modulus (GPa) = 28.81269 46.92019 37.86644
# Shear Modulus (GPa) = 21.90484 29.21202 25.55843
#
# Velocity S-wave (km/s) = 3.24182 3.74369 3.50176
# Velocity P-wave (km/s) = 5.27600 6.41858 5.87513
#
# Compressibility (1/GPa) = 0.03470693
#
# Stress axis : x y z
#
# Youngs Moduli (GPa) = 77.87524 47.52445 30.70229
#
# Poissons Ratio (x) = 0.22156 -0.05751
# Poissons Ratio (y) = 0.36306 0.40172
# Poissons Ratio (z) = -0.14587 0.62183
#
# Static dielectric constant tensor:
#      x y z
#    x 4.330570 0.172020 0.233110 
#    y 0.172020 3.507860 0.340740 
#    z 0.233110 0.340740 3.693490 
# 
# 
# High freq. dielectric constant tensor:
#      x y z
#    x 1.823800 0.017320 0.023300 
#    y 0.017320 1.786590 0.037040 
#    z 0.023300 0.037040 1.800340 
# 
# From -- ./inp_files/440708.got.cif
#   From: 2010.06.25/outbox.cif.g09.slc.cpg/sg2_221_cif.got.tgz:440708.got - 2010.06.27 13:26:56.
