data_PCOD8040415
_publ_section_title
;
Structure prediction by ZEFSAII (Michael W. Deem and Ramdas Pophale) SiO2 
 PCOD8040415
Probable space group: P -1
;
_chemical_formula_sum "Si O2"
_cell_formula_units_Z 16
_cell_length_a 11.227889
_cell_length_b 17.323875
_cell_length_c 8.819805
_cell_angle_alpha 116.623255
_cell_angle_beta 96.639881
_cell_angle_gamma 137.408239
_cell_volume 702.204408
_symmetry_space_group_name_H-M "P -1"
_symmetry_group_IT_number 2
_symmetry_cell_setting 'triclinic'
loop_
_space_group_symop_operation_xyz
x,y,z
-x,-y,-z
loop_
_atom_site_type_symbol
_atom_site_label
_atom_site_fract_x
_atom_site_fract_y
_atom_site_fract_z
Si Si1 0.307552 0.825630 0.712684
Si Si2 0.845145 0.753135 0.772223
Si Si3 0.146016 0.446458 0.376619
Si Si4 0.864694 0.661916 0.191868
Si Si5 0.586365 0.846486 0.859656
Si Si6 0.503617 0.521928 0.777238
Si Si7 0.633942 0.977790 0.294261
Si Si8 0.920658 0.364431 0.956709
O O1 0.440807 0.818232 0.695391
O O2 0.033026 0.633918 0.584007
O O3 0.282161 0.869836 0.601706
O O4 0.500000 0.000000 0.000000
O O5 0.882097 0.674594 0.745439
O O6 0.688213 0.693711 0.839656
O O7 0.680397 0.658529 0.510128
O O8 0.116788 0.976095 0.992612
O O9 0.439592 0.661411 0.656504
O O10 0.057761 0.437804 0.202934
O O11 0.679987 0.532226 0.199234
O O12 0.995462 0.656446 0.162498
O O13 0.683261 0.577781 0.956380
O O14 0.100753 0.881594 0.454417
O O15 0.575242 0.877240 0.056034
O O16 0.389663 0.827798 0.236847
O O17 0.000000 0.500000 0.000000
#
# Coordination Sequence:
#
# PCOD8040415 Si02
#       8
#     2   2   2   2   2   2   2   2
#     4  10  18  36  65  96 131 174 221 281 339 394
#     4  11  21  45  70 100 128 178 242 288 333 391
#     4  12  22  40  67 104 141 174 226 287 341 412
#     4  11  23  44  69  95 134 190 226 274 349 411
#     4  11  22  36  68 102 138 168 225 287 346 396
#     4  10  23  41  75  93 128 186 242 282 330 404
#     4  11  22  41  66 101 131 183 227 276 347 416
#     4  12  27  41  62 102 148 179 221 274 348 430
#
# _framework density 22.785385999999999
#
# number of rings (size 3 to 8) (size 9 to 14) (size 15 to 20)
#    0.000    1.000    7.500    0.750    1.750    2.000 
#    0.000    2.500    5.500    3.000    0.000    0.000 
#    0.000    0.000    0.000    0.000    0.000    0.000 
#
# Total GULP energy -198280.025781 kJ/mol
# GULP energy per Si atom -12392.501611 kJ/mol
# Density = 2.273353 g / cm^3
# Si number density = 22.785386 Si / 1000 Ang^3
#
#
#
# Elastic Constant Matrix: (Units=GPa)
#
#
# Indices 1 2 3 4 5 6 
#
# 1 55.4573 44.1969 29.3848 0.7889 5.3505 19.3578
# 2 44.1969 161.9139 73.6040 16.2805 7.9572 36.0837
# 3 29.3848 73.6040 131.7263 18.1451 22.8007 7.2502
# 4 0.7889 16.2805 18.1451 46.4211 1.5352 10.0922
# 5 5.3505 7.9572 22.8007 1.5352 26.7166 1.5608
# 6 19.3578 36.0837 7.2502 10.0922 1.5608 46.0914
#
#
#
# Elastic Compliance Matrix: (Units=1/GPa)
#
#
# Indices 1 2 3 4 5 6 
#
# 1 0.025961 -0.004079 -0.003508 0.004133 -0.000759 -0.008038
# 2 -0.004079 0.010926 -0.005210 -0.000503 0.002388 -0.005992
# 3 -0.003508 -0.005210 0.013132 -0.003961 -0.008997 0.004658
# 4 0.004133 -0.000503 -0.003961 0.024475 0.001655 -0.006134
# 5 -0.000759 0.002388 -0.008997 0.001655 0.044571 -0.002007
# 6 -0.008038 -0.005992 0.004658 -0.006134 -0.002007 0.030441
#
#
# Mechanical properties :
#
#
# Convention : Reuss Voigt Hill
#
# Bulk Modulus (GPa) = 40.93894 71.49654 56.21774
# Shear Modulus (GPa) = 27.28637 37.30662 32.29649
#
# Velocity S-wave (km/s) = 3.46430 4.05075 3.76895
# Velocity P-wave (km/s) = 5.83164 7.30236 6.60804
#
# Compressibility (1/GPa) = 0.02442662
#
# Stress axis : x y z
#
# Youngs Moduli (GPa) = 38.51892 91.52185 76.15275
#
# Poissons Ratio (x) = 0.37332 0.26712
# Poissons Ratio (y) = 0.15712 0.39672
# Poissons Ratio (z) = 0.13511 0.47679
#
# Static dielectric constant tensor:
#      x y z
#    x 4.341190 0.072950 0.368370 
#    y 0.072950 4.309700 -0.014060 
#    z 0.368370 -0.014060 4.439520 
# 
# 
# High freq. dielectric constant tensor:
#      x y z
#    x 1.884230 0.021590 0.023800 
#    y 0.021590 1.897340 -0.000050 
#    z 0.023800 -0.000050 1.911980 
# 
# From -- ./inp_files/278160.got.cif
#   From: 2010.06.25/outbox.cif.g09.slc.cpg/sg2_140_cif.got.tgz:278160.got - 2010.06.27 13:26:56.
