data_PCOD8040084
_publ_section_title
;
Structure prediction by ZEFSAII (Michael W. Deem and Ramdas Pophale) SiO2 
 PCOD8040084
Probable space group: P -1
;
_chemical_formula_sum "Si O2"
_cell_formula_units_Z 16
_cell_length_a 20.321048
_cell_length_b 15.349526
_cell_length_c 10.915931
_cell_angle_alpha 140.973649
_cell_angle_beta 29.924638
_cell_angle_gamma 151.562272
_cell_volume 807.298928
_symmetry_space_group_name_H-M "P -1"
_symmetry_group_IT_number 2
_symmetry_cell_setting 'triclinic'
loop_
_space_group_symop_operation_xyz
x,y,z
-x,-y,-z
loop_
_atom_site_type_symbol
_atom_site_label
_atom_site_fract_x
_atom_site_fract_y
_atom_site_fract_z
Si Si1 0.328812 0.743457 0.959104
Si Si2 0.469533 0.478020 0.829491
Si Si3 0.494708 0.998585 0.651359
Si Si4 0.227384 0.365657 0.314907
Si Si5 0.802460 0.395886 0.221705
Si Si6 0.165875 0.925564 0.418268
Si Si7 0.505642 0.752520 0.907428
Si Si8 0.355744 0.096162 0.520813
O O1 0.258756 0.589454 0.797666
O O2 0.347311 0.680061 0.990149
O O3 0.525781 0.914853 0.779906
O O4 0.196715 0.781773 0.213978
O O5 0.647598 0.628798 0.784612
O O6 0.479531 0.576502 0.798622
O O7 0.442827 0.301033 0.640098
O O8 0.303235 0.407982 0.102417
O O9 0.307270 0.818054 0.806215
O O10 0.650489 0.004046 0.457107
O O11 0.500000 0.000000 0.500000
O O12 0.517923 0.169716 0.849046
O O13 0.230697 0.526260 0.526956
O O14 0.028294 0.172311 0.424723
O O15 0.000000 0.500000 0.000000
O O16 0.303691 0.100197 0.300467
O O17 0.178651 0.990238 0.611015
#
# Coordination Sequence:
#
# PCOD8040084 Si02
#       8
#     2   2   2   2   2   2   2   2
#     4  10  18  35  63  90 110 149 201 250 290 337
#     4  11  25  40  59  84 130 161 196 229 307 369
#     4  11  20  34  61  90 113 154 205 238 287 351
#     4  11  23  40  59  88 122 166 189 242 303 358
#     4  11  19  36  63  88 116 151 199 248 297 341
#     4  11  20  39  67  87 118 151 208 253 290 338
#     4  11  21  38  62  91 117 152 201 254 289 349
#     4  10  20  40  63  88 117 164 194 240 301 363
#
# _framework density 19.819178000000001
#
# number of rings (size 3 to 8) (size 9 to 14) (size 15 to 20)
#    0.000    1.250    7.500    1.500    1.750    3.000 
#    0.000    1.875    0.000    0.000    0.000    0.000 
#    0.000    0.000    0.000    0.000    0.000    0.000 
#
# Total GULP energy -198242.117270 kJ/mol
# GULP energy per Si atom -12390.132329 kJ/mol
# Density = 1.977407 g / cm^3
# Si number density = 19.819178 Si / 1000 Ang^3
#
#
#
# Elastic Constant Matrix: (Units=GPa)
#
#
# Indices 1 2 3 4 5 6 
#
# 1 129.6544 35.7626 34.2331 -3.0918 14.3756 -0.3671
# 2 35.7626 57.2472 23.6383 -0.1091 -2.3914 4.0633
# 3 34.2331 23.6383 81.3633 -3.9832 5.5424 2.2319
# 4 -3.0918 -0.1091 -3.9832 25.1868 5.3278 -4.6360
# 5 14.3756 -2.3914 5.5424 5.3278 29.1505 3.5229
# 6 -0.3671 4.0633 2.2319 -4.6360 3.5229 37.9924
#
#
#
# Elastic Compliance Matrix: (Units=1/GPa)
#
#
# Indices 1 2 3 4 5 6 
#
# 1 0.010740 -0.006157 -0.002242 0.002543 -0.006053 0.001765
# 2 -0.006157 0.023863 -0.004897 -0.003530 0.006981 -0.003402
# 3 -0.002242 -0.004897 0.014962 0.002667 -0.002652 0.000194
# 4 0.002543 -0.003530 0.002667 0.043942 -0.010881 0.006616
# 5 -0.006053 0.006981 -0.002652 -0.010881 0.041055 -0.005784
# 6 0.001765 -0.003402 0.000194 0.006616 -0.005784 0.028034
#
#
# Mechanical properties :
#
#
# Convention : Reuss Voigt Hill
#
# Bulk Modulus (GPa) = 43.52875 50.61476 47.07176
# Shear Modulus (GPa) = 25.40074 30.10801 27.75437
#
# Velocity S-wave (km/s) = 3.58386 3.90184 3.74622
# Velocity P-wave (km/s) = 6.25588 6.77442 6.52031
#
# Compressibility (1/GPa) = 0.02297332
#
# Stress axis : x y z
#
# Youngs Moduli (GPa) = 93.11245 41.90603 66.83443
#
# Poissons Ratio (x) = 0.25801 0.14981
# Poissons Ratio (y) = 0.57328 0.32731
# Poissons Ratio (z) = 0.20871 0.20523
#
# Static dielectric constant tensor:
#      x y z
#    x 4.045930 0.383080 0.064850 
#    y 0.383080 3.561650 0.394280 
#    z 0.064850 0.394280 4.138500 
# 
# 
# High freq. dielectric constant tensor:
#      x y z
#    x 1.788710 0.025840 0.011590 
#    y 0.025840 1.738860 0.013360 
#    z 0.011590 0.013360 1.765560 
# 
# From -- ./inp_files/471762.got.cif
#   From: 2010.06.25/outbox.cif.g09.slc.cpg/sg2_236_cif.got.tgz:471762.got - 2010.06.27 13:26:56.
