data_PCOD8040448
_publ_section_title
;
Structure prediction by ZEFSAII (Michael W. Deem and Ramdas Pophale) SiO2 
 PCOD8040448
Probable space group: P -1
;
_chemical_formula_sum "Si O2"
_cell_formula_units_Z 14
_cell_length_a 9.707734
_cell_length_b 14.080406
_cell_length_c 11.938532
_cell_angle_alpha 31.015990
_cell_angle_beta 121.915603
_cell_angle_gamma 130.182611
_cell_volume 641.186622
_symmetry_space_group_name_H-M "P -1"
_symmetry_group_IT_number 2
_symmetry_cell_setting 'triclinic'
loop_
_space_group_symop_operation_xyz
x,y,z
-x,-y,-z
loop_
_atom_site_type_symbol
_atom_site_label
_atom_site_fract_x
_atom_site_fract_y
_atom_site_fract_z
Si Si1 0.360100 0.155714 0.248962
Si Si2 0.206642 0.587569 0.530603
Si Si3 0.454795 0.048119 0.160097
Si Si4 0.794309 0.075387 0.383691
Si Si5 0.524189 0.561823 0.318354
Si Si6 0.724684 0.500206 0.118321
Si Si7 0.816912 0.659123 0.763780
O O1 0.415302 0.105417 0.206520
O O2 0.516378 0.336580 0.204144
O O3 0.288066 0.946020 0.504066
O O4 0.226747 0.263263 0.064916
O O5 0.312449 0.466334 0.643699
O O6 0.186901 0.575973 0.668653
O O7 0.000000 0.500000 0.500000
O O8 0.316128 0.819236 0.298998
O O9 0.662408 0.079914 0.223314
O O10 0.431065 0.197839 0.907712
O O11 0.982023 0.280244 0.256810
O O12 0.816218 0.867366 0.594405
O O13 0.500000 0.500000 0.500000
O O14 0.334841 0.442153 0.293128
O O15 0.788157 0.501828 0.014595
#
# Coordination Sequence:
#
# PCOD8040448 Si02
#       7
#     2   2   2   2   2   2   2
#     4  10  18  36  71 100 130 172 218 290 337 403
#     4  12  27  47  69 101 139 184 238 285 341 418
#     4  12  23  43  73  95 133 184 236 279 349 412
#     4  10  21  36  69 106 132 172 222 282 348 408
#     4  12  27  49  67  97 146 185 226 288 348 413
#     4  10  18  41  71  94 138 169 223 289 341 385
#     4  10  21  43  67 101 140 172 221 287 344 401
#
# _framework density 21.834517999999999
#
# number of rings (size 3 to 8) (size 9 to 14) (size 15 to 20)
#    0.000    1.143    5.714    1.286    0.000    4.000 
#    7.714    0.000    0.000    0.000    0.000    0.000 
#    0.000    0.000    0.000    0.000    0.000    0.000 
#
# Total GULP energy -173471.462652 kJ/mol
# GULP energy per Si atom -12390.818761 kJ/mol
# Density = 2.178482 g / cm^3
# Si number density = 21.834518 Si / 1000 Ang^3
#
#
#
# Elastic Constant Matrix: (Units=GPa)
#
#
# Indices 1 2 3 4 5 6 
#
# 1 79.9307 48.1191 48.3288 7.1362 -18.3613 24.9321
# 2 48.1191 105.7770 49.2681 13.6738 -13.4108 28.3201
# 3 48.3288 49.2681 159.2641 16.6285 -23.6389 15.9002
# 4 7.1362 13.6738 16.6285 31.2478 -7.2005 -9.5701
# 5 -18.3613 -13.4108 -23.6389 -7.2005 34.9751 -0.0607
# 6 24.9321 28.3201 15.9002 -9.5701 -0.0607 39.8726
#
#
#
# Elastic Compliance Matrix: (Units=1/GPa)
#
#
# Indices 1 2 3 4 5 6 
#
# 1 0.022163 -0.004786 -0.002877 -0.002819 0.007258 -0.009977
# 2 -0.004786 0.016108 -0.001602 -0.007853 0.000947 -0.009692
# 3 -0.002877 -0.001602 0.008505 -0.002811 0.003043 -0.001125
# 4 -0.002819 -0.007853 -0.002811 0.044032 0.002707 0.019034
# 5 0.007258 0.000947 0.003043 0.002707 0.035369 -0.005721
# 6 -0.009977 -0.009692 -0.001125 0.019034 -0.005721 0.043211
#
#
# Mechanical properties :
#
#
# Convention : Reuss Voigt Hill
#
# Bulk Modulus (GPa) = 35.40553 70.71152 53.05852
# Shear Modulus (GPa) = 25.33789 34.50281 29.92035
#
# Velocity S-wave (km/s) = 3.41023 3.97948 3.70580
# Velocity P-wave (km/s) = 5.63532 7.31919 6.53174
#
# Compressibility (1/GPa) = 0.02824418
#
# Stress axis : x y z
#
# Youngs Moduli (GPa) = 45.12096 62.08199 117.57778
#
# Poissons Ratio (x) = 0.29714 0.33828
# Poissons Ratio (y) = 0.21596 0.18840
# Poissons Ratio (z) = 0.12982 0.09948
#
# Static dielectric constant tensor:
#      x y z
#    x 4.059160 0.112270 0.015600 
#    y 0.112270 3.754470 -0.156250 
#    z 0.015600 -0.156250 4.634450 
# 
# 
# High freq. dielectric constant tensor:
#      x y z
#    x 1.852900 -0.000980 0.004020 
#    y -0.000980 1.829830 -0.008830 
#    z 0.004020 -0.008830 1.884160 
# 
# From -- ./inp_files/398300.got.cif
#   From: 2010.06.25/outbox.cif.g09.slc.cpg/sg2_200_cif.got.tgz:398300.got - 2010.06.27 13:26:56.
