data_PCOD8040142
_publ_section_title
;
Structure prediction by ZEFSAII (Michael W. Deem and Ramdas Pophale) SiO2 
 PCOD8040142
Probable space group: P -1
;
_chemical_formula_sum "Si O2"
_cell_formula_units_Z 16
_cell_length_a 8.574585
_cell_length_b 14.163024
_cell_length_c 9.066080
_cell_angle_alpha 52.218840
_cell_angle_beta 102.175171
_cell_angle_gamma 72.503797
_cell_volume 706.795484
_symmetry_space_group_name_H-M "P -1"
_symmetry_group_IT_number 2
_symmetry_cell_setting 'triclinic'
loop_
_space_group_symop_operation_xyz
x,y,z
-x,-y,-z
loop_
_atom_site_type_symbol
_atom_site_label
_atom_site_fract_x
_atom_site_fract_y
_atom_site_fract_z
Si Si1 0.449107 0.280545 0.950791
Si Si2 0.025807 0.365428 0.219905
Si Si3 0.315620 0.149246 0.274917
Si Si4 0.345243 0.585373 0.010270
Si Si5 0.940947 0.840644 0.043548
Si Si6 0.717978 0.117224 0.922470
Si Si7 0.873809 0.409156 0.463449
Si Si8 0.537950 0.396700 0.468451
O O1 0.374981 0.245307 0.113316
O O2 0.608812 0.309621 0.002376
O O3 0.576010 0.140096 0.006821
O O4 0.263341 0.417520 0.698992
O O5 0.865572 0.335042 0.172204
O O6 0.014080 0.380765 0.380817
O O7 0.221822 0.223595 0.341061
O O8 0.000000 0.500000 0.000000
O O9 0.500000 0.000000 0.500000
O O10 0.171716 0.135590 0.153179
O O11 0.500000 0.500000 0.000000
O O12 0.359252 0.476380 0.244433
O O13 0.117151 0.855181 0.026933
O O14 0.005290 0.686229 0.277207
O O15 0.802526 0.962166 0.018713
O O16 0.573198 0.245005 0.660372
O O17 0.725250 0.363547 0.444323
O O18 0.500000 0.500000 0.500000
#
# Coordination Sequence:
#
# PCOD8040142 Si02
#       8
#     2   2   2   2   2   2   2   2
#     4  11  22  43  68 102 132 171 228 278 334 406
#     4  12  24  45  66  99 139 178 222 281 337 404
#     4  12  29  48  63  95 144 182 228 274 345 404
#     4  11  20  38  67 102 133 170 220 280 337 393
#     4  10  25  45  69  97 134 178 228 281 335 404
#     4  10  21  42  70 101 129 174 230 274 341 396
#     4  10  21  42  66 101 128 168 224 274 332 398
#     4  10  18  35  67 100 133 163 218 277 327 400
#
# _framework density 22.637383
#
# number of rings (size 3 to 8) (size 9 to 14) (size 15 to 20)
#    0.000    1.250    6.250    0.750    3.500    3.000 
#    4.500    1.250    0.000    0.000    0.000    0.000 
#    0.000    0.000    0.000    0.000    0.000    0.000 
#
# Total GULP energy -198235.805423 kJ/mol
# GULP energy per Si atom -12389.737839 kJ/mol
# Density = 2.258586 g / cm^3
# Si number density = 22.637383 Si / 1000 Ang^3
#
#
#
# Elastic Constant Matrix: (Units=GPa)
#
#
# Indices 1 2 3 4 5 6 
#
# 1 56.8054 28.4224 13.6275 -1.8563 -6.7123 -14.8382
# 2 28.4224 124.5187 21.5611 -9.4139 5.8413 -39.0287
# 3 13.6275 21.5611 95.9714 -8.7926 4.9829 -3.4595
# 4 -1.8563 -9.4139 -8.7926 36.9451 -4.0699 -1.7202
# 5 -6.7123 5.8413 4.9829 -4.0699 25.1871 5.4748
# 6 -14.8382 -39.0287 -3.4595 -1.7202 5.4748 42.5778
#
#
#
# Elastic Compliance Matrix: (Units=1/GPa)
#
#
# Indices 1 2 3 4 5 6 
#
# 1 0.021690 -0.003880 -0.002406 0.000391 0.006572 0.002978
# 2 -0.003880 0.013279 -0.001459 0.002730 -0.005899 0.011570
# 3 -0.002406 -0.001459 0.011340 0.001939 -0.002034 -0.000915
# 4 0.000391 0.002730 0.001939 0.028736 0.002953 0.003578
# 5 0.006572 -0.005899 -0.002034 0.002953 0.045666 -0.009034
# 6 0.002978 0.011570 -0.000915 0.003578 -0.009034 0.036362
#
#
# Mechanical properties :
#
#
# Convention : Reuss Voigt Hill
#
# Bulk Modulus (GPa) = 32.44813 44.94637 38.69725
# Shear Modulus (GPa) = 27.34734 35.18762 31.26748
#
# Velocity S-wave (km/s) = 3.47949 3.94687 3.72052
# Velocity P-wave (km/s) = 5.52335 6.37718 5.96556
#
# Compressibility (1/GPa) = 0.03081842
#
# Stress axis : x y z
#
# Youngs Moduli (GPa) = 46.10521 75.30880 88.18708
#
# Poissons Ratio (x) = 0.29216 0.21220
# Poissons Ratio (y) = 0.17887 0.12865
# Poissons Ratio (z) = 0.11094 0.10987
#
# Static dielectric constant tensor:
#      x y z
#    x -1.452790 -1.747560 0.526560 
#    y -1.747560 3.733870 0.169320 
#    z 0.526560 0.169320 4.237520 
# 
# 
# High freq. dielectric constant tensor:
#      x y z
#    x 1.887240 -0.026370 -0.003650 
#    y -0.026370 1.890320 0.001910 
#    z -0.003650 0.001910 1.885730 
# 
# From -- ./inp_files/214423.got.cif
#   From: 2010.06.25/outbox.cif.g09.slc.cpg/sg2_108_cif.got.tgz:214423.got - 2010.06.27 13:26:56.
