data_PCOD8040212
_publ_section_title
;
Structure prediction by ZEFSAII (Michael W. Deem and Ramdas Pophale) SiO2 
 PCOD8040212
Probable space group: P -1
;
_chemical_formula_sum "Si O2"
_cell_formula_units_Z 16
_cell_length_a 18.065929
_cell_length_b 11.022469
_cell_length_c 9.278547
_cell_angle_alpha 45.204248
_cell_angle_beta 102.295247
_cell_angle_gamma 133.694630
_cell_volume 801.743660
_symmetry_space_group_name_H-M "P -1"
_symmetry_group_IT_number 2
_symmetry_cell_setting 'triclinic'
loop_
_space_group_symop_operation_xyz
x,y,z
-x,-y,-z
loop_
_atom_site_type_symbol
_atom_site_label
_atom_site_fract_x
_atom_site_fract_y
_atom_site_fract_z
Si Si1 0.962585 0.671971 0.236773
Si Si2 0.266322 0.385145 0.415490
Si Si3 0.581679 0.208273 0.083100
Si Si4 0.517339 0.321143 0.556561
Si Si5 0.776384 0.769773 0.777059
Si Si6 0.804224 0.096686 0.740432
Si Si7 0.977375 0.948630 0.262999
Si Si8 0.422592 0.228378 0.898789
O O1 0.855353 0.346000 0.461972
O O2 0.929008 0.756777 0.268052
O O3 0.090011 0.809911 0.207923
O O4 0.973446 0.779897 0.994855
O O5 0.341173 0.432656 0.537581
O O6 0.247429 0.220018 0.409928
O O7 0.136854 0.231895 0.530135
O O8 0.353315 0.691045 0.133029
O O9 0.518541 0.917986 0.340177
O O10 0.685835 0.448299 0.041658
O O11 0.487236 0.199563 0.046795
O O12 0.425722 0.185817 0.765897
O O13 0.510912 0.467540 0.318708
O O14 0.742970 0.863010 0.794036
O O15 0.916664 0.964829 0.684080
O O16 0.712401 0.996812 0.908123
#
# Coordination Sequence:
#
# PCOD8040212 Si02
#       8
#     2   2   2   2   2   2   2   2
#     4   9  21  34  56  82 106 139 189 233 260 342
#     4   9  18  33  60  77 112 143 177 236 272 322
#     4   9  21  37  55  84 113 144 184 231 264 330
#     4  10  20  37  57  91 106 138 202 224 266 335
#     4   9  21  36  51  80 118 142 182 224 270 343
#     4  10  20  38  53  77 115 145 178 227 288 317
#     4  10  18  36  58  83 103 143 187 224 283 320
#     4  10  20  35  61  80 111 147 182 235 274 317
#
# _framework density 19.956502
#
# number of rings (size 3 to 8) (size 9 to 14) (size 15 to 20)
#    0.750    1.750    0.000    2.625    3.500    0.500 
#    2.250    1.250    0.000    0.000    0.000    0.000 
#    0.000    0.000    0.000    0.000    0.000    0.000 
#
# Total GULP energy -198209.579069 kJ/mol
# GULP energy per Si atom -12388.098692 kJ/mol
# Density = 1.991108 g / cm^3
# Si number density = 19.956502 Si / 1000 Ang^3
#
#
#
# Elastic Constant Matrix: (Units=GPa)
#
#
# Indices 1 2 3 4 5 6 
#
# 1 91.4729 17.2813 51.2393 -11.3278 -5.3636 -5.9306
# 2 17.2813 53.7682 20.9805 -21.6739 1.3838 -7.7173
# 3 51.2393 20.9805 92.0620 -16.8785 10.4367 -5.0029
# 4 -11.3278 -21.6739 -16.8785 21.3810 -5.9086 4.1651
# 5 -5.3636 1.3838 10.4367 -5.9086 43.9342 -2.5609
# 6 -5.9306 -7.7173 -5.0029 4.1651 -2.5609 10.2770
#
#
#
# Elastic Compliance Matrix: (Units=1/GPa)
#
#
# Indices 1 2 3 4 5 6 
#
# 1 0.017114 -0.000673 -0.009395 0.001231 0.004828 0.005502
# 2 -0.000673 0.033713 -0.001325 0.031468 0.004135 0.012559
# 3 -0.009395 -0.001325 0.018112 0.007026 -0.004555 -0.001582
# 4 0.001231 0.031468 0.007026 0.088510 0.009052 -0.005855
# 5 0.004828 0.004135 -0.004555 0.009052 0.025896 0.006458
# 6 0.005502 0.012559 -0.001582 -0.005855 0.006458 0.113122
#
#
# Mechanical properties :
#
#
# Convention : Reuss Voigt Hill
#
# Bulk Modulus (GPa) = 21.66734 46.25613 33.96174
# Shear Modulus (GPa) = 14.94155 24.97191 19.95673
#
# Velocity S-wave (km/s) = 2.73922 3.54123 3.16573
# Velocity P-wave (km/s) = 4.57004 6.32054 5.51518
#
# Compressibility (1/GPa) = 0.04615241
#
# Stress axis : x y z
#
# Youngs Moduli (GPa) = 58.43147 29.66248 55.21320
#
# Poissons Ratio (x) = 0.01996 0.51870
# Poissons Ratio (y) = 0.03933 0.07318
# Poissons Ratio (z) = 0.54894 0.03931
#
# Static dielectric constant tensor:
#      x y z
#    x 3.605700 -0.008230 0.068580 
#    y -0.008230 3.330190 -0.142090 
#    z 0.068580 -0.142090 3.573020 
# 
# 
# High freq. dielectric constant tensor:
#      x y z
#    x 1.781410 0.002930 -0.004720 
#    y 0.002930 1.747190 -0.012220 
#    z -0.004720 -0.012220 1.768250 
# 
# From -- ./inp_files/284943.got.cif
#   From: 2010.06.25/outbox.cif.g09.slc.cpg/sg2_143_cif.got.tgz:284943.got - 2010.06.27 13:26:56.
