data_PCOD8040727
_publ_section_title
;
Structure prediction by ZEFSAII (Michael W. Deem and Ramdas Pophale) SiO2 
 PCOD8040727
Probable space group: P -1
;
_chemical_formula_sum "Si O2"
_cell_formula_units_Z 16
_cell_length_a 12.578077
_cell_length_b 9.015663
_cell_length_c 12.184319
_cell_angle_alpha 129.854090
_cell_angle_beta 128.500103
_cell_angle_gamma 60.453932
_cell_volume 819.845859
_symmetry_space_group_name_H-M "P -1"
_symmetry_group_IT_number 2
_symmetry_cell_setting 'triclinic'
loop_
_space_group_symop_operation_xyz
x,y,z
-x,-y,-z
loop_
_atom_site_type_symbol
_atom_site_label
_atom_site_fract_x
_atom_site_fract_y
_atom_site_fract_z
Si Si1 0.248924 0.742928 0.875658
Si Si2 0.533553 0.717042 0.101741
Si Si3 0.042472 0.090452 0.957992
Si Si4 0.786822 0.268943 0.738175
Si Si5 0.085533 0.495589 0.246442
Si Si6 0.629845 0.924364 0.470699
Si Si7 0.848538 0.547989 0.481715
Si Si8 0.773533 0.510632 0.046184
O O1 0.247506 0.585924 0.703854
O O2 0.216767 0.653781 0.930809
O O3 0.137822 0.931574 0.871531
O O4 0.394834 0.823702 0.006118
O O5 0.563653 0.830766 0.282250
O O6 0.665959 0.701991 0.100589
O O7 0.500000 0.500000 0.000000
O O8 0.914715 0.150611 0.826896
O O9 0.120374 0.272285 0.121954
O O10 0.000000 0.000000 0.000000
O O11 0.828010 0.371017 0.703525
O O12 0.685882 0.121485 0.565786
O O13 0.718335 0.430029 0.858953
O O14 0.129618 0.514333 0.408612
O O15 0.923491 0.572941 0.159688
O O16 0.761283 0.769334 0.526936
O O17 0.500000 0.000000 0.500000
O O18 0.000000 0.500000 0.500000
#
# Coordination Sequence:
#
# PCOD8040727 Si02
#       8
#     2   2   2   2   2   2   2   2
#     4  11  20  35  64  94 119 156 215 268 300 367
#     4  10  20  37  59  92 121 158 204 263 319 358
#     4  11  19  37  66  95 119 159 217 259 306 374
#     4  11  24  39  62  96 128 164 205 263 331 370
#     4  11  23  39  63  92 132 166 202 267 322 375
#     4  12  24  39  68  97 125 164 218 269 309 385
#     4  12  22  41  65  96 126 162 217 264 314 372
#     4  10  18  38  62  87 125 161 207 254 314 370
#
# _framework density 19.515864000000001
#
# number of rings (size 3 to 8) (size 9 to 14) (size 15 to 20)
#    0.000    1.000    6.250    4.500    1.750    0.000 
#    0.000    7.500    0.000    3.750    0.000    0.000 
#    0.000    0.000    0.000    0.000    0.000    0.000 
#
# Total GULP energy -198277.466261 kJ/mol
# GULP energy per Si atom -12392.341641 kJ/mol
# Density = 1.947145 g / cm^3
# Si number density = 19.515864 Si / 1000 Ang^3
#
#
#
# Elastic Constant Matrix: (Units=GPa)
#
#
# Indices 1 2 3 4 5 6 
#
# 1 115.6773 56.4029 60.4652 17.2501 -9.7324 -9.9285
# 2 56.4029 68.6961 33.8983 7.9682 2.7193 0.8246
# 3 60.4652 33.8983 154.6641 7.8070 -8.2259 16.8816
# 4 17.2501 7.9682 7.8070 25.1996 2.2611 0.2154
# 5 -9.7324 2.7193 -8.2259 2.2611 28.1064 3.9393
# 6 -9.9285 0.8246 16.8816 0.2154 3.9393 39.7406
#
#
#
# Elastic Compliance Matrix: (Units=1/GPa)
#
#
# Indices 1 2 3 4 5 6 
#
# 1 0.020252 -0.013544 -0.004900 -0.008717 0.006636 0.006812
# 2 -0.013544 0.026054 -0.000561 0.001870 -0.007106 -0.002992
# 3 -0.004900 -0.000561 0.009141 0.000590 0.001724 -0.005270
# 4 -0.008717 0.001870 0.000590 0.045467 -0.006393 -0.002080
# 5 0.006636 -0.007106 0.001724 -0.006393 0.039984 -0.002856
# 6 0.006812 -0.002992 -0.005270 -0.002080 -0.002856 0.029460
#
#
# Mechanical properties :
#
#
# Convention : Reuss Voigt Hill
#
# Bulk Modulus (GPa) = 57.34502 71.17448 64.25975
# Shear Modulus (GPa) = 23.34470 31.16072 27.25271
#
# Velocity S-wave (km/s) = 3.46235 4.00019 3.74095
# Velocity P-wave (km/s) = 6.74028 7.60819 7.18735
#
# Compressibility (1/GPa) = 0.01743831
#
# Stress axis : x y z
#
# Youngs Moduli (GPa) = 49.37684 38.38137 109.39383
#
# Poissons Ratio (x) = 0.51983 0.53600
# Poissons Ratio (y) = 0.66875 0.06140
# Poissons Ratio (z) = 0.24193 0.02154
#
# Static dielectric constant tensor:
#      x y z
#    x 4.065100 -0.324260 -0.049770 
#    y -0.324260 3.108920 0.142160 
#    z -0.049770 0.142160 3.763240 
# 
# 
# High freq. dielectric constant tensor:
#      x y z
#    x 1.761210 -0.026430 -0.005680 
#    y -0.026430 1.733820 0.000060 
#    z -0.005680 0.000060 1.774000 
# 
# From -- ./inp_files/416376.got.cif
#   From: 2010.06.25/outbox.cif.g09.slc.cpg/sg2_209_cif.got.tgz:416376.got - 2010.06.27 13:26:56.
