data_PCOD8040261
_publ_section_title
;
Structure prediction by ZEFSAII (Michael W. Deem and Ramdas Pophale) SiO2 
 PCOD8040261
Probable space group: P -1
;
_chemical_formula_sum "Si O2"
_cell_formula_units_Z 16
_cell_length_a 12.244817
_cell_length_b 23.183691
_cell_length_c 9.856041
_cell_angle_alpha 34.624131
_cell_angle_beta 144.357117
_cell_angle_gamma 145.769492
_cell_volume 814.057399
_symmetry_space_group_name_H-M "P -1"
_symmetry_group_IT_number 2
_symmetry_cell_setting 'triclinic'
loop_
_space_group_symop_operation_xyz
x,y,z
-x,-y,-z
loop_
_atom_site_type_symbol
_atom_site_label
_atom_site_fract_x
_atom_site_fract_y
_atom_site_fract_z
Si Si1 0.802553 0.514730 0.230963
Si Si2 0.678726 0.937199 0.682529
Si Si3 0.069365 0.070480 0.293895
Si Si4 0.225014 0.909468 0.264885
Si Si5 0.562983 0.674710 0.104849
Si Si6 0.350740 0.328823 0.106655
Si Si7 0.948541 0.652482 0.583406
Si Si8 0.102758 0.497998 0.945017
O O1 0.583795 0.399869 0.274446
O O2 0.000000 0.500000 0.500000
O O3 0.810862 0.627503 0.087192
O O4 0.825643 0.536873 0.051690
O O5 0.826072 0.978664 0.616012
O O6 0.472418 0.950149 0.409796
O O7 0.800609 0.016213 0.782514
O O8 0.619500 0.807752 0.915744
O O9 0.248487 0.193534 0.292546
O O10 0.000000 0.000000 0.500000
O O11 0.877275 0.077250 0.005610
O O12 0.112545 0.777873 0.453576
O O13 0.318821 0.592994 0.056441
O O14 0.722783 0.645709 0.409044
O O15 0.620336 0.647319 0.068300
O O16 0.019963 0.616723 0.865419
O O17 0.952428 0.559864 0.656234
#
# Coordination Sequence:
#
# PCOD8040261 Si02
#       8
#     2   2   2   2   2   2   2   2
#     4  10  20  36  58  80 117 155 186 236 290 349
#     4  10  22  39  63  92 116 158 207 245 308 360
#     4  11  24  41  64  89 120 160 206 252 303 362
#     4  11  22  40  65  86 123 161 197 255 303 358
#     4  10  18  36  60  82 114 148 187 242 291 349
#     4   9  20  36  56  85 108 148 199 228 286 358
#     4  11  20  34  58  84 113 150 190 233 291 346
#     4  10  22  34  53  89 117 147 192 234 286 354
#
# _framework density 19.654634000000001
#
# number of rings (size 3 to 8) (size 9 to 14) (size 15 to 20)
#    0.000    1.750    3.750    1.500    0.000    1.500 
#    0.000    2.500    0.000    0.000    0.000    0.000 
#    0.000    0.000    0.000    0.000    0.000    0.000 
#
# Total GULP energy -198251.030654 kJ/mol
# GULP energy per Si atom -12390.689416 kJ/mol
# Density = 1.960990 g / cm^3
# Si number density = 19.654634 Si / 1000 Ang^3
#
#
#
# Elastic Constant Matrix: (Units=GPa)
#
#
# Indices 1 2 3 4 5 6 
#
# 1 105.4867 29.7151 52.4562 -14.0336 2.3446 -8.5243
# 2 29.7151 62.6136 42.0560 -4.9244 -10.5766 -13.0835
# 3 52.4562 42.0560 107.6686 -8.4129 0.1612 2.0605
# 4 -14.0336 -4.9244 -8.4129 19.7335 5.8543 6.8694
# 5 2.3446 -10.5766 0.1612 5.8543 39.3407 -6.4905
# 6 -8.5243 -13.0835 2.0605 6.8694 -6.4905 30.3476
#
#
#
# Elastic Compliance Matrix: (Units=1/GPa)
#
#
# Indices 1 2 3 4 5 6 
#
# 1 0.013943 -0.002882 -0.005090 0.007525 -0.002579 0.000765
# 2 -0.002882 0.030164 -0.011469 -0.009364 0.012658 0.017800
# 3 -0.005090 -0.011469 0.016898 0.005784 -0.005356 -0.009976
# 4 0.007525 -0.009364 0.005784 0.068574 -0.016727 -0.021415
# 5 -0.002579 0.012658 -0.005356 -0.016727 0.034158 0.016188
# 6 0.000765 0.017800 -0.009976 -0.021415 0.016188 0.049827
#
#
# Mechanical properties :
#
#
# Convention : Reuss Voigt Hill
#
# Bulk Modulus (GPa) = 45.20308 58.24705 51.72507
# Shear Modulus (GPa) = 19.24402 27.98712 23.61557
#
# Velocity S-wave (km/s) = 3.13247 3.77761 3.47007
# Velocity P-wave (km/s) = 6.01097 6.98046 6.51377
#
# Compressibility (1/GPa) = 0.02212239
#
# Stress axis : x y z
#
# Youngs Moduli (GPa) = 71.71938 33.15254 59.17708
#
# Poissons Ratio (x) = 0.09556 0.30122
# Poissons Ratio (y) = 0.20672 0.67871
# Poissons Ratio (z) = 0.36506 0.38023
#
# Static dielectric constant tensor:
#      x y z
#    x 4.300110 -0.440720 0.247910 
#    y -0.440720 4.092010 0.154750 
#    z 0.247910 0.154750 3.496110 
# 
# 
# High freq. dielectric constant tensor:
#      x y z
#    x 1.776060 -0.001760 0.023650 
#    y -0.001760 1.758590 -0.001550 
#    z 0.023650 -0.001550 1.756020 
# 
# From -- ./inp_files/270575.got.cif
#   From: 2010.06.25/outbox.cif.g09.slc.cpg/sg2_136_cif.got.tgz:270575.got - 2010.06.27 13:26:56.
