data_PCOD8040876
_publ_section_title
;
Structure prediction by ZEFSAII (Michael W. Deem and Ramdas Pophale) SiO2 
 PCOD8040876
Probable space group: P -1
;
_chemical_formula_sum "Si O2"
_cell_formula_units_Z 14
_cell_length_a 13.447148
_cell_length_b 13.407489
_cell_length_c 6.808428
_cell_angle_alpha 74.164533
_cell_angle_beta 65.737281
_cell_angle_gamma 38.894917
_cell_volume 700.299149
_symmetry_space_group_name_H-M "P -1"
_symmetry_group_IT_number 2
_symmetry_cell_setting 'triclinic'
loop_
_space_group_symop_operation_xyz
x,y,z
-x,-y,-z
loop_
_atom_site_type_symbol
_atom_site_label
_atom_site_fract_x
_atom_site_fract_y
_atom_site_fract_z
Si Si1 0.115732 0.286749 0.843202
Si Si2 0.755320 0.091083 0.663441
Si Si3 0.591330 0.651121 0.065919
Si Si4 0.598325 0.020671 0.011284
Si Si5 0.855685 0.369902 0.726104
Si Si6 0.146328 0.498697 0.731036
Si Si7 0.986135 0.051199 0.768234
O O1 0.294451 0.100274 0.827307
O O2 0.140267 0.387907 0.704013
O O3 0.015771 0.301469 0.744603
O O4 0.022565 0.351956 0.094068
O O5 0.579979 0.278634 0.749206
O O6 0.899390 0.022436 0.732966
O O7 0.825508 0.062423 0.403969
O O8 0.723113 0.990589 0.772924
O O9 0.698659 0.606064 0.191060
O O10 0.688987 0.505033 0.919451
O O11 0.539425 0.793497 0.909693
O O12 0.500000 0.000000 0.000000
O O13 0.831545 0.437788 0.497711
O O14 0.875076 0.234321 0.750204
O O15 0.000000 0.000000 0.000000
#
# Coordination Sequence:
#
# PCOD8040876 Si02
#       7
#     2   2   2   2   2   2   2
#     4  10  19  36  59  86 126 168 202 249 301 368
#     4   9  22  41  62  91 120 159 207 251 303 366
#     4   9  22  40  60  92 126 156 202 252 309 361
#     4  10  18  39  66  89 124 167 199 248 309 367
#     4  11  23  38  60  93 122 160 206 258 303 366
#     4  10  20  37  58  87 128 164 201 249 312 366
#     4  11  23  42  65  89 119 164 214 253 302 364
#
# _framework density 19.991458000000002
#
# number of rings (size 3 to 8) (size 9 to 14) (size 15 to 20)
#    0.857    1.143    1.429    2.143    0.000    5.143 
#    2.571    2.143    0.000    0.000    0.000    0.000 
#    0.000    0.000    0.000    0.000    0.000    0.000 
#
# Total GULP energy -173519.447635 kJ/mol
# GULP energy per Si atom -12394.246260 kJ/mol
# Density = 1.994596 g / cm^3
# Si number density = 19.991458 Si / 1000 Ang^3
#
#
#
# Elastic Constant Matrix: (Units=GPa)
#
#
# Indices 1 2 3 4 5 6 
#
# 1 78.5955 26.1136 30.9196 1.2519 -17.5837 2.4739
# 2 26.1136 117.8160 48.7471 -3.8347 -4.5875 -7.2869
# 3 30.9196 48.7471 104.7595 -2.8836 -11.1143 6.7192
# 4 1.2519 -3.8347 -2.8836 33.2967 -3.2699 -0.3019
# 5 -17.5837 -4.5875 -11.1143 -3.2699 28.3078 -3.8226
# 6 2.4739 -7.2869 6.7192 -0.3019 -3.8226 29.1545
#
#
#
# Elastic Compliance Matrix: (Units=1/GPa)
#
#
# Indices 1 2 3 4 5 6 
#
# 1 0.016557 -0.002113 -0.002978 -0.000268 0.008728 -0.000105
# 2 -0.002113 0.011242 -0.004923 0.000908 -0.000774 0.004032
# 3 -0.002978 -0.004923 0.013205 0.000864 0.002133 -0.003733
# 4 -0.000268 0.000908 0.000864 0.030621 0.003977 0.000889
# 5 0.008728 -0.000774 0.002133 0.003977 0.042484 0.004186
# 6 -0.000105 0.004032 -0.003733 0.000889 0.004186 0.036735
#
#
# Mechanical properties :
#
#
# Convention : Reuss Voigt Hill
#
# Bulk Modulus (GPa) = 47.67511 56.97016 52.32263
# Shear Modulus (GPa) = 28.11121 31.17785 29.64453
#
# Velocity S-wave (km/s) = 3.75395 3.95341 3.85497
# Velocity P-wave (km/s) = 6.53368 7.02840 6.78555
#
# Compressibility (1/GPa) = 0.02097531
#
# Stress axis : x y z
#
# Youngs Moduli (GPa) = 60.39631 88.95265 75.72857
#
# Poissons Ratio (x) = 0.18795 0.22554
# Poissons Ratio (y) = 0.12762 0.37283
# Poissons Ratio (z) = 0.17988 0.43794
#
# Static dielectric constant tensor:
#      x y z
#    x 3.687040 0.055640 -0.123140 
#    y 0.055640 3.883970 0.086560 
#    z -0.123140 0.086560 3.522420 
# 
# 
# High freq. dielectric constant tensor:
#      x y z
#    x 1.780910 -0.005130 -0.005190 
#    y -0.005130 1.784410 -0.001870 
#    z -0.005190 -0.001870 1.763220 
# 
# From -- ./inp_files/97652.got.cif
#   From: 2010.06.25/outbox.cif.g09.slc.cpg/sg2_49_cif.got.tgz:97652.got - 2010.06.27 13:26:56.
