data_PCOD8040464
_publ_section_title
;
Structure prediction by ZEFSAII (Michael W. Deem and Ramdas Pophale) SiO2 
 PCOD8040464
Probable space group: P -1
;
_chemical_formula_sum "Si O2"
_cell_formula_units_Z 16
_cell_length_a 9.112734
_cell_length_b 14.192878
_cell_length_c 8.877246
_cell_angle_alpha 51.650120
_cell_angle_beta 79.053602
_cell_angle_gamma 99.595472
_cell_volume 821.469675
_symmetry_space_group_name_H-M "P -1"
_symmetry_group_IT_number 2
_symmetry_cell_setting 'triclinic'
loop_
_space_group_symop_operation_xyz
x,y,z
-x,-y,-z
loop_
_atom_site_type_symbol
_atom_site_label
_atom_site_fract_x
_atom_site_fract_y
_atom_site_fract_z
Si Si1 0.887859 0.801564 0.978471
Si Si2 0.242693 0.387173 0.390941
Si Si3 0.151965 0.183261 0.370394
Si Si4 0.593507 0.648295 0.336414
Si Si5 0.361588 0.682673 0.133497
Si Si6 0.081450 0.746977 0.242654
Si Si7 0.824917 0.043419 0.743048
Si Si8 0.579767 0.922546 0.666061
O O1 0.919541 0.807484 0.788873
O O2 0.814840 0.906641 0.948204
O O3 0.743708 0.667493 0.176830
O O4 0.042207 0.812642 0.035437
O O5 0.222320 0.326027 0.289088
O O6 0.342365 0.316523 0.539281
O O7 0.335970 0.542038 0.206507
O O8 0.070320 0.353014 0.540301
O O9 0.290022 0.122315 0.401166
O O10 0.000495 0.092499 0.583181
O O11 0.500000 0.500000 0.500000
O O12 0.479649 0.718067 0.221300
O O13 0.189057 0.670706 0.238873
O O14 0.437806 0.795001 0.884030
O O15 0.186764 0.862152 0.217768
O O16 0.676837 0.022075 0.679206
O O17 0.500000 0.000000 0.500000
#
# Coordination Sequence:
#
# PCOD8040464 Si02
#       8
#     2   2   2   2   2   2   2   2
#     4  10  18  37  57  85 111 153 199 226 286 344
#     4   9  21  40  62  86 112 153 201 230 284 343
#     4  10  21  39  63  82 116 155 196 238 273 352
#     4   9  18  36  57  81 113 150 191 235 280 337
#     4  11  21  38  60  85 122 149 188 245 290 337
#     4  10  22  35  62  86 114 150 191 243 285 336
#     4  10  21  39  58  83 115 153 200 228 279 352
#     4  11  24  38  57  90 123 151 184 240 301 333
#
# _framework density 19.477287
#
# number of rings (size 3 to 8) (size 9 to 14) (size 15 to 20)
#    0.000    2.000    2.500    2.250    3.500    2.000 
#    0.000    0.625    2.750    0.000    0.000    0.000 
#    0.000    0.000    0.000    0.000    0.000    0.000 
#
# Total GULP energy -198261.785556 kJ/mol
# GULP energy per Si atom -12391.361597 kJ/mol
# Density = 1.943296 g / cm^3
# Si number density = 19.477287 Si / 1000 Ang^3
#
#
#
# Elastic Constant Matrix: (Units=GPa)
#
#
# Indices 1 2 3 4 5 6 
#
# 1 107.9167 42.2782 37.3206 0.7959 19.9706 10.9645
# 2 42.2782 104.6640 39.3592 -2.2363 11.8916 13.3800
# 3 37.3206 39.3592 85.5447 -6.2182 11.5722 2.3577
# 4 0.7959 -2.2363 -6.2182 20.8703 7.2051 -2.2234
# 5 19.9706 11.8916 11.5722 7.2051 32.1502 0.5112
# 6 10.9645 13.3800 2.3577 -2.2234 0.5112 24.2963
#
#
#
# Elastic Compliance Matrix: (Units=1/GPa)
#
#
# Indices 1 2 3 4 5 6 
#
# 1 0.013035 -0.002795 -0.003552 -0.000321 -0.005651 -0.003909
# 2 -0.002795 0.013266 -0.004524 0.000096 -0.001475 -0.005565
# 3 -0.003552 -0.004524 0.016111 0.005924 -0.003297 0.003143
# 4 -0.000321 0.000096 0.005924 0.055199 -0.014417 0.004871
# 5 -0.005651 -0.001475 -0.003297 -0.014417 0.039553 0.001531
# 6 -0.003909 -0.005565 0.003143 0.004871 0.001531 0.046096
#
#
# Mechanical properties :
#
#
# Convention : Reuss Voigt Hill
#
# Bulk Modulus (GPa) = 48.38042 59.56018 53.97030
# Shear Modulus (GPa) = 23.59697 27.40785 25.50241
#
# Velocity S-wave (km/s) = 3.48445 3.75530 3.62241
# Velocity P-wave (km/s) = 6.40952 7.03198 6.72795
#
# Compressibility (1/GPa) = 0.02066952
#
# Stress axis : x y z
#
# Youngs Moduli (GPa) = 76.71715 75.38150 62.06907
#
# Poissons Ratio (x) = 0.21067 0.22047
# Poissons Ratio (y) = 0.21440 0.28083
# Poissons Ratio (z) = 0.27250 0.34106
#
# Static dielectric constant tensor:
#      x y z
#    x 2.558750 0.060320 -0.651670 
#    y 0.060320 3.493370 -0.196330 
#    z -0.651670 -0.196330 3.157300 
# 
# 
# High freq. dielectric constant tensor:
#      x y z
#    x 1.760750 0.023600 -0.004070 
#    y 0.023600 1.744180 -0.008230 
#    z -0.004070 -0.008230 1.762790 
# 
# From -- ./inp_files/177956.got.cif
#   From: 2010.06.25/outbox.cif.g09.slc.cpg/sg2_89_cif.got.tgz:177956.got - 2010.06.27 13:26:56.
