data_PCOD8040394
_publ_section_title
;
Structure prediction by ZEFSAII (Michael W. Deem and Ramdas Pophale) SiO2 
 PCOD8040394
Probable space group: P -1
;
_chemical_formula_sum "Si O2"
_cell_formula_units_Z 16
_cell_length_a 10.285040
_cell_length_b 8.750815
_cell_length_c 13.543148
_cell_angle_alpha 56.925391
_cell_angle_beta 105.573386
_cell_angle_gamma 63.388098
_cell_volume 665.606792
_symmetry_space_group_name_H-M "P -1"
_symmetry_group_IT_number 2
_symmetry_cell_setting 'triclinic'
loop_
_space_group_symop_operation_xyz
x,y,z
-x,-y,-z
loop_
_atom_site_type_symbol
_atom_site_label
_atom_site_fract_x
_atom_site_fract_y
_atom_site_fract_z
Si Si1 0.738503 0.106806 0.988141
Si Si2 0.519559 0.892807 0.750371
Si Si3 0.720175 0.005171 0.654737
Si Si4 0.358353 0.440632 0.290693
Si Si5 0.405048 0.424094 0.951401
Si Si6 0.033065 0.977774 0.741056
Si Si7 0.027092 0.511290 0.233211
Si Si8 0.939219 0.708531 0.490483
O O1 0.867984 0.037559 0.135168
O O2 0.726872 0.269938 0.841953
O O3 0.510770 0.296217 0.911533
O O4 0.835346 0.829363 0.056386
O O5 0.646104 0.639387 0.791856
O O6 0.581432 0.043429 0.694690
O O7 0.294620 0.068642 0.616489
O O8 0.562757 0.796714 0.905651
O O9 0.578763 0.209005 0.463668
O O10 0.893432 0.690721 0.769051
O O11 0.828188 0.077704 0.694304
O O12 0.205790 0.473673 0.314841
O O13 0.169821 0.698370 0.805530
O O14 0.500000 0.500000 0.000000
O O15 0.984522 0.177265 0.578199
O O16 0.959376 0.442722 0.331270
O O17 0.000000 0.500000 0.500000
#
# Coordination Sequence:
#
# PCOD8040394 Si02
#       8
#     2   2   2   2   2   2   2   2
#     4  11  21  40  67  89 122 167 215 246 301 377
#     4  11  18  39  63  86 120 171 210 240 298 386
#     4  11  25  39  64  96 128 158 205 263 315 355
#     4  11  20  39  65  87 127 172 204 243 309 389
#     4  10  18  36  64  88 118 164 215 247 293 374
#     4  11  23  39  64  98 119 161 211 264 303 357
#     4  11  22  39  63  93 122 168 210 249 306 379
#     4  12  20  37  66  90 121 164 217 250 294 376
#
# _framework density 24.038215000000001
#
# number of rings (size 3 to 8) (size 9 to 14) (size 15 to 20)
#    0.000    1.000    8.750    1.125    0.000    1.000 
#    0.000    3.125    2.750    0.000    0.000    0.000 
#    0.000    0.000    0.000    0.000    0.000    0.000 
#
# Total GULP energy -198295.219775 kJ/mol
# GULP energy per Si atom -12393.451236 kJ/mol
# Density = 2.398350 g / cm^3
# Si number density = 24.038215 Si / 1000 Ang^3
#
#
#
# Elastic Constant Matrix: (Units=GPa)
#
#
# Indices 1 2 3 4 5 6 
#
# 1 133.0302 -0.5656 35.0554 -0.6415 -27.3185 13.6758
# 2 -0.5656 32.9217 14.8420 -14.4047 -1.7322 -9.1158
# 3 35.0554 14.8420 84.0455 -24.4649 -36.3521 12.6313
# 4 -0.6415 -14.4047 -24.4649 29.9109 -5.2239 -0.7231
# 5 -27.3185 -1.7322 -36.3521 -5.2239 44.4600 -2.9590
# 6 13.6758 -9.1158 12.6313 -0.7231 -2.9590 16.6387
#
#
#
# Elastic Compliance Matrix: (Units=1/GPa)
#
#
# Indices 1 2 3 4 5 6 
#
# 1 0.009377 -0.001452 -0.000755 -0.000493 0.004555 -0.007141
# 2 -0.001452 0.053498 -0.011418 0.016720 -0.003566 0.039263
# 3 -0.000755 -0.011418 0.050133 0.042128 0.042752 -0.034260
# 4 -0.000493 0.016720 0.042128 0.083325 0.043853 -0.010997
# 5 0.004555 -0.003566 0.042752 0.043853 0.063600 -0.024936
# 6 -0.007141 0.039263 -0.034260 -0.010997 -0.024936 0.108577
#
#
# Mechanical properties :
#
#
# Convention : Reuss Voigt Hill
#
# Bulk Modulus (GPa) = 11.66073 38.74011 25.20042
# Shear Modulus (GPa) = 11.78286 31.57964 21.68125
#
# Velocity S-wave (km/s) = 2.21638 3.62847 3.00650
# Velocity P-wave (km/s) = 3.37806 5.80564 4.74956
#
# Compressibility (1/GPa) = 0.08575789
#
# Stress axis : x y z
#
# Youngs Moduli (GPa) = 106.64509 18.69241 19.94690
#
# Poissons Ratio (x) = 0.02714 0.01506
# Poissons Ratio (y) = 0.15482 0.22776
# Poissons Ratio (z) = 0.08051 0.21343
#
# Static dielectric constant tensor:
#      x y z
#    x 4.402120 -0.309220 -0.079890 
#    y -0.309220 3.987280 -0.434370 
#    z -0.079890 -0.434370 4.153740 
# 
# 
# High freq. dielectric constant tensor:
#      x y z
#    x 1.962900 -0.019800 -0.021430 
#    y -0.019800 1.922610 -0.027310 
#    z -0.021430 -0.027310 1.942800 
# 
# From -- ./inp_files/262379.got.cif
#   From: 2010.06.25/outbox.cif.g09.slc.cpg/sg2_132_cif.got.tgz:262379.got - 2010.06.27 13:26:56.
