data_PCOD8040322
_publ_section_title
;
Structure prediction by ZEFSAII (Michael W. Deem and Ramdas Pophale) SiO2 
 PCOD8040322
Probable space group: P -1
;
_chemical_formula_sum "Si O2"
_cell_formula_units_Z 12
_cell_length_a 14.252965
_cell_length_b 9.403771
_cell_length_c 5.483866
_cell_angle_alpha 103.381285
_cell_angle_beta 89.023189
_cell_angle_gamma 38.721864
_cell_volume 423.058949
_symmetry_space_group_name_H-M "P -1"
_symmetry_group_IT_number 2
_symmetry_cell_setting 'triclinic'
loop_
_space_group_symop_operation_xyz
x,y,z
-x,-y,-z
loop_
_atom_site_type_symbol
_atom_site_label
_atom_site_fract_x
_atom_site_fract_y
_atom_site_fract_z
Si Si1 0.194368 0.480902 0.147777
Si Si2 0.087307 0.665480 0.726869
Si Si3 0.888741 0.690061 0.321413
Si Si4 0.468959 0.416903 0.271306
Si Si5 0.561011 0.004524 0.257631
Si Si6 0.240785 0.885685 0.185686
O O1 0.160295 0.624544 0.444270
O O2 0.049422 0.545467 0.117236
O O3 0.196418 0.565303 0.918602
O O4 0.377866 0.182738 0.045530
O O5 0.073300 0.505938 0.601202
O O6 0.916452 0.958228 0.902518
O O7 0.738785 0.841728 0.219348
O O8 0.824739 0.910170 0.553054
O O9 0.500000 0.500000 0.500000
O O10 0.308857 0.656415 0.226462
O O11 0.442632 0.289191 0.330940
O O12 0.620343 0.215386 0.012460
O O13 0.500000 0.000000 0.500000
#
# Coordination Sequence:
#
# PCOD8040322 Si02
#       6
#     2   2   2   2   2   2
#     4  10  20  36  61  89 116 154 211 256 294 353
#     4  10  19  32  59  90 113 148 208 265 294 339
#     4  10  18  36  61  90 117 155 211 258 293 356
#     4  11  21  36  57  85 128 159 202 244 308 370
#     4  11  22  38  61  92 126 160 197 253 315 365
#     4  10  20  33  60  90 116 157 210 255 296 354
#
# _framework density 28.364844000000002
#
# number of rings (size 3 to 8) (size 9 to 14) (size 15 to 20)
#    0.000    1.667    1.667    7.000    2.333    0.000 
#    0.000    7.500    0.000    8.000    0.000    0.000 
#    0.000    0.000    0.000    0.000    0.000    0.000 
#
# Total GULP energy -148669.826701 kJ/mol
# GULP energy per Si atom -12389.152225 kJ/mol
# Density = 2.830028 g / cm^3
# Si number density = 28.364844 Si / 1000 Ang^3
#
#
#
# Elastic Constant Matrix: (Units=GPa)
#
#
# Indices 1 2 3 4 5 6 
#
# 1 75.3601 24.7461 0.5348 -1.5772 8.7967 -10.4132
# 2 24.7461 241.8911 75.9319 13.1919 -10.8846 -8.5015
# 3 0.5348 75.9319 54.1443 -36.9052 16.5020 -19.4559
# 4 -1.5772 13.1919 -36.9052 33.4793 -1.5059 -30.5965
# 5 8.7967 -10.8846 16.5020 -1.5059 17.4520 12.7379
# 6 -10.4132 -8.5015 -19.4559 -30.5965 12.7379 22.3547
#
#
#
# Elastic Compliance Matrix: (Units=1/GPa)
#
#
# Indices 1 2 3 4 5 6 
#
# 1 0.013252 -0.000245 -0.003273 -0.005059 -0.002530 -0.002252
# 2 -0.000245 0.004341 -0.000647 0.003794 -0.001250 0.006878
# 3 -0.003273 -0.000647 0.004211 -0.009886 0.008396 -0.016421
# 4 -0.005059 0.003794 -0.009886 0.008787 0.022583 -0.010359
# 5 -0.002530 -0.001250 0.008396 0.022583 0.043004 0.012058
# 6 -0.002252 0.006878 -0.016421 -0.010359 0.012058 0.010960
#
#
# Mechanical properties :
#
#
# Convention : Reuss Voigt Hill
#
# Bulk Modulus (GPa) = 74.22650 63.75792 68.99221
# Shear Modulus (GPa) = 51.34643 32.66939 42.00791
#
# Velocity S-wave (km/s) = 4.25928 3.39744 3.85253
# Velocity P-wave (km/s) = 7.10027 6.15765 6.64570
#
# Compressibility (1/GPa) = 0.01347228
#
# Stress axis : x y z
#
# Youngs Moduli (GPa) = 75.46214 230.36347 237.45410
#
# Poissons Ratio (x) = 0.05650 0.77727
# Poissons Ratio (y) = 0.01851 0.15370
# Poissons Ratio (z) = 0.24701 0.14911
#
# Static dielectric constant tensor:
#      x y z
#    x 5.597990 -0.579470 0.331690 
#    y -0.579470 5.730890 -0.110130 
#    z 0.331690 -0.110130 4.817280 
# 
# 
# High freq. dielectric constant tensor:
#      x y z
#    x 2.161490 -0.040690 0.007420 
#    y -0.040690 2.169650 0.019870 
#    z 0.007420 0.019870 2.164430 
# 
# From -- ./inp_files/72156.got.cif
#   From: 2010.06.25/outbox.cif.g09.slc.cpg/sg2_37_cif.got.tgz:72156.got - 2010.06.27 13:26:56.
