data_PCOD8040135
_publ_section_title
;
Structure prediction by ZEFSAII (Michael W. Deem and Ramdas Pophale) SiO2 
 PCOD8040135
Probable space group: P -1
;
_chemical_formula_sum "Si O2"
_cell_formula_units_Z 16
_cell_length_a 10.361111
_cell_length_b 11.665114
_cell_length_c 14.866812
_cell_angle_alpha 147.380864
_cell_angle_beta 95.517324
_cell_angle_gamma 66.089138
_cell_volume 768.035485
_symmetry_space_group_name_H-M "P -1"
_symmetry_group_IT_number 2
_symmetry_cell_setting 'triclinic'
loop_
_space_group_symop_operation_xyz
x,y,z
-x,-y,-z
loop_
_atom_site_type_symbol
_atom_site_label
_atom_site_fract_x
_atom_site_fract_y
_atom_site_fract_z
Si Si1 0.585445 0.658428 0.869614
Si Si2 0.732715 0.891186 0.940666
Si Si3 0.614010 0.261338 0.475101
Si Si4 0.340773 0.579525 0.091500
Si Si5 0.278403 0.693902 0.666772
Si Si6 0.946253 0.428686 0.361999
Si Si7 0.671701 0.788664 0.263579
Si Si8 0.290089 0.091036 0.463617
O O1 0.722768 0.670051 0.840378
O O2 0.592112 0.418476 0.668166
O O3 0.614310 0.606891 0.942750
O O4 0.408950 0.942670 0.033347
O O5 0.904899 0.753364 0.814907
O O6 0.706516 0.088440 0.146727
O O7 0.438056 0.398064 0.507513
O O8 0.730488 0.269015 0.417343
O O9 0.693938 0.958617 0.307024
O O10 0.239559 0.890420 0.318825
O O11 0.500000 0.500000 0.000000
O O12 0.248460 0.506472 0.968724
O O13 0.117451 0.737631 0.720314
O O14 0.802440 0.693357 0.477555
O O15 0.000000 0.500000 0.500000
O O16 0.760757 0.762564 0.345639
O O17 0.481465 0.933767 0.361652
#
# Coordination Sequence:
#
# PCOD8040135 Si02
#       8
#     2   2   2   2   2   2   2   2
#     4  10  20  39  63  95 123 153 221 259 314 365
#     4  10  23  38  63  90 123 169 203 266 307 378
#     4  10  18  35  66  90 124 160 202 269 312 356
#     4  10  21  34  63  92 121 157 205 266 303 365
#     4  10  21  37  59  92 122 163 211 252 313 376
#     4  12  25  41  60  86 134 168 203 256 322 376
#     4  10  19  36  65  88 123 160 209 264 300 364
#     4  10  22  40  57  93 123 165 210 253 313 368
#
# _framework density 20.832370999999998
#
# number of rings (size 3 to 8) (size 9 to 14) (size 15 to 20)
#    0.000    1.750    2.500    1.875    3.500    2.000 
#    2.250    0.625    0.000    1.500    0.000    0.000 
#    0.000    0.000    0.000    0.000    0.000    0.000 
#
# Total GULP energy -198392.655732 kJ/mol
# GULP energy per Si atom -12399.540983 kJ/mol
# Density = 2.078496 g / cm^3
# Si number density = 20.832371 Si / 1000 Ang^3
#
#
#
# Elastic Constant Matrix: (Units=GPa)
#
#
# Indices 1 2 3 4 5 6 
#
# 1 89.5987 22.3430 21.6111 0.8435 4.1174 22.5167
# 2 22.3430 96.2267 39.8272 -18.1106 14.8811 15.0482
# 3 21.6111 39.8272 100.1999 -13.9370 25.6349 0.5015
# 4 0.8435 -18.1106 -13.9370 28.6798 2.8114 4.7797
# 5 4.1174 14.8811 25.6349 2.8114 37.1148 -1.9509
# 6 22.5167 15.0482 0.5015 4.7797 -1.9509 30.8086
#
#
#
# Elastic Compliance Matrix: (Units=1/GPa)
#
#
# Indices 1 2 3 4 5 6 
#
# 1 0.014604 -0.000743 -0.002958 -0.000669 0.000238 -0.010143
# 2 -0.000743 0.016296 -0.003387 0.010760 -0.005420 -0.009374
# 3 -0.002958 -0.003387 0.015081 0.005816 -0.009060 0.002094
# 4 -0.000669 0.010760 0.005816 0.047923 -0.012575 -0.013092
# 5 0.000238 -0.005420 -0.009060 -0.012575 0.036663 0.006893
# 6 -0.010143 -0.009374 0.002094 -0.013092 0.006893 0.046884
#
#
# Mechanical properties :
#
#
# Convention : Reuss Voigt Hill
#
# Bulk Modulus (GPa) = 31.44160 50.39866 40.92013
# Shear Modulus (GPa) = 24.72474 32.80358 28.76416
#
# Velocity S-wave (km/s) = 3.44879 3.97248 3.71987
# Velocity P-wave (km/s) = 5.56636 6.72947 6.17536
#
# Compressibility (1/GPa) = 0.03180500
#
# Stress axis : x y z
#
# Youngs Moduli (GPa) = 68.47416 61.36658 66.31061
#
# Poissons Ratio (x) = 0.04561 0.19612
# Poissons Ratio (y) = 0.05090 0.22457
# Poissons Ratio (z) = 0.20252 0.20783
#
# Static dielectric constant tensor:
#      x y z
#    x 3.830000 0.157560 0.152190 
#    y 0.157560 3.735450 -0.118440 
#    z 0.152190 -0.118440 4.244850 
# 
# 
# High freq. dielectric constant tensor:
#      x y z
#    x 1.792850 0.025050 0.024470 
#    y 0.025050 1.814180 -0.016000 
#    z 0.024470 -0.016000 1.819700 
# 
# From -- ./inp_files/283395.got.cif
#   From: 2010.06.25/outbox.cif.g09.slc.cpg/sg2_142_cif.got.tgz:283395.got - 2010.06.27 13:26:56.
