data_PCOD8040568
_publ_section_title
;
Structure prediction by ZEFSAII (Michael W. Deem and Ramdas Pophale) SiO2 
 PCOD8040568
Probable space group: P -1
;
_chemical_formula_sum "Si O2"
_cell_formula_units_Z 16
_cell_length_a 11.640764
_cell_length_b 28.856339
_cell_length_c 8.842059
_cell_angle_alpha 145.624488
_cell_angle_beta 123.030343
_cell_angle_gamma 33.268077
_cell_volume 812.870096
_symmetry_space_group_name_H-M "P -1"
_symmetry_group_IT_number 2
_symmetry_cell_setting 'triclinic'
loop_
_space_group_symop_operation_xyz
x,y,z
-x,-y,-z
loop_
_atom_site_type_symbol
_atom_site_label
_atom_site_fract_x
_atom_site_fract_y
_atom_site_fract_z
Si Si1 0.209052 0.923687 0.555576
Si Si2 0.054535 0.669832 0.540910
Si Si3 0.276521 0.118886 0.555647
Si Si4 0.501116 0.593198 0.306666
Si Si5 0.998303 0.147650 0.221864
Si Si6 0.858435 0.349332 0.103040
Si Si7 0.485416 0.634331 0.087083
Si Si8 0.418819 0.121280 0.359348
O O1 0.384977 0.763441 0.283118
O O2 0.369768 0.917638 0.588974
O O3 0.000000 0.000000 0.500000
O O4 0.082941 0.019374 0.872672
O O5 0.034052 0.767059 0.701447
O O6 0.040864 0.686027 0.754111
O O7 0.823755 0.728263 0.489542
O O8 0.299306 0.505996 0.234844
O O9 0.352215 0.144698 0.549758
O O10 0.192457 0.077598 0.298094
O O11 0.500000 0.000000 0.500000
O O12 0.064424 0.254373 0.871736
O O13 0.249095 0.748532 0.596720
O O14 0.680432 0.509503 0.352659
O O15 0.577544 0.608820 0.255692
O O16 0.500000 0.500000 0.000000
O O17 0.729700 0.324606 0.945170
O O18 0.500000 0.000000 0.000000
#
# Coordination Sequence:
#
# PCOD8040568 Si02
#       8
#     2   2   2   2   2   2   2   2
#     4  12  28  42  66  99 139 171 216 273 336 389
#     4  11  21  38  71  94 123 174 228 265 317 389
#     4  11  22  36  67  97 128 168 226 265 317 384
#     4  10  18  37  62  94 129 164 218 270 320 381
#     4  11  21  41  64  95 130 171 214 268 321 390
#     4  11  21  36  68 101 125 167 230 271 314 392
#     4  11  23  39  64  97 135 171 214 276 333 381
#     4  11  23  44  68  93 131 178 220 269 320 396
#
# _framework density 19.683340999999999
#
# number of rings (size 3 to 8) (size 9 to 14) (size 15 to 20)
#    0.000    1.000    7.500    2.625    3.500    1.000 
#    0.000    0.000    0.000    1.500    0.000    0.000 
#    0.000    0.000    0.000    0.000    0.000    0.000 
#
# Total GULP energy -198286.120577 kJ/mol
# GULP energy per Si atom -12392.882536 kJ/mol
# Density = 1.963854 g / cm^3
# Si number density = 19.683341 Si / 1000 Ang^3
#
#
#
# Elastic Constant Matrix: (Units=GPa)
#
#
# Indices 1 2 3 4 5 6 
#
# 1 98.0729 47.2971 49.7446 -5.7619 -19.0919 -5.7611
# 2 47.2971 158.1410 48.9548 -8.7518 -0.9847 8.5809
# 3 49.7446 48.9548 108.7811 9.4247 -19.1867 -1.2166
# 4 -5.7619 -8.7518 9.4247 32.7971 5.3327 -9.2359
# 5 -19.0919 -0.9847 -19.1867 5.3327 33.8950 0.4898
# 6 -5.7611 8.5809 -1.2166 -9.2359 0.4898 36.4696
#
#
#
# Elastic Compliance Matrix: (Units=1/GPa)
#
#
# Indices 1 2 3 4 5 6 
#
# 1 0.015778 -0.003092 -0.005176 0.003685 0.005231 0.003910
# 2 -0.003092 0.008517 -0.003352 0.002792 -0.003804 -0.001846
# 3 -0.005176 -0.003352 0.014878 -0.007591 0.006625 -0.001544
# 4 0.003685 0.002792 -0.007591 0.038061 -0.008265 0.009422
# 5 0.005231 -0.003804 0.006625 -0.008265 0.037399 -0.000653
# 6 0.003910 -0.001846 -0.001544 0.009422 -0.000653 0.030816
#
#
# Mechanical properties :
#
#
# Convention : Reuss Voigt Hill
#
# Bulk Modulus (GPa) = 62.77290 72.99867 67.88579
# Shear Modulus (GPa) = 28.73559 35.23225 31.98392
#
# Velocity S-wave (km/s) = 3.82500 4.23537 4.03541
# Velocity P-wave (km/s) = 7.17413 7.81568 7.50177
#
# Compressibility (1/GPa) = 0.01593044
#
# Stress axis : x y z
#
# Youngs Moduli (GPa) = 63.38043 117.41151 67.21516
#
# Poissons Ratio (x) = 0.36305 0.34793
# Poissons Ratio (y) = 0.19598 0.22534
# Poissons Ratio (z) = 0.32808 0.39362
#
# Static dielectric constant tensor:
#      x y z
#    x 3.460970 -0.000970 -0.283370 
#    y -0.000970 4.074620 0.125100 
#    z -0.283370 0.125100 3.553730 
# 
# 
# High freq. dielectric constant tensor:
#      x y z
#    x 1.754600 0.006480 -0.039860 
#    y 0.006480 1.787800 0.010100 
#    z -0.039860 0.010100 1.751800 
# 
# From -- ./inp_files/286114.got.cif
#   From: 2010.06.25/outbox.cif.g09.slc.cpg/sg2_144_cif.got.tgz:286114.got - 2010.06.27 13:26:56.
