data_PCOD8040942
_publ_section_title
;
Structure prediction by ZEFSAII (Michael W. Deem and Ramdas Pophale) SiO2 
 PCOD8040942
Probable space group: P -1
;
_chemical_formula_sum "Si O2"
_cell_formula_units_Z 16
_cell_length_a 19.817455
_cell_length_b 8.839869
_cell_length_c 8.824130
_cell_angle_alpha 129.813887
_cell_angle_beta 121.307789
_cell_angle_gamma 40.199737
_cell_volume 764.957426
_symmetry_space_group_name_H-M "P -1"
_symmetry_group_IT_number 2
_symmetry_cell_setting 'triclinic'
loop_
_space_group_symop_operation_xyz
x,y,z
-x,-y,-z
loop_
_atom_site_type_symbol
_atom_site_label
_atom_site_fract_x
_atom_site_fract_y
_atom_site_fract_z
Si Si1 0.224344 0.179881 0.260176
Si Si2 0.507273 0.638980 0.960641
Si Si3 0.180773 0.108629 0.833187
Si Si4 0.635898 0.374364 0.419403
Si Si5 0.618202 0.827907 0.693128
Si Si6 0.811117 0.479980 0.914458
Si Si7 0.963197 0.263668 0.692158
Si Si8 0.290254 0.718637 0.218536
O O1 0.334514 0.121647 0.358895
O O2 0.124618 0.487838 0.356265
O O3 0.223408 0.021842 0.291394
O O4 0.227254 0.068876 0.028677
O O5 0.433941 0.688927 0.767846
O O6 0.625900 0.466351 0.932794
O O7 0.500000 0.500000 0.000000
O O8 0.471475 0.912817 0.151833
O O9 0.060545 0.250689 0.803874
O O10 0.247218 0.831534 0.648790
O O11 0.190807 0.298439 0.870524
O O12 0.580002 0.673245 0.495101
O O13 0.647421 0.338835 0.590815
O O14 0.714904 0.612335 0.773695
O O15 0.919862 0.289729 0.826436
O O16 0.794303 0.323357 0.907357
O O17 0.000000 0.000000 0.500000
#
# Coordination Sequence:
#
# PCOD8040942 Si02
#       8
#     2   2   2   2   2   2   2   2
#     4  10  19  39  60  89 124 154 201 255 297 360
#     4  12  22  42  62  86 122 167 210 247 296 361
#     4  10  18  40  64  87 114 164 203 241 301 369
#     4  11  22  39  63  90 122 158 207 252 306 352
#     4   9  19  38  62  82 118 159 207 245 290 357
#     4   9  19  36  57  87 121 154 198 245 303 354
#     4  10  19  36  66  88 115 162 206 241 299 372
#     4  11  23  38  59  90 126 156 196 262 305 350
#
# _framework density 20.916198000000001
#
# number of rings (size 3 to 8) (size 9 to 14) (size 15 to 20)
#    0.000    2.000    3.750    4.125    0.000    2.500 
#    2.250    7.500    0.000    0.000    0.000    0.000 
#    0.000    0.000    0.000    0.000    0.000    0.000 
#
# Total GULP energy -198297.697259 kJ/mol
# GULP energy per Si atom -12393.606079 kJ/mol
# Density = 2.086859 g / cm^3
# Si number density = 20.916198 Si / 1000 Ang^3
#
#
#
# Elastic Constant Matrix: (Units=GPa)
#
#
# Indices 1 2 3 4 5 6 
#
# 1 136.7814 58.8865 31.3185 17.0311 2.9493 12.1507
# 2 58.8865 91.3024 45.0082 29.3811 1.5760 11.2953
# 3 31.3185 45.0082 83.5724 34.6679 0.3236 7.8376
# 4 17.0311 29.3811 34.6679 39.1153 -0.0107 -1.2595
# 5 2.9493 1.5760 0.3236 -0.0107 23.6622 9.0241
# 6 12.1507 11.2953 7.8376 -1.2595 9.0241 41.4422
#
#
#
# Elastic Compliance Matrix: (Units=1/GPa)
#
#
# Indices 1 2 3 4 5 6 
#
# 1 0.010212 -0.006434 -0.000655 0.000935 -0.000458 -0.000988
# 2 -0.006434 0.020619 -0.004884 -0.008462 0.000721 -0.003224
# 3 -0.000655 -0.004884 0.021425 -0.015141 0.001360 -0.003285
# 4 0.000935 -0.008462 -0.015141 0.045148 -0.001871 0.006675
# 5 -0.000458 0.000721 0.001360 -0.001871 0.046234 -0.010444
# 6 -0.000988 -0.003224 -0.003285 0.006675 -0.010444 0.028397
#
#
# Mechanical properties :
#
#
# Convention : Reuss Voigt Hill
#
# Bulk Modulus (GPa) = 35.32365 64.67587 49.99976
# Shear Modulus (GPa) = 24.34058 32.60679 28.47368
#
# Velocity S-wave (km/s) = 3.41503 3.95261 3.69361
# Velocity P-wave (km/s) = 5.69866 7.19857 6.49208
#
# Compressibility (1/GPa) = 0.02830965
#
# Stress axis : x y z
#
# Youngs Moduli (GPa) = 97.92158 48.49832 46.67465
#
# Poissons Ratio (x) = 0.31205 0.03059
# Poissons Ratio (y) = 0.63005 0.22795
# Poissons Ratio (z) = 0.06418 0.23685
#
# Static dielectric constant tensor:
#      x y z
#    x 4.218660 0.060050 0.290860 
#    y 0.060050 3.752980 0.322930 
#    z 0.290860 0.322930 3.760690 
# 
# 
# High freq. dielectric constant tensor:
#      x y z
#    x 1.823370 -0.004410 0.013020 
#    y -0.004410 1.807560 0.030970 
#    z 0.013020 0.030970 1.803850 
# 
# From -- ./inp_files/226336.got.cif
#   From: 2010.06.25/outbox.cif.g09.slc.cpg/sg2_114_cif.got.tgz:226336.got - 2010.06.27 13:26:56.
