data_PCOD8040588
_publ_section_title
;
Structure prediction by ZEFSAII (Michael W. Deem and Ramdas Pophale) SiO2 
 PCOD8040588
Probable space group: P -1
;
_chemical_formula_sum "Si O2"
_cell_formula_units_Z 16
_cell_length_a 9.168372
_cell_length_b 18.214521
_cell_length_c 14.510210
_cell_angle_alpha 141.362259
_cell_angle_beta 42.111806
_cell_angle_gamma 149.129854
_cell_volume 756.800531
_symmetry_space_group_name_H-M "P -1"
_symmetry_group_IT_number 2
_symmetry_cell_setting 'triclinic'
loop_
_space_group_symop_operation_xyz
x,y,z
-x,-y,-z
loop_
_atom_site_type_symbol
_atom_site_label
_atom_site_fract_x
_atom_site_fract_y
_atom_site_fract_z
Si Si1 0.427386 0.724428 0.680342
Si Si2 0.500954 0.025314 0.230482
Si Si3 0.656121 0.755429 0.203354
Si Si4 0.632782 0.996090 0.526743
Si Si5 0.985905 0.500826 0.806342
Si Si6 0.916887 0.683658 0.142562
Si Si7 0.262660 0.003821 0.071268
Si Si8 0.209434 0.346411 0.625377
O O1 0.434338 0.821366 0.689540
O O2 0.650281 0.838378 0.772006
O O3 0.503059 0.621796 0.506886
O O4 0.101584 0.599859 0.753876
O O5 0.563297 0.044978 0.330642
O O6 0.163581 0.873031 0.219899
O O7 0.700842 0.998561 0.059033
O O8 0.662473 0.867399 0.379445
O O9 0.358125 0.649189 0.181351
O O10 0.671840 0.643468 0.147693
O O11 0.927789 0.854563 0.103190
O O12 0.500000 0.000000 0.500000
O O13 0.948934 0.161641 0.555062
O O14 0.165295 0.445290 0.681025
O O15 0.050828 0.611302 0.969272
O O16 0.766273 0.602649 0.230753
O O17 0.500000 0.000000 0.000000
#
# Coordination Sequence:
#
# PCOD8040588 Si02
#       8
#     2   2   2   2   2   2   2   2
#     4  11  20  40  66  94 123 162 215 258 300 376
#     4  10  20  39  68  95 116 163 221 258 296 369
#     4  12  22  40  66  94 126 164 208 262 317 357
#     4  11  22  41  66  91 128 163 207 265 312 367
#     4  12  25  39  62  93 137 162 198 264 325 362
#     4  11  21  39  64  94 120 164 220 254 297 383
#     4  10  18  37  63  93 121 153 209 258 298 365
#     4  11  23  40  65  89 125 172 213 247 311 381
#
# _framework density 21.141632000000001
#
# number of rings (size 3 to 8) (size 9 to 14) (size 15 to 20)
#    0.000    1.000    6.250    2.625    0.000    2.000 
#    0.000    4.375    2.750    0.000    0.000    0.000 
#    0.000    0.000    0.000    0.000    0.000    0.000 
#
# Total GULP energy -198370.478692 kJ/mol
# GULP energy per Si atom -12398.154918 kJ/mol
# Density = 2.109351 g / cm^3
# Si number density = 21.141632 Si / 1000 Ang^3
#
#
#
# Elastic Constant Matrix: (Units=GPa)
#
#
# Indices 1 2 3 4 5 6 
#
# 1 74.5930 25.5876 41.1873 -11.2429 14.3560 -12.0346
# 2 25.5876 87.2225 39.3592 -16.7710 5.7615 -6.2516
# 3 41.1873 39.3592 137.1857 -13.9829 15.6996 -12.9260
# 4 -11.2429 -16.7710 -13.9829 38.2180 -13.3868 -2.6364
# 5 14.3560 5.7615 15.6996 -13.3868 34.3396 -5.4336
# 6 -12.0346 -6.2516 -12.9260 -2.6364 -5.4336 23.1954
#
#
#
# Elastic Compliance Matrix: (Units=1/GPa)
#
#
# Indices 1 2 3 4 5 6 
#
# 1 0.018297 -0.002715 -0.003493 0.001988 -0.003851 0.006139
# 2 -0.002715 0.014633 -0.002900 0.005595 0.002526 0.002147
# 3 -0.003493 -0.002900 0.009688 0.000791 -0.001782 0.002478
# 4 0.001988 0.005595 0.000791 0.034731 0.012985 0.009970
# 5 -0.003851 0.002526 -0.001782 0.012985 0.037439 0.007936
# 6 0.006139 0.002147 0.002478 0.009970 0.007936 0.051249
#
#
# Mechanical properties :
#
#
# Convention : Reuss Voigt Hill
#
# Bulk Modulus (GPa) = 40.97838 56.80773 48.89306
# Shear Modulus (GPa) = 25.98942 32.00840 28.99891
#
# Velocity S-wave (km/s) = 3.50994 3.89523 3.70760
# Velocity P-wave (km/s) = 5.98758 6.86723 6.44244
#
# Compressibility (1/GPa) = 0.02440311
#
# Stress axis : x y z
#
# Youngs Moduli (GPa) = 54.65357 68.34074 103.22086
#
# Poissons Ratio (x) = 0.18554 0.36052
# Poissons Ratio (y) = 0.14838 0.29930
# Poissons Ratio (z) = 0.19089 0.19816
#
# Static dielectric constant tensor:
#      x y z
#    x 3.577790 -0.193320 0.254020 
#    y -0.193320 3.715640 -0.073120 
#    z 0.254020 -0.073120 4.383420 
# 
# 
# High freq. dielectric constant tensor:
#      x y z
#    x 1.791540 -0.016000 0.006150 
#    y -0.016000 1.818780 -0.003470 
#    z 0.006150 -0.003470 1.851660 
# 
# From -- ./inp_files/205197.got.cif
#   From: 2010.06.25/outbox.cif.g09.slc.cpg/sg2_103_cif.got.tgz:205197.got - 2010.06.27 13:26:56.
