data_PCOD8040362
_publ_section_title
;
Structure prediction by ZEFSAII (Michael W. Deem and Ramdas Pophale) SiO2 
 PCOD8040362
Probable space group: P -1
;
_chemical_formula_sum "Si O2"
_cell_formula_units_Z 16
_cell_length_a 8.951181
_cell_length_b 9.418731
_cell_length_c 14.070109
_cell_angle_alpha 87.979079
_cell_angle_beta 60.751985
_cell_angle_gamma 59.517274
_cell_volume 855.556808
_symmetry_space_group_name_H-M "P -1"
_symmetry_group_IT_number 2
_symmetry_cell_setting 'triclinic'
loop_
_space_group_symop_operation_xyz
x,y,z
-x,-y,-z
loop_
_atom_site_type_symbol
_atom_site_label
_atom_site_fract_x
_atom_site_fract_y
_atom_site_fract_z
Si Si1 0.657794 0.096311 0.366372
Si Si2 0.329158 0.241053 0.625971
Si Si3 0.913584 0.605459 0.755341
Si Si4 0.932537 0.931350 0.733757
Si Si5 0.492048 0.177200 0.217393
Si Si6 0.306442 0.999511 0.015653
Si Si7 0.815499 0.656156 0.997939
Si Si8 0.531968 0.149209 0.758909
O O1 0.465317 0.210496 0.492515
O O2 0.851481 0.091438 0.346667
O O3 0.594124 0.190602 0.281081
O O4 0.717752 0.903595 0.345751
O O5 0.113664 0.420575 0.674176
O O6 0.448937 0.244922 0.681452
O O7 0.970212 0.745023 0.726355
O O8 0.738287 0.651849 0.729760
O O9 0.820088 0.606180 0.887489
O O10 0.819114 0.027433 0.865027
O O11 0.778024 0.062592 0.696341
O O12 0.489306 0.009278 0.226970
O O13 0.625001 0.148044 0.081283
O O14 0.154354 0.187284 0.010891
O O15 0.500000 0.000000 0.000000
O O16 0.599867 0.717000 0.117336
O O17 0.000000 0.500000 0.000000
#
# Coordination Sequence:
#
# PCOD8040362 Si02
#       8
#     2   2   2   2   2   2   2   2
#     4  10  23  37  50  73 112 142 176 209 267 307
#     4  10  21  37  53  74 102 149 179 210 256 320
#     4  10  18  32  59  80  98 133 185 216 252 307
#     4  10  19  34  55  83 103 132 174 228 251 303
#     4   9  17  33  53  76 105 141 168 208 258 326
#     4  10  15  30  54  82 100 131 175 208 254 324
#     4  10  15  25  51  86  99 123 164 222 255 304
#     4   9  16  31  55  77 103 136 174 210 260 309
#
# _framework density 18.701270999999998
#
# number of rings (size 3 to 8) (size 9 to 14) (size 15 to 20)
#    0.000    2.250    6.250    0.000    0.000    2.000 
#    0.000    1.250    0.000    1.500    0.000    0.000 
#    0.000    0.000    0.000    0.000    0.000    0.000 
#
# Total GULP energy -198258.301444 kJ/mol
# GULP energy per Si atom -12391.143840 kJ/mol
# Density = 1.865871 g / cm^3
# Si number density = 18.701271 Si / 1000 Ang^3
#
#
#
# Elastic Constant Matrix: (Units=GPa)
#
#
# Indices 1 2 3 4 5 6 
#
# 1 51.1672 25.4013 12.9023 11.0806 -3.1805 -12.6251
# 2 25.4013 96.8129 34.1456 25.0839 -2.8864 -27.1354
# 3 12.9023 34.1456 69.6728 22.1173 10.5590 0.2643
# 4 11.0806 25.0839 22.1173 28.2926 -5.0986 -6.4492
# 5 -3.1805 -2.8864 10.5590 -5.0986 17.1968 -0.4629
# 6 -12.6251 -27.1354 0.2643 -6.4492 -0.4629 20.8851
#
#
#
# Elastic Compliance Matrix: (Units=1/GPa)
#
#
# Indices 1 2 3 4 5 6 
#
# 1 0.025523 0.000331 -0.006310 -0.000047 0.009070 0.016125
# 2 0.000331 0.025288 -0.014111 -0.001573 0.013393 0.033046
# 3 -0.006310 -0.014111 0.036360 -0.026918 -0.034694 -0.031689
# 4 -0.000047 -0.001573 -0.026918 0.069190 0.037319 0.020461
# 5 0.009070 0.013393 -0.034694 0.037319 0.095438 0.036963
# 6 0.016125 0.033046 -0.031689 0.020461 0.036963 0.108104
#
#
# Mechanical properties :
#
#
# Convention : Reuss Voigt Hill
#
# Bulk Modulus (GPa) = 21.27979 40.28348 30.78163
# Shear Modulus (GPa) = 12.02658 22.95514 17.49086
#
# Velocity S-wave (km/s) = 2.53867 3.50732 3.06155
# Velocity P-wave (km/s) = 4.47176 6.16352 5.38450
#
# Compressibility (1/GPa) = 0.04699295
#
# Stress axis : x y z
#
# Youngs Moduli (GPa) = 39.17996 39.54377 27.50297
#
# Poissons Ratio (x) = -0.01309 0.17354
# Poissons Ratio (y) = -0.01297 0.38808
# Poissons Ratio (z) = 0.24721 0.55798
#
# Static dielectric constant tensor:
#      x y z
#    x 3.169460 -0.409960 0.233180 
#    y -0.409960 3.571240 -0.010910 
#    z 0.233180 -0.010910 3.579190 
# 
# 
# High freq. dielectric constant tensor:
#      x y z
#    x 1.681440 -0.038140 0.010420 
#    y -0.038140 1.723670 0.007600 
#    z 0.010420 0.007600 1.728600 
# 
# From -- ./inp_files/186926.got.cif
#   From: 2010.06.25/outbox.cif.g09.slc.cpg/sg2_94_cif.got.tgz:186926.got - 2010.06.27 13:26:56.
