data_PCOD8040729
_publ_section_title
;
Structure prediction by ZEFSAII (Michael W. Deem and Ramdas Pophale) SiO2 
 PCOD8040729
Probable space group: P -1
;
_chemical_formula_sum "Si O2"
_cell_formula_units_Z 14
_cell_length_a 7.779007
_cell_length_b 11.567874
_cell_length_c 6.472182
_cell_angle_alpha 88.742058
_cell_angle_beta 97.294161
_cell_angle_gamma 58.310247
_cell_volume 488.845705
_symmetry_space_group_name_H-M "P -1"
_symmetry_group_IT_number 2
_symmetry_cell_setting 'triclinic'
loop_
_space_group_symop_operation_xyz
x,y,z
-x,-y,-z
loop_
_atom_site_type_symbol
_atom_site_label
_atom_site_fract_x
_atom_site_fract_y
_atom_site_fract_z
Si Si1 0.591582 0.852810 0.926085
Si Si2 0.987467 0.728974 0.703474
Si Si3 0.541991 0.616471 0.547777
Si Si4 0.825185 0.651114 0.310548
Si Si5 0.812045 0.102446 0.204640
Si Si6 0.173236 0.553515 0.090673
Si Si7 0.831805 0.184328 0.757347
O O1 0.789301 0.810101 0.817664
O O2 0.420431 0.847673 0.758230
O O3 0.640197 0.761721 0.140536
O O4 0.500000 0.000000 0.000000
O O5 0.927743 0.713721 0.465629
O O6 0.107428 0.806650 0.688661
O O7 0.150903 0.580075 0.839440
O O8 0.500000 0.500000 0.500000
O O9 0.744978 0.579578 0.452517
O O10 0.615184 0.588206 0.805133
O O11 0.347270 0.764381 0.447942
O O12 0.989614 0.545007 0.170649
O O13 0.959958 0.943882 0.300677
O O14 0.787253 0.120126 0.951802
O O15 0.146116 0.691574 0.176631
#
# Coordination Sequence:
#
# PCOD8040729 Si02
#       7
#     2   2   2   2   2   2   2
#     4  11  22  41  64  94 132 174 210 254 318 388
#     4  10  24  40  62 101 129 163 216 265 315 385
#     4  10  20  37  64  93 119 169 217 258 318 382
#     4  11  22  41  64  94 129 165 214 265 321 376
#     4  10  18  38  62  90 131 166 206 261 319 374
#     4   9  20  39  64  86 126 166 210 260 320 372
#     4   9  17  35  62  89 118 167 212 250 311 384
#
# _framework density 28.638895000000002
#
# number of rings (size 3 to 8) (size 9 to 14) (size 15 to 20)
#    0.000    2.000    1.429    3.857    0.000    1.143 
#    5.143    1.429    0.000    6.857    0.000    0.000 
#    0.000    0.000    0.000    0.000    0.000    0.000 
#
# Total GULP energy -173498.906714 kJ/mol
# GULP energy per Si atom -12392.779051 kJ/mol
# Density = 2.857371 g / cm^3
# Si number density = 28.638895 Si / 1000 Ang^3
#
#
#
# Elastic Constant Matrix: (Units=GPa)
#
#
# Indices 1 2 3 4 5 6 
#
# 1 156.7739 22.0674 38.1407 -6.0898 23.0586 10.4717
# 2 22.0674 92.0661 49.7179 -29.5609 21.4967 -4.3169
# 3 38.1407 49.7179 141.5549 -9.3864 26.7146 -9.6708
# 4 -6.0898 -29.5609 -9.3864 49.8838 -7.0681 10.3871
# 5 23.0586 21.4967 26.7146 -7.0681 49.8374 -3.4108
# 6 10.4717 -4.3169 -9.6708 10.3871 -3.4108 48.3401
#
#
#
# Elastic Compliance Matrix: (Units=1/GPa)
#
#
# Indices 1 2 3 4 5 6 
#
# 1 0.007327 -0.000275 -0.001514 0.000548 -0.002534 -0.002211
# 2 -0.000275 0.017184 -0.004800 0.009072 -0.003532 -0.001565
# 3 -0.001514 -0.004800 0.009647 -0.002008 -0.002542 0.002081
# 4 0.000548 0.009072 -0.002008 0.026260 0.000269 -0.005334
# 5 -0.002534 -0.003532 -0.002542 0.000269 0.024256 0.001378
# 6 -0.002211 -0.001565 0.002081 -0.005334 0.001378 0.022686
#
#
# Mechanical properties :
#
#
# Convention : Reuss Voigt Hill
#
# Bulk Modulus (GPa) = 47.66381 67.80520 57.73450
# Shear Modulus (GPa) = 39.20549 48.31018 43.75784
#
# Velocity S-wave (km/s) = 3.70396 4.11161 3.91310
# Velocity P-wave (km/s) = 5.91368 6.80204 6.37336
#
# Compressibility (1/GPa) = 0.02098028
#
# Stress axis : x y z
#
# Youngs Moduli (GPa) = 136.47509 58.19363 103.65606
#
# Poissons Ratio (x) = 0.01598 0.15698
# Poissons Ratio (y) = 0.03746 0.49757
# Poissons Ratio (z) = 0.20668 0.27934
#
# Static dielectric constant tensor:
#      x y z
#    x 5.732680 -0.120160 0.546670 
#    y -0.120160 5.080830 -0.275220 
#    z 0.546670 -0.275220 6.600730 
# 
# 
# High freq. dielectric constant tensor:
#      x y z
#    x 2.177100 0.010710 0.014960 
#    y 0.010710 2.162310 -0.009990 
#    z 0.014960 -0.009990 2.184690 
# 
# From -- ./inp_files/37365.got.cif
#   From: 2010.06.25/outbox.cif.g09.slc.cpg/sg2_19_cif.got.tgz:37365.got - 2010.06.27 13:26:56.
