data_PCOD8040817
_publ_section_title
;
Structure prediction by ZEFSAII (Michael W. Deem and Ramdas Pophale) SiO2 
 PCOD8040817
Probable space group: P -1
;
_chemical_formula_sum "Si O2"
_cell_formula_units_Z 16
_cell_length_a 15.622208
_cell_length_b 11.939412
_cell_length_c 8.831983
_cell_angle_alpha 126.577713
_cell_angle_beta 45.992988
_cell_angle_gamma 141.362938
_cell_volume 734.591601
_symmetry_space_group_name_H-M "P -1"
_symmetry_group_IT_number 2
_symmetry_cell_setting 'triclinic'
loop_
_space_group_symop_operation_xyz
x,y,z
-x,-y,-z
loop_
_atom_site_type_symbol
_atom_site_label
_atom_site_fract_x
_atom_site_fract_y
_atom_site_fract_z
Si Si1 0.853955 0.374806 0.686419
Si Si2 0.531847 0.733118 0.325165
Si Si3 0.844323 0.064377 0.366794
Si Si4 0.481133 0.781208 0.091292
Si Si5 0.912866 0.876686 0.366081
Si Si6 0.033587 0.721444 0.900849
Si Si7 0.371005 0.869933 0.681311
Si Si8 0.570744 0.598182 0.647902
O O1 0.820869 0.185069 0.599165
O O2 0.701782 0.330165 0.764497
O O3 0.000000 0.500000 0.500000
O O4 0.903762 0.500638 0.876400
O O5 0.542090 0.753480 0.147782
O O6 0.391913 0.720249 0.561627
O O7 0.497089 0.547024 0.251957
O O8 0.688489 0.900061 0.345268
O O9 0.967216 0.193110 0.187659
O O10 0.908717 0.987412 0.327103
O O11 0.578171 0.998479 0.130582
O O12 0.524705 0.722103 0.844424
O O13 0.750373 0.714042 0.502351
O O14 0.000000 0.000000 0.500000
O O15 0.995353 0.797576 0.144341
O O16 0.199680 0.774379 0.760649
O O17 0.500000 0.000000 0.500000
O O18 0.500000 0.500000 0.500000
#
# Coordination Sequence:
#
# PCOD8040817 Si02
#       8
#     2   2   2   2   2   2   2   2
#     4  10  21  37  66 105 128 153 208 279 328 367
#     4  11  21  41  71  97 123 163 222 268 311 375
#     4  11  21  43  69  96 124 167 214 269 319 378
#     4  11  21  40  68  96 125 167 218 261 315 381
#     4  12  28  45  62  92 138 176 210 260 321 382
#     4  11  22  43  69  96 130 164 211 268 324 379
#     4  10  18  38  69  99 122 157 213 273 317 370
#     4  12  26  44  61  92 136 176 214 257 311 379
#
# _framework density 21.780809000000001
#
# number of rings (size 3 to 8) (size 9 to 14) (size 15 to 20)
#    0.000    1.000    5.000    4.500    0.000    3.000 
#    0.000    7.500    0.000    0.000    0.000    0.000 
#    0.000    0.000    0.000    0.000    0.000    0.000 
#
# Total GULP energy -198313.936734 kJ/mol
# GULP energy per Si atom -12394.621046 kJ/mol
# Density = 2.173123 g / cm^3
# Si number density = 21.780809 Si / 1000 Ang^3
#
#
#
# Elastic Constant Matrix: (Units=GPa)
#
#
# Indices 1 2 3 4 5 6 
#
# 1 77.0941 15.5047 24.9367 5.4988 -0.7116 35.0357
# 2 15.5047 84.3217 20.4033 16.3449 2.9133 27.6109
# 3 24.9367 20.4033 129.4829 29.1256 1.2744 13.2733
# 4 5.4988 16.3449 29.1256 38.5379 7.5526 1.9097
# 5 -0.7116 2.9133 1.2744 7.5526 29.0102 6.5103
# 6 35.0357 27.6109 13.2733 1.9097 6.5103 36.3026
#
#
#
# Elastic Compliance Matrix: (Units=1/GPa)
#
#
# Indices 1 2 3 4 5 6 
#
# 1 0.027193 0.006636 -0.001891 -0.005378 0.008635 -0.031865
# 2 0.006636 0.019276 -0.000136 -0.009013 0.005407 -0.021511
# 3 -0.001891 -0.000136 0.009938 -0.007462 0.001842 -0.001642
# 4 -0.005378 -0.009013 -0.007462 0.037808 -0.012098 0.014955
# 5 0.008635 0.005407 0.001842 -0.012098 0.041687 -0.019959
# 6 -0.031865 -0.021511 -0.001642 0.014955 -0.019959 0.078053
#
#
# Mechanical properties :
#
#
# Convention : Reuss Voigt Hill
#
# Bulk Modulus (GPa) = 15.23849 45.84311 30.54080
# Shear Modulus (GPa) = 22.06402 36.10706 29.08554
#
# Velocity S-wave (km/s) = 3.18622 4.07596 3.65824
# Velocity P-wave (km/s) = 4.53294 6.57605 5.64765
#
# Compressibility (1/GPa) = 0.06562329
#
# Stress axis : x y z
#
# Youngs Moduli (GPa) = 36.77427 51.87768 100.62843
#
# Poissons Ratio (x) = -0.34425 0.19032
# Poissons Ratio (y) = -0.24403 0.01370
# Poissons Ratio (z) = 0.06955 0.00706
#
# Static dielectric constant tensor:
#      x y z
#    x 4.002770 0.138410 -0.053230 
#    y 0.138410 2.941590 -0.391860 
#    z -0.053230 -0.391860 3.575090 
# 
# 
# High freq. dielectric constant tensor:
#      x y z
#    x 1.843580 0.021810 -0.012520 
#    y 0.021810 1.858490 0.029410 
#    z -0.012520 0.029410 1.863340 
# 
# From -- ./inp_files/186612.got.cif
#   From: 2010.06.25/outbox.cif.g09.slc.cpg/sg2_94_cif.got.tgz:186612.got - 2010.06.27 13:26:56.
