data_PCOD8040829
_publ_section_title
;
Structure prediction by ZEFSAII (Michael W. Deem and Ramdas Pophale) SiO2 
 PCOD8040829
Probable space group: P -1
;
_chemical_formula_sum "Si O2"
_cell_formula_units_Z 14
_cell_length_a 12.218683
_cell_length_b 7.003971
_cell_length_c 8.052494
_cell_angle_alpha 48.978691
_cell_angle_beta 92.181226
_cell_angle_gamma 82.065726
_cell_volume 507.254886
_symmetry_space_group_name_H-M "P -1"
_symmetry_group_IT_number 2
_symmetry_cell_setting 'triclinic'
loop_
_space_group_symop_operation_xyz
x,y,z
-x,-y,-z
loop_
_atom_site_type_symbol
_atom_site_label
_atom_site_fract_x
_atom_site_fract_y
_atom_site_fract_z
Si Si1 0.712328 0.800770 0.390465
Si Si2 0.291468 0.483337 0.129133
Si Si3 0.936022 0.753314 0.257868
Si Si4 0.899580 0.999159 0.709989
Si Si5 0.085678 0.606009 0.808423
Si Si6 0.479967 0.065886 0.271232
Si Si7 0.676473 0.258545 0.695002
O O1 0.735751 0.746123 0.621252
O O2 0.819837 0.877517 0.272085
O O3 0.686882 0.536024 0.456667
O O4 0.605701 0.042779 0.217111
O O5 0.397698 0.351300 0.091348
O O6 0.319573 0.708419 0.122921
O O7 0.185448 0.603764 0.943726
O O8 0.019552 0.947479 0.165102
O O9 0.909573 0.678035 0.110353
O O10 0.000000 0.500000 0.500000
O O11 0.896799 0.194076 0.446197
O O12 0.776733 0.029065 0.764350
O O13 0.958317 0.706034 0.819196
O O14 0.500000 0.000000 0.500000
O O15 0.435221 0.834077 0.309837
#
# Coordination Sequence:
#
# PCOD8040829 Si02
#       7
#     2   2   2   2   2   2   2
#     4   9  19  38  59  80 112 145 184 230 273 322
#     4   9  21  36  55  85 114 143 184 236 274 317
#     4  10  18  39  58  80 114 146 186 223 273 335
#     4  10  22  37  60  81 112 154 180 223 281 331
#     4  10  20  36  56  84 114 146 188 223 274 337
#     4  10  21  36  61  83 106 150 189 227 275 326
#     4  10  20  38  58  84 113 142 188 229 274 329
#
# _framework density 27.599539
#
# number of rings (size 3 to 8) (size 9 to 14) (size 15 to 20)
#    0.857    1.429    2.857    0.429    0.000    9.714 
#    0.000   10.714    0.000    8.571    0.000    0.000 
#    0.000    0.000    0.000    0.000    0.000    0.000 
#
# Total GULP energy -173522.460854 kJ/mol
# GULP energy per Si atom -12394.461490 kJ/mol
# Density = 2.753672 g / cm^3
# Si number density = 27.599539 Si / 1000 Ang^3
#
#
#
# Elastic Constant Matrix: (Units=GPa)
#
#
# Indices 1 2 3 4 5 6 
#
# 1 75.5687 24.2336 28.3622 5.7879 33.6422 -27.4230
# 2 24.2336 138.2172 48.3963 -5.4143 21.7852 -16.7180
# 3 28.3622 48.3963 107.9530 14.8968 26.6853 -0.1973
# 4 5.7879 -5.4143 14.8968 49.4536 3.7512 18.3508
# 5 33.6422 21.7852 26.6853 3.7512 41.2025 -3.6673
# 6 -27.4230 -16.7180 -0.1973 18.3508 -3.6673 53.4887
#
#
#
# Elastic Compliance Matrix: (Units=1/GPa)
#
#
# Indices 1 2 3 4 5 6 
#
# 1 0.029747 0.000433 -0.001696 -0.007420 -0.021279 0.016467
# 2 0.000433 0.009261 -0.003785 0.001406 -0.002710 0.002435
# 3 -0.001696 -0.003785 0.013071 -0.003340 -0.004882 -0.001193
# 4 -0.007420 0.001406 -0.003340 0.026469 0.003984 -0.012185
# 5 -0.021279 -0.002710 -0.004882 0.003984 0.044981 -0.010057
# 6 0.016467 0.002435 -0.001193 -0.012185 -0.010057 0.031385
#
#
# Mechanical properties :
#
#
# Convention : Reuss Voigt Hill
#
# Bulk Modulus (GPa) = 23.81855 58.19147 41.00501
# Shear Modulus (GPa) = 27.93211 43.54542 35.73876
#
# Velocity S-wave (km/s) = 3.18472 3.97641 3.60238
# Velocity P-wave (km/s) = 4.70872 6.49711 5.67382
#
# Compressibility (1/GPa) = 0.04198408
#
# Stress axis : x y z
#
# Youngs Moduli (GPa) = 33.61639 107.97819 76.50344
#
# Poissons Ratio (x) = -0.04676 0.12973
# Poissons Ratio (y) = -0.01456 0.28958
# Poissons Ratio (z) = 0.05700 0.40872
#
# Static dielectric constant tensor:
#      x y z
#    x 4.937630 -0.239520 0.297150 
#    y -0.239520 6.011300 0.044510 
#    z 0.297150 0.044510 5.056630 
# 
# 
# High freq. dielectric constant tensor:
#      x y z
#    x 2.104230 -0.005900 0.002630 
#    y -0.005900 2.131880 -0.005710 
#    z 0.002630 -0.005710 2.125220 
# 
# From -- ./inp_files/237819.got.cif
#   From: 2010.06.25/outbox.cif.g09.slc.cpg/sg2_119_cif.got.tgz:237819.got - 2010.06.27 13:26:56.
