data_PCOD8040752
_publ_section_title
;
Structure prediction by ZEFSAII (Michael W. Deem and Ramdas Pophale) SiO2 
 PCOD8040752
Probable space group: P -1
;
_chemical_formula_sum "Si O2"
_cell_formula_units_Z 16
_cell_length_a 9.690641
_cell_length_b 10.803669
_cell_length_c 18.561037
_cell_angle_alpha 132.382788
_cell_angle_beta 33.549319
_cell_angle_gamma 121.581204
_cell_volume 789.815010
_symmetry_space_group_name_H-M "P -1"
_symmetry_group_IT_number 2
_symmetry_cell_setting 'triclinic'
loop_
_space_group_symop_operation_xyz
x,y,z
-x,-y,-z
loop_
_atom_site_type_symbol
_atom_site_label
_atom_site_fract_x
_atom_site_fract_y
_atom_site_fract_z
Si Si1 0.891120 0.305696 0.400637
Si Si2 0.819155 0.223508 0.655211
Si Si3 0.346552 0.073641 0.315768
Si Si4 0.706957 0.987435 0.842559
Si Si5 0.670977 0.327228 0.352974
Si Si6 0.844674 0.545389 0.856366
Si Si7 0.373097 0.639914 0.002070
Si Si8 0.322246 0.541752 0.309657
O O1 0.747770 0.264925 0.374944
O O2 0.678622 0.382926 0.580105
O O3 0.067998 0.454530 0.369417
O O4 0.046146 0.132830 0.290830
O O5 0.920433 0.362776 0.717368
O O6 0.653354 0.305080 0.694833
O O7 0.054511 0.122916 0.475881
O O8 0.625395 0.117246 0.741704
O O9 0.528162 0.184384 0.322474
O O10 0.406316 0.088264 0.210550
O O11 0.778435 0.175377 0.864886
O O12 0.500000 0.000000 0.000000
O O13 0.500000 0.500000 0.500000
O O14 0.917639 0.347092 0.205805
O O15 0.620362 0.646097 0.947930
O O16 0.780327 0.503965 0.951354
O O17 0.445806 0.591793 0.867747
#
# Coordination Sequence:
#
# PCOD8040752 Si02
#       8
#     2   2   2   2   2   2   2   2
#     4  11  22  37  63  96 129 159 213 265 317 374
#     4  10  18  38  64  91 117 164 218 254 294 381
#     4  11  23  36  65  95 124 161 209 262 317 368
#     4  12  22  38  62  96 128 168 209 262 311 380
#     4  12  23  40  64  99 129 163 208 275 319 369
#     4  10  19  38  64  91 125 163 221 256 308 368
#     4  10  20  36  66  91 121 168 218 258 297 381
#     4  10  19  37  65  89 118 167 217 254 299 379
#
# _framework density 20.257909000000001
#
# number of rings (size 3 to 8) (size 9 to 14) (size 15 to 20)
#    0.000    1.250    7.500    0.000    1.750    0.000 
#    0.000    3.125    0.000    1.500    0.000    0.000 
#    0.000    0.000    0.000    0.000    0.000    0.000 
#
# Total GULP energy -198274.610840 kJ/mol
# GULP energy per Si atom -12392.163178 kJ/mol
# Density = 2.021180 g / cm^3
# Si number density = 20.257909 Si / 1000 Ang^3
#
#
#
# Elastic Constant Matrix: (Units=GPa)
#
#
# Indices 1 2 3 4 5 6 
#
# 1 112.1113 57.6898 47.7600 2.3089 19.6373 -6.1957
# 2 57.6898 103.5638 32.7769 2.0378 0.9920 -7.8140
# 3 47.7600 32.7769 102.8634 -2.6994 24.0676 -7.0135
# 4 2.3089 2.0378 -2.6994 34.8014 -9.0424 -3.9258
# 5 19.6373 0.9920 24.0676 -9.0424 36.3114 3.0502
# 6 -6.1957 -7.8140 -7.0135 -3.9258 3.0502 30.4181
#
#
#
# Elastic Compliance Matrix: (Units=1/GPa)
#
#
# Indices 1 2 3 4 5 6 
#
# 1 0.015336 -0.007343 -0.003236 -0.002467 -0.006633 0.000838
# 2 -0.007343 0.014512 -0.002330 0.000967 0.005251 0.001293
# 3 -0.003236 -0.002330 0.013952 -0.000270 -0.007727 0.002699
# 4 -0.002467 0.000967 -0.000270 0.031503 0.009094 0.002838
# 5 -0.006633 0.005251 -0.007727 0.009094 0.038747 -0.004496
# 6 0.000838 0.001293 0.002699 0.002838 -0.004496 0.034817
#
#
# Mechanical properties :
#
#
# Convention : Reuss Voigt Hill
#
# Bulk Modulus (GPa) = 55.61473 66.11022 60.86248
# Shear Modulus (GPa) = 27.67317 32.32697 30.00007
#
# Velocity S-wave (km/s) = 3.70001 3.99904 3.85243
# Velocity P-wave (km/s) = 6.76509 7.35039 7.06380
#
# Compressibility (1/GPa) = 0.01798085
#
# Stress axis : x y z
#
# Youngs Moduli (GPa) = 65.20586 68.90829 71.67607
#
# Poissons Ratio (x) = 0.50601 0.23197
# Poissons Ratio (y) = 0.47883 0.16699
# Poissons Ratio (z) = 0.21103 0.16054
#
# Static dielectric constant tensor:
#      x y z
#    x 3.456770 -0.264180 0.268890 
#    y -0.264180 4.009740 0.151770 
#    z 0.268890 0.151770 4.136900 
# 
# 
# High freq. dielectric constant tensor:
#      x y z
#    x 1.752550 -0.036560 0.021550 
#    y -0.036560 1.788320 0.006430 
#    z 0.021550 0.006430 1.807110 
# 
# From -- ./inp_files/558596.got.cif
#   From: 2010.06.25/outbox.cif.g09.slc.cpg/sg2_280_cif.got.tgz:558596.got - 2010.06.27 13:26:56.
