data_PCOD8040026
_publ_section_title
;
Structure prediction by ZEFSAII (Michael W. Deem and Ramdas Pophale) SiO2 
 PCOD8040026
Probable space group: P -1
;
_chemical_formula_sum "Si O2"
_cell_formula_units_Z 14
_cell_length_a 11.772725
_cell_length_b 8.241348
_cell_length_c 12.673855
_cell_angle_alpha 76.653680
_cell_angle_beta 79.531273
_cell_angle_gamma 140.074206
_cell_volume 628.535295
_symmetry_space_group_name_H-M "P -1"
_symmetry_group_IT_number 2
_symmetry_cell_setting 'triclinic'
loop_
_space_group_symop_operation_xyz
x,y,z
-x,-y,-z
loop_
_atom_site_type_symbol
_atom_site_label
_atom_site_fract_x
_atom_site_fract_y
_atom_site_fract_z
Si Si1 0.821244 0.643149 0.080929
Si Si2 0.610823 0.573249 0.304547
Si Si3 0.805645 0.788955 0.644947
Si Si4 0.083084 0.296212 0.167603
Si Si5 0.025051 0.369724 0.585535
Si Si6 0.474086 0.807171 0.461601
Si Si7 0.910226 0.428840 0.220018
O O1 0.627641 0.469284 0.215406
O O2 0.924066 0.593887 0.108912
O O3 0.758158 0.544476 0.983003
O O4 0.000000 0.000000 0.000000
O O5 0.433480 0.503250 0.324610
O O6 0.515688 0.350435 0.450319
O O7 0.843302 0.931261 0.241443
O O8 0.811588 0.657640 0.754380
O O9 0.000000 0.000000 0.500000
O O10 0.828077 0.002021 0.658476
O O11 0.080857 0.492709 0.154976
O O12 0.242343 0.538970 0.483528
O O13 0.038187 0.431867 0.695900
O O14 0.000000 0.500000 0.500000
O O15 0.500000 0.000000 0.500000
O O16 0.673750 0.052742 0.310346
#
# Coordination Sequence:
#
# PCOD8040026 Si02
#       7
#     2   2   2   2   2   2   2
#     4  10  21  42  68  89 121 173 220 255 314 376
#     4  11  22  42  66  95 129 170 208 261 320 376
#     4  12  25  40  64  98 131 164 210 263 324 378
#     4  11  24  42  64  93 132 170 212 261 310 382
#     4  11  21  36  59  95 131 164 205 259 318 381
#     4  10  18  35  61  91 123 159 207 252 319 368
#     4  11  22  40  66  91 127 168 210 262 323 375
#
# _framework density 22.274007999999998
#
# number of rings (size 3 to 8) (size 9 to 14) (size 15 to 20)
#    0.000    1.143    4.286    4.714    2.000    1.714 
#    0.000    0.000    0.000    5.143    0.000    0.000 
#    0.000    0.000    0.000    0.000    0.000    0.000 
#
# Total GULP energy -173567.532177 kJ/mol
# GULP energy per Si atom -12397.680870 kJ/mol
# Density = 2.222331 g / cm^3
# Si number density = 22.274008 Si / 1000 Ang^3
#
#
#
# Elastic Constant Matrix: (Units=GPa)
#
#
# Indices 1 2 3 4 5 6 
#
# 1 145.4969 9.9232 44.5304 1.7261 27.0659 9.5596
# 2 9.9232 45.3783 3.2607 -7.2057 9.8572 11.0492
# 3 44.5304 3.2607 99.0390 6.3428 34.5870 2.0927
# 4 1.7261 -7.2057 6.3428 25.5621 1.7496 6.5879
# 5 27.0659 9.8572 34.5870 1.7496 42.2159 2.4736
# 6 9.5596 11.0492 2.0927 6.5879 2.4736 40.2100
#
#
#
# Elastic Compliance Matrix: (Units=1/GPa)
#
#
# Indices 1 2 3 4 5 6 
#
# 1 0.008392 -0.000507 -0.002728 0.000589 -0.002957 -0.001629
# 2 -0.000507 0.027303 0.001325 0.010120 -0.007047 -0.008675
# 3 -0.002728 0.001325 0.015279 -0.002634 -0.011004 0.000598
# 4 0.000589 0.010120 -0.002634 0.045316 -0.001869 -0.010093
# 5 -0.002957 -0.007047 -0.011004 -0.001869 0.036246 0.001289
# 6 -0.001629 -0.008675 0.000598 -0.010093 0.001289 0.029184
#
#
# Mechanical properties :
#
#
# Convention : Reuss Voigt Hill
#
# Bulk Modulus (GPa) = 21.20648 45.03809 33.12229
# Shear Modulus (GPa) = 27.58511 37.07760 32.33135
#
# Velocity S-wave (km/s) = 3.52297 4.08439 3.81403
# Velocity P-wave (km/s) = 5.10782 6.51973 5.85648
#
# Compressibility (1/GPa) = 0.04715539
#
# Stress axis : x y z
#
# Youngs Moduli (GPa) = 119.15593 36.62646 65.44990
#
# Poissons Ratio (x) = 0.01856 0.17852
# Poissons Ratio (y) = 0.06039 -0.08673
# Poissons Ratio (z) = 0.32500 -0.04853
#
# Static dielectric constant tensor:
#      x y z
#    x 4.356870 -0.005850 -0.412990 
#    y -0.005850 4.342370 -0.043170 
#    z -0.412990 -0.043170 4.382280 
# 
# 
# High freq. dielectric constant tensor:
#      x y z
#    x 1.888360 -0.019540 0.005560 
#    y -0.019540 1.867520 0.009690 
#    z 0.005560 0.009690 1.871040 
# 
# From -- ./inp_files/177668.got.cif
#   From: 2010.06.25/outbox.cif.g09.slc.cpg/sg2_89_cif.got.tgz:177668.got - 2010.06.27 13:26:56.
