data_PCOD8040953
_publ_section_title
;
Structure prediction by ZEFSAII (Michael W. Deem and Ramdas Pophale) SiO2 
 PCOD8040953
Probable space group: P -1
;
_chemical_formula_sum "Si O2"
_cell_formula_units_Z 16
_cell_length_a 14.845402
_cell_length_b 11.337928
_cell_length_c 9.197482
_cell_angle_alpha 73.808301
_cell_angle_beta 134.705792
_cell_angle_gamma 131.730293
_cell_volume 766.984407
_symmetry_space_group_name_H-M "P -1"
_symmetry_group_IT_number 2
_symmetry_cell_setting 'triclinic'
loop_
_space_group_symop_operation_xyz
x,y,z
-x,-y,-z
loop_
_atom_site_type_symbol
_atom_site_label
_atom_site_fract_x
_atom_site_fract_y
_atom_site_fract_z
Si Si1 0.391373 0.007697 0.758308
Si Si2 0.441034 0.688713 0.004696
Si Si3 0.399046 0.148607 0.165228
Si Si4 0.271617 0.443379 0.308884
Si Si5 0.585220 0.579703 0.795767
Si Si6 0.598592 0.203059 0.650347
Si Si7 0.108721 0.764356 0.932179
Si Si8 0.136284 0.662921 0.693772
O O1 0.200129 0.819259 0.610112
O O2 0.475310 0.051942 0.679063
O O3 0.500000 0.000000 0.000000
O O4 0.391744 0.149878 0.767074
O O5 0.460236 0.736725 0.841493
O O6 0.281902 0.659947 0.902973
O O7 0.410898 0.523503 0.041727
O O8 0.338213 0.242137 0.117857
O O9 0.496165 0.133635 0.404973
O O10 0.226889 0.964726 0.974851
O O11 0.382773 0.457542 0.560815
O O12 0.288057 0.370441 0.210431
O O13 0.361423 0.632764 0.308888
O O14 0.070389 0.319047 0.165540
O O15 0.783772 0.255806 0.832953
O O16 0.063218 0.669975 0.759002
O O17 0.000000 0.500000 0.500000
#
# Coordination Sequence:
#
# PCOD8040953 Si02
#       8
#     2   2   2   2   2   2   2   2
#     4  10  18  40  66  89 125 169 201 252 320 382
#     4  11  20  44  69  88 127 176 209 262 314 386
#     4  11  25  39  67  96 132 172 218 254 312 391
#     4  10  23  40  67  91 127 166 223 268 311 377
#     4  10  22  44  64  89 121 180 223 254 315 375
#     4  11  21  42  66  97 127 174 206 260 329 383
#     4  12  22  42  62  99 135 161 208 275 324 374
#     4  11  24  39  66  99 133 157 206 270 331 381
#
# _framework density 20.86092
#
# number of rings (size 3 to 8) (size 9 to 14) (size 15 to 20)
#    0.000    1.250    5.000    1.875    3.500    0.500 
#    4.500    1.875    0.000    0.000    0.000    0.000 
#    0.000    0.000    0.000    0.000    0.000    0.000 
#
# Total GULP energy -198358.151237 kJ/mol
# GULP energy per Si atom -12397.384452 kJ/mol
# Density = 2.081344 g / cm^3
# Si number density = 20.860920 Si / 1000 Ang^3
#
#
#
# Elastic Constant Matrix: (Units=GPa)
#
#
# Indices 1 2 3 4 5 6 
#
# 1 121.5788 40.1210 50.0393 6.2830 -1.6708 1.3524
# 2 40.1210 105.3989 56.4408 0.7864 -4.9565 -1.6031
# 3 50.0393 56.4408 86.9697 4.4683 -12.2496 4.0263
# 4 6.2830 0.7864 4.4683 41.6259 -4.9134 -9.1492
# 5 -1.6708 -4.9565 -12.2496 -4.9134 32.2428 3.1385
# 6 1.3524 -1.6031 4.0263 -9.1492 3.1385 37.0597
#
#
#
# Elastic Compliance Matrix: (Units=1/GPa)
#
#
# Indices 1 2 3 4 5 6 
#
# 1 0.011041 -0.001176 -0.005810 -0.001249 -0.002010 0.000039
# 2 -0.001176 0.014897 -0.009340 0.001205 -0.001341 0.002113
# 3 -0.005810 -0.009340 0.022087 -0.001281 0.006798 -0.003484
# 4 -0.001249 0.001205 -0.001281 0.026091 0.002984 0.006425
# 5 -0.002010 -0.001341 0.006798 0.002984 0.034021 -0.002868
# 6 0.000039 0.002113 -0.003484 0.006425 -0.002868 0.029281
#
#
# Mechanical properties :
#
#
# Convention : Reuss Voigt Hill
#
# Bulk Modulus (GPa) = 65.04844 67.46107 66.25475
# Shear Modulus (GPa) = 28.53974 33.34208 30.94091
#
# Velocity S-wave (km/s) = 3.70279 4.00222 3.85541
# Velocity P-wave (km/s) = 7.03779 7.33251 7.18666
#
# Compressibility (1/GPa) = 0.01537316
#
# Stress axis : x y z
#
# Youngs Moduli (GPa) = 90.57082 67.12823 45.27581
#
# Poissons Ratio (x) = 0.07896 0.26306
# Poissons Ratio (y) = 0.10653 0.42285
# Poissons Ratio (z) = 0.52623 0.62695
#
# Static dielectric constant tensor:
#      x y z
#    x 3.799120 -0.009020 0.042640 
#    y -0.009020 5.152210 0.879390 
#    z 0.042640 0.879390 4.255210 
# 
# 
# High freq. dielectric constant tensor:
#      x y z
#    x 1.817600 -0.011850 -0.023030 
#    y -0.011850 1.831560 -0.000460 
#    z -0.023030 -0.000460 1.790350 
# 
# From -- ./inp_files/307417.got.cif
#   From: 2010.06.25/outbox.cif.g09.slc.cpg/sg2_154_cif.got.tgz:307417.got - 2010.06.27 13:26:56.
