data_PCOD8040248
_publ_section_title
;
Structure prediction by ZEFSAII (Michael W. Deem and Ramdas Pophale) SiO2 
 PCOD8040248
Probable space group: P -1
;
_chemical_formula_sum "Si O2"
_cell_formula_units_Z 16
_cell_length_a 11.005153
_cell_length_b 22.482026
_cell_length_c 19.411520
_cell_angle_alpha 20.002431
_cell_angle_beta 142.640130
_cell_angle_gamma 150.204950
_cell_volume 810.292164
_symmetry_space_group_name_H-M "P -1"
_symmetry_group_IT_number 2
_symmetry_cell_setting 'triclinic'
loop_
_space_group_symop_operation_xyz
x,y,z
-x,-y,-z
loop_
_atom_site_type_symbol
_atom_site_label
_atom_site_fract_x
_atom_site_fract_y
_atom_site_fract_z
Si Si1 0.732631 0.058873 0.129742
Si Si2 0.816809 0.847913 0.280028
Si Si3 0.250249 0.720639 0.457184
Si Si4 0.767121 0.871675 0.486345
Si Si5 0.853268 0.954666 0.913364
Si Si6 0.473394 0.525416 0.267517
Si Si7 0.299874 0.574628 0.276294
Si Si8 0.236125 0.671221 0.349694
O O1 0.873088 0.001773 0.202816
O O2 0.778818 0.024388 0.266843
O O3 0.433637 0.898245 0.153833
O O4 0.833651 0.307057 0.900446
O O5 0.528646 0.694864 0.300462
O O6 0.882665 0.679306 0.512246
O O7 0.974263 0.003663 0.118724
O O8 0.518382 0.768571 0.532643
O O9 0.183773 0.725515 0.342027
O O10 0.024179 0.481073 0.642874
O O11 0.244711 0.899346 0.300073
O O12 0.756057 0.677716 0.655271
O O13 0.000000 0.000000 0.500000
O O14 0.620910 0.709181 0.076827
O O15 0.000000 0.000000 0.000000
O O16 0.385272 0.606130 0.201007
O O17 0.640524 0.457687 0.449248
#
# Coordination Sequence:
#
# PCOD8040248 Si02
#       8
#     2   2   2   2   2   2   2   2
#     4  10  21  38  58  87 125 164 205 238 309 363
#     4  11  23  34  54  90 138 158 191 239 305 383
#     4   9  18  31  51  83 118 149 188 239 311 347
#     4  10  22  40  64  87 117 157 215 270 290 339
#     4  12  21  33  54  91 127 158 190 243 302 379
#     4  10  18  36  59  86 123 153 195 251 306 353
#     4  11  20  36  56  87 124 166 195 237 302 383
#     4   9  16  30  54  82 117 151 183 245 300 366
#
# _framework density 19.745964000000001
#
# number of rings (size 3 to 8) (size 9 to 14) (size 15 to 20)
#    0.000    2.000    5.000    1.875    1.750    0.000 
#    4.500    2.500    0.000    1.500    0.000    0.000 
#    0.000    0.000    0.000    0.000    0.000    0.000 
#
# Total GULP energy -198301.598954 kJ/mol
# GULP energy per Si atom -12393.849935 kJ/mol
# Density = 1.970102 g / cm^3
# Si number density = 19.745964 Si / 1000 Ang^3
#
#
#
# Elastic Constant Matrix: (Units=GPa)
#
#
# Indices 1 2 3 4 5 6 
#
# 1 85.8404 24.6256 35.4562 -1.2822 4.2662 -10.5499
# 2 24.6256 100.5830 23.2977 -11.8211 3.7110 -0.1886
# 3 35.4562 23.2977 107.7899 -13.1967 5.3265 -8.5749
# 4 -1.2822 -11.8211 -13.1967 12.3524 -1.7590 0.7798
# 5 4.2662 3.7110 5.3265 -1.7590 38.9892 -5.6706
# 6 -10.5499 -0.1886 -8.5749 0.7798 -5.6706 14.9921
#
#
#
# Elastic Compliance Matrix: (Units=1/GPa)
#
#
# Indices 1 2 3 4 5 6 
#
# 1 0.015498 -0.003582 -0.004517 -0.007166 0.000208 0.008729
# 2 -0.003582 0.012219 -0.000344 0.011068 -0.000721 -0.003412
# 3 -0.004517 -0.000344 0.012637 0.012471 -0.000151 0.003339
# 4 -0.007166 0.011068 0.012471 0.104616 0.002412 -0.002299
# 5 0.000208 -0.000721 -0.000151 0.002412 0.027315 0.010257
# 6 0.008729 -0.003412 0.003339 -0.002299 0.010257 0.078711
#
#
# Mechanical properties :
#
#
# Convention : Reuss Voigt Hill
#
# Bulk Modulus (GPa) = 42.60724 51.21915 46.91320
# Shear Modulus (GPa) = 18.13530 27.32232 22.72881
#
# Velocity S-wave (km/s) = 3.03385 3.72384 3.39641
# Velocity P-wave (km/s) = 5.82210 6.66968 6.26025
#
# Compressibility (1/GPa) = 0.02347019
#
# Stress axis : x y z
#
# Youngs Moduli (GPa) = 64.52376 81.83648 79.13036
#
# Poissons Ratio (x) = 0.29311 0.35743
# Poissons Ratio (y) = 0.23110 0.02720
# Poissons Ratio (z) = 0.29146 0.02813
#
# Static dielectric constant tensor:
#      x y z
#    x 3.724720 -0.044210 0.055070 
#    y -0.044210 3.014740 -0.320570 
#    z 0.055070 -0.320570 3.949120 
# 
# 
# High freq. dielectric constant tensor:
#      x y z
#    x 1.780050 -0.009820 0.008800 
#    y -0.009820 1.681790 -0.026590 
#    z 0.008800 -0.026590 1.781210 
# 
# From -- ./inp_files/596368.got.cif
#   From: 2010.06.25/outbox.cif.g09.slc.cpg/sg2_299_cif.got.tgz:596368.got - 2010.06.27 13:26:56.
