data_PCOD8040682
_publ_section_title
;
Structure prediction by ZEFSAII (Michael W. Deem and Ramdas Pophale) SiO2 
 PCOD8040682
Probable space group: P -1
;
_chemical_formula_sum "Si O2"
_cell_formula_units_Z 16
_cell_length_a 8.942019
_cell_length_b 21.740678
_cell_length_c 8.833563
_cell_angle_alpha 48.306854
_cell_angle_beta 93.689349
_cell_angle_gamma 57.349504
_cell_volume 798.478016
_symmetry_space_group_name_H-M "P -1"
_symmetry_group_IT_number 2
_symmetry_cell_setting 'triclinic'
loop_
_space_group_symop_operation_xyz
x,y,z
-x,-y,-z
loop_
_atom_site_type_symbol
_atom_site_label
_atom_site_fract_x
_atom_site_fract_y
_atom_site_fract_z
Si Si1 0.826244 0.758382 0.714990
Si Si2 0.145951 0.851558 0.571330
Si Si3 0.490164 0.192263 0.198331
Si Si4 0.328177 0.854329 0.036416
Si Si5 0.434518 0.936097 0.150528
Si Si6 0.233664 0.647208 0.734718
Si Si7 0.857977 0.894862 0.713568
Si Si8 0.065246 0.809360 0.180729
O O1 0.786453 0.703578 0.930626
O O2 0.594925 0.846941 0.450182
O O3 0.827428 0.843945 0.660791
O O4 0.065826 0.651517 0.802240
O O5 0.385963 0.801332 0.682551
O O6 0.212159 0.744493 0.652333
O O7 0.065081 0.867928 0.712058
O O8 0.934235 0.994004 0.248288
O O9 0.607837 0.050569 0.453659
O O10 0.509717 0.217654 0.987693
O O11 0.481098 0.846135 0.173899
O O12 0.283758 0.780370 0.215586
O O13 0.500000 0.000000 0.000000
O O14 0.152941 0.050307 0.981809
O O15 0.157017 0.693304 0.478918
O O16 0.500000 0.500000 0.000000
O O17 0.957448 0.816462 0.006701
#
# Coordination Sequence:
#
# PCOD8040682 Si02
#       8
#     2   2   2   2   2   2   2   2
#     4  11  23  36  57  89 125 155 190 240 297 353
#     4  10  18  38  57  87 121 157 192 234 286 366
#     4  11  19  32  59  90 127 147 182 239 308 362
#     4  11  21  34  58  99 124 151 181 236 313 363
#     4  12  21  33  54  95 132 150 183 240 303 356
#     4  11  26  44  59  78 115 167 211 241 282 340
#     4  10  19  33  57  93 126 154 182 227 304 367
#     4  12  21  36  62  88 124 152 198 237 294 359
#
# _framework density 20.038119999999999
#
# number of rings (size 3 to 8) (size 9 to 14) (size 15 to 20)
#    0.000    1.000    6.250    3.000    3.500    0.000 
#    0.000    3.125    0.000    0.750    0.000    0.000 
#    0.000    0.000    0.000    0.000    0.000    0.000 
#
# Total GULP energy -198274.773988 kJ/mol
# GULP energy per Si atom -12392.173374 kJ/mol
# Density = 1.999251 g / cm^3
# Si number density = 20.038120 Si / 1000 Ang^3
#
#
#
# Elastic Constant Matrix: (Units=GPa)
#
#
# Indices 1 2 3 4 5 6 
#
# 1 120.9471 40.2668 16.3624 9.8421 3.7646 -33.7521
# 2 40.2668 68.6532 35.0211 27.9021 0.5736 -17.0090
# 3 16.3624 35.0211 61.6260 12.1589 7.3499 -15.0616
# 4 9.8421 27.9021 12.1589 26.7002 1.5097 5.0983
# 5 3.7646 0.5736 7.3499 1.5097 15.0804 7.1047
# 6 -33.7521 -17.0090 -15.0616 5.0983 7.1047 41.5267
#
#
#
# Elastic Compliance Matrix: (Units=1/GPa)
#
#
# Indices 1 2 3 4 5 6 
#
# 1 0.013789 -0.006387 0.004851 -0.002382 -0.011246 0.012567
# 2 -0.006387 0.044887 -0.013064 -0.041291 0.004367 0.012778
# 3 0.004851 -0.013064 0.028304 -0.002288 -0.020214 0.012597
# 4 -0.002382 -0.041291 -0.002288 0.088117 0.009600 -0.032139
# 5 -0.011246 0.004367 -0.020214 0.009600 0.092796 -0.031738
# 6 0.012567 0.012778 0.012597 -0.032139 -0.031738 0.053474
#
#
# Mechanical properties :
#
#
# Convention : Reuss Voigt Hill
#
# Bulk Modulus (GPa) = 17.30677 48.28077 32.79377
# Shear Modulus (GPa) = 13.51986 27.29984 20.40985
#
# Velocity S-wave (km/s) = 2.60033 3.69507 3.19494
# Velocity P-wave (km/s) = 4.20372 6.50780 5.47826
#
# Compressibility (1/GPa) = 0.05778087
#
# Stress axis : x y z
#
# Youngs Moduli (GPa) = 72.52101 22.27816 35.33076
#
# Poissons Ratio (x) = 0.14228 -0.17139
# Poissons Ratio (y) = 0.46317 0.46155
# Poissons Ratio (z) = -0.35180 0.29104
#
# Static dielectric constant tensor:
#      x y z
#    x 4.020480 -0.304120 -0.038280 
#    y -0.304120 3.804470 0.418250 
#    z -0.038280 0.418250 3.218140 
# 
# 
# High freq. dielectric constant tensor:
#      x y z
#    x 1.804870 -0.014050 0.005920 
#    y -0.014050 1.782030 0.048380 
#    z 0.005920 0.048380 1.717950 
# 
# From -- ./inp_files/175200.got.cif
#   From: 2010.06.25/outbox.cif.g09.slc.cpg/sg2_88_cif.got.tgz:175200.got - 2010.06.27 13:26:56.
