data_PCOD8040974
_publ_section_title
;
Structure prediction by ZEFSAII (Michael W. Deem and Ramdas Pophale) SiO2 
 PCOD8040974
Probable space group: P -1
;
_chemical_formula_sum "Si O2"
_cell_formula_units_Z 14
_cell_length_a 14.409867
_cell_length_b 9.780892
_cell_length_c 11.316112
_cell_angle_alpha 117.735681
_cell_angle_beta 120.981259
_cell_angle_gamma 27.939762
_cell_volume 640.447874
_symmetry_space_group_name_H-M "P -1"
_symmetry_group_IT_number 2
_symmetry_cell_setting 'triclinic'
loop_
_space_group_symop_operation_xyz
x,y,z
-x,-y,-z
loop_
_atom_site_type_symbol
_atom_site_label
_atom_site_fract_x
_atom_site_fract_y
_atom_site_fract_z
Si Si1 0.842788 0.937338 0.791840
Si Si2 0.863808 0.631609 0.348536
Si Si3 0.545865 0.096195 0.499612
Si Si4 0.739718 0.382280 0.813778
Si Si5 0.251591 0.973471 0.739310
Si Si6 0.701873 0.343229 0.525499
Si Si7 0.056578 0.257410 0.969619
O O1 0.070365 0.613286 0.762696
O O2 0.687235 0.040340 0.643910
O O3 0.807358 0.164321 0.860117
O O4 0.805173 0.920817 0.893459
O O5 0.000000 0.500000 0.500000
O O6 0.633993 0.927477 0.364366
O O7 0.880699 0.731590 0.291002
O O8 0.342010 0.437496 0.473922
O O9 0.500000 0.000000 0.500000
O O10 0.496072 0.705622 0.787626
O O11 0.827100 0.222139 0.678467
O O12 0.852929 0.405055 0.926822
O O13 0.184747 0.899747 0.594311
O O14 0.184812 0.032750 0.854528
O O15 0.500000 0.500000 0.500000
O O16 0.000000 0.500000 0.000000
#
# Coordination Sequence:
#
# PCOD8040974 Si02
#       7
#     2   2   2   2   2   2   2
#     4  11  23  46  62  95 141 173 222 276 328 400
#     4  10  20  38  67  93 136 172 205 278 341 377
#     4  11  22  37  68 104 129 165 223 279 331 393
#     4  11  24  45  72  94 135 178 221 280 335 392
#     4  11  22  45  71  97 132 179 223 271 339 395
#     4  10  18  40  69  95 126 168 221 276 334 388
#     4  12  28  44  65 101 136 179 230 269 324 410
#
# _framework density 21.859701999999999
#
# number of rings (size 3 to 8) (size 9 to 14) (size 15 to 20)
#    0.000    1.143    7.143    1.286    2.000    2.857 
#    2.571    0.000    0.000    0.000    0.000    0.000 
#    0.000    0.000    0.000    0.000    0.000    0.000 
#
# Total GULP energy -173486.413831 kJ/mol
# GULP energy per Si atom -12391.886702 kJ/mol
# Density = 2.180995 g / cm^3
# Si number density = 21.859702 Si / 1000 Ang^3
#
#
#
# Elastic Constant Matrix: (Units=GPa)
#
#
# Indices 1 2 3 4 5 6 
#
# 1 92.3160 37.2219 26.4775 3.3817 -2.6269 32.7854
# 2 37.2219 109.6424 23.1451 2.7882 -6.5712 33.1667
# 3 26.4775 23.1451 78.5165 4.8410 -27.8717 3.2184
# 4 3.3817 2.7882 4.8410 26.9261 6.9787 -5.5693
# 5 -2.6269 -6.5712 -27.8717 6.9787 44.9664 1.4253
# 6 32.7854 33.1667 3.2184 -5.5693 1.4253 44.2786
#
#
#
# Elastic Compliance Matrix: (Units=1/GPa)
#
#
# Indices 1 2 3 4 5 6 
#
# 1 0.017043 -0.001139 -0.005317 -0.003070 -0.001619 -0.011713
# 2 -0.001139 0.012903 -0.002523 -0.002863 0.000986 -0.009030
# 3 -0.005317 -0.002523 0.019815 -0.005128 0.012293 0.003345
# 4 -0.003070 -0.002863 -0.005128 0.043772 -0.010907 0.010647
# 5 -0.001619 0.000986 0.012293 -0.010907 0.031690 -0.002825
# 6 -0.011713 -0.009030 0.003345 0.010647 -0.002825 0.039208
#
#
# Mechanical properties :
#
#
# Convention : Reuss Voigt Hill
#
# Bulk Modulus (GPa) = 31.44215 50.46266 40.95241
# Shear Modulus (GPa) = 25.90806 36.14293 31.02549
#
# Velocity S-wave (km/s) = 3.44640 4.07062 3.77145
# Velocity P-wave (km/s) = 5.50016 6.72519 6.14329
#
# Compressibility (1/GPa) = 0.03180444
#
# Stress axis : x y z
#
# Youngs Moduli (GPa) = 58.67552 77.49927 50.46571
#
# Poissons Ratio (x) = 0.08828 0.26830
# Poissons Ratio (y) = 0.06684 0.12732
# Poissons Ratio (z) = 0.31195 0.19552
#
# Static dielectric constant tensor:
#      x y z
#    x 3.194300 0.093620 -0.133830 
#    y 0.093620 4.149310 0.082770 
#    z -0.133830 0.082770 4.210160 
# 
# 
# High freq. dielectric constant tensor:
#      x y z
#    x 1.839920 0.023790 -0.019850 
#    y 0.023790 1.862960 0.005000 
#    z -0.019850 0.005000 1.865750 
# 
# From -- ./inp_files/175569.got.cif
#   From: 2010.06.25/outbox.cif.g09.slc.cpg/sg2_88_cif.got.tgz:175569.got - 2010.06.27 13:26:56.
