data_PCOD8040624
_publ_section_title
;
Structure prediction by ZEFSAII (Michael W. Deem and Ramdas Pophale) SiO2 
 PCOD8040624
Probable space group: P -1
;
_chemical_formula_sum "Si O2"
_cell_formula_units_Z 16
_cell_length_a 8.165942
_cell_length_b 9.028156
_cell_length_c 20.720050
_cell_angle_alpha 29.201511
_cell_angle_beta 82.890403
_cell_angle_gamma 80.522357
_cell_volume 734.460365
_symmetry_space_group_name_H-M "P -1"
_symmetry_group_IT_number 2
_symmetry_cell_setting 'triclinic'
loop_
_space_group_symop_operation_xyz
x,y,z
-x,-y,-z
loop_
_atom_site_type_symbol
_atom_site_label
_atom_site_fract_x
_atom_site_fract_y
_atom_site_fract_z
Si Si1 0.710182 0.609672 0.005900
Si Si2 0.777853 0.287495 0.256520
Si Si3 0.193413 0.746014 0.248046
Si Si4 0.933615 0.767850 0.142267
Si Si5 0.647075 0.122628 0.101357
Si Si6 0.466561 0.661727 0.643961
Si Si7 0.257553 0.400553 0.497955
Si Si8 0.621623 0.550929 0.394288
O O1 0.517479 0.725793 0.983814
O O2 0.814689 0.891328 0.884219
O O3 0.779468 0.420334 0.135406
O O4 0.740330 0.393644 0.023891
O O5 0.913945 0.446155 0.230507
O O6 0.600357 0.372849 0.267796
O O7 0.811763 0.921049 0.389755
O O8 0.372258 0.584044 0.278455
O O9 0.153324 0.632675 0.365481
O O10 0.056675 0.672159 0.231755
O O11 0.759625 0.932871 0.115112
O O12 0.000000 0.000000 0.000000
O O13 0.591426 0.916359 0.242674
O O14 0.324943 0.596081 0.622381
O O15 0.500000 0.000000 0.500000
O O16 0.455221 0.396955 0.478379
O O17 0.238234 0.505506 0.534604
#
# Coordination Sequence:
#
# PCOD8040624 Si02
#       8
#     2   2   2   2   2   2   2   2
#     4  11  23  41  70  98 121 168 226 268 315 376
#     4  12  22  39  69  94 128 167 215 270 319 378
#     4  11  23  43  62  92 134 171 216 262 324 380
#     4  12  27  43  61  94 139 177 207 264 328 391
#     4  11  23  41  67  98 130 167 216 270 321 382
#     4  11  21  40  68  98 126 165 214 274 320 376
#     4  10  21  38  66  94 126 163 212 270 317 379
#     4  10  18  37  65  94 126 158 209 270 320 363
#
# _framework density 21.784701999999999
#
# number of rings (size 3 to 8) (size 9 to 14) (size 15 to 20)
#    0.000    1.000    8.750    0.000    1.750    2.000 
#    0.000    0.625    0.000    0.000    0.000    0.000 
#    0.000    0.000    0.000    0.000    0.000    0.000 
#
# Total GULP energy -198266.046281 kJ/mol
# GULP energy per Si atom -12391.627893 kJ/mol
# Density = 2.173512 g / cm^3
# Si number density = 21.784702 Si / 1000 Ang^3
#
#
#
# Elastic Constant Matrix: (Units=GPa)
#
#
# Indices 1 2 3 4 5 6 
#
# 1 45.2292 32.2298 23.5773 1.3902 -4.2202 26.1438
# 2 32.2298 77.2254 20.5573 -3.4715 -6.1572 22.1419
# 3 23.5773 20.5573 127.3096 -4.7003 -17.6960 15.6475
# 4 1.3902 -3.4715 -4.7003 41.4088 19.6355 -1.5259
# 5 -4.2202 -6.1572 -17.6960 19.6355 23.4731 -2.7368
# 6 26.1438 22.1419 15.6475 -1.5259 -2.7368 36.0845
#
#
#
# Elastic Compliance Matrix: (Units=1/GPa)
#
#
# Indices 1 2 3 4 5 6 
#
# 1 0.047694 -0.011440 -0.003265 -0.006511 0.005531 -0.025976
# 2 -0.011440 0.018819 -0.000335 0.001214 0.001266 -0.002966
# 3 -0.003265 -0.000335 0.009829 -0.003275 0.009344 -0.001121
# 4 -0.006511 0.001214 -0.003275 0.042421 -0.038307 0.004281
# 5 0.005531 0.001266 0.009344 -0.038307 0.082528 -0.004196
# 6 -0.025976 -0.002966 -0.001121 0.004281 -0.004196 0.048702
#
#
# Mechanical properties :
#
#
# Convention : Reuss Voigt Hill
#
# Bulk Modulus (GPa) = 21.61518 44.72143 33.16830
# Shear Modulus (GPa) = 16.92088 31.75326 24.33707
#
# Velocity S-wave (km/s) = 2.79001 3.82199 3.34603
# Velocity P-wave (km/s) = 4.50806 6.32852 5.49422
#
# Compressibility (1/GPa) = 0.04626378
#
# Stress axis : x y z
#
# Youngs Moduli (GPa) = 20.96678 53.13870 101.73711
#
# Poissons Ratio (x) = 0.60791 0.33212
# Poissons Ratio (y) = 0.23986 0.03406
# Poissons Ratio (z) = 0.06845 0.01779
#
# Static dielectric constant tensor:
#      x y z
#    x 3.749530 0.255650 -0.167610 
#    y 0.255650 4.541270 0.042220 
#    z -0.167610 0.042220 4.316630 
# 
# 
# High freq. dielectric constant tensor:
#      x y z
#    x 1.820100 0.028970 -0.021190 
#    y 0.028970 1.869470 0.000940 
#    z -0.021190 0.000940 1.870240 
# 
# From -- ./inp_files/587090.got.cif
#   From: 2010.06.25/outbox.cif.g09.slc.cpg/sg2_294_cif.got.tgz:587090.got - 2010.06.27 13:26:56.
