data_PCOD8040208
_publ_section_title
;
Structure prediction by ZEFSAII (Michael W. Deem and Ramdas Pophale) SiO2 
 PCOD8040208
Probable space group: P -1
;
_chemical_formula_sum "Si O2"
_cell_formula_units_Z 14
_cell_length_a 9.752402
_cell_length_b 9.951270
_cell_length_c 12.885752
_cell_angle_alpha 132.345493
_cell_angle_beta 78.581713
_cell_angle_gamma 121.641198
_cell_volume 762.506626
_symmetry_space_group_name_H-M "P -1"
_symmetry_group_IT_number 2
_symmetry_cell_setting 'triclinic'
loop_
_space_group_symop_operation_xyz
x,y,z
-x,-y,-z
loop_
_atom_site_type_symbol
_atom_site_label
_atom_site_fract_x
_atom_site_fract_y
_atom_site_fract_z
Si Si1 0.106882 0.437526 0.129690
Si Si2 0.990167 0.084633 0.797177
Si Si3 0.912099 0.440546 0.333215
Si Si4 0.628261 0.243766 0.419587
Si Si5 0.830969 0.659979 0.718903
Si Si6 0.173773 0.914166 0.570330
Si Si7 0.744766 0.075330 0.663944
O O1 0.190195 0.359337 0.162216
O O2 0.232964 0.691296 0.222285
O O3 0.936073 0.399007 0.186895
O O4 0.069504 0.309603 0.962644
O O5 0.883768 0.083562 0.718243
O O6 0.144309 0.076321 0.725006
O O7 0.872459 0.890550 0.793306
O O8 0.720564 0.306805 0.326426
O O9 0.984121 0.632161 0.649108
O O10 0.992735 0.694833 0.470133
O O11 0.667196 0.462054 0.585723
O O12 0.689488 0.117769 0.413631
O O13 0.434212 0.092690 0.347595
O O14 0.245054 0.008816 0.494814
#
# Coordination Sequence:
#
# PCOD8040208 Si02
#       7
#     2   2   2   2   2   2   2
#     4   9  21  37  57  78 108 153 182 207 268 344
#     4  12  20  36  57  85 110 137 187 229 260 317
#     4   8  16  34  60  79  96 144 193 207 255 326
#     4  11  17  36  61  81 108 139 186 225 268 320
#     4   9  18  33  62  81  98 142 194 214 256 318
#     4  10  18  36  58  79 102 150 189 213 254 333
#     4  11  24  33  56  85 114 141 171 231 285 306
#
# _framework density 18.360498
#
# number of rings (size 3 to 8) (size 9 to 14) (size 15 to 20)
#    0.857    1.143    4.286    2.571    0.000    0.571 
#    0.000    1.429    3.143    0.000    0.000    0.000 
#    0.000    0.000    0.000    0.000    0.000    0.000 
#
# Total GULP energy -173525.646641 kJ/mol
# GULP energy per Si atom -12394.689046 kJ/mol
# Density = 1.831871 g / cm^3
# Si number density = 18.360498 Si / 1000 Ang^3
#
#
#
# Elastic Constant Matrix: (Units=GPa)
#
#
# Indices 1 2 3 4 5 6 
#
# 1 24.0200 11.2276 24.2439 0.5296 -2.4120 8.7303
# 2 11.2276 58.1196 0.8604 5.2604 -3.2652 18.1543
# 3 24.2439 0.8604 73.6874 -2.3350 -6.2772 19.3318
# 4 0.5296 5.2604 -2.3350 20.3395 1.8141 -0.3415
# 5 -2.4120 -3.2652 -6.2772 1.8141 12.6318 -1.4507
# 6 8.7303 18.1543 19.3318 -0.3415 -1.4507 30.5006
#
#
#
# Elastic Compliance Matrix: (Units=1/GPa)
#
#
# Indices 1 2 3 4 5 6 
#
# 1 0.071833 -0.014707 -0.024605 -0.000670 -0.001792 0.003695
# 2 -0.014707 0.026256 0.009477 -0.006287 0.007623 -0.017132
# 3 -0.024605 0.009477 0.026208 0.000142 0.009058 -0.014777
# 4 -0.000670 -0.006287 0.000142 0.051663 -0.008641 0.004011
# 5 -0.001792 0.007623 0.009058 -0.008641 0.085872 -0.005778
# 6 0.003695 -0.017132 -0.014777 0.004011 -0.005778 0.051062
#
#
# Mechanical properties :
#
#
# Convention : Reuss Voigt Hill
#
# Bulk Modulus (GPa) = 15.47356 25.38789 20.43072
# Shear Modulus (GPa) = 12.68692 20.66073 16.67383
#
# Velocity S-wave (km/s) = 2.63152 3.35816 3.01680
# Velocity P-wave (km/s) = 4.20466 5.37529 4.82561
#
# Compressibility (1/GPa) = 0.06462637
#
# Stress axis : x y z
#
# Youngs Moduli (GPa) = 13.92122 38.08721 38.15573
#
# Poissons Ratio (x) = 0.56014 0.93883
# Poissons Ratio (y) = 0.20474 -0.36160
# Poissons Ratio (z) = 0.34254 -0.36095
#
# Static dielectric constant tensor:
#      x y z
#    x 2.920390 -0.069190 -0.078250 
#    y -0.069190 3.420750 -0.065050 
#    z -0.078250 -0.065050 3.192820 
# 
# 
# High freq. dielectric constant tensor:
#      x y z
#    x 1.666130 -0.007930 -0.007300 
#    y -0.007930 1.719210 -0.007370 
#    z -0.007300 -0.007370 1.698810 
# 
# From -- ./inp_files/383521.got.cif
#   From: 2010.06.25/outbox.cif.g09.slc.cpg/sg2_192_cif.got.tgz:383521.got - 2010.06.27 13:26:56.
