data_PCOD8040783
_publ_section_title
;
Structure prediction by ZEFSAII (Michael W. Deem and Ramdas Pophale) SiO2 
 PCOD8040783
Probable space group: P -1
;
_chemical_formula_sum "Si O2"
_cell_formula_units_Z 14
_cell_length_a 11.026110
_cell_length_b 8.810956
_cell_length_c 17.161986
_cell_angle_alpha 37.768164
_cell_angle_beta 49.427974
_cell_angle_gamma 75.281089
_cell_volume 643.153259
_symmetry_space_group_name_H-M "P -1"
_symmetry_group_IT_number 2
_symmetry_cell_setting 'triclinic'
loop_
_space_group_symop_operation_xyz
x,y,z
-x,-y,-z
loop_
_atom_site_type_symbol
_atom_site_label
_atom_site_fract_x
_atom_site_fract_y
_atom_site_fract_z
Si Si1 0.799592 0.235004 0.349848
Si Si2 0.207821 0.133538 0.639182
Si Si3 0.147590 0.410005 0.953451
Si Si4 0.468650 0.746908 0.943579
Si Si5 0.162912 0.644139 0.438508
Si Si6 0.574499 0.077137 0.272904
Si Si7 0.942727 0.665327 0.666732
O O1 0.792564 0.490636 0.201870
O O2 0.002592 0.375518 0.251786
O O3 0.757809 0.972178 0.414916
O O4 0.645073 0.110659 0.532938
O O5 0.270295 0.471607 0.469362
O O6 0.326363 0.094527 0.672879
O O7 0.977722 0.945242 0.835262
O O8 0.328200 0.595235 0.860459
O O9 0.000000 0.500000 0.000000
O O10 0.420220 0.892803 0.834034
O O11 0.666167 0.013660 0.793275
O O12 0.500000 0.500000 0.000000
O O13 0.287183 0.582285 0.145771
O O14 0.000000 0.500000 0.500000
O O15 0.059125 0.614408 0.574805
O O16 0.000000 0.000000 0.500000
#
# Coordination Sequence:
#
# PCOD8040783 Si02
#       7
#     2   2   2   2   2   2   2
#     4  10  18  38  66  97 129 177 226 263 322 405
#     4  10  21  39  63  99 141 168 214 287 331 386
#     4   8  16  31  58  91 125 170 209 259 318 388
#     4  12  25  45  73  97 129 182 227 272 327 405
#     4  12  28  46  66 101 139 173 218 285 343 385
#     4  10  19  38  67 100 129 176 229 264 326 400
#     4  12  23  45  69  95 128 179 231 268 324 413
#
# _framework density 21.767752000000002
#
# number of rings (size 3 to 8) (size 9 to 14) (size 15 to 20)
#    0.000    1.714    2.857    5.143    2.000    1.143 
#    5.143    1.429    0.000    0.000    0.000    0.000 
#    0.000    0.000    0.000    0.000    0.000    0.000 
#
# Total GULP energy -173522.497152 kJ/mol
# GULP energy per Si atom -12394.464082 kJ/mol
# Density = 2.171821 g / cm^3
# Si number density = 21.767752 Si / 1000 Ang^3
#
#
#
# Elastic Constant Matrix: (Units=GPa)
#
#
# Indices 1 2 3 4 5 6 
#
# 1 92.8745 22.9229 18.3611 -14.1469 -8.7623 12.4818
# 2 22.9229 66.9891 27.6733 -5.8541 4.3355 -4.8739
# 3 18.3611 27.6733 141.9349 -2.7100 -21.9063 -1.7665
# 4 -14.1469 -5.8541 -2.7100 38.5764 -0.0832 2.0084
# 5 -8.7623 4.3355 -21.9063 -0.0832 34.5045 -1.4729
# 6 12.4818 -4.8739 -1.7665 2.0084 -1.4729 33.3713
#
#
#
# Elastic Compliance Matrix: (Units=1/GPa)
#
#
# Indices 1 2 3 4 5 6 
#
# 1 0.013910 -0.004935 -0.000245 0.004658 0.003750 -0.006051
# 2 -0.004935 0.018967 -0.003915 0.000567 -0.005945 0.004112
# 3 -0.000245 -0.003915 0.008770 -0.000068 0.006008 0.000253
# 4 0.004658 0.000567 -0.000068 0.027886 0.000995 -0.003298
# 5 0.003750 -0.005945 0.006008 0.000995 0.034477 -0.000491
# 6 -0.006051 0.004112 0.000253 -0.003298 -0.000491 0.033020
#
#
# Mechanical properties :
#
#
# Convention : Reuss Voigt Hill
#
# Bulk Modulus (GPa) = 42.63048 48.85702 45.74375
# Shear Modulus (GPa) = 30.66751 36.81318 33.74034
#
# Velocity S-wave (km/s) = 3.75754 4.11686 3.94129
# Velocity P-wave (km/s) = 6.20098 6.71501 6.46311
#
# Compressibility (1/GPa) = 0.02345739
#
# Stress axis : x y z
#
# Youngs Moduli (GPa) = 71.88976 52.72232 114.02890
#
# Poissons Ratio (x) = 0.26016 0.02793
# Poissons Ratio (y) = 0.35475 0.44646
# Poissons Ratio (z) = 0.01761 0.20643
#
# Static dielectric constant tensor:
#      x y z
#    x 4.032430 0.156000 0.014700 
#    y 0.156000 3.630180 -0.104690 
#    z 0.014700 -0.104690 4.993440 
# 
# 
# High freq. dielectric constant tensor:
#      x y z
#    x 1.858400 0.008260 -0.005970 
#    y 0.008260 1.814480 0.006620 
#    z -0.005970 0.006620 1.871650 
# 
# From -- ./inp_files/565683.got.cif
#   From: 2010.06.25/outbox.cif.g09.slc.cpg/sg2_283_cif.got.tgz:565683.got - 2010.06.27 13:26:56.
