data_PCOD8040510
_publ_section_title
;
Structure prediction by ZEFSAII (Michael W. Deem and Ramdas Pophale) SiO2 
 PCOD8040510
Probable space group: P -1
;
_chemical_formula_sum "Si O2"
_cell_formula_units_Z 16
_cell_length_a 22.852365
_cell_length_b 7.657379
_cell_length_c 8.844863
_cell_angle_alpha 54.372566
_cell_angle_beta 144.844251
_cell_angle_gamma 113.877080
_cell_volume 715.888075
_symmetry_space_group_name_H-M "P -1"
_symmetry_group_IT_number 2
_symmetry_cell_setting 'triclinic'
loop_
_space_group_symop_operation_xyz
x,y,z
-x,-y,-z
loop_
_atom_site_type_symbol
_atom_site_label
_atom_site_fract_x
_atom_site_fract_y
_atom_site_fract_z
Si Si1 0.225737 0.222850 0.114383
Si Si2 0.348886 0.927472 0.301922
Si Si3 0.666173 0.116315 0.272047
Si Si4 0.675999 0.461441 0.372336
Si Si5 0.902161 0.401144 0.788401
Si Si6 0.973889 0.931210 0.148526
Si Si7 0.567011 0.944809 0.883994
Si Si8 0.830698 0.329424 0.350778
O O1 0.250649 0.088077 0.078809
O O2 0.304323 0.110993 0.462828
O O3 0.110631 0.226491 0.931337
O O4 0.237152 0.474291 0.982520
O O5 0.336765 0.676644 0.433339
O O6 0.449588 0.993076 0.562667
O O7 0.357859 0.964769 0.123823
O O8 0.639725 0.320267 0.226650
O O9 0.761999 0.156740 0.352269
O O10 0.572919 0.079435 0.983956
O O11 0.793951 0.503732 0.585088
O O12 0.601063 0.687576 0.108234
O O13 0.888362 0.426881 0.565167
O O14 0.000000 0.500000 0.000000
O O15 0.926332 0.151500 0.022089
O O16 0.081449 0.802527 0.506038
O O17 0.000000 0.000000 0.000000
#
# Coordination Sequence:
#
# PCOD8040510 Si02
#       8
#     2   2   2   2   2   2   2   2
#     4  11  20  40  65  86 126 170 204 263 316 368
#     4  10  22  43  62  95 130 157 216 264 315 379
#     4  10  22  41  64  93 126 165 213 260 312 376
#     4  10  21  42  64  90 132 167 209 262 316 374
#     4  10  20  36  62  89 127 167 201 260 318 364
#     4  10  18  37  60  86 122 159 206 250 308 372
#     4  11  24  40  68  94 125 171 206 268 321 373
#     4  10  21  37  60  91 122 162 205 258 309 372
#
# _framework density 22.349862000000002
#
# number of rings (size 3 to 8) (size 9 to 14) (size 15 to 20)
#    0.000    1.750    5.000    2.250    1.750    3.000 
#    0.000    7.500    0.000    0.000    0.000    0.000 
#    0.000    0.000    0.000    0.000    0.000    0.000 
#
# Total GULP energy -198299.001719 kJ/mol
# GULP energy per Si atom -12393.687607 kJ/mol
# Density = 2.229899 g / cm^3
# Si number density = 22.349862 Si / 1000 Ang^3
#
#
#
# Elastic Constant Matrix: (Units=GPa)
#
#
# Indices 1 2 3 4 5 6 
#
# 1 79.3264 14.7201 12.8396 -11.1964 2.2580 19.4963
# 2 14.7201 67.0389 35.5375 -9.7827 -16.1812 -1.9464
# 3 12.8396 35.5375 57.3911 -7.9836 -10.5742 -3.9841
# 4 -11.1964 -9.7827 -7.9836 41.4860 -1.5035 -5.9810
# 5 2.2580 -16.1812 -10.5742 -1.5035 27.4878 -7.5165
# 6 19.4963 -1.9464 -3.9841 -5.9810 -7.5165 24.5665
#
#
#
# Elastic Compliance Matrix: (Units=1/GPa)
#
#
# Indices 1 2 3 4 5 6 
#
# 1 0.019822 -0.005424 -0.004848 -0.000313 -0.012396 -0.020816
# 2 -0.005424 0.026590 -0.011142 0.004686 0.014885 0.010300
# 3 -0.004848 -0.011142 0.028026 0.003275 0.007717 0.010669
# 4 -0.000313 0.004686 0.003275 0.027564 0.008405 0.010433
# 5 -0.012396 0.014885 0.007717 0.008405 0.058388 0.032179
# 6 -0.020816 0.010300 0.010669 0.010433 0.032179 0.072158
#
#
# Mechanical properties :
#
#
# Convention : Reuss Voigt Hill
#
# Bulk Modulus (GPa) = 31.63618 36.66121 34.14869
# Shear Modulus (GPa) = 17.48782 28.08533 22.78658
#
# Velocity S-wave (km/s) = 2.80028 3.54873 3.19649
# Velocity P-wave (km/s) = 4.96398 5.76457 5.37919
#
# Compressibility (1/GPa) = 0.03160938
#
# Stress axis : x y z
#
# Youngs Moduli (GPa) = 50.44874 37.60845 35.68081
#
# Poissons Ratio (x) = 0.20400 0.17299
# Poissons Ratio (y) = 0.27365 0.39755
# Poissons Ratio (z) = 0.24458 0.41903
#
# Static dielectric constant tensor:
#      x y z
#    x 4.301980 0.161140 0.057790 
#    y 0.161140 3.930710 -0.268210 
#    z 0.057790 -0.268210 4.094350 
# 
# 
# High freq. dielectric constant tensor:
#      x y z
#    x 1.883930 0.019790 0.014510 
#    y 0.019790 1.864410 -0.018600 
#    z 0.014510 -0.018600 1.867880 
# 
# From -- ./inp_files/352068.got.cif
#   From: 2010.06.25/outbox.cif.g09.slc.cpg/sg2_177_cif.got.tgz:352068.got - 2010.06.27 13:26:56.
