data_PCOD8040297
_publ_section_title
;
Structure prediction by ZEFSAII (Michael W. Deem and Ramdas Pophale) SiO2 
 PCOD8040297
Probable space group: P -1
;
_chemical_formula_sum "Si O2"
_cell_formula_units_Z 16
_cell_length_a 14.061316
_cell_length_b 11.786296
_cell_length_c 12.663690
_cell_angle_alpha 101.293612
_cell_angle_beta 102.335545
_cell_angle_gamma 20.122671
_cell_volume 705.300069
_symmetry_space_group_name_H-M "P -1"
_symmetry_group_IT_number 2
_symmetry_cell_setting 'triclinic'
loop_
_space_group_symop_operation_xyz
x,y,z
-x,-y,-z
loop_
_atom_site_type_symbol
_atom_site_label
_atom_site_fract_x
_atom_site_fract_y
_atom_site_fract_z
Si Si1 0.472173 0.137688 0.438834
Si Si2 0.011935 0.194988 0.226905
Si Si3 0.560948 0.626967 0.365320
Si Si4 0.199962 0.530470 0.989806
Si Si5 0.141199 0.799694 0.157395
Si Si6 0.815124 0.802709 0.065782
Si Si7 0.688345 0.230198 0.291491
Si Si8 0.902626 0.755973 0.316831
O O1 0.399617 0.338155 0.517018
O O2 0.229754 0.378155 0.342833
O O3 0.500000 0.000000 0.500000
O O4 0.752754 0.845865 0.386867
O O5 0.767312 0.440998 0.292271
O O6 0.889149 0.405404 0.138521
O O7 0.254272 0.989513 0.310653
O O8 0.133774 0.943602 0.156714
O O9 0.622352 0.424020 0.373715
O O10 0.202423 0.665781 0.037025
O O11 0.961174 0.757915 0.056191
O O12 0.499390 0.141071 0.012387
O O13 0.403739 0.484129 0.237651
O O14 0.866707 0.062390 0.200027
O O15 0.820131 0.793493 0.191677
O O16 0.000000 0.500000 0.000000
O O17 0.833772 0.970352 0.350590
#
# Coordination Sequence:
#
# PCOD8040297 Si02
#       8
#     2   2   2   2   2   2   2   2
#     4  12  28  46  70  94 126 172 225 273 324 393
#     4  10  22  36  66  97 136 174 205 265 324 380
#     4  10  23  43  62 100 136 169 224 272 318 382
#     4  12  21  40  64  94 133 177 213 257 321 387
#     4  10  18  36  60  99 134 167 212 253 317 399
#     4  12  27  43  64  98 130 169 223 267 314 390
#     4  10  20  38  68  95 134 169 208 272 329 390
#     4  12  24  46  71  94 127 172 214 274 338 377
#
# _framework density 22.685381
#
# number of rings (size 3 to 8) (size 9 to 14) (size 15 to 20)
#    0.000    1.000    2.500    4.125    0.000    4.000 
#    0.000    5.000    0.000    0.000    0.000    0.000 
#    0.000    0.000    0.000    0.000    0.000    0.000 
#
# Total GULP energy -198384.818273 kJ/mol
# GULP energy per Si atom -12399.051142 kJ/mol
# Density = 2.263375 g / cm^3
# Si number density = 22.685381 Si / 1000 Ang^3
#
#
#
# Elastic Constant Matrix: (Units=GPa)
#
#
# Indices 1 2 3 4 5 6 
#
# 1 75.9012 19.6302 26.5148 0.0312 -7.0596 -3.5956
# 2 19.6302 95.4857 28.0002 -14.8306 5.3068 -16.3603
# 3 26.5148 28.0002 81.6838 -3.5727 -4.4612 6.1163
# 4 0.0312 -14.8306 -3.5727 39.5485 1.3311 0.8509
# 5 -7.0596 5.3068 -4.4612 1.3311 29.4012 4.3194
# 6 -3.5956 -16.3603 6.1163 0.8509 4.3194 40.7522
#
#
#
# Elastic Compliance Matrix: (Units=1/GPa)
#
#
# Indices 1 2 3 4 5 6 
#
# 1 0.015587 -0.002238 -0.004221 -0.001366 0.003454 0.000773
# 2 -0.002238 0.014597 -0.004848 0.005064 -0.005140 0.006829
# 3 -0.004221 -0.004848 0.015796 -0.000381 0.003010 -0.005000
# 4 -0.001366 0.005064 -0.000381 0.027208 -0.002781 0.001696
# 5 0.003454 -0.005140 0.003010 -0.002781 0.037248 -0.006100
# 6 0.000773 0.006829 -0.005000 0.001696 -0.006100 0.028710
#
#
# Mechanical properties :
#
#
# Convention : Reuss Voigt Hill
#
# Bulk Modulus (GPa) = 42.79771 44.59567 43.69669
# Shear Modulus (GPa) = 29.48995 33.86874 31.67935
#
# Velocity S-wave (km/s) = 3.60940 3.86810 3.74098
# Velocity P-wave (km/s) = 6.02304 6.29687 6.16148
#
# Compressibility (1/GPa) = 0.02336574
#
# Stress axis : x y z
#
# Youngs Moduli (GPa) = 64.15600 68.50878 63.30565
#
# Poissons Ratio (x) = 0.15335 0.26723
# Poissons Ratio (y) = 0.14360 0.30688
# Poissons Ratio (z) = 0.27082 0.33210
#
# Static dielectric constant tensor:
#      x y z
#    x 4.351470 -0.049610 0.146210 
#    y -0.049610 4.387430 0.054920 
#    z 0.146210 0.054920 3.809030 
# 
# 
# High freq. dielectric constant tensor:
#      x y z
#    x 1.898770 -0.009680 0.007850 
#    y -0.009680 1.907560 0.002570 
#    z 0.007850 0.002570 1.882290 
# 
# From -- ./inp_files/433633.got.cif
#   From: 2010.06.25/outbox.cif.g09.slc.cpg/sg2_217_cif.got.tgz:433633.got - 2010.06.27 13:26:56.
