data_PCOD8040318
_publ_section_title
;
Structure prediction by ZEFSAII (Michael W. Deem and Ramdas Pophale) SiO2 
 PCOD8040318
Probable space group: P -1
;
_chemical_formula_sum "Si O2"
_cell_formula_units_Z 16
_cell_length_a 18.425563
_cell_length_b 6.312603
_cell_length_c 8.100447
_cell_angle_alpha 65.944037
_cell_angle_beta 108.134842
_cell_angle_gamma 130.903773
_cell_volume 648.924058
_symmetry_space_group_name_H-M "P -1"
_symmetry_group_IT_number 2
_symmetry_cell_setting 'triclinic'
loop_
_space_group_symop_operation_xyz
x,y,z
-x,-y,-z
loop_
_atom_site_type_symbol
_atom_site_label
_atom_site_fract_x
_atom_site_fract_y
_atom_site_fract_z
Si Si1 0.140487 0.920865 0.926823
Si Si2 0.356678 0.741902 0.357667
Si Si3 0.566278 0.558021 0.375429
Si Si4 0.061548 0.298868 0.213645
Si Si5 0.813085 0.348853 0.535568
Si Si6 0.256348 0.869183 0.765255
Si Si7 0.797005 0.804286 0.785649
Si Si8 0.432749 0.074476 0.000038
O O1 0.198803 0.960885 0.792614
O O2 0.053337 0.929364 0.808768
O O3 0.099693 0.614006 0.076150
O O4 0.211192 0.176519 0.027384
O O5 0.421905 0.700045 0.537953
O O6 0.285898 0.765982 0.406627
O O7 0.301149 0.477350 0.270192
O O8 0.428059 0.046589 0.206117
O O9 0.500000 0.500000 0.500000
O O10 0.671332 0.858368 0.392785
O O11 0.533513 0.613528 0.155729
O O12 0.097154 0.349687 0.414339
O O13 0.110835 0.190792 0.175989
O O14 0.808908 0.406779 0.318193
O O15 0.827104 0.099590 0.628421
O O16 0.319807 0.824152 0.945909
O O17 0.500000 0.000000 0.000000
#
# Coordination Sequence:
#
# PCOD8040318 Si02
#       8
#     2   2   2   2   2   2   2   2
#     4  10  20  38  59  92 130 162 226 262 311 393
#     4  11  20  41  67  88 131 173 208 265 323 373
#     4  10  21  40  65  95 131 166 212 269 324 381
#     4   9  20  36  62  91 125 176 206 271 323 362
#     4  10  21  37  62  90 131 167 215 260 318 387
#     4  10  21  39  59  91 128 164 213 263 309 388
#     4  10  18  36  61  89 122 173 210 259 320 375
#     4  10  20  37  65  92 122 164 216 260 317 390
#
# _framework density 24.656198
#
# number of rings (size 3 to 8) (size 9 to 14) (size 15 to 20)
#    0.750    1.250    2.500    2.625    0.000    0.500 
#    4.500    3.125    0.000    3.750    0.000    0.000 
#    0.000    0.000    0.000    0.000    0.000    0.000 
#
# Total GULP energy -198218.850929 kJ/mol
# GULP energy per Si atom -12388.678183 kJ/mol
# Density = 2.460008 g / cm^3
# Si number density = 24.656198 Si / 1000 Ang^3
#
#
#
# Elastic Constant Matrix: (Units=GPa)
#
#
# Indices 1 2 3 4 5 6 
#
# 1 128.4920 7.6706 28.2231 3.4157 7.9485 -20.4919
# 2 7.6706 56.9928 19.6619 6.8733 -3.3393 -11.6406
# 3 28.2231 19.6619 122.5475 -1.2819 12.7164 -10.5666
# 4 3.4157 6.8733 -1.2819 27.7500 -20.7465 -7.4401
# 5 7.9485 -3.3393 12.7164 -20.7465 31.0781 -5.9976
# 6 -20.4919 -11.6406 -10.5666 -7.4401 -5.9976 26.4631
#
#
#
# Elastic Compliance Matrix: (Units=1/GPa)
#
#
# Indices 1 2 3 4 5 6 
#
# 1 0.009186 0.000684 -0.001632 0.000577 0.000119 0.006952
# 2 0.000684 0.020935 -0.003339 0.003530 0.007959 0.011201
# 3 -0.001632 -0.003339 0.009611 -0.004219 -0.007013 -0.001671
# 4 0.000577 0.003530 -0.004219 0.116679 0.090184 0.053558
# 5 0.000119 0.007959 -0.007013 0.090184 0.105745 0.050113
# 6 0.006952 0.011201 -0.001671 0.053558 0.050113 0.073847
#
#
# Mechanical properties :
#
#
# Convention : Reuss Voigt Hill
#
# Bulk Modulus (GPa) = 32.09588 46.57147 39.33368
# Shear Modulus (GPa) = 14.08595 33.89004 23.98799
#
# Velocity S-wave (km/s) = 2.39277 3.71145 3.12252
# Velocity P-wave (km/s) = 4.54746 6.10703 5.38402
#
# Compressibility (1/GPa) = 0.03115665
#
# Stress axis : x y z
#
# Youngs Moduli (GPa) = 108.85838 47.76803 104.04401
#
# Poissons Ratio (x) = -0.03267 0.16982
# Poissons Ratio (y) = -0.07445 0.34745
# Poissons Ratio (z) = 0.17768 0.15952
#
# Static dielectric constant tensor:
#      x y z
#    x 4.413980 -0.018290 0.371120 
#    y -0.018290 4.197180 0.130340 
#    z 0.371120 0.130340 4.687690 
# 
# 
# High freq. dielectric constant tensor:
#      x y z
#    x 1.979460 -0.008740 0.017960 
#    y -0.008740 1.959270 0.004510 
#    z 0.017960 0.004510 1.993020 
# 
# From -- ./inp_files/322346.got.cif
#   From: 2010.06.25/outbox.cif.g09.slc.cpg/sg2_162_cif.got.tgz:322346.got - 2010.06.27 13:26:56.
