data_PCOD8040310
_publ_section_title
;
Structure prediction by ZEFSAII (Michael W. Deem and Ramdas Pophale) SiO2 
 PCOD8040310
Probable space group: P -1
;
_chemical_formula_sum "Si O2"
_cell_formula_units_Z 16
_cell_length_a 28.988628
_cell_length_b 9.338659
_cell_length_c 14.209014
_cell_angle_alpha 41.797013
_cell_angle_beta 20.813384
_cell_angle_gamma 51.380273
_cell_volume 866.957644
_symmetry_space_group_name_H-M "P -1"
_symmetry_group_IT_number 2
_symmetry_cell_setting 'triclinic'
loop_
_space_group_symop_operation_xyz
x,y,z
-x,-y,-z
loop_
_atom_site_type_symbol
_atom_site_label
_atom_site_fract_x
_atom_site_fract_y
_atom_site_fract_z
Si Si1 0.865474 0.337696 0.877430
Si Si2 0.813747 0.844407 0.224352
Si Si3 0.153691 0.307286 0.116977
Si Si4 0.307251 0.755319 0.933112
Si Si5 0.991853 0.182274 0.297988
Si Si6 0.401958 0.243493 0.585768
Si Si7 0.767819 0.408347 0.646666
Si Si8 0.473344 0.315335 0.218510
O O1 0.828964 0.459373 0.977917
O O2 0.000000 0.500000 0.500000
O O3 0.759488 0.308266 0.009063
O O4 0.887487 0.103182 0.986820
O O5 0.794455 0.665730 0.433934
O O6 0.668077 0.867485 0.453582
O O7 0.900556 0.764535 0.018328
O O8 0.071899 0.296073 0.182189
O O9 0.075545 0.087737 0.434760
O O10 0.310993 0.329647 0.788545
O O11 0.463270 0.765351 0.613567
O O12 0.306739 0.001086 0.848305
O O13 0.225279 0.584746 0.255437
O O14 0.873764 0.299049 0.449710
O O15 0.447727 0.404250 0.327634
O O16 0.613451 0.246075 0.992516
O O17 0.500000 0.500000 0.000000
#
# Coordination Sequence:
#
# PCOD8040310 Si02
#       8
#     2   2   2   2   2   2   2   2
#     4  12  23  37  56  85 119 162 189 232 292 356
#     4  11  21  38  60  85 119 150 196 236 296 344
#     4  11  22  34  60  85 118 150 197 241 287 338
#     4  10  20  36  61  85 115 147 201 237 288 341
#     4  11  20  37  58  88 115 148 197 246 282 341
#     4  10  18  36  61  86 109 152 195 247 280 333
#     4  10  21  35  62  89 113 148 193 250 286 336
#     4   9  18  34  59  88 112 146 192 241 285 340
#
# _framework density 18.455342999999999
#
# number of rings (size 3 to 8) (size 9 to 14) (size 15 to 20)
#    0.000    1.500    5.000    1.125    0.000    0.500 
#    0.000    2.500    0.000    6.750    0.000    0.000 
#    0.000    0.000    0.000    0.000    0.000    0.000 
#
# Total GULP energy -198215.700954 kJ/mol
# GULP energy per Si atom -12388.481310 kJ/mol
# Density = 1.841334 g / cm^3
# Si number density = 18.455343 Si / 1000 Ang^3
#
#
#
# Elastic Constant Matrix: (Units=GPa)
#
#
# Indices 1 2 3 4 5 6 
#
# 1 81.3190 40.9923 33.9234 -7.4126 10.6158 3.9847
# 2 40.9923 112.9044 49.4362 6.4565 -1.0444 9.8761
# 3 33.9234 49.4362 101.4040 8.8795 10.2010 1.2366
# 4 -7.4126 6.4565 8.8795 30.8021 -4.3639 1.2533
# 5 10.6158 -1.0444 10.2010 -4.3639 31.7394 -1.0969
# 6 3.9847 9.8761 1.2366 1.2533 -1.0969 24.4120
#
#
#
# Elastic Compliance Matrix: (Units=1/GPa)
#
#
# Indices 1 2 3 4 5 6 
#
# 1 0.017400 -0.005096 -0.003405 0.005693 -0.004148 -0.001085
# 2 -0.005096 0.013361 -0.004920 -0.001974 0.003313 -0.004074
# 3 -0.003405 -0.004920 0.014191 -0.004542 -0.004144 0.001874
# 4 0.005693 -0.001974 -0.004542 0.036248 0.004421 -0.001563
# 5 -0.004148 0.003313 -0.004144 0.004421 0.034973 0.000891
# 6 -0.001085 -0.004074 0.001874 -0.001563 0.000891 0.042814
#
#
# Mechanical properties :
#
#
# Convention : Reuss Voigt Hill
#
# Bulk Modulus (GPa) = 55.21415 60.48126 57.84770
# Shear Modulus (GPa) = 26.05988 28.80907 27.43447
#
# Velocity S-wave (km/s) = 3.76180 3.95525 3.85974
# Velocity P-wave (km/s) = 6.98934 7.32813 7.16074
#
# Compressibility (1/GPa) = 0.01811130
#
# Stress axis : x y z
#
# Youngs Moduli (GPa) = 57.47163 74.84318 70.46786
#
# Poissons Ratio (x) = 0.38137 0.23993
# Poissons Ratio (y) = 0.29286 0.34670
# Poissons Ratio (z) = 0.19568 0.36823
#
# Static dielectric constant tensor:
#      x y z
#    x 2.590650 -0.413930 0.601710 
#    y -0.413930 3.169210 0.494390 
#    z 0.601710 0.494390 3.636110 
# 
# 
# High freq. dielectric constant tensor:
#      x y z
#    x 1.711570 -0.020420 0.011340 
#    y -0.020420 1.688190 0.021010 
#    z 0.011340 0.021010 1.735480 
# 
# From -- ./inp_files/286070.got.cif
#   From: 2010.06.25/outbox.cif.g09.slc.cpg/sg2_144_cif.got.tgz:286070.got - 2010.06.27 13:26:56.
