data_PCOD8040375
_publ_section_title
;
Structure prediction by ZEFSAII (Michael W. Deem and Ramdas Pophale) SiO2 
 PCOD8040375
Probable space group: P -1
;
_chemical_formula_sum "Si O2"
_cell_formula_units_Z 16
_cell_length_a 16.625871
_cell_length_b 14.708331
_cell_length_c 12.184527
_cell_angle_alpha 30.562150
_cell_angle_beta 123.177421
_cell_angle_gamma 142.506061
_cell_volume 828.423767
_symmetry_space_group_name_H-M "P -1"
_symmetry_group_IT_number 2
_symmetry_cell_setting 'triclinic'
loop_
_space_group_symop_operation_xyz
x,y,z
-x,-y,-z
loop_
_atom_site_type_symbol
_atom_site_label
_atom_site_fract_x
_atom_site_fract_y
_atom_site_fract_z
Si Si1 0.859915 0.000677 0.321057
Si Si2 0.845382 0.424195 0.104794
Si Si3 0.436187 0.686460 0.491941
Si Si4 0.196302 0.394697 0.458357
Si Si5 0.881427 0.068072 0.524629
Si Si6 0.442011 0.460555 0.117716
Si Si7 0.298784 0.867386 0.922385
Si Si8 0.460559 0.889573 0.706919
O O1 0.878313 0.006375 0.459098
O O2 0.757299 0.022141 0.189700
O O3 0.783991 0.717097 0.510645
O O4 0.018446 0.248568 0.123290
O O5 0.890709 0.292933 0.317168
O O6 0.808892 0.355379 0.021106
O O7 0.710668 0.309816 0.193229
O O8 0.271322 0.423306 0.596139
O O9 0.499159 0.599080 0.688547
O O10 0.436179 0.852067 0.403489
O O11 0.536944 0.875989 0.265603
O O12 0.023914 0.186655 0.567583
O O13 0.286898 0.703444 0.178935
O O14 0.734497 0.788809 0.762270
O O15 0.500000 0.500000 0.000000
O O16 0.495048 0.729639 0.917395
O O17 0.500000 0.000000 0.500000
#
# Coordination Sequence:
#
# PCOD8040375 Si02
#       8
#     2   2   2   2   2   2   2   2
#     4  11  20  35  60  89 124 163 210 236 301 362
#     4  10  18  36  63  89 119 153 215 250 286 355
#     4  11  25  41  57  96 125 157 204 251 307 359
#     4  12  24  35  60  93 132 163 194 246 310 361
#     4  11  20  39  63  90 122 163 206 250 290 364
#     4  12  23  43  70  89 114 156 214 259 294 359
#     4  10  20  37  57  87 129 164 196 246 287 368
#     4  11  22  41  69  86 112 158 208 255 303 354
#
# _framework density 19.313787999999999
#
# number of rings (size 3 to 8) (size 9 to 14) (size 15 to 20)
#    0.000    1.000    7.500    2.250    3.500    1.500 
#    0.000    0.625    0.000    1.500    0.000    0.000 
#    0.000    0.000    0.000    0.000    0.000    0.000 
#
# Total GULP energy -198427.284663 kJ/mol
# GULP energy per Si atom -12401.705291 kJ/mol
# Density = 1.926983 g / cm^3
# Si number density = 19.313788 Si / 1000 Ang^3
#
#
#
# Elastic Constant Matrix: (Units=GPa)
#
#
# Indices 1 2 3 4 5 6 
#
# 1 120.2924 53.7856 39.7631 -4.7199 5.4154 4.6147
# 2 53.7856 112.4115 34.8756 -6.5703 4.1315 15.0124
# 3 39.7631 34.8756 81.5247 -5.4936 2.4822 2.8709
# 4 -4.7199 -6.5703 -5.4936 14.7529 -0.4690 5.3217
# 5 5.4154 4.1315 2.4822 -0.4690 39.0312 2.0109
# 6 4.6147 15.0124 2.8709 5.3217 2.0109 16.4968
#
#
#
# Elastic Compliance Matrix: (Units=1/GPa)
#
#
# Indices 1 2 3 4 5 6 
#
# 1 0.011566 -0.004618 -0.003733 -0.000457 -0.000981 0.001884
# 2 -0.004618 0.014403 -0.002802 0.009042 0.000138 -0.014261
# 3 -0.003733 -0.002802 0.015525 0.003404 -0.000122 -0.000192
# 4 -0.000457 0.009042 0.003404 0.086241 0.001819 -0.036735
# 5 -0.000981 0.000138 -0.000122 0.001819 0.025956 -0.003580
# 6 0.001884 -0.014261 -0.000192 -0.036735 -0.003580 0.085389
#
#
# Mechanical properties :
#
#
# Convention : Reuss Voigt Hill
#
# Bulk Modulus (GPa) = 52.11386 63.45301 57.78343
# Shear Modulus (GPa) = 18.67203 26.44314 22.55759
#
# Velocity S-wave (km/s) = 3.11267 3.70419 3.42124
# Velocity P-wave (km/s) = 6.32136 7.15680 6.75201
#
# Compressibility (1/GPa) = 0.01918875
#
# Stress axis : x y z
#
# Youngs Moduli (GPa) = 86.46209 69.43165 64.41114
#
# Poissons Ratio (x) = 0.32064 0.24044
# Poissons Ratio (y) = 0.39928 0.18045
# Poissons Ratio (z) = 0.32275 0.19452
#
# Static dielectric constant tensor:
#      x y z
#    x 3.735740 0.202960 0.179870 
#    y 0.202960 3.360710 -0.117920 
#    z 0.179870 -0.117920 3.607990 
# 
# 
# High freq. dielectric constant tensor:
#      x y z
#    x 1.760770 0.016730 0.017070 
#    y 0.016730 1.725080 -0.011180 
#    z 0.017070 -0.011180 1.751990 
# 
# From -- ./inp_files/432689.got.cif
#   From: 2010.06.25/outbox.cif.g09.slc.cpg/sg2_217_cif.got.tgz:432689.got - 2010.06.27 13:26:56.
