data_PCOD8040411
_publ_section_title
;
Structure prediction by ZEFSAII (Michael W. Deem and Ramdas Pophale) SiO2 
 PCOD8040411
Probable space group: P -1
;
_chemical_formula_sum "Si O2"
_cell_formula_units_Z 14
_cell_length_a 11.386080
_cell_length_b 20.523716
_cell_length_c 9.624031
_cell_angle_alpha 29.071935
_cell_angle_beta 127.752406
_cell_angle_gamma 137.724783
_cell_volume 731.024333
_symmetry_space_group_name_H-M "P -1"
_symmetry_group_IT_number 2
_symmetry_cell_setting 'triclinic'
loop_
_space_group_symop_operation_xyz
x,y,z
-x,-y,-z
loop_
_atom_site_type_symbol
_atom_site_label
_atom_site_fract_x
_atom_site_fract_y
_atom_site_fract_z
Si Si1 0.229575 0.666570 0.782815
Si Si2 0.608947 0.883984 0.727685
Si Si3 0.999318 0.313792 0.199714
Si Si4 0.777378 0.124772 0.843157
Si Si5 0.014489 0.995997 0.179759
Si Si6 0.124344 0.668924 0.205747
Si Si7 0.452236 0.879455 0.906078
O O1 0.438975 0.740870 0.795279
O O2 0.162931 0.728631 0.492589
O O3 0.179640 0.722012 0.785336
O O4 0.149284 0.480778 0.061723
O O5 0.576093 0.874648 0.887548
O O6 0.649893 0.045851 0.381540
O O7 0.786816 0.883770 0.842703
O O8 0.051203 0.185962 0.500374
O O9 0.996180 0.324459 0.011762
O O10 0.803888 0.188718 0.898825
O O11 0.576763 0.989380 0.917128
O O12 0.895526 0.049480 0.064825
O O13 0.000000 0.000000 0.000000
O O14 0.000000 0.500000 0.500000
O O15 0.304855 0.707526 0.185292
#
# Coordination Sequence:
#
# PCOD8040411 Si02
#       7
#     2   2   2   2   2   2   2
#     4  10  20  38  65  88 114 163 208 250 290 349
#     4  10  18  36  65  90 118 151 209 253 298 346
#     4  11  21  38  62  87 124 160 203 249 299 351
#     4  11  23  37  64  93 122 156 203 246 309 365
#     4  12  21  38  63  95 122 155 200 258 305 355
#     4  12  23  39  61  93 125 159 204 250 298 362
#     4  10  19  38  61  91 117 161 203 253 290 355
#
# _framework density 19.151209999999999
#
# number of rings (size 3 to 8) (size 9 to 14) (size 15 to 20)
#    0.000    1.143    7.143    1.286    0.000    0.571 
#    0.000    2.143    0.000    1.714    0.000    0.000 
#    0.000    0.000    0.000    0.000    0.000    0.000 
#
# Total GULP energy -173471.490193 kJ/mol
# GULP energy per Si atom -12390.820728 kJ/mol
# Density = 1.910762 g / cm^3
# Si number density = 19.151210 Si / 1000 Ang^3
#
#
#
# Elastic Constant Matrix: (Units=GPa)
#
#
# Indices 1 2 3 4 5 6 
#
# 1 71.4693 39.8645 47.2057 -0.8518 -1.3508 5.3565
# 2 39.8645 109.0471 46.5555 4.1439 1.4079 2.6442
# 3 47.2057 46.5555 115.2416 -3.3560 -6.2676 8.1925
# 4 -0.8518 4.1439 -3.3560 32.9583 3.1592 -11.7352
# 5 -1.3508 1.4079 -6.2676 3.1592 33.4303 2.5313
# 6 5.3565 2.6442 8.1925 -11.7352 2.5313 36.6226
#
#
#
# Elastic Compliance Matrix: (Units=1/GPa)
#
#
# Indices 1 2 3 4 5 6 
#
# 1 0.021181 -0.004889 -0.006616 0.000055 -0.000090 -0.001241
# 2 -0.004889 0.012373 -0.003111 -0.001896 -0.001122 -0.000012
# 3 -0.006616 -0.003111 0.012908 0.000733 0.002337 -0.001622
# 4 0.000055 -0.001896 0.000733 0.035130 -0.003971 0.011496
# 5 -0.000090 -0.001122 0.002337 -0.003971 0.031061 -0.003848
# 6 -0.001241 -0.000012 -0.001622 0.011496 -0.003848 0.031801
#
#
# Mechanical properties :
#
#
# Convention : Reuss Voigt Hill
#
# Bulk Modulus (GPa) = 58.04140 62.55658 60.29899
# Shear Modulus (GPa) = 27.86606 31.41103 29.63854
#
# Velocity S-wave (km/s) = 3.81866 4.05428 3.93823
# Velocity P-wave (km/s) = 7.05801 7.39268 7.22728
#
# Compressibility (1/GPa) = 0.01722908
#
# Stress axis : x y z
#
# Youngs Moduli (GPa) = 47.21155 80.82282 77.47109
#
# Poissons Ratio (x) = 0.39518 0.51256
# Poissons Ratio (y) = 0.23084 0.24100
# Poissons Ratio (z) = 0.31236 0.25143
#
# Static dielectric constant tensor:
#      x y z
#    x 3.332790 0.021000 -0.307460 
#    y 0.021000 3.671690 0.018720 
#    z -0.307460 0.018720 3.368900 
# 
# 
# High freq. dielectric constant tensor:
#      x y z
#    x 1.713490 0.005470 -0.025880 
#    y 0.005470 1.771540 0.004790 
#    z -0.025880 0.004790 1.732880 
# 
# From -- ./inp_files/159729.got.cif
#   From: 2010.06.25/outbox.cif.g09.slc.cpg/sg2_80_cif.got.tgz:159729.got - 2010.06.27 13:26:56.
