data_PCOD8040603
_publ_section_title
;
Structure prediction by ZEFSAII (Michael W. Deem and Ramdas Pophale) SiO2 
 PCOD8040603
Probable space group: P -1
;
_chemical_formula_sum "Si O2"
_cell_formula_units_Z 12
_cell_length_a 7.226490
_cell_length_b 9.926923
_cell_length_c 12.562548
_cell_angle_alpha 104.929274
_cell_angle_beta 50.973253
_cell_angle_gamma 129.486700
_cell_volume 524.768485
_symmetry_space_group_name_H-M "P -1"
_symmetry_group_IT_number 2
_symmetry_cell_setting 'triclinic'
loop_
_space_group_symop_operation_xyz
x,y,z
-x,-y,-z
loop_
_atom_site_type_symbol
_atom_site_label
_atom_site_fract_x
_atom_site_fract_y
_atom_site_fract_z
Si Si1 0.075248 0.712951 0.483596
Si Si2 0.298670 0.106475 0.795332
Si Si3 0.583140 0.929610 0.668193
Si Si4 0.436899 0.636893 0.061927
Si Si5 0.663710 0.923975 0.881356
Si Si6 0.855672 0.409797 0.363191
O O1 0.390198 0.741616 0.351226
O O2 0.812406 0.536003 0.474108
O O3 0.024303 0.674400 0.620979
O O4 0.123822 0.892227 0.465261
O O5 0.306530 0.192111 0.922253
O O6 0.306424 0.941457 0.779845
O O7 0.012360 0.049621 0.819640
O O8 0.681588 0.920245 0.747362
O O9 0.464390 0.752444 0.608880
O O10 0.095931 0.532784 0.208181
O O11 0.500000 0.500000 0.000000
O O12 0.467140 0.719517 0.952360
O O13 0.500000 0.000000 0.000000
#
# Coordination Sequence:
#
# PCOD8040603 Si02
#       6
#     2   2   2   2   2   2
#     4   8  19  39  64  85 118 159 202 252 302 354
#     4   9  21  40  59  88 118 162 198 249 301 352
#     4  10  21  38  64  90 117 161 203 251 301 352
#     4  11  23  38  60  91 126 162 198 251 304 363
#     4  12  22  38  61  89 123 164 201 245 304 362
#     4  10  18  37  64  87 117 162 204 240 307 363
#
# _framework density 22.867228000000001
#
# number of rings (size 3 to 8) (size 9 to 14) (size 15 to 20)
#    1.000    1.000    1.667    2.000    2.333    0.667 
#    3.000    0.833    0.000    6.000    0.000    0.000 
#    0.000    0.000    0.000    0.000    0.000    0.000 
#
# Total GULP energy -148719.271466 kJ/mol
# GULP energy per Si atom -12393.272622 kJ/mol
# Density = 2.281518 g / cm^3
# Si number density = 22.867228 Si / 1000 Ang^3
#
#
#
# Elastic Constant Matrix: (Units=GPa)
#
#
# Indices 1 2 3 4 5 6 
#
# 1 75.9709 29.1848 16.0511 0.8302 21.3399 13.9287
# 2 29.1848 137.7576 30.3037 -13.8731 26.3213 21.6029
# 3 16.0511 30.3037 70.5261 -17.5379 29.8830 8.5742
# 4 0.8302 -13.8731 -17.5379 41.3421 -7.5392 11.6230
# 5 21.3399 26.3213 29.8830 -7.5392 34.5077 6.5462
# 6 13.9287 21.6029 8.5742 11.6230 6.5462 35.0500
#
#
#
# Elastic Compliance Matrix: (Units=1/GPa)
#
#
# Indices 1 2 3 4 5 6 
#
# 1 0.016986 -0.001450 0.001174 -0.001019 -0.009887 -0.003959
# 2 -0.001450 0.009795 -0.000340 0.004059 -0.004269 -0.005927
# 3 0.001174 -0.000340 0.024992 0.008549 -0.019175 -0.005625
# 4 -0.001019 0.004059 0.008549 0.033600 0.000394 -0.015404
# 5 -0.009887 -0.004269 -0.019175 0.000394 0.054876 0.000872
# 6 -0.003959 -0.005927 -0.005625 -0.015404 0.000872 0.040078
#
#
# Mechanical properties :
#
#
# Convention : Reuss Voigt Hill
#
# Bulk Modulus (GPa) = 19.78509 48.37042 34.07775
# Shear Modulus (GPa) = 25.20089 36.09431 30.64760
#
# Velocity S-wave (km/s) = 3.32332 3.97726 3.66490
# Velocity P-wave (km/s) = 4.83703 6.50308 5.73092
#
# Compressibility (1/GPa) = 0.05054312
#
# Stress axis : x y z
#
# Youngs Moduli (GPa) = 58.87198 102.09359 40.01213
#
# Poissons Ratio (x) = 0.14799 -0.04698
# Poissons Ratio (y) = 0.08534 0.01360
# Poissons Ratio (z) = -0.06913 0.03469
#
# Static dielectric constant tensor:
#      x y z
#    x 3.545160 0.089130 -0.010430 
#    y 0.089130 4.183910 -0.152990 
#    z -0.010430 -0.152990 3.806490 
# 
# 
# High freq. dielectric constant tensor:
#      x y z
#    x 1.862450 0.010670 0.015370 
#    y 0.010670 1.910910 -0.010170 
#    z 0.015370 -0.010170 1.908960 
# 
# From -- ./inp_files/77262.got.cif
#   From: 2010.06.25/outbox.cif.g09.slc.cpg/sg2_39_cif.got.tgz:77262.got - 2010.06.27 13:26:56.
