data_PCOD8040037
_publ_section_title
;
Structure prediction by ZEFSAII (Michael W. Deem and Ramdas Pophale) SiO2 
 PCOD8040037
Probable space group: P -1
;
_chemical_formula_sum "Si O2"
_cell_formula_units_Z 14
_cell_length_a 13.917778
_cell_length_b 9.634148
_cell_length_c 10.069387
_cell_angle_alpha 41.912004
_cell_angle_beta 79.791684
_cell_angle_gamma 63.506399
_cell_volume 779.671429
_symmetry_space_group_name_H-M "P -1"
_symmetry_group_IT_number 2
_symmetry_cell_setting 'triclinic'
loop_
_space_group_symop_operation_xyz
x,y,z
-x,-y,-z
loop_
_atom_site_type_symbol
_atom_site_label
_atom_site_fract_x
_atom_site_fract_y
_atom_site_fract_z
Si Si1 0.839776 0.641553 0.771827
Si Si2 0.005173 0.887431 0.938773
Si Si3 0.400899 0.154157 0.011542
Si Si4 0.407295 0.026341 0.401062
Si Si5 0.204052 0.083881 0.154432
Si Si6 0.081050 0.017140 0.575603
Si Si7 0.304546 0.706166 0.618160
O O1 0.711356 0.764196 0.670185
O O2 0.844290 0.693405 0.890556
O O3 0.911614 0.742789 0.607850
O O4 0.891048 0.370940 0.915038
O O5 0.889848 0.884948 0.947755
O O6 0.026266 0.039690 0.715432
O O7 0.000000 0.000000 0.000000
O O8 0.364258 0.425774 0.794530
O O9 0.436324 0.087840 0.204093
O O10 0.302600 0.093471 0.041945
O O11 0.500000 0.000000 0.000000
O O12 0.500000 0.000000 0.500000
O O13 0.397654 0.784908 0.575030
O O14 0.248035 0.836933 0.399948
O O15 0.205384 0.794402 0.688499
O O16 0.000000 0.000000 0.500000
#
# Coordination Sequence:
#
# PCOD8040037 Si02
#       7
#     2   2   2   2   2   2   2
#     4   9  20  37  62  80 112 154 197 219 271 352
#     4  12  23  36  53  92 124 140 180 243 293 327
#     4  10  21  38  58  85 109 148 192 230 277 334
#     4   9  20  40  58  85 112 144 191 237 276 323
#     4   9  20  37  59  83 111 154 194 226 275 339
#     4  10  18  35  62  81 103 155 190 218 275 342
#     4   9  19  37  62  83 107 146 202 222 266 348
#
# _framework density 17.956282000000002
#
# number of rings (size 3 to 8) (size 9 to 14) (size 15 to 20)
#    0.000    2.857    2.857    2.143    2.000    3.429 
#   10.286    0.000    0.000    0.000    0.000    0.000 
#    0.000    0.000    0.000    0.000    0.000    0.000 
#
# Total GULP energy -173524.088294 kJ/mol
# GULP energy per Si atom -12394.577735 kJ/mol
# Density = 1.791541 g / cm^3
# Si number density = 17.956282 Si / 1000 Ang^3
#
#
#
# Elastic Constant Matrix: (Units=GPa)
#
#
# Indices 1 2 3 4 5 6 
#
# 1 138.3178 54.0536 50.5316 10.8113 8.4458 1.3237
# 2 54.0536 107.0545 57.7834 6.7653 -1.5866 -4.4838
# 3 50.5316 57.7834 82.2855 4.4555 -6.2111 -1.5162
# 4 10.8113 6.7653 4.4555 24.2417 -0.1542 -1.2731
# 5 8.4458 -1.5866 -6.2111 -0.1542 30.4201 12.1898
# 6 1.3237 -4.4838 -1.5162 -1.2731 12.1898 22.3962
#
#
#
# Elastic Compliance Matrix: (Units=1/GPa)
#
#
# Indices 1 2 3 4 5 6 
#
# 1 0.010470 -0.002539 -0.004794 -0.003069 -0.004326 0.000728
# 2 -0.002539 0.016098 -0.009748 -0.001387 -0.001929 0.003684
# 3 -0.004794 -0.009748 0.022363 0.000587 0.006958 -0.003908
# 4 -0.003069 -0.001387 0.000587 0.043020 0.000205 0.002277
# 5 -0.004326 -0.001929 0.006958 0.000205 0.045087 -0.024188
# 6 0.000728 0.003684 -0.003908 0.002277 -0.024188 0.058375
#
#
# Mechanical properties :
#
#
# Convention : Reuss Voigt Hill
#
# Bulk Modulus (GPa) = 67.70335 72.48835 70.09585
# Shear Modulus (GPa) = 21.32208 26.43090 23.87649
#
# Velocity S-wave (km/s) = 3.44967 3.84077 3.65046
# Velocity P-wave (km/s) = 7.32485 7.75408 7.54252
#
# Compressibility (1/GPa) = 0.01477032
#
# Stress axis : x y z
#
# Youngs Moduli (GPa) = 95.50872 62.12035 44.71576
#
# Poissons Ratio (x) = 0.15770 0.21437
# Poissons Ratio (y) = 0.24247 0.43589
# Poissons Ratio (z) = 0.45786 0.60555
#
# Static dielectric constant tensor:
#      x y z
#    x 3.445720 -0.163270 -0.189880 
#    y -0.163270 3.042690 -0.000310 
#    z -0.189880 -0.000310 3.291930 
# 
# 
# High freq. dielectric constant tensor:
#      x y z
#    x 1.704890 -0.013010 -0.016620 
#    y -0.013010 1.667950 -0.007620 
#    z -0.016620 -0.007620 1.694050 
# 
# From -- ./inp_files/200439.got.cif
#   From: 2010.06.25/outbox.cif.g09.slc.cpg/sg2_101_cif.got.tgz:200439.got - 2010.06.27 13:26:56.
