data_PCOD8040548
_publ_section_title
;
Structure prediction by ZEFSAII (Michael W. Deem and Ramdas Pophale) SiO2 
 PCOD8040548
Probable space group: P -1
;
_chemical_formula_sum "Si O2"
_cell_formula_units_Z 16
_cell_length_a 18.815233
_cell_length_b 19.759634
_cell_length_c 9.917553
_cell_angle_alpha 133.771693
_cell_angle_beta 54.504805
_cell_angle_gamma 159.949819
_cell_volume 876.412289
_symmetry_space_group_name_H-M "P -1"
_symmetry_group_IT_number 2
_symmetry_cell_setting 'triclinic'
loop_
_space_group_symop_operation_xyz
x,y,z
-x,-y,-z
loop_
_atom_site_type_symbol
_atom_site_label
_atom_site_fract_x
_atom_site_fract_y
_atom_site_fract_z
Si Si1 0.014391 0.959396 0.064629
Si Si2 0.060330 0.195609 0.463182
Si Si3 0.010369 0.298614 0.422704
Si Si4 0.632248 0.853438 0.084210
Si Si5 0.015856 0.408573 0.817921
Si Si6 0.655504 0.457943 0.783599
Si Si7 0.317805 0.069810 0.401214
Si Si8 0.594772 0.335307 0.197102
O O1 0.048802 0.072479 0.296132
O O2 0.784994 0.682885 0.953142
O O3 0.219911 0.092945 0.025794
O O4 0.000000 0.000000 0.000000
O O5 0.030674 0.224677 0.393915
O O6 0.292871 0.452241 0.622408
O O7 0.877350 0.048334 0.568916
O O8 0.054545 0.434724 0.650009
O O9 0.181210 0.462832 0.338177
O O10 0.773486 0.071014 0.304381
O O11 0.421306 0.629056 0.098172
O O12 0.559583 0.821883 0.977530
O O13 0.219769 0.561865 0.880126
O O14 0.788455 0.133771 0.719614
O O15 0.000000 0.500000 0.000000
O O16 0.454789 0.255681 0.623905
O O17 0.453204 0.180729 0.272886
#
# Coordination Sequence:
#
# PCOD8040548 Si02
#       8
#     2   2   2   2   2   2   2   2
#     4  11  20  33  52  86 115 142 204 235 255 319
#     4  10  19  35  52  80 115 147 190 236 260 319
#     4   9  18  36  55  79 113 141 186 224 273 334
#     4  11  22  35  56  83 113 154 184 231 275 320
#     4  10  21  38  63  89 108 134 184 234 272 344
#     4  11  18  34  59  80 106 159 188 222 273 329
#     4  10  18  37  62  77 110 154 181 220 286 332
#     4  10  22  39  56  82 117 146 184 227 285 329
#
# _framework density 18.256246999999998
#
# number of rings (size 3 to 8) (size 9 to 14) (size 15 to 20)
#    0.000    2.000    7.500    0.000    0.000    8.000 
#    0.000    1.875    0.000    1.500    0.000    0.000 
#    0.000    0.000    0.000    0.000    0.000    0.000 
#
# Total GULP energy -198242.898077 kJ/mol
# GULP energy per Si atom -12390.181130 kJ/mol
# Density = 1.821470 g / cm^3
# Si number density = 18.256247 Si / 1000 Ang^3
#
#
#
# Elastic Constant Matrix: (Units=GPa)
#
#
# Indices 1 2 3 4 5 6 
#
# 1 60.9624 22.7479 53.0167 0.5867 -6.7084 12.5745
# 2 22.7479 107.1891 26.7582 -0.4215 -10.3676 7.5808
# 3 53.0167 26.7582 118.4547 6.6160 -18.4959 8.6538
# 4 0.5867 -0.4215 6.6160 26.1399 4.2626 3.7371
# 5 -6.7084 -10.3676 -18.4959 4.2626 41.9519 0.2203
# 6 12.5745 7.5808 8.6538 3.7371 0.2203 15.2160
#
#
#
# Elastic Compliance Matrix: (Units=1/GPa)
#
#
# Indices 1 2 3 4 5 6 
#
# 1 0.032550 -0.002372 -0.013176 0.005636 -0.001660 -0.019584
# 2 -0.002372 0.010422 -0.000831 0.000558 0.001789 -0.002922
# 3 -0.013176 -0.000831 0.015295 -0.004925 0.004912 0.003742
# 4 0.005636 0.000558 -0.004925 0.042025 -0.005337 -0.012379
# 5 -0.001660 0.001789 0.004912 -0.005337 0.026729 -0.001389
# 6 -0.019584 -0.002922 0.003742 -0.012379 -0.001389 0.084293
#
#
# Mechanical properties :
#
#
# Convention : Reuss Voigt Hill
#
# Bulk Modulus (GPa) = 39.20072 54.62798 46.91435
# Shear Modulus (GPa) = 19.79621 28.93379 24.36500
#
# Velocity S-wave (km/s) = 3.29652 3.98536 3.65720
# Velocity P-wave (km/s) = 6.00071 7.15300 6.60204
#
# Compressibility (1/GPa) = 0.02550973
#
# Stress axis : x y z
#
# Youngs Moduli (GPa) = 30.72232 95.95069 65.37880
#
# Poissons Ratio (x) = 0.22759 0.86141
# Poissons Ratio (y) = 0.07287 0.05433
# Poissons Ratio (z) = 0.40479 0.07974
#
# Static dielectric constant tensor:
#      x y z
#    x 2.953570 0.135620 -0.125120 
#    y 0.135620 4.126320 0.032820 
#    z -0.125120 0.032820 3.670260 
# 
# 
# High freq. dielectric constant tensor:
#      x y z
#    x 1.647430 0.016900 0.002580 
#    y 0.016900 1.726300 0.002310 
#    z 0.002580 0.002310 1.717080 
# 
# From -- ./inp_files/349550.got.cif
#   From: 2010.06.25/outbox.cif.g09.slc.cpg/sg2_175_cif.got.tgz:349550.got - 2010.06.27 13:26:56.
