data_PCOD8040393
_publ_section_title
;
Structure prediction by ZEFSAII (Michael W. Deem and Ramdas Pophale) SiO2 
 PCOD8040393
Probable space group: P -1
;
_chemical_formula_sum "Si O2"
_cell_formula_units_Z 16
_cell_length_a 20.752965
_cell_length_b 9.393066
_cell_length_c 8.874195
_cell_angle_alpha 61.197025
_cell_angle_beta 50.204559
_cell_angle_gamma 36.609363
_cell_volume 790.700519
_symmetry_space_group_name_H-M "P -1"
_symmetry_group_IT_number 2
_symmetry_cell_setting 'triclinic'
loop_
_space_group_symop_operation_xyz
x,y,z
-x,-y,-z
loop_
_atom_site_type_symbol
_atom_site_label
_atom_site_fract_x
_atom_site_fract_y
_atom_site_fract_z
Si Si1 0.213991 0.584400 0.298595
Si Si2 0.072765 0.106662 0.186929
Si Si3 0.795909 0.523763 0.316587
Si Si4 0.199637 0.136966 0.746396
Si Si5 0.432954 0.129054 0.690020
Si Si6 0.563050 0.247858 0.587116
Si Si7 0.488920 0.182951 0.007677
Si Si8 0.960256 0.460050 0.431794
O O1 0.239721 0.546783 0.458359
O O2 0.343954 0.435269 0.101990
O O3 0.156521 0.491633 0.380677
O O4 0.112585 0.864454 0.270268
O O5 0.943693 0.299930 0.187574
O O6 0.062149 0.206226 0.318380
O O7 0.176578 0.043360 0.962554
O O8 0.751911 0.766972 0.301385
O O9 0.711225 0.610507 0.252109
O O10 0.075022 0.349752 0.731336
O O11 0.296966 0.932344 0.584306
O O12 0.497218 0.186906 0.645375
O O13 0.500000 0.000000 0.500000
O O14 0.446229 0.943162 0.863227
O O15 0.500000 0.500000 0.500000
O O16 0.556863 0.230607 0.787607
O O17 0.500000 0.000000 0.000000
O O18 0.000000 0.500000 0.500000
#
# Coordination Sequence:
#
# PCOD8040393 Si02
#       8
#     2   2   2   2   2   2   2   2
#     4  10  19  38  63  85 123 156 197 250 299 364
#     4  10  21  39  62  88 118 163 198 242 308 350
#     4  10  18  36  64  86 113 149 204 245 286 361
#     4  10  20  41  58  80 121 162 199 242 289 366
#     4  11  19  39  64  88 111 156 209 246 287 369
#     4  11  23  41  57  86 125 158 194 254 313 341
#     4  10  20  38  63  88 116 163 203 240 310 355
#     4  10  20  38  59  88 117 153 198 241 298 362
#
# _framework density 20.235222
#
# number of rings (size 3 to 8) (size 9 to 14) (size 15 to 20)
#    0.000    2.000    2.500    6.000    0.000    0.000 
#   18.000    1.250    0.000    0.000    0.000    0.000 
#    0.000    0.000    0.000    0.000    0.000    0.000 
#
# Total GULP energy -198235.671745 kJ/mol
# GULP energy per Si atom -12389.729484 kJ/mol
# Density = 2.018917 g / cm^3
# Si number density = 20.235222 Si / 1000 Ang^3
#
#
#
# Elastic Constant Matrix: (Units=GPa)
#
#
# Indices 1 2 3 4 5 6 
#
# 1 75.8099 21.9727 22.8057 -3.9284 15.8192 -13.7408
# 2 21.9727 111.6720 44.2165 -3.6482 -0.1479 -12.6656
# 3 22.8057 44.2165 145.5365 -1.2249 3.9897 -6.0077
# 4 -3.9284 -3.6482 -1.2249 40.4944 -6.8799 -1.8550
# 5 15.8192 -0.1479 3.9897 -6.8799 21.2742 -1.7323
# 6 -13.7408 -12.6656 -6.0077 -1.8550 -1.7323 23.1893
#
#
#
# Elastic Compliance Matrix: (Units=1/GPa)
#
#
# Indices 1 2 3 4 5 6 
#
# 1 0.018456 -0.002083 -0.001562 -0.000240 -0.012838 0.008415
# 2 -0.002083 0.011072 -0.002926 0.001416 0.002991 0.004391
# 3 -0.001562 -0.002926 0.007995 -0.000280 -0.000491 -0.000511
# 4 -0.000240 0.001416 -0.000280 0.026487 0.009080 0.003356
# 5 -0.012838 0.002991 -0.000491 0.009080 0.059525 -0.000928
# 6 0.008415 0.004391 -0.000511 0.003356 -0.000928 0.050575
#
#
# Mechanical properties :
#
#
# Convention : Reuss Voigt Hill
#
# Bulk Modulus (GPa) = 41.01712 56.77871 48.89791
# Shear Modulus (GPa) = 25.59126 33.25980 29.42553
#
# Velocity S-wave (km/s) = 3.56010 4.05860 3.81750
# Velocity P-wave (km/s) = 6.10027 7.07695 6.60669
#
# Compressibility (1/GPa) = 0.02438006
#
# Stress axis : x y z
#
# Youngs Moduli (GPa) = 54.18178 90.32137 125.08082
#
# Poissons Ratio (x) = 0.18818 0.19535
# Poissons Ratio (y) = 0.11289 0.36599
# Poissons Ratio (z) = 0.08462 0.26428
#
# Static dielectric constant tensor:
#      x y z
#    x 3.771010 -0.481020 0.632580 
#    y -0.481020 4.275920 -0.462870 
#    z 0.632580 -0.462870 4.621620 
# 
# 
# High freq. dielectric constant tensor:
#      x y z
#    x 1.749900 -0.015050 0.003810 
#    y -0.015050 1.795580 -0.004360 
#    z 0.003810 -0.004360 1.802960 
# 
# From -- ./inp_files/343416.got.cif
#   From: 2010.06.25/outbox.cif.g09.slc.cpg/sg2_172_cif.got.tgz:343416.got - 2010.06.27 13:26:56.
