data_PCOD8040386
_publ_section_title
;
Structure prediction by ZEFSAII (Michael W. Deem and Ramdas Pophale) SiO2 
 PCOD8040386
Probable space group: P -1
;
_chemical_formula_sum "Si O2"
_cell_formula_units_Z 14
_cell_length_a 10.918492
_cell_length_b 13.907132
_cell_length_c 9.443175
_cell_angle_alpha 128.980970
_cell_angle_beta 58.142194
_cell_angle_gamma 146.627743
_cell_volume 613.131190
_symmetry_space_group_name_H-M "P -1"
_symmetry_group_IT_number 2
_symmetry_cell_setting 'triclinic'
loop_
_space_group_symop_operation_xyz
x,y,z
-x,-y,-z
loop_
_atom_site_type_symbol
_atom_site_label
_atom_site_fract_x
_atom_site_fract_y
_atom_site_fract_z
Si Si1 0.746811 0.346593 0.315917
Si Si2 0.258143 0.292387 0.699185
Si Si3 0.041490 0.911532 0.572800
Si Si4 0.571817 0.017075 0.630632
Si Si5 0.011618 0.281132 0.051449
Si Si6 0.778503 0.619333 0.688484
Si Si7 0.531277 0.898013 0.979170
O O1 0.849093 0.538743 0.491767
O O2 0.599564 0.287790 0.209930
O O3 0.944329 0.381618 0.184926
O O4 0.603385 0.191367 0.385049
O O5 0.520221 0.480511 0.698634
O O6 0.156946 0.204668 0.525626
O O7 0.200047 0.135272 0.686435
O O8 0.155315 0.347515 0.885305
O O9 0.185994 0.885145 0.422480
O O10 0.926755 0.823060 0.714388
O O11 0.500000 0.000000 0.500000
O O12 0.573812 0.146035 0.841519
O O13 0.166276 0.351151 0.154004
O O14 0.796161 0.048093 0.969038
O O15 0.500000 0.000000 0.000000
#
# Coordination Sequence:
#
# PCOD8040386 Si02
#       7
#     2   2   2   2   2   2   2
#     4  10  20  40  66  92 130 167 214 265 315 381
#     4  11  24  43  66  89 133 174 212 260 314 392
#     4  11  23  41  68  92 127 175 215 253 326 381
#     4  10  18  36  63  96 125 163 212 263 316 374
#     4  10  21  39  65  95 130 169 208 270 325 367
#     4  12  24  41  65  98 128 164 220 266 318 378
#     4   8  17  34  61  88 122 166 210 249 310 379
#
# _framework density 22.833613
#
# number of rings (size 3 to 8) (size 9 to 14) (size 15 to 20)
#    0.000    2.000    1.429    5.571    2.000    0.571 
#    0.000    4.286    3.143    0.000    0.000    0.000 
#    0.000    0.000    0.000    0.000    0.000    0.000 
#
# Total GULP energy -173573.334828 kJ/mol
# GULP energy per Si atom -12398.095345 kJ/mol
# Density = 2.278164 g / cm^3
# Si number density = 22.833613 Si / 1000 Ang^3
#
#
#
# Elastic Constant Matrix: (Units=GPa)
#
#
# Indices 1 2 3 4 5 6 
#
# 1 72.0737 15.3291 18.6158 -7.1226 0.0137 19.3124
# 2 15.3291 54.4973 3.8848 -15.9560 -11.7515 0.6380
# 3 18.6158 3.8848 92.4940 -14.0407 9.9934 -2.2349
# 4 -7.1226 -15.9560 -14.0407 29.7970 14.5603 -1.0825
# 5 0.0137 -11.7515 9.9934 14.5603 40.8349 -7.3716
# 6 19.3124 0.6380 -2.2349 -1.0825 -7.3716 23.0697
#
#
#
# Elastic Compliance Matrix: (Units=1/GPa)
#
#
# Indices 1 2 3 4 5 6 
#
# 1 0.021662 -0.006140 -0.003737 0.001914 -0.005130 -0.019875
# 2 -0.006140 0.023753 0.001524 0.010269 0.003954 0.006376
# 3 -0.003737 0.001524 0.013569 0.009163 -0.005599 0.003042
# 4 0.001914 0.010269 0.009163 0.052950 -0.018995 -0.004583
# 5 -0.005130 0.003954 -0.005599 -0.018995 0.036366 0.014372
# 6 -0.019875 0.006376 0.003042 -0.004583 0.014372 0.064481
#
#
# Mechanical properties :
#
#
# Convention : Reuss Voigt Hill
#
# Bulk Modulus (GPa) = 23.65367 32.74715 28.20041
# Shear Modulus (GPa) = 20.52721 30.82267 25.67494
#
# Velocity S-wave (km/s) = 3.00157 3.67806 3.35690
# Velocity P-wave (km/s) = 4.73225 5.69300 5.23471
#
# Compressibility (1/GPa) = 0.04227673
#
# Stress axis : x y z
#
# Youngs Moduli (GPa) = 46.16470 42.10074 73.69694
#
# Poissons Ratio (x) = 0.25849 0.27543
# Poissons Ratio (y) = 0.28344 -0.11230
# Poissons Ratio (z) = 0.17253 -0.06415
#
# Static dielectric constant tensor:
#      x y z
#    x 4.104680 0.244010 0.154650 
#    y 0.244010 4.057520 0.245350 
#    z 0.154650 0.245350 4.733950 
# 
# 
# High freq. dielectric constant tensor:
#      x y z
#    x 1.893300 0.022510 0.006360 
#    y 0.022510 1.880850 -0.008290 
#    z 0.006360 -0.008290 1.909490 
# 
# From -- ./inp_files/270849.got.cif
#   From: 2010.06.25/outbox.cif.g09.slc.cpg/sg2_136_cif.got.tgz:270849.got - 2010.06.27 13:26:56.
