data_PCOD8040741
_publ_section_title
;
Structure prediction by ZEFSAII (Michael W. Deem and Ramdas Pophale) SiO2 
 PCOD8040741
Probable space group: P -1
;
_chemical_formula_sum "Si O2"
_cell_formula_units_Z 14
_cell_length_a 9.356492
_cell_length_b 23.329095
_cell_length_c 8.947710
_cell_angle_alpha 134.266474
_cell_angle_beta 53.773557
_cell_angle_gamma 153.469692
_cell_volume 621.280262
_symmetry_space_group_name_H-M "P -1"
_symmetry_group_IT_number 2
_symmetry_cell_setting 'triclinic'
loop_
_space_group_symop_operation_xyz
x,y,z
-x,-y,-z
loop_
_atom_site_type_symbol
_atom_site_label
_atom_site_fract_x
_atom_site_fract_y
_atom_site_fract_z
Si Si1 0.286616 0.388387 0.788501
Si Si2 0.070217 0.360928 0.267677
Si Si3 0.292157 0.145741 0.862483
Si Si4 0.853155 0.105787 0.930912
Si Si5 0.941028 0.867498 0.454663
Si Si6 0.870970 0.364626 0.092615
Si Si7 0.696540 0.319622 0.634380
O O1 0.548263 0.474653 0.651430
O O2 0.084417 0.231126 0.645025
O O3 0.500000 0.500000 0.000000
O O4 0.024182 0.358446 0.869081
O O5 0.910221 0.351302 0.214646
O O6 0.877217 0.307822 0.442085
O O7 0.062781 0.263856 0.061212
O O8 0.555009 0.255512 0.768984
O O9 0.020591 0.112956 0.965721
O O10 0.489317 0.227277 0.043617
O O11 0.125253 0.995767 0.687204
O O12 0.853454 0.054721 0.684946
O O13 0.500000 0.000000 0.000000
O O14 0.585127 0.766057 0.462932
O O15 0.037080 0.511367 0.227680
#
# Coordination Sequence:
#
# PCOD8040741 Si02
#       7
#     2   2   2   2   2   2   2
#     4  10  18  38  63  89 118 165 209 246 293 369
#     4  11  21  39  70  90 116 165 221 242 288 377
#     4  11  25  40  62  96 128 158 198 262 321 346
#     4  11  21  41  63  89 123 167 206 247 302 383
#     4  11  20  39  64  87 122 167 209 239 301 382
#     4  11  22  41  63  94 126 159 202 264 307 347
#     4  11  21  40  67  91 121 167 210 244 300 380
#
# _framework density 22.534113000000001
#
# number of rings (size 3 to 8) (size 9 to 14) (size 15 to 20)
#    0.000    1.143    5.714    5.143    0.000    0.571 
#    0.000    7.143    0.000    0.000    0.000    0.000 
#    0.000    0.000    0.000    0.000    0.000    0.000 
#
# Total GULP energy -173576.689638 kJ/mol
# GULP energy per Si atom -12398.334974 kJ/mol
# Density = 2.248282 g / cm^3
# Si number density = 22.534113 Si / 1000 Ang^3
#
#
#
# Elastic Constant Matrix: (Units=GPa)
#
#
# Indices 1 2 3 4 5 6 
#
# 1 76.9173 28.1604 22.9768 11.0956 -12.5557 19.4550
# 2 28.1604 86.9903 33.2921 10.4430 -7.0549 21.4333
# 3 22.9768 33.2921 57.3519 24.3895 -19.1762 3.1569
# 4 11.0956 10.4430 24.3895 57.0605 7.2937 -12.4420
# 5 -12.5557 -7.0549 -19.1762 7.2937 27.0787 1.2795
# 6 19.4550 21.4333 3.1569 -12.4420 1.2795 38.0952
#
#
#
# Elastic Compliance Matrix: (Units=1/GPa)
#
#
# Indices 1 2 3 4 5 6 
#
# 1 0.019590 -0.001976 0.001905 -0.008577 0.012808 -0.012282
# 2 -0.001976 0.017716 -0.010197 0.000176 -0.003194 -0.007949
# 3 0.001905 -0.010197 0.046689 -0.025269 0.038505 -0.008651
# 4 -0.008577 0.000176 -0.025269 0.038582 -0.033167 0.020090
# 5 0.012808 -0.003194 0.038505 -0.033167 0.079250 -0.021429
# 6 -0.012282 -0.007949 -0.008651 0.020090 -0.021429 0.044993
#
#
# Mechanical properties :
#
#
# Convention : Reuss Voigt Hill
#
# Bulk Modulus (GPa) = 15.75841 43.34644 29.55243
# Shear Modulus (GPa) = 17.33042 33.56891 25.44967
#
# Velocity S-wave (km/s) = 2.77623 3.86384 3.36428
# Velocity P-wave (km/s) = 4.15751 6.25966 5.31358
#
# Compressibility (1/GPa) = 0.06345818
#
# Stress axis : x y z
#
# Youngs Moduli (GPa) = 51.04642 56.44537 21.41831
#
# Poissons Ratio (x) = 0.11155 -0.04080
# Poissons Ratio (y) = 0.10088 0.21841
# Poissons Ratio (z) = -0.09725 0.57560
#
# Static dielectric constant tensor:
#      x y z
#    x 4.025050 0.219740 -0.374220 
#    y 0.219740 4.260710 0.013810 
#    z -0.374220 0.013810 3.935760 
# 
# 
# High freq. dielectric constant tensor:
#      x y z
#    x 1.868510 0.010650 -0.032160 
#    y 0.010650 1.900010 0.009550 
#    z -0.032160 0.009550 1.875050 
# 
# From -- ./inp_files/224036.got.cif
#   From: 2010.06.25/outbox.cif.g09.slc.cpg/sg2_113_cif.got.tgz:224036.got - 2010.06.27 13:26:56.
