data_PCOD8040423
_publ_section_title
;
Structure prediction by ZEFSAII (Michael W. Deem and Ramdas Pophale) SiO2 
 PCOD8040423
Probable space group: P -1
;
_chemical_formula_sum "Si O2"
_cell_formula_units_Z 16
_cell_length_a 15.177037
_cell_length_b 15.216245
_cell_length_c 9.649467
_cell_angle_alpha 38.084818
_cell_angle_beta 53.487930
_cell_angle_gamma 32.104644
_cell_volume 712.821550
_symmetry_space_group_name_H-M "P -1"
_symmetry_group_IT_number 2
_symmetry_cell_setting 'triclinic'
loop_
_space_group_symop_operation_xyz
x,y,z
-x,-y,-z
loop_
_atom_site_type_symbol
_atom_site_label
_atom_site_fract_x
_atom_site_fract_y
_atom_site_fract_z
Si Si1 0.477746 0.198065 0.968471
Si Si2 0.903767 0.421491 0.627003
Si Si3 0.814863 0.227010 0.839856
Si Si4 0.702006 0.046678 0.207445
Si Si5 0.286826 0.118909 0.324979
Si Si6 0.014494 0.558521 0.191326
Si Si7 0.241865 0.988587 0.268140
Si Si8 0.691955 0.362088 0.477934
O O1 0.416670 0.095584 0.155346
O O2 0.588831 0.110854 0.107656
O O3 0.315795 0.468748 0.784428
O O4 0.586074 0.121254 0.824965
O O5 0.776858 0.420590 0.700610
O O6 0.863555 0.506775 0.716874
O O7 0.102208 0.183120 0.723097
O O8 0.874347 0.586665 0.349279
O O9 0.798103 0.252577 0.657458
O O10 0.684855 0.235660 0.006677
O O11 0.000000 0.000000 0.000000
O O12 0.634477 0.032489 0.424135
O O13 0.121539 0.374593 0.200922
O O14 0.237802 0.037904 0.370651
O O15 0.921798 0.785638 0.933813
O O16 0.223371 0.835272 0.462849
O O17 0.500000 0.500000 0.500000
#
# Coordination Sequence:
#
# PCOD8040423 Si02
#       8
#     2   2   2   2   2   2   2   2
#     4  11  22  43  67  89 130 176 213 261 321 391
#     4   9  19  35  67  94 121 167 218 260 321 381
#     4  10  18  36  66  95 121 168 219 264 312 384
#     4  10  19  41  63  91 131 165 211 270 317 377
#     4  11  25  38  62  98 131 166 213 265 328 379
#     4  10  20  40  61  95 131 163 211 276 316 374
#     4  11  21  42  64  89 129 175 211 263 323 385
#     4  10  21  40  67  92 128 167 219 266 315 382
#
# _framework density 22.446010000000001
#
# number of rings (size 3 to 8) (size 9 to 14) (size 15 to 20)
#    0.000    1.750    3.750    1.875    1.750    0.000 
#    4.500    1.250    0.000    0.000    0.000    0.000 
#    0.000    0.000    0.000    0.000    0.000    0.000 
#
# Total GULP energy -198315.895681 kJ/mol
# GULP energy per Si atom -12394.743480 kJ/mol
# Density = 2.239492 g / cm^3
# Si number density = 22.446010 Si / 1000 Ang^3
#
#
#
# Elastic Constant Matrix: (Units=GPa)
#
#
# Indices 1 2 3 4 5 6 
#
# 1 107.7532 22.3663 26.1237 -6.0597 -1.8118 33.9076
# 2 22.3663 62.6271 10.1455 0.7122 7.2456 28.1490
# 3 26.1237 10.1455 82.2016 -4.1641 2.4468 10.9546
# 4 -6.0597 0.7122 -4.1641 26.1021 0.3546 -1.2229
# 5 -1.8118 7.2456 2.4468 0.3546 39.7089 -4.4937
# 6 33.9076 28.1490 10.9546 -1.2229 -4.4937 36.1561
#
#
#
# Elastic Compliance Matrix: (Units=1/GPa)
#
#
# Indices 1 2 3 4 5 6 
#
# 1 0.013990 0.001687 -0.002691 0.002146 -0.001071 -0.013679
# 2 0.001687 0.026760 -0.000599 -0.001421 -0.007382 -0.023200
# 3 -0.002691 -0.000599 0.013348 0.001482 -0.000976 -0.001126
# 4 0.002146 -0.001421 0.001482 0.039084 -0.000088 -0.000044
# 5 -0.001071 -0.007382 -0.000976 -0.000088 0.027729 0.010491
# 6 -0.013679 -0.023200 -0.001126 -0.000044 0.010491 0.060191
#
#
# Mechanical properties :
#
#
# Convention : Reuss Voigt Hill
#
# Bulk Modulus (GPa) = 19.64933 41.09476 30.37205
# Shear Modulus (GPa) = 24.84198 33.32318 29.08258
#
# Velocity S-wave (km/s) = 3.33038 3.85722 3.60344
# Velocity P-wave (km/s) = 4.85404 6.17945 5.55640
#
# Compressibility (1/GPa) = 0.05089232
#
# Stress axis : x y z
#
# Youngs Moduli (GPa) = 71.48173 37.36923 74.91523
#
# Poissons Ratio (x) = -0.06305 0.20157
# Poissons Ratio (y) = -0.12061 0.04491
# Poissons Ratio (z) = 0.19233 0.02240
#
# Static dielectric constant tensor:
#      x y z
#    x 4.292720 0.305910 -0.395330 
#    y 0.305910 3.832990 -0.284540 
#    z -0.395330 -0.284540 4.600150 
# 
# 
# High freq. dielectric constant tensor:
#      x y z
#    x 1.889200 0.024210 -0.003950 
#    y 0.024210 1.844150 -0.016820 
#    z -0.003950 -0.016820 1.897800 
# 
# From -- ./inp_files/312345.got.cif
#   From: 2010.06.25/outbox.cif.g09.slc.cpg/sg2_157_cif.got.tgz:312345.got - 2010.06.27 13:26:56.
