data_PCOD8040192
_publ_section_title
;
Structure prediction by ZEFSAII (Michael W. Deem and Ramdas Pophale) SiO2 
 PCOD8040192
Probable space group: P -1
;
_chemical_formula_sum "Si O2"
_cell_formula_units_Z 16
_cell_length_a 8.881440
_cell_length_b 15.159628
_cell_length_c 11.967419
_cell_angle_alpha 87.213826
_cell_angle_beta 69.700463
_cell_angle_gamma 38.947781
_cell_volume 880.566215
_symmetry_space_group_name_H-M "P -1"
_symmetry_group_IT_number 2
_symmetry_cell_setting 'triclinic'
loop_
_space_group_symop_operation_xyz
x,y,z
-x,-y,-z
loop_
_atom_site_type_symbol
_atom_site_label
_atom_site_fract_x
_atom_site_fract_y
_atom_site_fract_z
Si Si1 0.252646 0.841478 0.384109
Si Si2 0.884543 0.162892 0.817992
Si Si3 0.721419 0.696226 0.408565
Si Si4 0.212597 0.598631 0.247109
Si Si5 0.528339 0.167603 0.299279
Si Si6 0.955802 0.609501 0.727082
Si Si7 0.484857 0.310648 0.107089
Si Si8 0.504288 0.451157 0.619234
O O1 0.201976 0.858796 0.263604
O O2 0.525796 0.776630 0.344331
O O3 0.297212 0.722574 0.427498
O O4 0.000000 0.000000 0.500000
O O5 0.804551 0.300071 0.815083
O O6 0.726623 0.194278 0.963045
O O7 0.210098 0.013239 0.765213
O O8 0.525347 0.787025 0.560887
O O9 0.907456 0.700291 0.348849
O O10 0.907875 0.525504 0.380592
O O11 0.375315 0.459626 0.132692
O O12 0.386630 0.528649 0.320093
O O13 0.256900 0.241706 0.308853
O O14 0.588068 0.230670 0.208115
O O15 0.772911 0.638526 0.865612
O O16 0.188558 0.565952 0.726017
O O17 0.500000 0.500000 0.500000
#
# Coordination Sequence:
#
# PCOD8040192 Si02
#       8
#     2   2   2   2   2   2   2   2
#     4  10  21  37  54  82 111 147 175 230 278 322
#     4  11  21  38  54  86 114 143 187 223 278 328
#     4  10  18  36  57  84 109 140 191 219 282 326
#     4  10  22  35  58  84 111 147 178 237 278 318
#     4  10  19  32  63  77 111 141 190 226 264 329
#     4   8  19  33  55  84 102 146 185 221 270 318
#     4   9  21  37  58  79 108 157 185 217 267 335
#     4  10  20  34  56  84 112 136 187 228 277 320
#
# _framework density 18.170127999999998
#
# number of rings (size 3 to 8) (size 9 to 14) (size 15 to 20)
#    0.750    1.500    1.250    1.875    3.500    0.500 
#    2.250   11.250    0.000    0.750    0.000    0.000 
#    0.000    0.000    0.000    0.000    0.000    0.000 
#
# Total GULP energy -198274.547725 kJ/mol
# GULP energy per Si atom -12392.159233 kJ/mol
# Density = 1.812877 g / cm^3
# Si number density = 18.170128 Si / 1000 Ang^3
#
#
#
# Elastic Constant Matrix: (Units=GPa)
#
#
# Indices 1 2 3 4 5 6 
#
# 1 108.1263 18.8240 23.5343 2.4204 -4.5390 -21.1757
# 2 18.8240 72.4344 20.8360 8.3557 1.9465 -18.9812
# 3 23.5343 20.8360 95.6205 7.6994 -6.3323 -4.3297
# 4 2.4204 8.3557 7.6994 24.8311 -0.8732 -5.5012
# 5 -4.5390 1.9465 -6.3323 -0.8732 17.8868 1.1687
# 6 -21.1757 -18.9812 -4.3297 -5.5012 1.1687 24.9961
#
#
#
# Elastic Compliance Matrix: (Units=1/GPa)
#
#
# Indices 1 2 3 4 5 6 
#
# 1 0.011744 -0.000012 -0.002490 0.001867 0.001548 0.009847
# 2 -0.000012 0.018695 -0.003561 -0.002403 -0.004281 0.013240
# 3 -0.002490 -0.003561 0.012202 -0.002983 0.004162 -0.003551
# 4 0.001867 -0.002403 -0.002983 0.043823 0.001242 0.008827
# 5 0.001548 -0.004281 0.004162 0.001242 0.058540 -0.003682
# 6 0.009847 0.013240 -0.003551 0.008827 -0.003682 0.059902
#
#
# Mechanical properties :
#
#
# Convention : Reuss Voigt Hill
#
# Bulk Modulus (GPa) = 32.77161 44.72997 38.75079
# Shear Modulus (GPa) = 22.00661 27.74192 24.87427
#
# Velocity S-wave (km/s) = 3.48392 3.91165 3.70397
# Velocity P-wave (km/s) = 5.85310 6.71358 6.29805
#
# Compressibility (1/GPa) = 0.03051422
#
# Stress axis : x y z
#
# Youngs Moduli (GPa) = 85.14860 53.49036 81.95539
#
# Poissons Ratio (x) = 0.00067 0.20405
# Poissons Ratio (y) = 0.00106 0.29185
# Poissons Ratio (z) = 0.21200 0.19049
#
# Static dielectric constant tensor:
#      x y z
#    x 3.495610 -0.220060 -0.096130 
#    y -0.220060 3.374450 0.090420 
#    z -0.096130 0.090420 3.152630 
# 
# 
# High freq. dielectric constant tensor:
#      x y z
#    x 1.694580 -0.014660 -0.008670 
#    y -0.014660 1.705550 0.006960 
#    z -0.008670 0.006960 1.688020 
# 
# From -- ./inp_files/256945.got.cif
#   From: 2010.06.25/outbox.cif.g09.slc.cpg/sg2_129_cif.got.tgz:256945.got - 2010.06.27 13:26:56.
