data_PCOD8040404
_publ_section_title
;
Structure prediction by ZEFSAII (Michael W. Deem and Ramdas Pophale) SiO2 
 PCOD8040404
Probable space group: P -1
;
_chemical_formula_sum "Si O2"
_cell_formula_units_Z 16
_cell_length_a 10.477522
_cell_length_b 10.774259
_cell_length_c 13.502476
_cell_angle_alpha 132.814717
_cell_angle_beta 146.124242
_cell_angle_gamma 64.316902
_cell_volume 590.453579
_symmetry_space_group_name_H-M "P -1"
_symmetry_group_IT_number 2
_symmetry_cell_setting 'triclinic'
loop_
_space_group_symop_operation_xyz
x,y,z
-x,-y,-z
loop_
_atom_site_type_symbol
_atom_site_label
_atom_site_fract_x
_atom_site_fract_y
_atom_site_fract_z
Si Si1 0.468752 0.191936 0.481761
Si Si2 0.504443 0.715851 0.102425
Si Si3 0.021865 0.327609 0.611264
Si Si4 0.210613 0.783042 0.117504
Si Si5 0.797714 0.811088 0.984840
Si Si6 0.647929 0.495023 0.496650
Si Si7 0.688270 0.139375 0.125594
Si Si8 0.841735 0.103480 0.555819
O O1 0.644433 0.269136 0.728691
O O2 0.310519 0.322962 0.438662
O O3 0.635712 0.196905 0.494835
O O4 0.287866 0.996284 0.276717
O O5 0.271013 0.686192 0.006462
O O6 0.679824 0.584266 0.154466
O O7 0.715534 0.892376 0.372045
O O8 0.428397 0.743621 0.956274
O O9 0.911098 0.472037 0.667123
O O10 0.908747 0.275980 0.401797
O O11 0.950652 0.155104 0.544337
O O12 0.923362 0.728560 0.931767
O O13 0.949745 0.832218 0.194390
O O14 0.787086 0.006033 0.049674
O O15 0.530290 0.679685 0.770239
O O16 0.500000 0.500000 0.500000
O O17 0.500000 0.000000 0.000000
#
# Coordination Sequence:
#
# PCOD8040404 Si02
#       8
#     2   2   2   2   2   2   2   2
#     4   9  20  41  65  96 134 179 227 270 348 400
#     4  11  22  39  65  98 138 179 228 280 343 396
#     4  12  23  39  65 101 139 176 223 285 349 394
#     4   9  22  43  70  98 134 184 230 281 326 416
#     4  11  23  40  70 107 132 178 235 280 345 398
#     4  12  25  43  64 104 143 177 226 289 345 403
#     4  12  22  38  65 106 137 173 235 289 335 401
#     4  10  18  36  64  95 134 172 218 292 330 395
#
# _framework density 27.097811
#
# number of rings (size 3 to 8) (size 9 to 14) (size 15 to 20)
#    0.000    1.250    5.000    1.875    1.750    2.500 
#    0.000    0.625    0.000    1.500    0.000    0.000 
#    0.000    0.000    0.000    0.000    0.000    0.000 
#
# Total GULP energy -198383.619592 kJ/mol
# GULP energy per Si atom -12398.976225 kJ/mol
# Density = 2.703614 g / cm^3
# Si number density = 27.097811 Si / 1000 Ang^3
#
#
#
# Elastic Constant Matrix: (Units=GPa)
#
#
# Indices 1 2 3 4 5 6 
#
# 1 131.0775 31.7983 53.3893 -21.4017 8.2602 -16.1303
# 2 31.7983 124.5098 31.4727 -39.4933 3.8143 -35.3781
# 3 53.3893 31.4727 108.5010 -29.2847 26.4535 0.7563
# 4 -21.4017 -39.4933 -29.2847 33.7821 0.2692 -2.7757
# 5 8.2602 3.8143 26.4535 0.2692 46.4286 -6.2433
# 6 -16.1303 -35.3781 0.7563 -2.7757 -6.2433 36.9377
#
#
#
# Elastic Compliance Matrix: (Units=1/GPa)
#
#
# Indices 1 2 3 4 5 6 
#
# 1 0.010965 0.003030 -0.004867 0.006963 0.001689 0.008598
# 2 0.003030 0.027551 -0.000124 0.036530 0.001179 0.030658
# 3 -0.004867 -0.000124 0.016993 0.011304 -0.009318 -0.003317
# 4 0.006963 0.036530 0.011304 0.090149 -0.005331 0.043670
# 5 0.001689 0.001179 -0.009318 -0.005331 0.027325 0.006275
# 6 0.008598 0.030658 -0.003317 0.043670 0.006275 0.064601
#
#
# Mechanical properties :
#
#
# Convention : Reuss Voigt Hill
#
# Bulk Modulus (GPa) = 19.38467 66.37876 42.88171
# Shear Modulus (GPa) = 19.32731 39.92490 29.62611
#
# Velocity S-wave (km/s) = 2.67356 3.84260 3.31010
# Velocity P-wave (km/s) = 4.08652 6.65106 5.51980
#
# Compressibility (1/GPa) = 0.05158717
#
# Stress axis : x y z
#
# Youngs Moduli (GPa) = 91.20032 36.29618 58.84708
#
# Poissons Ratio (x) = -0.10997 0.28640
# Poissons Ratio (y) = -0.27632 0.00730
# Poissons Ratio (z) = 0.44385 0.00450
#
# Static dielectric constant tensor:
#      x y z
#    x 5.176920 -0.455090 0.216050 
#    y -0.455090 5.500600 0.320820 
#    z 0.216050 0.320820 5.425260 
# 
# 
# High freq. dielectric constant tensor:
#      x y z
#    x 2.093030 -0.027440 0.010990 
#    y -0.027440 2.099670 0.005380 
#    z 0.010990 0.005380 2.111070 
# 
# From -- ./inp_files/519183.got.cif
#   From: 2010.06.25/outbox.cif.g09.slc.cpg/sg2_260_cif.got.tgz:519183.got - 2010.06.27 13:26:56.
