data_PCOD8040823
_publ_section_title
;
Structure prediction by ZEFSAII (Michael W. Deem and Ramdas Pophale) SiO2 
 PCOD8040823
Probable space group: P -1
;
_chemical_formula_sum "Si O2"
_cell_formula_units_Z 16
_cell_length_a 12.764746
_cell_length_b 11.336414
_cell_length_c 13.038526
_cell_angle_alpha 44.940819
_cell_angle_beta 64.320133
_cell_angle_gamma 100.224617
_cell_volume 779.705571
_symmetry_space_group_name_H-M "P -1"
_symmetry_group_IT_number 2
_symmetry_cell_setting 'triclinic'
loop_
_space_group_symop_operation_xyz
x,y,z
-x,-y,-z
loop_
_atom_site_type_symbol
_atom_site_label
_atom_site_fract_x
_atom_site_fract_y
_atom_site_fract_z
Si Si1 0.821000 0.886914 0.098830
Si Si2 0.828343 0.036924 0.774227
Si Si3 0.681682 0.235089 0.719741
Si Si4 0.115041 0.886680 0.875490
Si Si5 0.553850 0.885347 0.500669
Si Si6 0.188587 0.320620 0.475902
Si Si7 0.512351 0.522735 0.102644
Si Si8 0.705111 0.422867 0.387596
O O1 0.679929 0.581171 0.347698
O O2 0.782645 0.994012 0.129959
O O3 0.823547 0.957762 0.939446
O O4 0.000000 0.000000 0.000000
O O5 0.807158 0.211150 0.687262
O O6 0.027367 0.214022 0.538575
O O7 0.694350 0.802939 0.895464
O O8 0.775297 0.501087 0.562172
O O9 0.649124 0.229087 0.616730
O O10 0.500000 0.000000 0.000000
O O11 0.233009 0.886817 0.757513
O O12 0.124990 0.080978 0.702851
O O13 0.907204 0.605858 0.146305
O O14 0.507935 0.686975 0.720002
O O15 0.436018 0.740329 0.540626
O O16 0.500000 0.000000 0.500000
O O17 0.358606 0.478162 0.235355
O O18 0.500000 0.500000 0.000000
#
# Coordination Sequence:
#
# PCOD8040823 Si02
#       8
#     2   2   2   2   2   2   2   2
#     4  10  18  38  70  99 124 161 215 261 324 406
#     4  12  23  43  68  98 136 175 214 268 342 391
#     4  12  26  40  64 107 144 170 206 272 341 405
#     4  10  21  41  70  98 125 170 218 272 325 388
#     4  11  26  42  68  94 123 175 229 276 321 376
#     4  11  21  43  70  96 132 173 221 267 327 406
#     4  11  26  46  66  93 134 176 226 277 324 397
#     4  11  22  44  66  95 134 168 220 270 324 399
#
# _framework density 20.520568000000001
#
# number of rings (size 3 to 8) (size 9 to 14) (size 15 to 20)
#    0.000    1.000    6.250    1.125    3.500    1.500 
#    2.250    0.000    0.000    0.000    0.000    0.000 
#    0.000    0.000    0.000    0.000    0.000    0.000 
#
# Total GULP energy -198271.797911 kJ/mol
# GULP energy per Si atom -12391.987369 kJ/mol
# Density = 2.047386 g / cm^3
# Si number density = 20.520568 Si / 1000 Ang^3
#
#
#
# Elastic Constant Matrix: (Units=GPa)
#
#
# Indices 1 2 3 4 5 6 
#
# 1 128.2077 54.2749 46.0280 7.4206 1.2191 1.0705
# 2 54.2749 83.8707 21.2971 12.4978 3.2376 8.3643
# 3 46.0280 21.2971 87.8856 7.3616 -2.4507 10.4791
# 4 7.4206 12.4978 7.3616 25.1199 5.1784 6.3124
# 5 1.2191 3.2376 -2.4507 5.1784 35.4681 1.5697
# 6 1.0705 8.3643 10.4791 6.3124 1.5697 44.0856
#
#
#
# Elastic Compliance Matrix: (Units=1/GPa)
#
#
# Indices 1 2 3 4 5 6 
#
# 1 0.012660 -0.007203 -0.005232 0.000903 -0.000368 0.002186
# 2 -0.007203 0.017670 0.000271 -0.006077 -0.000355 -0.002359
# 3 -0.005232 0.000271 0.014677 -0.002449 0.001665 -0.003122
# 4 0.000903 -0.006077 -0.002449 0.045703 -0.006114 -0.004613
# 5 -0.000368 -0.000355 0.001665 -0.006114 0.029269 -0.000486
# 6 0.002186 -0.002359 -0.003122 -0.004613 -0.000486 0.024498
#
#
# Mechanical properties :
#
#
# Convention : Reuss Voigt Hill
#
# Bulk Modulus (GPa) = 48.35731 60.35156 54.35444
# Shear Modulus (GPa) = 28.45821 32.82565 30.64193
#
# Velocity S-wave (km/s) = 3.72804 4.00390 3.86843
# Velocity P-wave (km/s) = 6.49211 7.13085 6.81896
#
# Compressibility (1/GPa) = 0.02067939
#
# Stress axis : x y z
#
# Youngs Moduli (GPa) = 78.98761 56.59331 68.13586
#
# Poissons Ratio (x) = 0.40763 0.35647
# Poissons Ratio (y) = 0.56893 -0.01845
# Poissons Ratio (z) = 0.41324 -0.01532
#
# Static dielectric constant tensor:
#      x y z
#    x 4.074620 -0.084490 -0.214050 
#    y -0.084490 4.108060 0.336100 
#    z -0.214050 0.336100 3.933240 
# 
# 
# High freq. dielectric constant tensor:
#      x y z
#    x 1.815180 0.002400 -0.003820 
#    y 0.002400 1.792660 0.000260 
#    z -0.003820 0.000260 1.800850 
# 
# From -- ./inp_files/273523.got.cif
#   From: 2010.06.25/outbox.cif.g09.slc.cpg/sg2_137_cif.got.tgz:273523.got - 2010.06.27 13:26:56.
