data_PCOD8040555
_publ_section_title
;
Structure prediction by ZEFSAII (Michael W. Deem and Ramdas Pophale) SiO2 
 PCOD8040555
Probable space group: P -1
;
_chemical_formula_sum "Si O2"
_cell_formula_units_Z 16
_cell_length_a 18.574456
_cell_length_b 12.619451
_cell_length_c 9.665778
_cell_angle_alpha 118.953516
_cell_angle_beta 133.536432
_cell_angle_gamma 29.402861
_cell_volume 762.335338
_symmetry_space_group_name_H-M "P -1"
_symmetry_group_IT_number 2
_symmetry_cell_setting 'triclinic'
loop_
_space_group_symop_operation_xyz
x,y,z
-x,-y,-z
loop_
_atom_site_type_symbol
_atom_site_label
_atom_site_fract_x
_atom_site_fract_y
_atom_site_fract_z
Si Si1 0.807291 0.916420 0.949876
Si Si2 0.451684 0.424129 0.723013
Si Si3 0.014015 0.081278 0.190030
Si Si4 0.604888 0.514133 0.996967
Si Si5 0.056983 0.290681 0.284102
Si Si6 0.071922 0.855334 0.370101
Si Si7 0.371185 0.989488 0.964849
Si Si8 0.268040 0.234255 0.728329
O O1 0.930506 0.719380 0.873311
O O2 0.609248 0.156699 0.766162
O O3 0.766226 0.868414 0.993652
O O4 0.915002 0.923956 0.152579
O O5 0.542271 0.454072 0.803024
O O6 0.268600 0.581724 0.486919
O O7 0.375513 0.526867 0.839990
O O8 0.126932 0.085340 0.297277
O O9 0.806720 0.345693 0.108064
O O10 0.109233 0.919412 0.344994
O O11 0.000000 0.000000 0.000000
O O12 0.453725 0.770721 0.919859
O O13 0.183486 0.267625 0.497289
O O14 0.846478 0.535036 0.212322
O O15 0.000000 0.000000 0.500000
O O16 0.528328 0.930522 0.151513
O O17 0.261721 0.133420 0.770340
#
# Coordination Sequence:
#
# PCOD8040555 Si02
#       8
#     2   2   2   2   2   2   2   2
#     4  11  24  44  65  98 137 165 215 278 321 383
#     4  10  20  37  60  99 128 169 211 258 327 392
#     4  12  22  39  62  94 136 168 202 269 330 383
#     4  10  18  37  62  86 135 164 205 271 317 382
#     4  11  24  45  64  94 133 173 211 274 328 379
#     4  12  22  37  65  99 131 176 216 251 326 404
#     4  10  22  42  67  96 118 172 223 272 319 378
#     4  10  24  44  68  91 125 174 227 262 325 386
#
# _framework density 20.988139
#
# number of rings (size 3 to 8) (size 9 to 14) (size 15 to 20)
#    0.000    1.250    5.000    1.500    3.500    1.000 
#    9.000    1.250    0.000    0.000    0.000    0.000 
#    0.000    0.000    0.000    0.000    0.000    0.000 
#
# Total GULP energy -198361.103498 kJ/mol
# GULP energy per Si atom -12397.568969 kJ/mol
# Density = 2.094037 g / cm^3
# Si number density = 20.988139 Si / 1000 Ang^3
#
#
#
# Elastic Constant Matrix: (Units=GPa)
#
#
# Indices 1 2 3 4 5 6 
#
# 1 104.6389 10.3984 22.9702 7.4887 -7.6996 6.4620
# 2 10.3984 50.7673 36.2226 3.3716 -2.3853 2.8905
# 3 22.9702 36.2226 84.3617 1.9897 -10.5991 -8.5313
# 4 7.4887 3.3716 1.9897 39.3427 -3.5240 -6.5780
# 5 -7.6996 -2.3853 -10.5991 -3.5240 25.5345 -4.5828
# 6 6.4620 2.8905 -8.5313 -6.5780 -4.5828 34.1130
#
#
#
# Elastic Compliance Matrix: (Units=1/GPa)
#
#
# Indices 1 2 3 4 5 6 
#
# 1 0.010663 0.000541 -0.003278 -0.002356 0.001005 -0.003205
# 2 0.000541 0.030383 -0.014498 -0.003696 -0.004904 -0.007674
# 3 -0.003278 -0.014498 0.020827 0.003019 0.008290 0.008754
# 4 -0.002356 -0.003696 0.003019 0.027784 0.005395 0.007597
# 5 0.001005 -0.004904 0.008290 0.005395 0.044875 0.009367
# 6 -0.003205 -0.007674 0.008754 0.007597 0.009367 0.035484
#
#
# Mechanical properties :
#
#
# Convention : Reuss Voigt Hill
#
# Bulk Modulus (GPa) = 36.49227 42.10558 39.29892
# Shear Modulus (GPa) = 23.40604 31.14315 27.27459
#
# Velocity S-wave (km/s) = 3.34309 3.85625 3.60880
# Velocity P-wave (km/s) = 5.68564 6.31923 6.01079
#
# Compressibility (1/GPa) = 0.02740306
#
# Stress axis : x y z
#
# Youngs Moduli (GPa) = 93.78267 32.91279 48.01484
#
# Poissons Ratio (x) = -0.01780 0.15738
# Poissons Ratio (y) = -0.05072 0.69612
# Poissons Ratio (z) = 0.30740 0.47717
#
# Static dielectric constant tensor:
#      x y z
#    x 4.152490 -0.097590 -0.065130 
#    y -0.097590 3.706490 -0.126320 
#    z -0.065130 -0.126320 3.575270 
# 
# 
# High freq. dielectric constant tensor:
#      x y z
#    x 1.830460 -0.001480 -0.001420 
#    y -0.001480 1.813220 -0.006930 
#    z -0.001420 -0.006930 1.805230 
# 
# From -- ./inp_files/176634.got.cif
#   From: 2010.06.25/outbox.cif.g09.slc.cpg/sg2_89_cif.got.tgz:176634.got - 2010.06.27 13:26:56.
