data_PCOD8040141
_publ_section_title
;
Structure prediction by ZEFSAII (Michael W. Deem and Ramdas Pophale) SiO2 
 PCOD8040141
Probable space group: P -1
;
_chemical_formula_sum "Si O2"
_cell_formula_units_Z 16
_cell_length_a 12.358693
_cell_length_b 14.527639
_cell_length_c 14.754394
_cell_angle_alpha 151.281685
_cell_angle_beta 138.255856
_cell_angle_gamma 62.377641
_cell_volume 680.457882
_symmetry_space_group_name_H-M "P -1"
_symmetry_group_IT_number 2
_symmetry_cell_setting 'triclinic'
loop_
_space_group_symop_operation_xyz
x,y,z
-x,-y,-z
loop_
_atom_site_type_symbol
_atom_site_label
_atom_site_fract_x
_atom_site_fract_y
_atom_site_fract_z
Si Si1 0.507899 0.325671 0.631225
Si Si2 0.810912 0.400302 0.394883
Si Si3 0.709891 0.882264 0.867775
Si Si4 0.766973 0.441838 0.200834
Si Si5 0.153712 0.086257 0.343226
Si Si6 0.233587 0.123733 0.745835
Si Si7 0.340881 0.972971 0.512304
Si Si8 0.468326 0.196412 0.128066
O O1 0.446569 0.282327 0.450319
O O2 0.303355 0.159172 0.416341
O O3 0.656744 0.254472 0.687203
O O4 0.637143 0.604801 0.974903
O O5 0.761808 0.475818 0.335891
O O6 0.681634 0.416987 0.407083
O O7 0.048180 0.575161 0.720305
O O8 0.747021 0.135721 0.109922
O O9 0.598642 0.738513 0.767231
O O10 0.921466 0.917404 0.018399
O O11 0.801978 0.673359 0.376513
O O12 0.565437 0.208966 0.833674
O O13 0.185642 0.947702 0.319989
O O14 0.272151 0.979888 0.575861
O O15 0.293150 0.095438 0.857900
O O16 0.000000 0.000000 0.500000
O O17 0.500000 0.000000 0.000000
#
# Coordination Sequence:
#
# PCOD8040141 Si02
#       8
#     2   2   2   2   2   2   2   2
#     4  12  25  45  70  95 135 182 219 278 337 388
#     4   9  17  34  64 101 131 178 224 265 333 391
#     4  10  21  39  66  96 138 170 223 278 324 399
#     4  10  18  35  66  97 134 176 218 275 328 387
#     4  11  23  40  66 104 136 175 220 277 338 389
#     4  12  27  47  70  97 135 179 223 272 339 403
#     4  12  23  45  68  99 141 172 221 280 326 408
#     4  10  19  41  66  98 130 175 223 275 326 389
#
# _framework density 23.513577999999999
#
# number of rings (size 3 to 8) (size 9 to 14) (size 15 to 20)
#    0.000    1.250    3.750    2.625    0.000    1.000 
#    2.250    1.250    0.000    0.000    0.000    0.000 
#    0.000    0.000    0.000    0.000    0.000    0.000 
#
# Total GULP energy -198440.862387 kJ/mol
# GULP energy per Si atom -12402.553899 kJ/mol
# Density = 2.346006 g / cm^3
# Si number density = 23.513578 Si / 1000 Ang^3
#
#
#
# Elastic Constant Matrix: (Units=GPa)
#
#
# Indices 1 2 3 4 5 6 
#
# 1 142.6779 29.6180 10.7342 -10.4590 25.2303 8.3626
# 2 29.6180 137.7711 18.5268 -22.0335 2.3743 -5.3081
# 3 10.7342 18.5268 53.3202 -10.2030 19.6340 -5.2733
# 4 -10.4590 -22.0335 -10.2030 32.2977 -3.1028 -1.6487
# 5 25.2303 2.3743 19.6340 -3.1028 32.1742 -7.4983
# 6 8.3626 -5.3081 -5.2733 -1.6487 -7.4983 37.1636
#
#
#
# Elastic Compliance Matrix: (Units=1/GPa)
#
#
# Indices 1 2 3 4 5 6 
#
# 1 0.009204 -0.002063 0.002056 0.001151 -0.009109 -0.003861
# 2 -0.002063 0.008909 -0.002874 0.004978 0.003731 0.002302
# 3 0.002056 -0.002874 0.026703 0.005468 -0.017243 -0.000321
# 4 0.001151 0.004978 0.005468 0.036557 -0.000438 0.002761
# 5 -0.009109 0.003731 -0.017243 -0.000438 0.050847 0.010375
# 6 -0.003861 0.002302 -0.000321 0.002761 0.010375 0.030276
#
#
# Mechanical properties :
#
#
# Convention : Reuss Voigt Hill
#
# Bulk Modulus (GPa) = 25.60461 50.16969 37.88715
# Shear Modulus (GPa) = 27.58250 38.65311 33.11781
#
# Velocity S-wave (km/s) = 3.42869 4.05886 3.75701
# Velocity P-wave (km/s) = 5.15631 6.58396 5.91338
#
# Compressibility (1/GPa) = 0.03905546
#
# Stress axis : x y z
#
# Youngs Moduli (GPa) = 108.65216 112.24818 37.44858
#
# Poissons Ratio (x) = 0.23156 -0.07701
# Poissons Ratio (y) = 0.22414 0.10762
# Poissons Ratio (z) = -0.22343 0.32257
#
# Static dielectric constant tensor:
#      x y z
#    x 4.648540 0.000060 0.403840 
#    y 0.000060 4.503690 0.041700 
#    z 0.403840 0.041700 3.972470 
# 
# 
# High freq. dielectric constant tensor:
#      x y z
#    x 1.936550 -0.010050 0.012720 
#    y -0.010050 1.948360 -0.004560 
#    z 0.012720 -0.004560 1.905930 
# 
# From -- ./inp_files/522708.got.cif
#   From: 2010.06.25/outbox.cif.g09.slc.cpg/sg2_262_cif.got.tgz:522708.got - 2010.06.27 13:26:56.
