data_PCOD8040805
_publ_section_title
;
Structure prediction by ZEFSAII (Michael W. Deem and Ramdas Pophale) SiO2 
 PCOD8040805
Probable space group: P -1
;
_chemical_formula_sum "Si O2"
_cell_formula_units_Z 16
_cell_length_a 15.800673
_cell_length_b 9.705196
_cell_length_c 12.098371
_cell_angle_alpha 72.547629
_cell_angle_beta 152.946032
_cell_angle_gamma 94.946936
_cell_volume 731.717228
_symmetry_space_group_name_H-M "P -1"
_symmetry_group_IT_number 2
_symmetry_cell_setting 'triclinic'
loop_
_space_group_symop_operation_xyz
x,y,z
-x,-y,-z
loop_
_atom_site_type_symbol
_atom_site_label
_atom_site_fract_x
_atom_site_fract_y
_atom_site_fract_z
Si Si1 0.242849 0.484159 0.211247
Si Si2 0.353358 0.743015 0.353092
Si Si3 0.555009 0.694304 0.294866
Si Si4 0.098227 0.754460 0.442640
Si Si5 0.654588 0.008006 0.894722
Si Si6 0.405331 0.800906 0.640741
Si Si7 0.943093 0.514584 0.675702
Si Si8 0.723849 0.451316 0.089614
O O1 0.205034 0.666474 0.149673
O O2 0.420486 0.402443 0.345797
O O3 0.308296 0.373698 0.421028
O O4 0.039760 0.484737 0.918978
O O5 0.295189 0.800837 0.396483
O O6 0.343369 0.890267 0.234021
O O7 0.711122 0.651868 0.382822
O O8 0.421168 0.882358 0.110008
O O9 0.401023 0.611615 0.121727
O O10 0.231380 0.841219 0.522974
O O11 0.059822 0.649113 0.328069
O O12 0.228408 0.644852 0.718614
O O13 0.884636 0.879741 0.212936
O O14 0.493555 0.932804 0.706001
O O15 0.593648 0.633857 0.925803
O O16 0.063816 0.575398 0.715745
#
# Coordination Sequence:
#
# PCOD8040805 Si02
#       8
#     2   2   2   2   2   2   2   2
#     4  10  18  38  68  99 134 167 223 272 328 394
#     4  10  19  39  67 100 136 172 211 275 338 394
#     4  11  25  43  68 102 133 174 220 275 331 395
#     4  12  27  43  69  98 132 182 229 266 324 397
#     4  11  26  42  64 102 143 168 212 279 341 389
#     4  12  23  43  69  97 133 179 219 280 327 385
#     4  12  22  40  73  99 123 176 228 270 325 390
#     4  12  24  45  72  95 132 177 234 271 314 395
#
# _framework density 21.86637
#
# number of rings (size 3 to 8) (size 9 to 14) (size 15 to 20)
#    0.000    0.750    5.000    3.000    0.000    4.000 
#    0.000    1.250    0.000    0.000    0.000    0.000 
#    0.000    0.000    0.000    0.000    0.000    0.000 
#
# Total GULP energy -198428.586617 kJ/mol
# GULP energy per Si atom -12401.786664 kJ/mol
# Density = 2.181660 g / cm^3
# Si number density = 21.866370 Si / 1000 Ang^3
#
#
#
# Elastic Constant Matrix: (Units=GPa)
#
#
# Indices 1 2 3 4 5 6 
#
# 1 80.3176 34.5622 34.6937 1.6635 22.2315 4.2475
# 2 34.5622 89.2753 31.3673 -12.9526 6.7106 -15.6832
# 3 34.6937 31.3673 68.6097 -3.5122 8.1437 -4.4427
# 4 1.6635 -12.9526 -3.5122 19.7493 -0.3515 4.1175
# 5 22.2315 6.7106 8.1437 -0.3515 40.2597 -8.8533
# 6 4.2475 -15.6832 -4.4427 4.1175 -8.8533 26.6300
#
#
#
# Elastic Compliance Matrix: (Units=1/GPa)
#
#
# Indices 1 2 3 4 5 6 
#
# 1 0.024352 -0.009109 -0.007800 -0.006735 -0.013487 -0.013992
# 2 -0.009109 0.019214 -0.003486 0.010264 0.005343 0.012377
# 3 -0.007800 -0.003486 0.020197 0.001400 0.001435 0.002821
# 4 -0.006735 0.010264 0.001400 0.058429 0.002012 -0.001013
# 5 -0.013487 0.005343 0.001435 0.002012 0.034818 0.016802
# 6 -0.013992 0.012377 0.002821 -0.001013 0.016802 0.053285
#
#
# Mechanical properties :
#
#
# Convention : Reuss Voigt Hill
#
# Bulk Modulus (GPa) = 43.52620 48.82766 46.17693
# Shear Modulus (GPa) = 19.32434 26.49976 22.91205
#
# Velocity S-wave (km/s) = 2.97601 3.48501 3.24052
# Velocity P-wave (km/s) = 5.63539 6.21065 5.93000
#
# Compressibility (1/GPa) = 0.02297467
#
# Stress axis : x y z
#
# Youngs Moduli (GPa) = 41.06479 52.04525 49.51261
#
# Poissons Ratio (x) = 0.47406 0.38618
# Poissons Ratio (y) = 0.37404 0.17260
# Poissons Ratio (z) = 0.32029 0.18142
#
# Static dielectric constant tensor:
#      x y z
#    x 4.049650 -0.131940 0.225240 
#    y -0.131940 3.993070 0.058380 
#    z 0.225240 0.058380 3.847840 
# 
# 
# High freq. dielectric constant tensor:
#      x y z
#    x 1.869520 -0.000380 0.009870 
#    y -0.000380 1.856770 0.012220 
#    z 0.009870 0.012220 1.848450 
# 
# From -- ./inp_files/447056.got.cif
#   From: 2010.06.25/outbox.cif.g09.slc.cpg/sg2_224_cif.got.tgz:447056.got - 2010.06.27 13:26:56.
