data_PCOD8040778
_publ_section_title
;
Structure prediction by ZEFSAII (Michael W. Deem and Ramdas Pophale) SiO2 
 PCOD8040778
Probable space group: P -1
;
_chemical_formula_sum "Si O2"
_cell_formula_units_Z 16
_cell_length_a 10.480003
_cell_length_b 10.493798
_cell_length_c 10.800450
_cell_angle_alpha 70.303415
_cell_angle_beta 42.832228
_cell_angle_gamma 89.659428
_cell_volume 704.213208
_symmetry_space_group_name_H-M "P -1"
_symmetry_group_IT_number 2
_symmetry_cell_setting 'triclinic'
loop_
_space_group_symop_operation_xyz
x,y,z
-x,-y,-z
loop_
_atom_site_type_symbol
_atom_site_label
_atom_site_fract_x
_atom_site_fract_y
_atom_site_fract_z
Si Si1 0.761590 0.818686 0.667092
Si Si2 0.789672 0.053506 0.378352
Si Si3 0.437032 0.595594 0.808796
Si Si4 0.854181 0.891773 0.041331
Si Si5 0.507034 0.806278 0.481121
Si Si6 0.698610 0.414227 0.658431
Si Si7 0.385722 0.100237 0.007021
Si Si8 0.887085 0.562827 0.718261
O O1 0.851632 0.964357 0.471310
O O2 0.546212 0.713518 0.798897
O O3 0.905135 0.724217 0.605384
O O4 0.742105 0.872897 0.799085
O O5 0.654018 0.941858 0.410188
O O6 0.661164 0.148291 0.486623
O O7 0.998498 0.164817 0.127630
O O8 0.384233 0.672106 0.702037
O O9 0.587291 0.523722 0.670299
O O10 0.234692 0.477083 0.052062
O O11 0.659440 0.769954 0.288277
O O12 0.760409 0.973611 0.981700
O O13 0.000000 0.000000 0.000000
O O14 0.546768 0.252234 0.795770
O O15 0.769997 0.438984 0.742118
O O16 0.890003 0.440594 0.422553
O O17 0.500000 0.000000 0.000000
#
# Coordination Sequence:
#
# PCOD8040778 Si02
#       8
#     2   2   2   2   2   2   2   2
#     4  10  19  37  61  93 131 162 204 275 329 372
#     4   9  19  36  59  88 122 162 214 259 317 384
#     4  10  18  38  66  90 128 164 214 269 317 382
#     4  10  23  43  59  85 130 178 216 254 317 392
#     4   9  19  37  60  87 118 169 217 258 306 378
#     4  10  21  38  59 100 127 164 212 263 333 379
#     4  12  24  39  64  98 138 166 211 280 327 378
#     4  10  19  37  65  92 131 164 209 260 327 398
#
# _framework density 22.720393000000001
#
# number of rings (size 3 to 8) (size 9 to 14) (size 15 to 20)
#    0.000    2.000    2.500    1.500    1.750    2.500 
#    4.500    0.625    0.000    1.500    0.000    0.000 
#    0.000    0.000    0.000    0.000    0.000    0.000 
#
# Total GULP energy -198217.379444 kJ/mol
# GULP energy per Si atom -12388.586215 kJ/mol
# Density = 2.266868 g / cm^3
# Si number density = 22.720393 Si / 1000 Ang^3
#
#
#
# Elastic Constant Matrix: (Units=GPa)
#
#
# Indices 1 2 3 4 5 6 
#
# 1 109.2944 46.2608 50.8930 6.1600 8.1881 -13.6312
# 2 46.2608 76.2894 41.3402 8.4200 -1.1543 -14.6475
# 3 50.8930 41.3402 173.3267 28.6297 3.1219 -32.1035
# 4 6.1600 8.4200 28.6297 21.4293 -12.8385 -2.8261
# 5 8.1881 -1.1543 3.1219 -12.8385 24.5254 2.8798
# 6 -13.6312 -14.6475 -32.1035 -2.8261 2.8798 35.0814
#
#
#
# Elastic Compliance Matrix: (Units=1/GPa)
#
#
# Indices 1 2 3 4 5 6 
#
# 1 0.013587 -0.006961 -0.001547 -0.002656 -0.006204 0.001253
# 2 -0.006961 0.019090 -0.001677 -0.001442 0.002279 0.003428
# 3 -0.001547 -0.001677 0.012322 -0.022529 -0.014018 0.009310
# 4 -0.002656 -0.001442 -0.022529 0.115346 0.066228 -0.018395
# 5 -0.006204 0.002279 -0.014018 0.066228 0.081240 -0.015621
# 6 0.001253 0.003428 0.009310 -0.018395 -0.015621 0.038744
#
#
# Mechanical properties :
#
#
# Convention : Reuss Voigt Hill
#
# Bulk Modulus (GPa) = 40.60299 70.65538 55.62918
# Shear Modulus (GPa) = 16.18611 30.90164 23.54387
#
# Velocity S-wave (km/s) = 2.67199 3.69193 3.22257
# Velocity P-wave (km/s) = 5.23726 7.02418 6.19548
#
# Compressibility (1/GPa) = 0.02462873
#
# Stress axis : x y z
#
# Youngs Moduli (GPa) = 73.60001 52.38463 81.15695
#
# Poissons Ratio (x) = 0.36465 0.12552
# Poissons Ratio (y) = 0.51233 0.13611
# Poissons Ratio (z) = 0.11383 0.08786
#
# Static dielectric constant tensor:
#      x y z
#    x 4.075380 -0.030190 -0.129280 
#    y -0.030190 3.553920 0.634830 
#    z -0.129280 0.634830 4.152940 
# 
# 
# High freq. dielectric constant tensor:
#      x y z
#    x 1.889710 -0.002130 -0.004400 
#    y -0.002130 1.866080 0.020230 
#    z -0.004400 0.020230 1.902550 
# 
# From -- ./inp_files/423407.got.cif
#   From: 2010.06.25/outbox.cif.g09.slc.cpg/sg2_212_cif.got.tgz:423407.got - 2010.06.27 13:26:56.
