data_PCOD8040666
_publ_section_title
;
Structure prediction by ZEFSAII (Michael W. Deem and Ramdas Pophale) SiO2 
 PCOD8040666
Probable space group: P -1
;
_chemical_formula_sum "Si O2"
_cell_formula_units_Z 14
_cell_length_a 9.155070
_cell_length_b 9.515162
_cell_length_c 10.523109
_cell_angle_alpha 113.118697
_cell_angle_beta 73.139546
_cell_angle_gamma 131.068377
_cell_volume 634.933194
_symmetry_space_group_name_H-M "P -1"
_symmetry_group_IT_number 2
_symmetry_cell_setting 'triclinic'
loop_
_space_group_symop_operation_xyz
x,y,z
-x,-y,-z
loop_
_atom_site_type_symbol
_atom_site_label
_atom_site_fract_x
_atom_site_fract_y
_atom_site_fract_z
Si Si1 0.545026 0.617075 0.858069
Si Si2 0.899892 0.287003 0.496107
Si Si3 0.077873 0.093079 0.290210
Si Si4 0.203332 0.861141 0.261622
Si Si5 0.684706 0.222669 0.040656
Si Si6 0.688402 0.788366 0.142971
Si Si7 0.628971 0.090538 0.266203
O O1 0.704438 0.747942 0.758041
O O2 0.375572 0.639200 0.910720
O O3 0.428821 0.385033 0.783715
O O4 0.670979 0.684848 0.979526
O O5 0.854360 0.278217 0.653044
O O6 0.709932 0.158545 0.411236
O O7 0.000000 0.500000 0.500000
O O8 0.028108 0.213628 0.424306
O O9 0.078622 0.940000 0.320420
O O10 0.913273 0.961722 0.178743
O O11 0.425302 0.052066 0.292406
O O12 0.169687 0.741953 0.096960
O O13 0.768636 0.242817 0.170484
O O14 0.500000 0.000000 0.000000
O O15 0.580382 0.882160 0.182722
#
# Coordination Sequence:
#
# PCOD8040666 Si02
#       7
#     2   2   2   2   2   2   2
#     4  11  20  38  65  95 131 167 214 261 320 386
#     4  11  27  42  62  94 130 168 219 261 317 385
#     4  11  23  42  63  90 132 167 214 266 320 373
#     4  11  21  43  67  89 131 171 205 261 327 379
#     4  10  18  37  70  94 123 165 212 261 322 378
#     4  10  22  35  63  98 127 165 214 263 323 374
#     4  10  20  43  67  90 124 171 210 263 324 374
#
# _framework density 22.049564
#
# number of rings (size 3 to 8) (size 9 to 14) (size 15 to 20)
#    0.000    1.429    5.714    1.286    2.000    2.286 
#    0.000    2.143    0.000    0.000    0.000    0.000 
#    0.000    0.000    0.000    0.000    0.000    0.000 
#
# Total GULP energy -173491.991017 kJ/mol
# GULP energy per Si atom -12392.285073 kJ/mol
# Density = 2.199938 g / cm^3
# Si number density = 22.049564 Si / 1000 Ang^3
#
#
#
# Elastic Constant Matrix: (Units=GPa)
#
#
# Indices 1 2 3 4 5 6 
#
# 1 103.7781 28.7148 31.1732 -0.7774 -7.9108 -22.8506
# 2 28.7148 103.8732 45.5073 -16.2251 0.8822 -19.1647
# 3 31.1732 45.5073 86.4701 -23.2798 -3.6540 -15.6272
# 4 -0.7774 -16.2251 -23.2798 33.0032 -7.9542 5.5339
# 5 -7.9108 0.8822 -3.6540 -7.9542 21.0387 -7.4888
# 6 -22.8506 -19.1647 -15.6272 5.5339 -7.4888 28.0793
#
#
#
# Elastic Compliance Matrix: (Units=1/GPa)
#
#
# Indices 1 2 3 4 5 6 
#
# 1 0.013880 -0.000901 -0.002546 -0.001895 0.008319 0.011856
# 2 -0.000901 0.013474 -0.005114 0.002331 0.001022 0.005430
# 3 -0.002546 -0.005114 0.020098 0.012986 0.009666 0.005642
# 4 -0.001895 0.002331 0.012986 0.044677 0.019659 0.003715
# 5 0.008319 0.001022 0.009666 0.019659 0.069522 0.027514
# 6 0.011856 0.005430 0.005642 0.003715 0.027514 0.058714
#
#
# Mechanical properties :
#
#
# Convention : Reuss Voigt Hill
#
# Bulk Modulus (GPa) = 32.96964 56.10134 44.53549
# Shear Modulus (GPa) = 20.19413 29.00598 24.60006
#
# Velocity S-wave (km/s) = 3.02959 3.63090 3.34379
# Velocity P-wave (km/s) = 5.21755 6.56327 5.92871
#
# Compressibility (1/GPa) = 0.03033094
#
# Stress axis : x y z
#
# Youngs Moduli (GPa) = 72.04405 74.21689 49.75581
#
# Poissons Ratio (x) = 0.06687 0.12667
# Poissons Ratio (y) = 0.06491 0.25445
# Poissons Ratio (z) = 0.18341 0.37955
#
# Static dielectric constant tensor:
#      x y z
#    x 4.059860 -0.241290 0.304620 
#    y -0.241290 4.009890 -0.060400 
#    z 0.304620 -0.060400 5.053400 
# 
# 
# High freq. dielectric constant tensor:
#      x y z
#    x 1.868530 -0.024260 0.006870 
#    y -0.024260 1.860130 -0.009860 
#    z 0.006870 -0.009860 1.851040 
# 
# From -- ./inp_files/212428.got.cif
#   From: 2010.06.25/outbox.cif.g09.slc.cpg/sg2_107_cif.got.tgz:212428.got - 2010.06.27 13:26:56.
