data_PCOD8040007
_publ_section_title
;
Structure prediction by ZEFSAII (Michael W. Deem and Ramdas Pophale) SiO2 
 PCOD8040007
Probable space group: P -1
;
_chemical_formula_sum "Si O2"
_cell_formula_units_Z 16
_cell_length_a 8.454510
_cell_length_b 11.358060
_cell_length_c 17.178424
_cell_angle_alpha 135.681692
_cell_angle_beta 135.202551
_cell_angle_gamma 61.910366
_cell_volume 809.759505
_symmetry_space_group_name_H-M "P -1"
_symmetry_group_IT_number 2
_symmetry_cell_setting 'triclinic'
loop_
_space_group_symop_operation_xyz
x,y,z
-x,-y,-z
loop_
_atom_site_type_symbol
_atom_site_label
_atom_site_fract_x
_atom_site_fract_y
_atom_site_fract_z
Si Si1 0.101494 0.754885 0.456003
Si Si2 0.202957 0.473748 0.117628
Si Si3 0.432300 0.209257 0.285383
Si Si4 0.139991 0.883813 0.081783
Si Si5 0.811418 0.004620 0.541636
Si Si6 0.663987 0.179892 0.719786
Si Si7 0.951881 0.583719 0.790807
Si Si8 0.641683 0.865470 0.942887
O O1 0.353683 0.731818 0.560556
O O2 0.968030 0.571888 0.305674
O O3 0.973368 0.850643 0.523754
O O4 0.099307 0.855341 0.422144
O O5 0.383343 0.634276 0.241402
O O6 0.125532 0.486288 0.185206
O O7 0.319877 0.295826 0.063727
O O8 0.000000 0.500000 0.000000
O O9 0.255868 0.350487 0.298935
O O10 0.502142 0.192157 0.211089
O O11 0.322072 0.032442 0.195873
O O12 0.198286 0.795812 0.141103
O O13 0.139427 0.739735 0.945296
O O14 0.885210 0.943140 0.031056
O O15 0.563563 0.932452 0.396784
O O16 0.817240 0.083159 0.666794
O O17 0.500000 0.000000 0.000000
#
# Coordination Sequence:
#
# PCOD8040007 Si02
#       8
#     2   2   2   2   2   2   2   2
#     4  11  21  39  57  86 118 154 200 239 298 343
#     4  10  18  35  61  85 113 154 193 238 296 351
#     4  10  21  39  61  83 119 160 196 233 300 358
#     4  10  20  38  64  86 115 160 194 238 302 349
#     4  10  24  35  59  84 118 154 195 251 286 353
#     4  11  19  40  60  85 116 154 200 238 299 350
#     4  10  20  36  61  85 117 152 198 239 289 361
#     4  10  22  37  59  92 121 149 198 250 292 347
#
# _framework density 19.758953000000002
#
# number of rings (size 3 to 8) (size 9 to 14) (size 15 to 20)
#    0.000    2.000    5.000    1.875    1.750    0.000 
#    4.500    0.625    0.000    2.250    0.000    0.000 
#    0.000    0.000    0.000    0.000    0.000    0.000 
#
# Total GULP energy -198279.811076 kJ/mol
# GULP energy per Si atom -12392.488192 kJ/mol
# Density = 1.971398 g / cm^3
# Si number density = 19.758953 Si / 1000 Ang^3
#
#
#
# Elastic Constant Matrix: (Units=GPa)
#
#
# Indices 1 2 3 4 5 6 
#
# 1 41.1079 24.4225 21.8078 16.5824 -2.8446 -5.5915
# 2 24.4225 109.8860 44.1935 13.1266 -17.0659 -3.2363
# 3 21.8078 44.1935 98.5531 13.3676 -7.6066 -12.2334
# 4 16.5824 13.1266 13.3676 39.2726 -2.8988 -4.8844
# 5 -2.8446 -17.0659 -7.6066 -2.8988 16.5721 5.8802
# 6 -5.5915 -3.2363 -12.2334 -4.8844 5.8802 24.0777
#
#
#
# Elastic Compliance Matrix: (Units=1/GPa)
#
#
# Indices 1 2 3 4 5 6 
#
# 1 0.034210 -0.005523 -0.003400 -0.011257 -0.004902 0.004388
# 2 -0.005523 0.014168 -0.004678 -0.000467 0.013214 -0.005077
# 3 -0.003400 -0.004678 0.013746 -0.001070 -0.001288 0.005663
# 4 -0.011257 -0.000467 -0.001070 0.031192 0.001587 0.002719
# 5 -0.004902 0.013214 -0.001288 0.001587 0.079583 -0.019131
# 6 0.004388 -0.005077 0.005663 0.002719 -0.019131 0.049970
#
#
# Mechanical properties :
#
#
# Convention : Reuss Voigt Hill
#
# Bulk Modulus (GPa) = 28.63595 47.82163 38.22879
# Shear Modulus (GPa) = 19.10504 26.59270 22.84887
#
# Velocity S-wave (km/s) = 3.11288 3.67257 3.40425
# Velocity P-wave (km/s) = 5.23872 6.49914 5.90267
#
# Compressibility (1/GPa) = 0.03492114
#
# Stress axis : x y z
#
# Youngs Moduli (GPa) = 29.23117 70.58262 72.75090
#
# Poissons Ratio (x) = 0.38985 0.24735
# Poissons Ratio (y) = 0.16145 0.34032
# Poissons Ratio (z) = 0.09938 0.33018
#
# Static dielectric constant tensor:
#      x y z
#    x 3.329560 0.120070 -0.062760 
#    y 0.120070 3.814610 0.154550 
#    z -0.062760 0.154550 3.703030 
# 
# 
# High freq. dielectric constant tensor:
#      x y z
#    x 1.734230 0.014940 -0.002830 
#    y 0.014940 1.778600 0.004870 
#    z -0.002830 0.004870 1.779550 
# 
# From -- ./inp_files/559318.got.cif
#   From: 2010.06.25/outbox.cif.g09.slc.cpg/sg2_280_cif.got.tgz:559318.got - 2010.06.27 13:26:56.
