data_PCOD8040840
_publ_section_title
;
Structure prediction by ZEFSAII (Michael W. Deem and Ramdas Pophale) SiO2 
 PCOD8040840
Probable space group: P -1
;
_chemical_formula_sum "Si O2"
_cell_formula_units_Z 16
_cell_length_a 15.153517
_cell_length_b 17.659914
_cell_length_c 15.674454
_cell_angle_alpha 36.645203
_cell_angle_beta 160.917092
_cell_angle_gamma 142.270362
_cell_volume 806.977558
_symmetry_space_group_name_H-M "P -1"
_symmetry_group_IT_number 2
_symmetry_cell_setting 'triclinic'
loop_
_space_group_symop_operation_xyz
x,y,z
-x,-y,-z
loop_
_atom_site_type_symbol
_atom_site_label
_atom_site_fract_x
_atom_site_fract_y
_atom_site_fract_z
Si Si1 0.678765 0.850397 0.232397
Si Si2 0.488390 0.106133 0.783308
Si Si3 0.550835 0.355593 0.406173
Si Si4 0.702521 0.414219 0.300446
Si Si5 0.227006 0.738598 0.655157
Si Si6 0.387717 0.356120 0.774339
Si Si7 0.948139 0.214828 0.999522
Si Si8 0.161870 0.986145 0.446023
O O1 0.677264 0.830800 0.351625
O O2 0.550579 0.716282 0.190899
O O3 0.981745 0.896837 0.432080
O O4 0.495234 0.958432 0.947346
O O5 0.783341 0.198232 0.955168
O O6 0.350577 0.098444 0.570637
O O7 0.588470 0.360827 0.334722
O O8 0.624614 0.495576 0.390569
O O9 0.761407 0.265468 0.711804
O O10 0.236126 0.308031 0.186088
O O11 0.700480 0.291271 0.348419
O O12 0.000000 0.500000 0.500000
O O13 0.500000 0.500000 0.000000
O O14 0.899971 0.709250 0.390332
O O15 0.322740 0.891361 0.624464
O O16 0.373379 0.652877 0.930957
O O17 0.996669 0.067103 0.157389
#
# Coordination Sequence:
#
# PCOD8040840 Si02
#       8
#     2   2   2   2   2   2   2   2
#     4   9  20  33  64  97 113 154 200 272 290 337
#     4  10  18  39  61  90 121 157 208 243 301 350
#     4  12  23  40  62  84 125 162 200 237 303 369
#     4  12  22  40  64  94 119 148 203 254 299 353
#     4  11  21  38  63  95 116 151 193 266 306 338
#     4  11  21  38  60  92 125 146 202 251 312 342
#     4  11  24  40  60  84 123 176 195 231 296 378
#     4  10  20  38  65  86 127 154 206 246 304 348
#
# _framework density 19.827069000000002
#
# number of rings (size 3 to 8) (size 9 to 14) (size 15 to 20)
#    0.000    1.250    5.000    1.875    0.000    0.000 
#    0.000    2.500    0.000    0.000    0.000    0.000 
#    0.000    0.000    0.000    0.000    0.000    0.000 
#
# Total GULP energy -198288.225878 kJ/mol
# GULP energy per Si atom -12393.014117 kJ/mol
# Density = 1.978194 g / cm^3
# Si number density = 19.827069 Si / 1000 Ang^3
#
#
#
# Elastic Constant Matrix: (Units=GPa)
#
#
# Indices 1 2 3 4 5 6 
#
# 1 118.7112 81.8366 32.8438 -8.8279 0.4629 -28.9955
# 2 81.8366 97.6898 34.1599 -0.4178 -1.8210 -10.7720
# 3 32.8438 34.1599 108.1675 -8.9277 -4.5532 -3.6655
# 4 -8.8279 -0.4178 -8.9277 33.9725 5.1711 0.5621
# 5 0.4629 -1.8210 -4.5532 5.1711 25.2109 1.3831
# 6 -28.9955 -10.7720 -3.6655 0.5621 1.3831 36.1944
#
#
#
# Elastic Compliance Matrix: (Units=1/GPa)
#
#
# Indices 1 2 3 4 5 6 
#
# 1 0.027706 -0.021248 -0.000764 0.007163 -0.004521 0.015856
# 2 -0.021248 0.028179 -0.003126 -0.006406 0.003668 -0.008993
# 3 -0.000764 -0.003126 0.010696 0.002391 0.001259 -0.000545
# 4 0.007163 -0.006406 0.002391 0.032866 -0.007114 0.003836
# 5 -0.004521 0.003668 0.001259 -0.007114 0.041914 -0.003893
# 6 0.015856 -0.008993 -0.000545 0.003836 -0.003893 0.037689
#
#
# Mechanical properties :
#
#
# Convention : Reuss Voigt Hill
#
# Bulk Modulus (GPa) = 61.33408 69.13880 65.23644
# Shear Modulus (GPa) = 21.29814 30.79078 26.04446
#
# Velocity S-wave (km/s) = 3.28105 3.94505 3.62827
# Velocity P-wave (km/s) = 6.73464 7.46310 7.10820
#
# Compressibility (1/GPa) = 0.01630415
#
# Stress axis : x y z
#
# Youngs Moduli (GPa) = 36.09269 35.48724 93.49104
#
# Poissons Ratio (x) = 0.75404 0.07144
# Poissons Ratio (y) = 0.76691 0.29229
# Poissons Ratio (z) = 0.02758 0.11095
#
# Static dielectric constant tensor:
#      x y z
#    x 3.854210 -0.212040 0.008800 
#    y -0.212040 3.741590 -0.015430 
#    z 0.008800 -0.015430 3.740180 
# 
# 
# High freq. dielectric constant tensor:
#      x y z
#    x 1.757840 -0.006110 0.010790 
#    y -0.006110 1.762610 -0.000090 
#    z 0.010790 -0.000090 1.784870 
# 
# From -- ./inp_files/110845.got.cif
#   From: 2010.06.25/outbox.cif.g09.slc.cpg/sg2_56_cif.got.tgz:110845.got - 2010.06.27 13:26:56.
