data_PCOD8040822
_publ_section_title
;
Structure prediction by ZEFSAII (Michael W. Deem and Ramdas Pophale) SiO2 
 PCOD8040822
Probable space group: P -1
;
_chemical_formula_sum "Si O2"
_cell_formula_units_Z 16
_cell_length_a 11.782668
_cell_length_b 9.133439
_cell_length_c 14.002411
_cell_angle_alpha 35.640486
_cell_angle_beta 91.318583
_cell_angle_gamma 73.996009
_cell_volume 757.474061
_symmetry_space_group_name_H-M "P -1"
_symmetry_group_IT_number 2
_symmetry_cell_setting 'triclinic'
loop_
_space_group_symop_operation_xyz
x,y,z
-x,-y,-z
loop_
_atom_site_type_symbol
_atom_site_label
_atom_site_fract_x
_atom_site_fract_y
_atom_site_fract_z
Si Si1 0.511509 0.692929 0.181258
Si Si2 0.674540 0.866425 0.408535
Si Si3 0.686426 0.267550 0.708543
Si Si4 0.238023 0.755782 0.484702
Si Si5 0.075552 0.166991 0.930072
Si Si6 0.184743 0.282566 0.318543
Si Si7 0.436748 0.289291 0.280337
Si Si8 0.867210 0.634577 0.367470
O O1 0.442234 0.735866 0.259056
O O2 0.663692 0.459119 0.319184
O O3 0.447346 0.565818 0.171874
O O4 0.500000 0.000000 0.000000
O O5 0.673003 0.569276 0.582617
O O6 0.761805 0.871321 0.496025
O O7 0.742654 0.854367 0.314755
O O8 0.527313 0.157286 0.255606
O O9 0.686939 0.235215 0.612835
O O10 0.812753 0.996196 0.902808
O O11 0.136629 0.652219 0.510167
O O12 0.165323 0.072867 0.358698
O O13 0.137945 0.187637 0.820253
O O14 0.966435 0.474131 0.805521
O O15 0.000000 0.000000 0.000000
O O16 0.282070 0.386307 0.217199
O O17 0.500000 0.000000 0.500000
O O18 0.000000 0.500000 0.500000
#
# Coordination Sequence:
#
# PCOD8040822 Si02
#       8
#     2   2   2   2   2   2   2   2
#     4  12  22  38  65 101 136 166 219 279 332 384
#     4  10  18  40  69  91 123 172 222 262 322 398
#     4  11  22  40  62  92 133 178 219 264 325 395
#     4  11  24  40  66  95 124 175 226 264 328 398
#     4  12  22  40  66  91 130 175 218 267 326 395
#     4  11  20  39  69  96 125 174 223 262 329 387
#     4  10  18  38  70  98 128 175 218 266 333 398
#     4  11  23  41  63  96 126 166 218 271 330 391
#
# _framework density 21.122834999999998
#
# number of rings (size 3 to 8) (size 9 to 14) (size 15 to 20)
#    0.000    1.000    7.500    1.875    0.000    2.000 
#    0.000    1.250    0.000    5.250    0.000    0.000 
#    0.000    0.000    0.000    0.000    0.000    0.000 
#
# Total GULP energy -198294.066752 kJ/mol
# GULP energy per Si atom -12393.379172 kJ/mol
# Density = 2.107476 g / cm^3
# Si number density = 21.122835 Si / 1000 Ang^3
#
#
#
# Elastic Constant Matrix: (Units=GPa)
#
#
# Indices 1 2 3 4 5 6 
#
# 1 103.0507 52.3394 29.0882 -8.4202 -16.3954 -7.8875
# 2 52.3394 135.2874 41.0771 -19.5369 -25.1147 -3.1387
# 3 29.0882 41.0771 74.4890 -6.2518 -10.9413 -7.7022
# 4 -8.4202 -19.5369 -6.2518 23.3938 0.5766 -0.7595
# 5 -16.3954 -25.1147 -10.9413 0.5766 40.5235 -1.1354
# 6 -7.8875 -3.1387 -7.7022 -0.7595 -1.1354 41.8069
#
#
#
# Elastic Compliance Matrix: (Units=1/GPa)
#
#
# Indices 1 2 3 4 5 6 
#
# 1 0.012801 -0.003613 -0.002401 0.000949 0.002328 0.001782
# 2 -0.003613 0.011925 -0.003858 0.007502 0.004774 -0.000231
# 3 -0.002401 -0.003858 0.016971 0.000496 0.001281 0.002428
# 4 0.000949 0.007502 0.000496 0.049435 0.004516 0.001854
# 5 0.002328 0.004774 0.001281 0.004516 0.028913 0.001901
# 6 0.001782 -0.000231 0.002428 0.001854 0.001901 0.024771
#
#
# Mechanical properties :
#
#
# Convention : Reuss Voigt Hill
#
# Bulk Modulus (GPa) = 45.55117 61.98183 53.76650
# Shear Modulus (GPa) = 29.09060 33.83300 31.46180
#
# Velocity S-wave (km/s) = 3.71511 4.00650 3.86355
# Velocity P-wave (km/s) = 6.32569 7.12811 6.73885
#
# Compressibility (1/GPa) = 0.02195333
#
# Stress axis : x y z
#
# Youngs Moduli (GPa) = 78.11933 83.85581 58.92508
#
# Poissons Ratio (x) = 0.30296 0.14145
# Poissons Ratio (y) = 0.28223 0.22735
# Poissons Ratio (z) = 0.18753 0.32355
#
# Static dielectric constant tensor:
#      x y z
#    x 4.013640 -0.297460 -0.124900 
#    y -0.297460 4.078180 -0.040970 
#    z -0.124900 -0.040970 3.386740 
# 
# 
# High freq. dielectric constant tensor:
#      x y z
#    x 1.833940 -0.010510 -0.000860 
#    y -0.010510 1.835560 -0.013860 
#    z -0.000860 -0.013860 1.802580 
# 
# From -- ./inp_files/514909.got.cif
#   From: 2010.06.25/outbox.cif.g09.slc.cpg/sg2_258_cif.got.tgz:514909.got - 2010.06.27 13:26:56.
