data_PCOD8040850
_publ_section_title
;
Structure prediction by ZEFSAII (Michael W. Deem and Ramdas Pophale) SiO2 
 PCOD8040850
Probable space group: P -1
;
_chemical_formula_sum "Si O2"
_cell_formula_units_Z 14
_cell_length_a 9.647387
_cell_length_b 13.436110
_cell_length_c 8.203015
_cell_angle_alpha 137.069290
_cell_angle_beta 72.267717
_cell_angle_gamma 98.558118
_cell_volume 685.296255
_symmetry_space_group_name_H-M "P -1"
_symmetry_group_IT_number 2
_symmetry_cell_setting 'triclinic'
loop_
_space_group_symop_operation_xyz
x,y,z
-x,-y,-z
loop_
_atom_site_type_symbol
_atom_site_label
_atom_site_fract_x
_atom_site_fract_y
_atom_site_fract_z
Si Si1 0.559126 0.133127 0.230059
Si Si2 0.338387 0.666862 0.849473
Si Si3 0.835032 0.039531 0.656305
Si Si4 0.852993 0.422394 0.444504
Si Si5 0.600313 0.869428 0.394768
Si Si6 0.132186 0.912205 0.934251
Si Si7 0.423844 0.434467 0.103695
O O1 0.582348 0.260867 0.245202
O O2 0.455174 0.188194 0.481482
O O3 0.713792 0.083095 0.208150
O O4 0.500000 0.000000 0.000000
O O5 0.227427 0.557978 0.680971
O O6 0.244079 0.793196 0.144767
O O7 0.460001 0.569927 0.795009
O O8 0.755266 0.924974 0.442852
O O9 0.832627 0.012748 0.817534
O O10 0.000000 0.000000 0.500000
O O11 0.910499 0.251493 0.233880
O O12 0.000000 0.500000 0.500000
O O13 0.730815 0.471325 0.685104
O O14 0.617290 0.730085 0.103720
O O15 0.500000 0.000000 0.500000
O O16 0.000000 0.000000 0.000000
O O17 0.500000 0.500000 0.000000
#
# Coordination Sequence:
#
# PCOD8040850 Si02
#       7
#     2   2   2   2   2   2   2
#     4  10  18  39  62  96 123 157 219 255 309 374
#     4  10  22  44  66  88 130 174 209 264 312 388
#     4  10  22  39  61  96 130 159 208 268 319 362
#     4  10  24  44  64  92 127 172 217 254 323 387
#     4  12  23  39  67  98 124 166 215 265 313 378
#     4  10  23  40  64  90 123 165 209 262 308 378
#     4  12  25  43  66  96 133 170 210 270 323 379
#
# _framework density 20.429120999999999
#
# number of rings (size 3 to 8) (size 9 to 14) (size 15 to 20)
#    0.000    1.714    4.286    2.143    6.000    2.286 
#    2.571    0.714    0.000    0.000    0.000    0.000 
#    0.000    0.000    0.000    0.000    0.000    0.000 
#
# Total GULP energy -173454.339908 kJ/mol
# GULP energy per Si atom -12389.595708 kJ/mol
# Density = 2.038262 g / cm^3
# Si number density = 20.429121 Si / 1000 Ang^3
#
#
#
# Elastic Constant Matrix: (Units=GPa)
#
#
# Indices 1 2 3 4 5 6 
#
# 1 183.6064 60.1341 41.4634 6.8272 13.0473 7.4880
# 2 60.1341 75.5447 23.1065 -2.2951 -0.8567 -5.2135
# 3 41.4634 23.1065 84.9394 2.9523 9.9391 5.5551
# 4 6.8272 -2.2951 2.9523 25.5467 10.4697 -2.3377
# 5 13.0473 -0.8567 9.9391 10.4697 47.2626 3.2778
# 6 7.4880 -5.2135 5.5551 -2.3377 3.2778 40.4632
#
#
#
# Elastic Compliance Matrix: (Units=1/GPa)
#
#
# Indices 1 2 3 4 5 6 
#
# 1 0.008145 -0.006108 -0.001950 -0.002140 -0.001333 -0.002042
# 2 -0.006108 0.019379 -0.002864 0.003424 0.001598 0.004089
# 3 -0.001950 -0.002864 0.013896 -0.000612 -0.002177 -0.001775
# 4 -0.002140 0.003424 -0.000612 0.044304 -0.009326 0.004236
# 5 -0.001333 0.001598 -0.002177 -0.009326 0.024200 -0.001748
# 6 -0.002042 0.004089 -0.001775 0.004236 -0.001748 0.026249
#
#
# Mechanical properties :
#
#
# Convention : Reuss Voigt Hill
#
# Bulk Modulus (GPa) = 51.08131 65.94427 58.51279
# Shear Modulus (GPa) = 30.38711 37.28026 33.83369
#
# Velocity S-wave (km/s) = 3.86092 4.27647 4.07400
# Velocity P-wave (km/s) = 6.70329 7.53219 7.12979
#
# Compressibility (1/GPa) = 0.01957663
#
# Stress axis : x y z
#
# Youngs Moduli (GPa) = 122.77505 51.60122 71.96152
#
# Poissons Ratio (x) = 0.31518 0.14036
# Poissons Ratio (y) = 0.74991 0.20607
# Poissons Ratio (z) = 0.23947 0.14777
#
# Static dielectric constant tensor:
#      x y z
#    x 3.974720 -0.228250 0.311090 
#    y -0.228250 3.597720 0.086990 
#    z 0.311090 0.086990 3.929280 
# 
# 
# High freq. dielectric constant tensor:
#      x y z
#    x 1.816910 0.002870 0.008380 
#    y 0.002870 1.768240 0.001060 
#    z 0.008380 0.001060 1.812540 
# 
# From -- ./inp_files/209178.got.cif
#   From: 2010.06.25/outbox.cif.g09.slc.cpg/sg2_105_cif.got.tgz:209178.got - 2010.06.27 13:26:56.
