data_PCOD8040931
_publ_section_title
;
Structure prediction by ZEFSAII (Michael W. Deem and Ramdas Pophale) SiO2 
 PCOD8040931
Probable space group: P -1
;
_chemical_formula_sum "Si O2"
_cell_formula_units_Z 14
_cell_length_a 5.290206
_cell_length_b 19.364211
_cell_length_c 9.423162
_cell_angle_alpha 52.817453
_cell_angle_beta 98.902785
_cell_angle_gamma 83.265903
_cell_volume 732.061423
_symmetry_space_group_name_H-M "P -1"
_symmetry_group_IT_number 2
_symmetry_cell_setting 'triclinic'
loop_
_space_group_symop_operation_xyz
x,y,z
-x,-y,-z
loop_
_atom_site_type_symbol
_atom_site_label
_atom_site_fract_x
_atom_site_fract_y
_atom_site_fract_z
Si Si1 0.137255 0.301153 0.019451
Si Si2 0.586732 0.425850 0.223016
Si Si3 0.306163 0.793818 0.893371
Si Si4 0.956418 0.503680 0.822668
Si Si5 0.772879 0.035118 0.134622
Si Si6 0.647962 0.073701 0.756996
Si Si7 0.544720 0.239713 0.350991
O O1 0.020499 0.407758 0.871125
O O2 0.391842 0.268589 0.975830
O O3 0.240798 0.273243 0.224500
O O4 0.908856 0.255589 0.007788
O O5 0.351733 0.444306 0.296997
O O6 0.647846 0.325480 0.293669
O O7 0.855375 0.439241 0.300334
O O8 0.500000 0.500000 0.000000
O O9 0.268728 0.811358 0.698547
O O10 0.260044 0.888787 0.845876
O O11 0.000000 0.500000 0.000000
O O12 0.584604 0.972931 0.240988
O O13 0.079035 0.979378 0.227495
O O14 0.683594 0.081177 0.918586
O O15 0.559079 0.175029 0.565995
#
# Coordination Sequence:
#
# PCOD8040931 Si02
#       7
#     2   2   2   2   2   2   2
#     4  10  19  30  48  82 108 131 168 208 255 297
#     4  10  17  27  46  71 108 133 161 199 255 297
#     4  10  20  33  53  75 107 131 170 209 260 306
#     4  10  15  27  43  68 108 137 158 196 249 304
#     4  10  22  42  54  73  99 144 171 207 262 305
#     4  10  23  38  58  73 102 132 179 215 247 306
#     4  10  22  31  53  83 106 128 173 217 253 293
#
# _framework density 19.124078999999998
#
# number of rings (size 3 to 8) (size 9 to 14) (size 15 to 20)
#    0.857    1.143    2.857    3.429    2.000    1.143 
#    0.000    0.000    0.000    0.000    0.000   11.000 
#    0.000    0.000    0.000    0.000    0.000    0.000 
#
# Total GULP energy -173492.459117 kJ/mol
# GULP energy per Si atom -12392.318508 kJ/mol
# Density = 1.908055 g / cm^3
# Si number density = 19.124079 Si / 1000 Ang^3
#
#
#
# Elastic Constant Matrix: (Units=GPa)
#
#
# Indices 1 2 3 4 5 6 
#
# 1 169.4254 40.6783 30.7279 -12.5670 -23.9885 1.6840
# 2 40.6783 100.4739 64.6342 -33.2125 -13.0002 4.6822
# 3 30.7279 64.6342 56.0745 -18.8898 -10.1219 6.1408
# 4 -12.5670 -33.2125 -18.8898 15.9308 5.8566 -5.5126
# 5 -23.9885 -13.0002 -10.1219 5.8566 14.9382 -9.7092
# 6 1.6840 4.6822 6.1408 -5.5126 -9.7092 25.1896
#
#
#
# Elastic Compliance Matrix: (Units=1/GPa)
#
#
# Indices 1 2 3 4 5 6 
#
# 1 0.008582 -0.000696 -0.001918 -0.000786 0.016128 0.006068
# 2 -0.000696 0.095833 -0.070811 0.123479 0.004171 0.028126
# 3 -0.001918 -0.070811 0.083685 -0.057228 0.002234 -0.018773
# 4 -0.000786 0.123479 -0.057228 0.271064 -0.008155 0.047229
# 5 0.016128 0.004171 0.002234 -0.008155 0.131377 0.046456
# 6 0.006068 0.028126 -0.018773 0.047229 0.046456 0.066884
#
#
# Mechanical properties :
#
#
# Convention : Reuss Voigt Hill
#
# Bulk Modulus (GPa) = 24.24262 66.45050 45.34656
# Shear Modulus (GPa) = 6.11229 23.87395 14.99312
#
# Velocity S-wave (km/s) = 1.78971 3.53706 2.80302
# Velocity P-wave (km/s) = 4.12004 7.17660 5.85142
#
# Compressibility (1/GPa) = 0.04124967
#
# Stress axis : x y z
#
# Youngs Moduli (GPa) = 116.51841 10.43486 11.94958
#
# Poissons Ratio (x) = 0.00727 0.02292
# Poissons Ratio (y) = 0.08114 0.84616
# Poissons Ratio (z) = 0.22351 0.73890
#
# Static dielectric constant tensor:
#      x y z
#    x 5.729540 -0.131530 -0.351340 
#    y -0.131530 3.313910 -0.132790 
#    z -0.351340 -0.132790 2.982270 
# 
# 
# High freq. dielectric constant tensor:
#      x y z
#    x 1.769970 -0.001490 -0.012710 
#    y -0.001490 1.741140 -0.027340 
#    z -0.012710 -0.027340 1.681290 
# 
# From -- ./inp_files/110739.got.cif
#   From: 2010.06.25/outbox.cif.g09.slc.cpg/sg2_56_cif.got.tgz:110739.got - 2010.06.27 13:26:56.
