data_PCOD8040894
_publ_section_title
;
Structure prediction by ZEFSAII (Michael W. Deem and Ramdas Pophale) SiO2 
 PCOD8040894
Probable space group: P -1
;
_chemical_formula_sum "Si O2"
_cell_formula_units_Z 14
_cell_length_a 22.052362
_cell_length_b 9.208356
_cell_length_c 9.332342
_cell_angle_alpha 116.740096
_cell_angle_beta 150.642214
_cell_angle_gamma 48.527048
_cell_volume 653.017248
_symmetry_space_group_name_H-M "P -1"
_symmetry_group_IT_number 2
_symmetry_cell_setting 'triclinic'
loop_
_space_group_symop_operation_xyz
x,y,z
-x,-y,-z
loop_
_atom_site_type_symbol
_atom_site_label
_atom_site_fract_x
_atom_site_fract_y
_atom_site_fract_z
Si Si1 0.632104 0.341717 0.973872
Si Si2 0.114066 0.850184 0.791691
Si Si3 0.717674 0.489240 0.621352
Si Si4 0.159552 0.465339 0.818938
Si Si5 0.633636 0.696051 0.245336
Si Si6 0.141470 0.919169 0.418915
Si Si7 0.292035 0.110512 0.737520
O O1 0.455115 0.424227 0.646485
O O2 0.713141 0.223754 0.934916
O O3 0.641035 0.528853 0.089930
O O4 0.726313 0.188488 0.232724
O O5 0.133916 0.641162 0.743934
O O6 0.000000 0.000000 0.500000
O O7 0.035283 0.971732 0.833605
O O8 0.714587 0.602112 0.523688
O O9 0.823689 0.243287 0.702004
O O10 0.794184 0.530656 0.922382
O O11 0.291212 0.239514 0.923861
O O12 0.000000 0.500000 0.500000
O O13 0.723604 0.773759 0.390549
O O14 0.452296 0.882658 0.975692
O O15 0.149829 0.093914 0.445434
#
# Coordination Sequence:
#
# PCOD8040894 Si02
#       7
#     2   2   2   2   2   2   2
#     4  10  18  39  67  97 126 168 211 259 316 384
#     4  10  22  40  66  91 129 170 210 256 327 377
#     4  11  23  41  67  96 128 168 220 260 312 382
#     4  12  26  43  63  90 133 172 211 269 326 374
#     4  10  20  38  67  98 129 168 207 267 317 381
#     4  10  19  39  69  94 123 172 210 263 313 386
#     4  11  20  38  67  94 135 165 207 261 328 373
#
# _framework density 21.438943999999999
#
# number of rings (size 3 to 8) (size 9 to 14) (size 15 to 20)
#    0.000    1.429    5.714    0.857    0.000    1.714 
#    0.000    2.143    0.000    0.000    0.000    0.000 
#    0.000    0.000    0.000    0.000    0.000    0.000 
#
# Total GULP energy -173498.019542 kJ/mol
# GULP energy per Si atom -12392.715682 kJ/mol
# Density = 2.139015 g / cm^3
# Si number density = 21.438944 Si / 1000 Ang^3
#
#
#
# Elastic Constant Matrix: (Units=GPa)
#
#
# Indices 1 2 3 4 5 6 
#
# 1 142.3534 70.4635 61.4312 10.6851 9.1139 -22.1967
# 2 70.4635 107.0392 31.6751 -2.8049 -4.0047 -4.1108
# 3 61.4312 31.6751 77.3283 13.9981 -8.2457 -12.0743
# 4 10.6851 -2.8049 13.9981 16.5687 -3.2250 6.2364
# 5 9.1139 -4.0047 -8.2457 -3.2250 28.7447 -12.3743
# 6 -22.1967 -4.1108 -12.0743 6.2364 -12.3743 44.1441
#
#
#
# Elastic Compliance Matrix: (Units=1/GPa)
#
#
# Indices 1 2 3 4 5 6 
#
# 1 0.016979 -0.009048 -0.008428 -0.008574 -0.008168 0.004311
# 2 -0.009048 0.016197 -0.001932 0.012596 0.004187 -0.004176
# 3 -0.008428 -0.001932 0.026259 -0.018043 0.011598 0.008565
# 4 -0.008574 0.012596 -0.018043 0.091200 0.000577 -0.020795
# 5 -0.008168 0.004187 0.011598 0.000577 0.046723 0.012471
# 6 0.004311 -0.004176 0.008565 -0.020795 0.012471 0.033208
#
#
# Mechanical properties :
#
#
# Convention : Reuss Voigt Hill
#
# Bulk Modulus (GPa) = 48.50073 72.65118 60.57595
# Shear Modulus (GPa) = 18.09919 28.76823 23.43371
#
# Velocity S-wave (km/s) = 2.90870 3.66713 3.30971
# Velocity P-wave (km/s) = 5.82688 7.20357 6.55149
#
# Compressibility (1/GPa) = 0.02061825
#
# Stress axis : x y z
#
# Youngs Moduli (GPa) = 58.89544 61.74066 38.08186
#
# Poissons Ratio (x) = 0.55863 0.32096
# Poissons Ratio (y) = 0.53288 0.07359
# Poissons Ratio (z) = 0.49638 0.11930
#
# Static dielectric constant tensor:
#      x y z
#    x 4.414590 -0.271720 0.172780 
#    y -0.271720 4.392790 -0.160440 
#    z 0.172780 -0.160440 3.369830 
# 
# 
# High freq. dielectric constant tensor:
#      x y z
#    x 1.868030 -0.003930 0.013210 
#    y -0.003930 1.860110 -0.021260 
#    z 0.013210 -0.021260 1.793920 
# 
# From -- ./inp_files/150022.got.cif
#   From: 2010.06.25/outbox.cif.g09.slc.cpg/sg2_76_cif.got.tgz:150022.got - 2010.06.27 13:26:56.
