data_PCOD8040715
_publ_section_title
;
Structure prediction by ZEFSAII (Michael W. Deem and Ramdas Pophale) SiO2 
 PCOD8040715
Probable space group: P -1
;
_chemical_formula_sum "Si O2"
_cell_formula_units_Z 16
_cell_length_a 17.634543
_cell_length_b 9.105511
_cell_length_c 7.583845
_cell_angle_alpha 72.303984
_cell_angle_beta 115.298480
_cell_angle_gamma 136.651920
_cell_volume 755.685410
_symmetry_space_group_name_H-M "P -1"
_symmetry_group_IT_number 2
_symmetry_cell_setting 'triclinic'
loop_
_space_group_symop_operation_xyz
x,y,z
-x,-y,-z
loop_
_atom_site_type_symbol
_atom_site_label
_atom_site_fract_x
_atom_site_fract_y
_atom_site_fract_z
Si Si1 0.495353 0.317237 0.014507
Si Si2 0.052456 0.222510 0.045536
Si Si3 0.092516 0.741259 0.938601
Si Si4 0.322061 0.971893 0.253811
Si Si5 0.544925 0.835848 0.345125
Si Si6 0.303349 0.625990 0.226819
Si Si7 0.667600 0.277235 0.174406
Si Si8 0.095990 0.544066 0.700397
O O1 0.623978 0.398224 0.120221
O O2 0.413508 0.124451 0.137282
O O3 0.500000 0.500000 0.000000
O O4 0.443398 0.250357 0.788049
O O5 0.043360 0.337627 0.838783
O O6 0.184449 0.374253 0.195299
O O7 0.972624 0.176275 0.149010
O O8 0.000000 0.000000 0.000000
O O9 0.138516 0.741835 0.794277
O O10 0.199981 0.896524 0.122039
O O11 0.000000 0.500000 0.000000
O O12 0.302296 0.760586 0.323301
O O13 0.365383 0.097780 0.437252
O O14 0.413861 0.655981 0.360607
O O15 0.566732 0.041204 0.237712
O O16 0.318105 0.730987 0.016834
O O17 0.795794 0.387836 0.333663
O O18 0.000000 0.500000 0.500000
#
# Coordination Sequence:
#
# PCOD8040715 Si02
#       8
#     2   2   2   2   2   2   2   2
#     4  11  24  42  60  93 138 167 203 267 332 385
#     4  10  22  40  63  91 130 170 210 274 335 372
#     4  10  20  38  60  90 124 164 214 267 314 379
#     4  12  21  38  65  96 121 166 219 259 316 397
#     4  11  22  36  70  94 122 167 215 262 322 387
#     4  10  18  38  61  93 124 160 216 264 313 390
#     4  10  19  38  64  90 122 166 210 264 323 373
#     4  10  21  38  66  93 122 168 226 263 318 396
#
# _framework density 21.172830000000001
#
# number of rings (size 3 to 8) (size 9 to 14) (size 15 to 20)
#    0.000    1.500    6.250    1.125    3.500    3.500 
#    0.000    0.625    0.000    0.000    0.000    0.000 
#    0.000    0.000    0.000    0.000    0.000    0.000 
#
# Total GULP energy -198224.931113 kJ/mol
# GULP energy per Si atom -12389.058195 kJ/mol
# Density = 2.112464 g / cm^3
# Si number density = 21.172830 Si / 1000 Ang^3
#
#
#
# Elastic Constant Matrix: (Units=GPa)
#
#
# Indices 1 2 3 4 5 6 
#
# 1 147.5199 64.3321 49.8150 21.7878 5.0782 -4.2877
# 2 64.3321 99.5161 36.5248 26.6726 3.0739 -8.3898
# 3 49.8150 36.5248 110.4573 37.2500 7.4172 5.6089
# 4 21.7878 26.6726 37.2500 26.9624 5.4909 2.1219
# 5 5.0782 3.0739 7.4172 5.4909 30.4934 10.1025
# 6 -4.2877 -8.3898 5.6089 2.1219 10.1025 39.6540
#
#
#
# Elastic Compliance Matrix: (Units=1/GPa)
#
#
# Indices 1 2 3 4 5 6 
#
# 1 0.010207 -0.005954 -0.003465 0.002571 -0.000857 0.000415
# 2 -0.005954 0.017690 0.001926 -0.015709 0.000386 0.003569
# 3 -0.003465 0.001926 0.018187 -0.024284 0.000811 -0.001447
# 4 0.002571 -0.015709 -0.024284 0.085835 -0.007647 -0.002256
# 5 -0.000857 0.000386 0.000811 -0.007647 0.037116 -0.009173
# 6 0.000415 0.003569 -0.001447 -0.002256 -0.009173 0.028680
#
#
# Mechanical properties :
#
#
# Convention : Reuss Voigt Hill
#
# Bulk Modulus (GPa) = 32.15592 73.20414 52.68003
# Shear Modulus (GPa) = 22.41461 33.21006 27.81233
#
# Velocity S-wave (km/s) = 3.25722 3.96475 3.62827
# Velocity P-wave (km/s) = 5.41907 7.45712 6.51824
#
# Compressibility (1/GPa) = 0.03109847
#
# Stress axis : x y z
#
# Youngs Moduli (GPa) = 97.96881 56.52841 54.98359
#
# Poissons Ratio (x) = 0.33660 0.19052
# Poissons Ratio (y) = 0.58335 -0.10592
# Poissons Ratio (z) = 0.33946 -0.10889
#
# Static dielectric constant tensor:
#      x y z
#    x 3.805860 0.168160 -0.028350 
#    y 0.168160 3.652560 0.290310 
#    z -0.028350 0.290310 3.759530 
# 
# 
# High freq. dielectric constant tensor:
#      x y z
#    x 1.843190 0.021200 -0.003040 
#    y 0.021200 1.799320 0.023420 
#    z -0.003040 0.023420 1.810380 
# 
# From -- ./inp_files/328885.got.cif
#   From: 2010.06.25/outbox.cif.g09.slc.cpg/sg2_165_cif.got.tgz:328885.got - 2010.06.27 13:26:56.
