data_PCOD8040824
_publ_section_title
;
Structure prediction by ZEFSAII (Michael W. Deem and Ramdas Pophale) SiO2 
 PCOD8040824
Probable space group: P -1
;
_chemical_formula_sum "Si O2"
_cell_formula_units_Z 14
_cell_length_a 8.652836
_cell_length_b 10.963167
_cell_length_c 9.237882
_cell_angle_alpha 103.850593
_cell_angle_beta 64.611828
_cell_angle_gamma 71.350984
_cell_volume 673.675076
_symmetry_space_group_name_H-M "P -1"
_symmetry_group_IT_number 2
_symmetry_cell_setting 'triclinic'
loop_
_space_group_symop_operation_xyz
x,y,z
-x,-y,-z
loop_
_atom_site_type_symbol
_atom_site_label
_atom_site_fract_x
_atom_site_fract_y
_atom_site_fract_z
Si Si1 0.185808 0.913262 0.801602
Si Si2 0.130003 0.429184 0.067825
Si Si3 0.159987 0.022683 0.529570
Si Si4 0.420256 0.761619 0.190560
Si Si5 0.340162 0.954704 0.021056
Si Si6 0.017171 0.742183 0.729789
Si Si7 0.094619 0.673733 0.361054
O O1 0.163438 0.004109 0.693992
O O2 0.206189 0.756026 0.713333
O O3 0.360018 0.904290 0.830382
O O4 0.000000 0.000000 0.000000
O O5 0.063886 0.321048 0.133174
O O6 0.106081 0.541605 0.232056
O O7 0.353691 0.347479 0.904157
O O8 0.000000 0.500000 0.000000
O O9 0.368339 0.901953 0.350467
O O10 0.000000 0.000000 0.500000
O O11 0.104669 0.187012 0.571082
O O12 0.377823 0.814499 0.056991
O O13 0.289977 0.686499 0.260428
O O14 0.136971 0.090463 0.190677
O O15 0.500000 0.000000 0.000000
O O16 0.073688 0.650375 0.533751
#
# Coordination Sequence:
#
# PCOD8040824 Si02
#       7
#     2   2   2   2   2   2   2
#     4  10  20  35  68 100 127 169 214 271 329 386
#     4  12  29  43  62  95 140 177 216 270 328 396
#     4  10  18  38  71 101 126 161 223 280 321 383
#     4  11  22  45  69  96 130 170 222 273 330 390
#     4  11  22  39  69 103 132 164 219 282 327 379
#     4  11  21  44  65  95 132 174 219 265 331 392
#     4  11  22  43  69  94 130 181 214 263 336 392
#
# _framework density 20.78153
#
# number of rings (size 3 to 8) (size 9 to 14) (size 15 to 20)
#    0.000    1.143    5.714    3.429    6.000    0.000 
#    2.571    2.143    0.000    0.000    0.000    0.000 
#    0.000    0.000    0.000    0.000    0.000    0.000 
#
# Total GULP energy -173512.323153 kJ/mol
# GULP energy per Si atom -12393.737368 kJ/mol
# Density = 2.073423 g / cm^3
# Si number density = 20.781530 Si / 1000 Ang^3
#
#
#
# Elastic Constant Matrix: (Units=GPa)
#
#
# Indices 1 2 3 4 5 6 
#
# 1 109.0369 33.3851 46.6469 -1.6001 19.5434 -7.8759
# 2 33.3851 77.3870 31.6372 -2.4230 3.9052 -10.9694
# 3 46.6469 31.6372 116.4123 -2.6443 26.6758 -18.8088
# 4 -1.6001 -2.4230 -2.6443 48.1882 -3.0664 4.1293
# 5 19.5434 3.9052 26.6758 -3.0664 25.5678 -5.7047
# 6 -7.8759 -10.9694 -18.8088 4.1293 -5.7047 32.4917
#
#
#
# Elastic Compliance Matrix: (Units=1/GPa)
#
#
# Indices 1 2 3 4 5 6 
#
# 1 0.012679 -0.004227 -0.002583 -0.000270 -0.006601 -0.000973
# 2 -0.004227 0.016356 -0.003349 0.000530 0.005045 0.003377
# 3 -0.002583 -0.003349 0.013731 -0.000569 -0.010939 0.004343
# 4 -0.000270 0.000530 -0.000569 0.021119 0.002711 -0.002424
# 5 -0.006601 0.005045 -0.010939 0.002711 0.055847 0.003231
# 6 -0.000973 0.003377 0.004343 -0.002424 0.003231 0.035071
#
#
# Mechanical properties :
#
#
# Convention : Reuss Voigt Hill
#
# Bulk Modulus (GPa) = 44.54913 58.46384 51.50648
# Shear Modulus (GPa) = 27.38183 33.99401 30.68792
#
# Velocity S-wave (km/s) = 3.63382 4.04887 3.84694
# Velocity P-wave (km/s) = 6.25217 7.07470 6.67612
#
# Compressibility (1/GPa) = 0.02244713
#
# Stress axis : x y z
#
# Youngs Moduli (GPa) = 78.86881 61.14069 72.82862
#
# Poissons Ratio (x) = 0.25847 0.18808
# Poissons Ratio (y) = 0.33341 0.24393
# Poissons Ratio (z) = 0.20368 0.20479
#
# Static dielectric constant tensor:
#      x y z
#    x -1.966340 3.014480 -3.667350 
#    y 3.014480 2.410070 1.966600 
#    z -3.667350 1.966600 1.606130 
# 
# 
# High freq. dielectric constant tensor:
#      x y z
#    x 1.805630 0.006370 0.013830 
#    y 0.006370 1.801930 -0.013630 
#    z 0.013830 -0.013630 1.821470 
# 
# From -- ./inp_files/180028.got.cif
#   From: 2010.06.25/outbox.cif.g09.slc.cpg/sg2_91_cif.got.tgz:180028.got - 2010.06.27 13:26:56.
