data_PCOD8040777
_publ_section_title
;
Structure prediction by ZEFSAII (Michael W. Deem and Ramdas Pophale) SiO2 
 PCOD8040777
Probable space group: P -1
;
_chemical_formula_sum "Si O2"
_cell_formula_units_Z 14
_cell_length_a 8.356127
_cell_length_b 16.593941
_cell_length_c 7.887456
_cell_angle_alpha 125.462004
_cell_angle_beta 123.869975
_cell_angle_gamma 47.687601
_cell_volume 632.986351
_symmetry_space_group_name_H-M "P -1"
_symmetry_group_IT_number 2
_symmetry_cell_setting 'triclinic'
loop_
_space_group_symop_operation_xyz
x,y,z
-x,-y,-z
loop_
_atom_site_type_symbol
_atom_site_label
_atom_site_fract_x
_atom_site_fract_y
_atom_site_fract_z
Si Si1 0.904444 0.625207 0.332092
Si Si2 0.607850 0.570345 0.575114
Si Si3 0.709342 0.936832 0.357431
Si Si4 0.516718 0.382770 0.815892
Si Si5 0.008555 0.191383 0.930320
Si Si6 0.251257 0.280656 0.988933
Si Si7 0.769827 0.868999 0.674384
O O1 0.691633 0.612488 0.212274
O O2 0.930225 0.635771 0.157839
O O3 0.871137 0.733724 0.549096
O O4 0.126413 0.514335 0.400266
O O5 0.500000 0.500000 0.500000
O O6 0.484605 0.628637 0.400384
O O7 0.580167 0.674858 0.805942
O O8 0.904490 0.902357 0.288993
O O9 0.613761 0.848273 0.172874
O O10 0.807898 0.922878 0.590139
O O11 0.498143 0.065713 0.362611
O O12 0.740337 0.268809 0.875520
O O13 0.500000 0.500000 0.000000
O O14 0.110390 0.275424 0.060826
O O15 0.099710 0.120524 0.073647
#
# Coordination Sequence:
#
# PCOD8040777 Si02
#       7
#     2   2   2   2   2   2   2
#     4  11  22  38  59  88 121 158 199 249 303 354
#     4  12  23  37  61  85 118 161 199 250 304 356
#     4   8  20  36  66  91 118 159 201 244 299 359
#     4  12  24  38  56  89 124 158 206 245 297 362
#     4  10  20  38  62  90 120 159 201 244 296 359
#     4   9  20  38  59  86 120 151 204 240 300 353
#     4  10  18  38  66  89 120 159 198 249 303 345
#
# _framework density 22.117381000000002
#
# number of rings (size 3 to 8) (size 9 to 14) (size 15 to 20)
#    0.857    0.857    0.000    5.571    0.000    0.000 
#    0.000    0.714    0.000    3.429    0.000    0.000 
#    0.000    0.000    0.000    0.000    0.000    0.000 
#
# Total GULP energy -173502.315804 kJ/mol
# GULP energy per Si atom -12393.022557 kJ/mol
# Density = 2.206704 g / cm^3
# Si number density = 22.117381 Si / 1000 Ang^3
#
#
#
# Elastic Constant Matrix: (Units=GPa)
#
#
# Indices 1 2 3 4 5 6 
#
# 1 73.1083 18.4201 40.7023 -19.8429 -9.8635 -11.0692
# 2 18.4201 72.9591 26.3114 -31.5615 -24.4199 -14.7366
# 3 40.7023 26.3114 95.8385 -22.3219 -27.5788 -0.2852
# 4 -19.8429 -31.5615 -22.3219 40.4648 4.9820 -0.2872
# 5 -9.8635 -24.4199 -27.5788 4.9820 39.6964 -1.6828
# 6 -11.0692 -14.7366 -0.2852 -0.2872 -1.6828 30.5030
#
#
#
# Elastic Compliance Matrix: (Units=1/GPa)
#
#
# Indices 1 2 3 4 5 6 
#
# 1 0.020907 0.003731 -0.007291 0.008999 0.001698 0.009500
# 2 0.003731 0.035190 0.001209 0.027523 0.020798 0.019773
# 3 -0.007291 0.001209 0.017501 0.005743 0.010316 -0.001275
# 4 0.008999 0.027523 0.005743 0.051743 0.017429 0.018065
# 5 0.001698 0.020798 0.010316 0.017429 0.043953 0.013350
# 6 0.009500 0.019773 -0.001275 0.018065 0.013350 0.046678
#
#
# Mechanical properties :
#
#
# Convention : Reuss Voigt Hill
#
# Bulk Modulus (GPa) = 14.51464 45.86369 30.18917
# Shear Modulus (GPa) = 20.52212 32.56433 26.54323
#
# Velocity S-wave (km/s) = 3.04941 3.84127 3.46801
# Velocity P-wave (km/s) = 4.35606 6.36045 5.45118
#
# Compressibility (1/GPa) = 0.06889596
#
# Stress axis : x y z
#
# Youngs Moduli (GPa) = 47.83048 28.41737 57.13975
#
# Poissons Ratio (x) = -0.10602 0.41658
# Poissons Ratio (y) = -0.17844 -0.06908
# Poissons Ratio (z) = 0.34871 -0.03435
#
# Static dielectric constant tensor:
#      x y z
#    x 3.868590 0.129590 -0.285650 
#    y 0.129590 4.013390 -0.007960 
#    z -0.285650 -0.007960 4.014250 
# 
# 
# High freq. dielectric constant tensor:
#      x y z
#    x 1.848020 0.001250 -0.029260 
#    y 0.001250 1.870140 -0.002330 
#    z -0.029260 -0.002330 1.866520 
# 
# From -- ./inp_files/222506.got.cif
#   From: 2010.06.25/outbox.cif.g09.slc.cpg/sg2_112_cif.got.tgz:222506.got - 2010.06.27 13:26:56.
