data_PCOD8040918
_publ_section_title
;
Structure prediction by ZEFSAII (Michael W. Deem and Ramdas Pophale) SiO2 
 PCOD8040918
Probable space group: P -1
;
_chemical_formula_sum "Si O2"
_cell_formula_units_Z 16
_cell_length_a 7.343811
_cell_length_b 16.137792
_cell_length_c 9.353346
_cell_angle_alpha 57.878056
_cell_angle_beta 111.753680
_cell_angle_gamma 130.320819
_cell_volume 715.168482
_symmetry_space_group_name_H-M "P -1"
_symmetry_group_IT_number 2
_symmetry_cell_setting 'triclinic'
loop_
_space_group_symop_operation_xyz
x,y,z
-x,-y,-z
loop_
_atom_site_type_symbol
_atom_site_label
_atom_site_fract_x
_atom_site_fract_y
_atom_site_fract_z
Si Si1 0.605155 0.388801 0.835706
Si Si2 0.835613 0.216033 0.696302
Si Si3 0.940102 0.022410 0.306685
Si Si4 0.862037 0.660342 0.600975
Si Si5 0.145978 0.717105 0.900054
Si Si6 0.410722 0.236120 0.639031
Si Si7 0.837761 0.745147 0.982910
Si Si8 0.523303 0.035565 0.140612
O O1 0.696874 0.518390 0.688714
O O2 0.464458 0.294791 0.755002
O O3 0.831963 0.391062 0.955067
O O4 0.425516 0.352983 0.948643
O O5 0.644211 0.250235 0.626832
O O6 0.699888 0.076224 0.737380
O O7 0.036566 0.302518 0.563716
O O8 0.956966 0.223594 0.873163
O O9 0.152007 0.136557 0.173505
O O10 0.806273 0.903660 0.278812
O O11 0.762660 0.059789 0.255362
O O12 0.000000 0.000000 0.500000
O O13 0.691230 0.705155 0.544556
O O14 0.095559 0.718530 0.716076
O O15 0.903303 0.690466 0.923704
O O16 0.410937 0.833084 0.925120
O O17 0.500000 0.000000 0.000000
#
# Coordination Sequence:
#
# PCOD8040918 Si02
#       8
#     2   2   2   2   2   2   2   2
#     4  12  26  43  68  97 130 180 235 258 312 405
#     4  11  23  42  71  99 130 173 217 271 333 388
#     4  10  21  38  66 102 133 160 213 276 333 393
#     4  12  28  44  63 102 137 167 232 278 307 386
#     4  11  24  45  68  95 136 173 210 282 339 370
#     4  11  23  42  69  95 131 177 216 271 330 385
#     4  11  23  43  72  96 132 174 218 266 333 397
#     4  10  18  39  70  96 126 167 219 259 328 414
#
# _framework density 22.372351999999999
#
# number of rings (size 3 to 8) (size 9 to 14) (size 15 to 20)
#    0.000    1.000    5.000    3.000    0.000    7.000 
#    0.000    0.000    0.000    0.000    0.000    0.000 
#    0.000    0.000    0.000    0.000    0.000    0.000 
#
# Total GULP energy -198249.349492 kJ/mol
# GULP energy per Si atom -12390.584343 kJ/mol
# Density = 2.232143 g / cm^3
# Si number density = 22.372352 Si / 1000 Ang^3
#
#
#
# Elastic Constant Matrix: (Units=GPa)
#
#
# Indices 1 2 3 4 5 6 
#
# 1 86.8428 39.1620 39.5413 -20.0167 -0.2427 0.6028
# 2 39.1620 75.5349 37.2238 -26.6057 -2.3898 2.8687
# 3 39.5413 37.2238 126.5749 -20.2156 9.4898 10.1018
# 4 -20.0167 -26.6057 -20.2156 46.2412 8.3639 1.5548
# 5 -0.2427 -2.3898 9.4898 8.3639 37.0129 -6.0435
# 6 0.6028 2.8687 10.1018 1.5548 -6.0435 22.8990
#
#
#
# Elastic Compliance Matrix: (Units=1/GPa)
#
#
# Indices 1 2 3 4 5 6 
#
# 1 0.016159 -0.006234 -0.003058 0.001959 0.000315 0.001655
# 2 -0.006234 0.020730 -0.002690 0.008142 -0.000153 -0.001839
# 3 -0.003058 -0.002690 0.010925 0.002934 -0.004608 -0.005817
# 4 0.001959 0.008142 0.002934 0.030124 -0.008090 -0.006546
# 5 0.000315 -0.000153 -0.004608 -0.008090 0.031814 0.010989
# 6 0.001655 -0.001839 -0.005817 -0.006546 0.010989 0.049768
#
#
# Mechanical properties :
#
#
# Convention : Reuss Voigt Hill
#
# Bulk Modulus (GPa) = 41.92802 57.86743 49.89772
# Shear Modulus (GPa) = 26.11868 32.76566 29.44217
#
# Velocity S-wave (km/s) = 3.42051 3.83111 3.63162
# Velocity P-wave (km/s) = 5.86358 6.74475 6.31954
#
# Compressibility (1/GPa) = 0.02385040
#
# Stress axis : x y z
#
# Youngs Moduli (GPa) = 61.88330 48.24000 91.53273
#
# Poissons Ratio (x) = 0.30074 0.27987
# Poissons Ratio (y) = 0.38579 0.24623
# Poissons Ratio (z) = 0.18921 0.12977
#
# Static dielectric constant tensor:
#      x y z
#    x 4.373560 -1.151430 1.299100 
#    y -1.151430 7.258370 -2.962970 
#    z 1.299100 -2.962970 6.503110 
# 
# 
# High freq. dielectric constant tensor:
#      x y z
#    x 1.867730 0.000680 0.024050 
#    y 0.000680 1.881130 -0.006190 
#    z 0.024050 -0.006190 1.890520 
# 
# From -- ./inp_files/212295.got.cif
#   From: 2010.06.25/outbox.cif.g09.slc.cpg/sg2_107_cif.got.tgz:212295.got - 2010.06.27 13:26:56.
