data_PCOD8040315
_publ_section_title
;
Structure prediction by ZEFSAII (Michael W. Deem and Ramdas Pophale) SiO2 
 PCOD8040315
Probable space group: P -1
;
_chemical_formula_sum "Si O2"
_cell_formula_units_Z 16
_cell_length_a 8.688366
_cell_length_b 14.938971
_cell_length_c 8.088655
_cell_angle_alpha 67.417723
_cell_angle_beta 51.123112
_cell_angle_gamma 88.403053
_cell_volume 720.710678
_symmetry_space_group_name_H-M "P -1"
_symmetry_group_IT_number 2
_symmetry_cell_setting 'triclinic'
loop_
_space_group_symop_operation_xyz
x,y,z
-x,-y,-z
loop_
_atom_site_type_symbol
_atom_site_label
_atom_site_fract_x
_atom_site_fract_y
_atom_site_fract_z
Si Si1 0.792128 0.319286 0.981548
Si Si2 0.111588 0.225014 0.912998
Si Si3 0.998644 0.837768 0.340061
Si Si4 0.332936 0.498189 0.976613
Si Si5 0.842048 0.956095 0.782141
Si Si6 0.913223 0.360963 0.511366
Si Si7 0.591510 0.807240 0.834666
Si Si8 0.527020 0.635584 0.251064
O O1 0.684826 0.388282 0.111736
O O2 0.910844 0.383704 0.695225
O O3 0.945723 0.285302 0.026467
O O4 0.623630 0.214971 0.104049
O O5 0.067913 0.193094 0.777747
O O6 0.339998 0.304809 0.726582
O O7 0.074234 0.125191 0.118414
O O8 0.786850 0.841876 0.560807
O O9 0.098664 0.757801 0.415180
O O10 0.166193 0.950175 0.161344
O O11 0.113290 0.426215 0.235494
O O12 0.500000 0.500000 0.000000
O O13 0.409759 0.466163 0.769486
O O14 0.618377 0.895823 0.893883
O O15 0.000000 0.000000 0.500000
O O16 0.716506 0.383250 0.538795
O O17 0.591525 0.702067 0.994281
#
# Coordination Sequence:
#
# PCOD8040315 Si02
#       8
#     2   2   2   2   2   2   2   2
#     4  10  21  36  60  87 123 161 195 255 301 348
#     4  10  22  39  54  87 131 149 199 255 303 356
#     4  10  18  36  61  88 119 162 194 252 311 348
#     4  12  20  36  66  89 118 165 208 243 294 356
#     4   9  19  36  64  86 116 160 204 247 300 366
#     4  10  20  36  61  91 118 155 215 240 292 358
#     4   9  17  37  58  88 117 156 207 244 291 359
#     4  10  21  38  58  86 125 160 200 254 284 355
#
# _framework density 22.200309000000001
#
# number of rings (size 3 to 8) (size 9 to 14) (size 15 to 20)
#    0.000    2.000    3.750    0.750    0.000    0.500 
#    2.250   14.375    0.000    0.000    0.000    0.000 
#    0.000    0.000    0.000    0.000    0.000    0.000 
#
# Total GULP energy -198280.115891 kJ/mol
# GULP energy per Si atom -12392.507243 kJ/mol
# Density = 2.214978 g / cm^3
# Si number density = 22.200309 Si / 1000 Ang^3
#
#
#
# Elastic Constant Matrix: (Units=GPa)
#
#
# Indices 1 2 3 4 5 6 
#
# 1 127.3672 71.2108 32.3518 -5.1111 -30.7542 -3.1017
# 2 71.2108 135.1031 24.3914 -2.9855 -18.3266 11.0171
# 3 32.3518 24.3914 50.3390 1.5658 -27.4335 1.4684
# 4 -5.1111 -2.9855 1.5658 25.3506 0.5860 -1.4446
# 5 -30.7542 -18.3266 -27.4335 0.5860 27.2508 0.0034
# 6 -3.1017 11.0171 1.4684 -1.4446 0.0034 31.8826
#
#
#
# Elastic Compliance Matrix: (Units=1/GPa)
#
#
# Indices 1 2 3 4 5 6 
#
# 1 0.014403 -0.006225 0.000314 0.002073 0.012339 0.003630
# 2 -0.006225 0.011209 -0.002266 -0.000003 -0.001768 -0.004374
# 3 0.000314 -0.002266 0.045067 -0.004094 0.044288 -0.001452
# 4 0.002073 -0.000003 -0.004094 0.040305 -0.002651 0.002218
# 5 0.012339 -0.001768 0.044288 -0.002651 0.094074 -0.000359
# 6 0.003630 -0.004374 -0.001452 0.002218 -0.000359 0.033397
#
#
# Mechanical properties :
#
#
# Convention : Reuss Voigt Hill
#
# Bulk Modulus (GPa) = 18.40789 63.19082 40.79936
# Shear Modulus (GPa) = 18.32060 29.22050 23.77055
#
# Velocity S-wave (km/s) = 2.87582 3.63191 3.27575
# Velocity P-wave (km/s) = 4.39737 6.79069 5.72059
#
# Compressibility (1/GPa) = 0.05432453
#
# Stress axis : x y z
#
# Youngs Moduli (GPa) = 69.43109 89.21697 22.18918
#
# Poissons Ratio (x) = 0.55534 -0.00697
# Poissons Ratio (y) = 0.43218 0.05029
# Poissons Ratio (z) = -0.02180 0.20219
#
# Static dielectric constant tensor:
#      x y z
#    x 4.349580 -0.056150 -0.179080 
#    y -0.056150 5.063480 -0.269190 
#    z -0.179080 -0.269190 3.778840 
# 
# 
# High freq. dielectric constant tensor:
#      x y z
#    x 1.867870 0.009630 -0.015920 
#    y 0.009630 1.886650 -0.004430 
#    z -0.015920 -0.004430 1.847920 
# 
# From -- ./inp_files/200621.got.cif
#   From: 2010.06.25/outbox.cif.g09.slc.cpg/sg2_101_cif.got.tgz:200621.got - 2010.06.27 13:26:56.
