data_PCOD8040872
_publ_section_title
;
Structure prediction by ZEFSAII (Michael W. Deem and Ramdas Pophale) SiO2 
 PCOD8040872
Probable space group: P -1
;
_chemical_formula_sum "Si O2"
_cell_formula_units_Z 12
_cell_length_a 9.246660
_cell_length_b 14.325616
_cell_length_c 8.841782
_cell_angle_alpha 126.125516
_cell_angle_beta 91.865919
_cell_angle_gamma 50.494597
_cell_volume 609.820241
_symmetry_space_group_name_H-M "P -1"
_symmetry_group_IT_number 2
_symmetry_cell_setting 'triclinic'
loop_
_space_group_symop_operation_xyz
x,y,z
-x,-y,-z
loop_
_atom_site_type_symbol
_atom_site_label
_atom_site_fract_x
_atom_site_fract_y
_atom_site_fract_z
Si Si1 0.917596 0.705377 0.056642
Si Si2 0.850976 0.332752 0.388168
Si Si3 0.606430 0.548854 0.116488
Si Si4 0.436757 0.701980 0.566840
Si Si5 0.318279 0.030859 0.944553
Si Si6 0.894094 0.464102 0.803097
O O1 0.896562 0.696012 0.228993
O O2 0.719021 0.903000 0.166871
O O3 0.921771 0.577183 0.850463
O O4 0.155473 0.625455 0.959475
O O5 0.669579 0.511265 0.454593
O O6 0.768313 0.253878 0.346699
O O7 0.891948 0.374541 0.584576
O O8 0.083711 0.184894 0.168452
O O9 0.443358 0.704109 0.385472
O O10 0.500000 0.500000 0.000000
O O11 0.661535 0.599433 0.023956
O O12 0.402528 0.848920 0.775137
O O13 0.500000 0.000000 0.000000
#
# Coordination Sequence:
#
# PCOD8040872 Si02
#       6
#     2   2   2   2   2   2
#     4   9  20  39  59  88 127 155 204 252 298 365
#     4  11  22  42  63  90 125 161 211 253 306 365
#     4  10  18  39  65  93 113 159 208 246 312 358
#     4  11  23  40  67  88 126 165 201 260 307 361
#     4  12  26  39  61  95 127 166 205 248 308 370
#     4   9  19  36  67  84 120 165 196 257 305 356
#
# _framework density 19.67793
#
# number of rings (size 3 to 8) (size 9 to 14) (size 15 to 20)
#    1.000    0.667    3.333    1.500    2.333    1.333 
#    0.000    8.333    0.000    0.000    0.000    0.000 
#    0.000    0.000    0.000    0.000    0.000    0.000 
#
# Total GULP energy -148677.320029 kJ/mol
# GULP energy per Si atom -12389.776669 kJ/mol
# Density = 1.963314 g / cm^3
# Si number density = 19.677930 Si / 1000 Ang^3
#
#
#
# Elastic Constant Matrix: (Units=GPa)
#
#
# Indices 1 2 3 4 5 6 
#
# 1 139.3045 39.5660 56.5165 6.9586 27.7461 -13.9182
# 2 39.5660 44.8119 27.4758 -4.2465 10.1839 1.5291
# 3 56.5165 27.4758 103.1555 -5.8115 13.8846 -0.3081
# 4 6.9586 -4.2465 -5.8115 23.9810 -1.8555 1.7904
# 5 27.7461 10.1839 13.8846 -1.8555 40.8054 -0.5531
# 6 -13.9182 1.5291 -0.3081 1.7904 -0.5531 26.8915
#
#
#
# Elastic Compliance Matrix: (Units=1/GPa)
#
#
# Indices 1 2 3 4 5 6 
#
# 1 0.014210 -0.009196 -0.004965 -0.008028 -0.005931 0.008233
# 2 -0.009196 0.033720 -0.003399 0.008303 -0.000727 -0.007283
# 3 -0.004965 -0.003399 0.013587 0.004301 -0.000237 -0.002512
# 4 -0.008028 0.008303 0.004301 0.047421 0.003976 -0.007654
# 5 -0.005931 -0.000727 -0.000237 0.003976 0.028946 -0.002700
# 6 0.008233 -0.007283 -0.002512 -0.007654 -0.002700 0.042287
#
#
# Mechanical properties :
#
#
# Convention : Reuss Voigt Hill
#
# Bulk Modulus (GPa) = 37.88559 59.37652 48.63106
# Shear Modulus (GPa) = 22.31265 29.24984 25.78125
#
# Velocity S-wave (km/s) = 3.37098 3.85961 3.62354
# Velocity P-wave (km/s) = 5.86907 7.07826 6.50184
#
# Compressibility (1/GPa) = 0.02639526
#
# Stress axis : x y z
#
# Youngs Moduli (GPa) = 70.37456 29.65641 73.60229
#
# Poissons Ratio (x) = 0.27271 0.36545
# Poissons Ratio (y) = 0.64714 0.25020
# Poissons Ratio (z) = 0.34943 0.10081
#
# Static dielectric constant tensor:
#      x y z
#    x 3.807760 -0.013060 -0.032860 
#    y -0.013060 3.554700 -0.235760 
#    z -0.032860 -0.235760 3.436460 
# 
# 
# High freq. dielectric constant tensor:
#      x y z
#    x 1.787220 -0.002430 0.008000 
#    y -0.002430 1.751940 -0.027540 
#    z 0.008000 -0.027540 1.749180 
# 
# From -- ./inp_files/194434.got.cif
#   From: 2010.06.25/outbox.cif.g09.slc.cpg/sg2_98_cif.got.tgz:194434.got - 2010.06.27 13:26:56.
