data_PCOD8040251
_publ_section_title
;
Structure prediction by ZEFSAII (Michael W. Deem and Ramdas Pophale) SiO2 
 PCOD8040251
Probable space group: P -1
;
_chemical_formula_sum "Si O2"
_cell_formula_units_Z 16
_cell_length_a 6.742222
_cell_length_b 14.215188
_cell_length_c 9.767214
_cell_angle_alpha 66.361165
_cell_angle_beta 105.254189
_cell_angle_gamma 78.171941
_cell_volume 774.619446
_symmetry_space_group_name_H-M "P -1"
_symmetry_group_IT_number 2
_symmetry_cell_setting 'triclinic'
loop_
_space_group_symop_operation_xyz
x,y,z
-x,-y,-z
loop_
_atom_site_type_symbol
_atom_site_label
_atom_site_fract_x
_atom_site_fract_y
_atom_site_fract_z
Si Si1 0.958053 0.371196 0.359996
Si Si2 0.712619 0.908602 0.141823
Si Si3 0.280680 0.976460 0.671393
Si Si4 0.771692 0.827499 0.914270
Si Si5 0.628342 0.703817 0.351689
Si Si6 0.870196 0.608865 0.185922
Si Si7 0.708339 0.390272 0.586064
Si Si8 0.019917 0.157742 0.330370
O O1 0.881208 0.489948 0.201073
O O2 0.809999 0.371349 0.464513
O O3 0.207984 0.349004 0.462749
O O4 0.944842 0.279194 0.307371
O O5 0.628402 0.824438 0.256852
O O6 0.833032 0.961052 0.243932
O O7 0.853486 0.854658 0.063550
O O8 0.500000 0.000000 0.000000
O O9 0.537493 0.913831 0.777405
O O10 0.177386 0.887407 0.658675
O O11 0.236492 0.071619 0.492619
O O12 0.944171 0.832657 0.829823
O O13 0.767362 0.703514 0.997607
O O14 0.712223 0.629154 0.276610
O O15 0.383057 0.708433 0.341567
O O16 0.108848 0.609988 0.270936
O O17 0.500000 0.500000 0.500000
#
# Coordination Sequence:
#
# PCOD8040251 Si02
#       8
#     2   2   2   2   2   2   2   2
#     4  11  21  37  59  91 124 159 203 251 299 363
#     4   9  19  38  63  90 117 154 202 255 301 350
#     4  10  22  45  63  88 122 163 216 252 294 362
#     4  10  23  41  63  90 125 166 195 253 320 360
#     4  10  18  36  59  89 123 153 197 258 299 354
#     4  10  21  36  60  92 127 152 204 255 303 365
#     4  11  19  35  63  93 119 163 206 250 304 359
#     4  11  24  41  64  89 127 164 207 252 297 375
#
# _framework density 20.655304999999998
#
# number of rings (size 3 to 8) (size 9 to 14) (size 15 to 20)
#    0.000    1.750    3.750    1.125    0.000    5.000 
#    9.000    0.625    0.000    0.000    0.000    0.000 
#    0.000    0.000    0.000    0.000    0.000    0.000 
#
# Total GULP energy -198295.740980 kJ/mol
# GULP energy per Si atom -12393.483811 kJ/mol
# Density = 2.060829 g / cm^3
# Si number density = 20.655305 Si / 1000 Ang^3
#
#
#
# Elastic Constant Matrix: (Units=GPa)
#
#
# Indices 1 2 3 4 5 6 
#
# 1 75.5713 21.9430 7.7672 10.5117 -6.2601 -0.0689
# 2 21.9430 132.4121 37.5923 -10.9614 -7.9287 9.1150
# 3 7.7672 37.5923 73.8531 -1.5920 -13.4901 0.8828
# 4 10.5117 -10.9614 -1.5920 28.3830 -4.5476 2.3547
# 5 -6.2601 -7.9287 -13.4901 -4.5476 23.1628 -0.7316
# 6 -0.0689 9.1150 0.8828 2.3547 -0.7316 20.4173
#
#
#
# Elastic Compliance Matrix: (Units=1/GPa)
#
#
# Indices 1 2 3 4 5 6 
#
# 1 0.015235 -0.003183 0.000189 -0.006751 0.001886 0.002310
# 2 -0.003183 0.010208 -0.004519 0.005426 0.000911 -0.004966
# 3 0.000189 -0.004519 0.017416 0.000442 0.008783 0.001529
# 4 -0.006751 0.005426 0.000442 0.041757 0.008268 -0.006984
# 5 0.001886 0.000911 0.008783 0.008268 0.050735 0.000084
# 6 0.002310 -0.004966 0.001529 -0.006984 0.000084 0.051945
#
#
# Mechanical properties :
#
#
# Convention : Reuss Voigt Hill
#
# Bulk Modulus (GPa) = 35.92766 46.27128 41.09947
# Shear Modulus (GPa) = 23.62963 28.69488 26.16226
#
# Velocity S-wave (km/s) = 3.38597 3.73128 3.56281
# Velocity P-wave (km/s) = 5.71997 6.40418 6.07172
#
# Compressibility (1/GPa) = 0.02783371
#
# Stress axis : x y z
#
# Youngs Moduli (GPa) = 65.63971 97.96143 57.41834
#
# Poissons Ratio (x) = 0.31185 -0.01088
# Poissons Ratio (y) = 0.20896 0.25945
# Poissons Ratio (z) = -0.01244 0.44265
#
# Static dielectric constant tensor:
#      x y z
#    x 3.618810 -0.067910 -0.109920 
#    y -0.067910 4.187080 0.057210 
#    z -0.109920 0.057210 4.011300 
# 
# 
# High freq. dielectric constant tensor:
#      x y z
#    x 1.782500 0.001080 -0.005170 
#    y 0.001080 1.821100 -0.020380 
#    z -0.005170 -0.020380 1.802750 
# 
# From -- ./inp_files/135018.got.cif
#   From: 2010.06.25/outbox.cif.g09.slc.cpg/sg2_68_cif.got.tgz:135018.got - 2010.06.27 13:26:56.
