data_PCOD8040347
_publ_section_title
;
Structure prediction by ZEFSAII (Michael W. Deem and Ramdas Pophale) SiO2 
 PCOD8040347
Probable space group: P -1
;
_chemical_formula_sum "Si O2"
_cell_formula_units_Z 16
_cell_length_a 16.349553
_cell_length_b 11.364628
_cell_length_c 12.410863
_cell_angle_alpha 131.656494
_cell_angle_beta 26.737869
_cell_angle_gamma 122.943157
_cell_volume 766.611591
_symmetry_space_group_name_H-M "P -1"
_symmetry_group_IT_number 2
_symmetry_cell_setting 'triclinic'
loop_
_space_group_symop_operation_xyz
x,y,z
-x,-y,-z
loop_
_atom_site_type_symbol
_atom_site_label
_atom_site_fract_x
_atom_site_fract_y
_atom_site_fract_z
Si Si1 0.570220 0.246457 0.202946
Si Si2 0.825504 0.713482 0.378605
Si Si3 0.597963 0.333295 0.628032
Si Si4 0.856826 0.349537 0.517832
Si Si5 0.700314 0.884372 0.841043
Si Si6 0.214937 0.647537 0.793610
Si Si7 0.411075 0.677142 0.009326
Si Si8 0.773221 0.714329 0.869523
O O1 0.352782 0.229050 0.452106
O O2 0.639114 0.352269 0.281005
O O3 0.612866 0.337711 0.099266
O O4 0.688702 0.072949 0.961497
O O5 0.827369 0.806430 0.546253
O O6 0.816369 0.530324 0.307084
O O7 0.012324 0.742015 0.115983
O O8 0.746689 0.274767 0.508847
O O9 0.692971 0.272591 0.366681
O O10 0.542498 0.524107 0.808967
O O11 0.417683 0.254151 0.820543
O O12 0.785878 0.308670 0.694775
O O13 0.825527 0.538668 0.651074
O O14 0.069051 0.267644 0.216589
O O15 0.777098 0.835081 0.839208
O O16 0.499727 0.833301 0.029767
#
# Coordination Sequence:
#
# PCOD8040347 Si02
#       8
#     2   2   2   2   2   2   2   2
#     4  11  24  39  60  94 126 161 193 246 313 362
#     4  10  22  40  62  89 123 157 205 245 296 357
#     4  11  19  38  60  85 123 152 200 253 292 350
#     4  10  19  34  60  90 115 152 209 259 293 334
#     4  11  20  41  62  90 129 154 198 253 305 359
#     4  11  23  39  62  91 124 163 199 246 297 364
#     4  10  18  36  62  87 121 156 198 252 303 344
#     4  10  20  34  59  92 113 156 203 255 297 343
#
# _framework density 20.871064000000001
#
# number of rings (size 3 to 8) (size 9 to 14) (size 15 to 20)
#    0.000    1.500    5.000    2.625    1.750    1.500 
#    6.750    0.625    0.000    1.500    0.000    0.000 
#    0.000    0.000    0.000    0.000    0.000    0.000 
#
# Total GULP energy -198349.996288 kJ/mol
# GULP energy per Si atom -12396.874768 kJ/mol
# Density = 2.082356 g / cm^3
# Si number density = 20.871064 Si / 1000 Ang^3
#
#
#
# Elastic Constant Matrix: (Units=GPa)
#
#
# Indices 1 2 3 4 5 6 
#
# 1 141.2562 15.6432 72.6638 -31.3772 -13.8450 -8.5323
# 2 15.6432 25.0455 30.5668 -7.2410 -4.8767 -4.1717
# 3 72.6638 30.5668 128.4557 -31.0762 -7.7481 -6.2834
# 4 -31.3772 -7.2410 -31.0762 29.0123 2.5100 -1.6657
# 5 -13.8450 -4.8767 -7.7481 2.5100 26.2946 -3.3739
# 6 -8.5323 -4.1717 -6.2834 -1.6657 -3.3739 19.2538
#
#
#
# Elastic Compliance Matrix: (Units=1/GPa)
#
#
# Indices 1 2 3 4 5 6 
#
# 1 0.012004 0.002873 -0.004815 0.008422 0.005407 0.006047
# 2 0.002873 0.059917 -0.014039 0.002851 0.009707 0.011622
# 3 -0.004815 -0.014039 0.015827 0.008375 -0.001210 0.000502
# 4 0.008422 0.002851 0.008375 0.053633 0.003903 0.012407
# 5 0.005407 0.009707 -0.001210 0.003903 0.043496 0.012064
# 6 0.006047 0.011622 0.000502 0.012407 0.012064 0.060487
#
#
# Mechanical properties :
#
#
# Convention : Reuss Voigt Hill
#
# Bulk Modulus (GPa) = 17.92554 59.16720 38.54637
# Shear Modulus (GPa) = 16.89647 26.63773 21.76710
#
# Velocity S-wave (km/s) = 2.84837 3.57641 3.23295
# Velocity P-wave (km/s) = 4.40738 6.74275 5.69604
#
# Compressibility (1/GPa) = 0.05578632
#
# Stress axis : x y z
#
# Youngs Moduli (GPa) = 83.30794 16.68975 63.18472
#
# Poissons Ratio (x) = -0.04795 0.30421
# Poissons Ratio (y) = -0.23937 0.88706
# Poissons Ratio (z) = 0.40110 0.23431
#
# Static dielectric constant tensor:
#      x y z
#    x 3.779380 -0.114870 -0.084500 
#    y -0.114870 3.507760 -0.264600 
#    z -0.084500 -0.264600 3.887110 
# 
# 
# High freq. dielectric constant tensor:
#      x y z
#    x 1.817300 -0.006600 -0.007960 
#    y -0.006600 1.790450 -0.021020 
#    z -0.007960 -0.021020 1.808650 
# 
# From -- ./inp_files/451719.got.cif
#   From: 2010.06.25/outbox.cif.g09.slc.cpg/sg2_226_cif.got.tgz:451719.got - 2010.06.27 13:26:56.
