data_PCOD8040633
_publ_section_title
;
Structure prediction by ZEFSAII (Michael W. Deem and Ramdas Pophale) SiO2 
 PCOD8040633
Probable space group: P -1
;
_chemical_formula_sum "Si O2"
_cell_formula_units_Z 14
_cell_length_a 9.120641
_cell_length_b 7.579706
_cell_length_c 9.758589
_cell_angle_alpha 63.904236
_cell_angle_beta 77.461357
_cell_angle_gamma 84.430842
_cell_volume 591.406296
_symmetry_space_group_name_H-M "P -1"
_symmetry_group_IT_number 2
_symmetry_cell_setting 'triclinic'
loop_
_space_group_symop_operation_xyz
x,y,z
-x,-y,-z
loop_
_atom_site_type_symbol
_atom_site_label
_atom_site_fract_x
_atom_site_fract_y
_atom_site_fract_z
Si Si1 0.434234 0.493706 0.164277
Si Si2 0.426456 0.145329 0.857545
Si Si3 0.622141 0.939461 0.690813
Si Si4 0.896642 0.855611 0.166930
Si Si5 0.098510 0.480965 0.224241
Si Si6 0.127520 0.112531 0.534932
Si Si7 0.100412 0.130406 0.181653
O O1 0.442937 0.266001 0.284733
O O2 0.263904 0.576485 0.165055
O O3 0.500000 0.500000 0.000000
O O4 0.529918 0.628721 0.201520
O O5 0.489629 0.087310 0.711953
O O6 0.245001 0.122099 0.914691
O O7 0.500000 0.000000 0.000000
O O8 0.734718 0.009361 0.523358
O O9 0.721630 0.905905 0.822470
O O10 0.978146 0.650637 0.197552
O O11 0.820059 0.844220 0.335024
O O12 0.020195 0.045242 0.086073
O O13 0.088604 0.322858 0.403246
O O14 0.071779 0.363267 0.125764
O O15 0.976968 0.976926 0.631302
#
# Coordination Sequence:
#
# PCOD8040633 Si02
#       7
#     2   2   2   2   2   2   2
#     4  10  21  41  63  83 115 165 202 238 298 347
#     4  12  25  41  61  80 121 167 201 251 289 348
#     4  10  19  39  64  87 118 157 199 234 305 352
#     4  10  22  37  59  96 119 149 204 239 305 350
#     4  10  18  37  66  90 120 154 193 245 296 357
#     4   8  18  37  65  92 120 151 188 247 296 359
#     4   8  18  36  62  91 116 153 189 242 296 353
#
# _framework density 23.672388999999999
#
# number of rings (size 3 to 8) (size 9 to 14) (size 15 to 20)
#    0.857    1.714    1.429    3.000    0.000    1.714 
#    5.143    6.429    0.000    0.000    0.000    0.000 
#    0.000    0.000    0.000    0.000    0.000    0.000 
#
# Total GULP energy -173452.756265 kJ/mol
# GULP energy per Si atom -12389.482590 kJ/mol
# Density = 2.361851 g / cm^3
# Si number density = 23.672389 Si / 1000 Ang^3
#
#
#
# Elastic Constant Matrix: (Units=GPa)
#
#
# Indices 1 2 3 4 5 6 
#
# 1 155.2493 80.5616 42.0296 0.3249 -17.2100 8.2683
# 2 80.5616 143.8848 12.0503 10.6584 -9.9898 17.2471
# 3 42.0296 12.0503 41.3477 -1.2660 -10.1739 6.9087
# 4 0.3249 10.6584 -1.2660 27.7909 2.4501 -5.4543
# 5 -17.2100 -9.9898 -10.1739 2.4501 37.4478 4.7118
# 6 8.2683 17.2471 6.9087 -5.4543 4.7118 47.4520
#
#
#
# Elastic Compliance Matrix: (Units=1/GPa)
#
#
# Indices 1 2 3 4 5 6 
#
# 1 0.012903 -0.006633 -0.011274 0.002208 0.000703 0.001988
# 2 -0.006633 0.011339 0.004537 -0.005118 0.002100 -0.004423
# 3 -0.011274 0.004537 0.036971 -0.001703 0.006934 -0.005952
# 4 0.002208 -0.005118 -0.001703 0.039529 -0.004241 0.006688
# 5 0.000703 0.002100 0.006934 -0.004241 0.030428 -0.005404
# 6 0.001988 -0.004423 -0.005952 0.006688 -0.005404 0.024507
#
#
# Mechanical properties :
#
#
# Convention : Reuss Voigt Hill
#
# Bulk Modulus (GPa) = 29.00846 67.75167 48.38006
# Shear Modulus (GPa) = 25.78527 36.26083 31.02305
#
# Velocity S-wave (km/s) = 3.30397 3.91804 3.62403
# Velocity P-wave (km/s) = 5.18032 7.01076 6.16386
#
# Compressibility (1/GPa) = 0.03447270
#
# Stress axis : x y z
#
# Youngs Moduli (GPa) = 77.50158 88.19036 27.04796
#
# Poissons Ratio (x) = 0.58499 0.30494
# Poissons Ratio (y) = 0.51409 -0.12272
# Poissons Ratio (z) = 0.87377 -0.40013
#
# Static dielectric constant tensor:
#      x y z
#    x 4.330870 0.329520 -0.335420 
#    y 0.329520 3.950730 0.823440 
#    z -0.335420 0.823440 3.984280 
# 
# 
# High freq. dielectric constant tensor:
#      x y z
#    x 1.937450 0.019510 -0.026580 
#    y 0.019510 1.941640 0.032470 
#    z -0.026580 0.032470 1.946640 
# 
# From -- ./inp_files/375561.got.cif
#   From: 2010.06.25/outbox.cif.g09.slc.cpg/sg2_188_cif.got.tgz:375561.got - 2010.06.27 13:26:56.
