data_PCOD8040735
_publ_section_title
;
Structure prediction by ZEFSAII (Michael W. Deem and Ramdas Pophale) SiO2 
 PCOD8040735
Probable space group: P -1
;
_chemical_formula_sum "Si O2"
_cell_formula_units_Z 16
_cell_length_a 15.619038
_cell_length_b 14.887728
_cell_length_c 9.842979
_cell_angle_alpha 135.346779
_cell_angle_beta 142.075272
_cell_angle_gamma 34.570856
_cell_volume 785.581676
_symmetry_space_group_name_H-M "P -1"
_symmetry_group_IT_number 2
_symmetry_cell_setting 'triclinic'
loop_
_space_group_symop_operation_xyz
x,y,z
-x,-y,-z
loop_
_atom_site_type_symbol
_atom_site_label
_atom_site_fract_x
_atom_site_fract_y
_atom_site_fract_z
Si Si1 0.188611 0.886646 0.552592
Si Si2 0.361802 0.193323 0.045746
Si Si3 0.306163 0.666172 0.223099
Si Si4 0.478309 0.302599 0.086452
Si Si5 0.722299 0.687647 0.400407
Si Si6 0.183685 0.109687 0.566903
Si Si7 0.961655 0.313439 0.278158
Si Si8 0.499913 0.191071 0.480562
O O1 0.240613 0.731315 0.364881
O O2 0.311617 0.830416 0.779814
O O3 0.201033 0.987713 0.563989
O O4 0.000000 0.000000 0.500000
O O5 0.188093 0.238299 0.800450
O O6 0.416175 0.294175 0.148880
O O7 0.343509 0.245930 0.235991
O O8 0.500000 0.000000 0.000000
O O9 0.430474 0.474207 0.178670
O O10 0.417208 0.714565 0.338784
O O11 0.129923 0.734465 0.990048
O O12 0.394089 0.253640 0.818767
O O13 0.827935 0.498535 0.351341
O O14 0.583460 0.780030 0.446041
O O15 0.860265 0.727386 0.608101
O O16 0.008688 0.210937 0.365661
O O17 0.347705 0.000125 0.550931
#
# Coordination Sequence:
#
# PCOD8040735 Si02
#       8
#     2   2   2   2   2   2   2   2
#     4  11  24  38  60  94 122 156 201 253 305 357
#     4  10  18  38  63  84 116 155 204 244 294 351
#     4  10  23  40  61  88 124 164 197 245 307 362
#     4  11  20  40  67  82 120 163 202 243 297 366
#     4  10  23  39  62  92 116 162 207 247 293 356
#     4  10  21  40  61  83 120 164 195 251 301 354
#     4  10  22  40  59  86 131 154 196 254 307 347
#     4  10  22  38  61  91 116 157 213 241 295 367
#
# _framework density 20.367075
#
# number of rings (size 3 to 8) (size 9 to 14) (size 15 to 20)
#    0.000    1.750    5.000    0.375    0.000    8.500 
#    0.000    0.625    0.000    0.000    0.000    0.000 
#    0.000    0.000    0.000    0.000    0.000    0.000 
#
# Total GULP energy -198244.723072 kJ/mol
# GULP energy per Si atom -12390.295192 kJ/mol
# Density = 2.032072 g / cm^3
# Si number density = 20.367075 Si / 1000 Ang^3
#
#
#
# Elastic Constant Matrix: (Units=GPa)
#
#
# Indices 1 2 3 4 5 6 
#
# 1 65.2676 30.5730 48.5117 -6.7499 -5.4300 -14.6013
# 2 30.5730 68.6177 42.9474 -26.1717 -2.0184 10.1805
# 3 48.5117 42.9474 130.9862 -24.7612 -3.7487 5.0000
# 4 -6.7499 -26.1717 -24.7612 38.7848 7.2366 -0.5605
# 5 -5.4300 -2.0184 -3.7487 7.2366 26.1028 0.1102
# 6 -14.6013 10.1805 5.0000 -0.5605 0.1102 32.1912
#
#
#
# Elastic Compliance Matrix: (Units=1/GPa)
#
#
# Indices 1 2 3 4 5 6 
#
# 1 0.036349 -0.017971 -0.010870 -0.013963 0.008382 0.023587
# 2 -0.017971 0.032518 0.000269 0.019965 -0.006644 -0.018106
# 3 -0.010870 0.000269 0.013089 0.006968 -0.002263 -0.006919
# 4 -0.013963 0.019965 0.006968 0.043389 -0.012334 -0.012932
# 5 0.008382 -0.006644 -0.002263 -0.012334 0.042610 0.005894
# 6 0.023587 -0.018106 -0.006919 -0.012932 0.005894 0.048318
#
#
# Mechanical properties :
#
#
# Convention : Reuss Voigt Hill
#
# Bulk Modulus (GPa) = 40.30340 56.54841 48.42591
# Shear Modulus (GPa) = 17.75022 28.93838 23.34430
#
# Velocity S-wave (km/s) = 2.95535 3.77349 3.38920
# Velocity P-wave (km/s) = 5.61043 6.84183 6.25650
#
# Compressibility (1/GPa) = 0.02481180
#
# Stress axis : x y z
#
# Youngs Moduli (GPa) = 27.51119 30.75210 76.40255
#
# Poissons Ratio (x) = 0.55264 0.83049
# Poissons Ratio (y) = 0.49440 -0.02054
# Poissons Ratio (z) = 0.29904 -0.00827
#
# Static dielectric constant tensor:
#      x y z
#    x 3.143860 0.232100 0.005700 
#    y 0.232100 3.626860 -0.156500 
#    z 0.005700 -0.156500 4.305760 
# 
# 
# High freq. dielectric constant tensor:
#      x y z
#    x 1.772700 0.024350 -0.002180 
#    y 0.024350 1.788630 -0.009250 
#    z -0.002180 -0.009250 1.816770 
# 
# From -- ./inp_files/274585.got.cif
#   From: 2010.06.25/outbox.cif.g09.slc.cpg/sg2_138_cif.got.tgz:274585.got - 2010.06.27 13:26:56.
