data_PCOD8040708
_publ_section_title
;
Structure prediction by ZEFSAII (Michael W. Deem and Ramdas Pophale) SiO2 
 PCOD8040708
Probable space group: P -1
;
_chemical_formula_sum "Si O2"
_cell_formula_units_Z 16
_cell_length_a 11.986165
_cell_length_b 23.616612
_cell_length_c 6.526551
_cell_angle_alpha 107.532677
_cell_angle_beta 99.883425
_cell_angle_gamma 143.111981
_cell_volume 732.914603
_symmetry_space_group_name_H-M "P -1"
_symmetry_group_IT_number 2
_symmetry_cell_setting 'triclinic'
loop_
_space_group_symop_operation_xyz
x,y,z
-x,-y,-z
loop_
_atom_site_type_symbol
_atom_site_label
_atom_site_fract_x
_atom_site_fract_y
_atom_site_fract_z
Si Si1 0.464509 0.783527 0.275279
Si Si2 0.435911 0.647889 0.961477
Si Si3 0.024451 0.102644 0.776424
Si Si4 0.338306 0.820305 0.590383
Si Si5 0.901476 0.134607 0.095758
Si Si6 0.999844 0.723034 0.047054
Si Si7 0.043304 0.639692 0.691987
Si Si8 0.790529 0.715476 0.246241
O O1 0.384447 0.777403 0.454995
O O2 0.395090 0.680225 0.153511
O O3 0.303162 0.734231 0.979952
O O4 0.783088 0.941300 0.505568
O O5 0.168544 0.512246 0.596459
O O6 0.680808 0.786557 0.041824
O O7 0.510303 0.619523 0.060737
O O8 0.985405 0.135014 0.624573
O O9 0.023512 0.133310 0.031213
O O10 0.225061 0.811548 0.376625
O O11 0.135749 0.717857 0.602430
O O12 0.613117 0.980437 0.930640
O O13 0.106872 0.254086 0.465079
O O14 0.864896 0.169301 0.957936
O O15 0.760941 0.642700 0.011850
O O16 0.895693 0.615443 0.774896
#
# Coordination Sequence:
#
# PCOD8040708 Si02
#       8
#     2   2   2   2   2   2   2   2
#     4  10  20  41  63  85 116 152 198 242 284 339
#     4  10  22  41  59  86 121 154 192 241 288 343
#     4   8  19  37  60  88 114 148 193 241 284 338
#     4  10  22  37  59  91 117 150 195 240 290 345
#     4  10  18  38  61  88 116 151 193 241 292 340
#     4  10  21  38  59  86 117 152 194 246 284 341
#     4  11  23  39  59  86 120 158 192 234 293 347
#     4   9  20  36  57  90 116 149 191 238 289 343
#
# _framework density 21.830649000000001
#
# number of rings (size 3 to 8) (size 9 to 14) (size 15 to 20)
#    0.750    1.500    0.000    2.625    0.000    5.000 
#    6.750    2.500    0.000    0.000    0.000    0.000 
#    0.000    0.000    0.000    0.000    0.000    0.000 
#
# Total GULP energy -198271.050337 kJ/mol
# GULP energy per Si atom -12391.940646 kJ/mol
# Density = 2.178096 g / cm^3
# Si number density = 21.830649 Si / 1000 Ang^3
#
#
#
# Elastic Constant Matrix: (Units=GPa)
#
#
# Indices 1 2 3 4 5 6 
#
# 1 94.3077 14.9903 18.9085 -4.6370 -15.0085 1.2999
# 2 14.9903 39.9309 33.2488 -9.2203 5.9799 3.4563
# 3 18.9085 33.2488 91.8611 -1.8753 -5.2269 5.9005
# 4 -4.6370 -9.2203 -1.8753 29.4181 0.4992 -2.5938
# 5 -15.0085 5.9799 -5.2269 0.4992 25.1684 2.4370
# 6 1.2999 3.4563 5.9005 -2.5938 2.4370 14.9916
#
#
#
# Elastic Compliance Matrix: (Units=1/GPa)
#
#
# Indices 1 2 3 4 5 6 
#
# 1 0.013114 -0.006542 0.000294 -0.000245 0.009570 -0.001343
# 2 -0.006542 0.047042 -0.016593 0.013118 -0.018939 0.001601
# 3 0.000294 -0.016593 0.017551 -0.004642 0.008365 -0.005271
# 4 -0.000245 0.013118 -0.004642 0.038427 -0.005607 0.006384
# 5 0.009570 -0.018939 0.008365 -0.005607 0.052687 -0.009291
# 6 -0.001343 0.001601 -0.005271 0.006384 -0.009291 0.071141
#
#
# Mechanical properties :
#
#
# Convention : Reuss Voigt Hill
#
# Bulk Modulus (GPa) = 31.22445 40.04387 35.63416
# Shear Modulus (GPa) = 16.87379 24.51243 20.69311
#
# Velocity S-wave (km/s) = 2.78320 3.35452 3.08213
# Velocity P-wave (km/s) = 4.96612 5.77811 5.38743
#
# Compressibility (1/GPa) = 0.03202618
#
# Stress axis : x y z
#
# Youngs Moduli (GPa) = 76.25481 21.25776 56.97719
#
# Poissons Ratio (x) = 0.13906 -0.01676
# Poissons Ratio (y) = 0.49883 0.94540
# Poissons Ratio (z) = -0.02243 0.35272
#
# Static dielectric constant tensor:
#      x y z
#    x 4.057980 0.142880 -0.221550 
#    y 0.142880 3.480650 -0.057470 
#    z -0.221550 -0.057470 3.726660 
# 
# 
# High freq. dielectric constant tensor:
#      x y z
#    x 1.865640 0.007830 -0.015120 
#    y 0.007830 1.823570 -0.002350 
#    z -0.015120 -0.002350 1.851080 
# 
# From -- ./inp_files/84450.got.cif
#   From: 2010.06.25/outbox.cif.g09.slc.cpg/sg2_43_cif.got.tgz:84450.got - 2010.06.27 13:26:56.
