data_PCOD8040896
_publ_section_title
;
Structure prediction by ZEFSAII (Michael W. Deem and Ramdas Pophale) SiO2 
 PCOD8040896
Probable space group: P -1
;
_chemical_formula_sum "Si O2"
_cell_formula_units_Z 16
_cell_length_a 11.407116
_cell_length_b 15.069853
_cell_length_c 8.788419
_cell_angle_alpha 44.739214
_cell_angle_beta 129.010097
_cell_angle_gamma 135.436411
_cell_volume 722.530764
_symmetry_space_group_name_H-M "P -1"
_symmetry_group_IT_number 2
_symmetry_cell_setting 'triclinic'
loop_
_space_group_symop_operation_xyz
x,y,z
-x,-y,-z
loop_
_atom_site_type_symbol
_atom_site_label
_atom_site_fract_x
_atom_site_fract_y
_atom_site_fract_z
Si Si1 0.034378 0.865392 0.713504
Si Si2 0.780925 0.210745 0.298434
Si Si3 0.686239 0.698094 0.781197
Si Si4 0.540584 0.793579 0.963566
Si Si5 0.997413 0.373864 0.548663
Si Si6 0.237326 0.895841 0.133086
Si Si7 0.641768 0.574572 0.230722
Si Si8 0.551963 0.890392 0.531582
O O1 0.859787 0.729521 0.797704
O O2 0.083909 0.809277 0.670580
O O3 0.000000 0.000000 0.500000
O O4 0.191530 0.901697 0.912989
O O5 0.639004 0.240372 0.054796
O O6 0.877531 0.337638 0.345537
O O7 0.660332 0.056611 0.472511
O O8 0.518876 0.583893 0.692308
O O9 0.679087 0.847788 0.596756
O O10 0.684555 0.634426 0.022032
O O11 0.483492 0.786717 0.747990
O O12 0.706785 0.945554 0.950433
O O13 0.598299 0.674207 0.184884
O O14 0.187432 0.426988 0.571721
O O15 0.000000 0.500000 0.500000
O O16 0.931606 0.226111 0.770892
O O17 0.394756 0.861569 0.325081
#
# Coordination Sequence:
#
# PCOD8040896 Si02
#       8
#     2   2   2   2   2   2   2   2
#     4  12  26  43  65  99 139 179 217 270 332 403
#     4  11  23  41  64  96 134 167 215 281 327 388
#     4  10  21  41  63  94 136 168 220 272 330 389
#     4  10  21  38  68 102 130 165 222 280 329 386
#     4  12  24  41  69 101 128 170 232 277 330 390
#     4  11  22  40  67  97 132 172 225 268 331 391
#     4  10  23  38  68  96 125 175 224 274 329 378
#     4  10  18  39  67  98 129 167 215 287 320 385
#
# _framework density 22.144386999999998
#
# number of rings (size 3 to 8) (size 9 to 14) (size 15 to 20)
#    0.000    1.250    5.000    1.500    5.250    2.500 
#    0.000    3.125    0.000    0.000    0.000    0.000 
#    0.000    0.000    0.000    0.000    0.000    0.000 
#
# Total GULP energy -198323.779965 kJ/mol
# GULP energy per Si atom -12395.236248 kJ/mol
# Density = 2.209399 g / cm^3
# Si number density = 22.144387 Si / 1000 Ang^3
#
#
#
# Elastic Constant Matrix: (Units=GPa)
#
#
# Indices 1 2 3 4 5 6 
#
# 1 118.9844 46.1479 11.8560 1.5668 26.2189 -0.7850
# 2 46.1479 146.5858 24.5611 11.1770 17.9458 -3.2883
# 3 11.8560 24.5611 54.0911 17.0594 11.3121 -1.0909
# 4 1.5668 11.1770 17.0594 27.3582 -2.2548 8.2746
# 5 26.2189 17.9458 11.3121 -2.2548 33.7457 -0.7202
# 6 -0.7850 -3.2883 -1.0909 8.2746 -0.7202 38.9611
#
#
#
# Elastic Compliance Matrix: (Units=1/GPa)
#
#
# Indices 1 2 3 4 5 6 
#
# 1 0.010992 -0.002604 0.000445 -0.000439 -0.007334 -0.000028
# 2 -0.002604 0.008436 -0.002042 -0.002515 -0.001923 0.001101
# 3 0.000445 -0.002042 0.027117 -0.018176 -0.009473 0.004281
# 4 -0.000439 -0.002515 -0.018176 0.053444 0.011089 -0.011876
# 5 -0.007334 -0.001923 -0.009473 0.011089 0.040224 -0.002187
# 6 -0.000028 0.001101 0.004281 -0.011876 -0.002187 0.028361
#
#
# Mechanical properties :
#
#
# Convention : Reuss Voigt Hill
#
# Bulk Modulus (GPa) = 26.21793 53.86570 40.04181
# Shear Modulus (GPa) = 26.35881 35.81942 31.08911
#
# Velocity S-wave (km/s) = 3.45384 4.02623 3.75097
# Velocity P-wave (km/s) = 5.26978 6.78171 6.07298
#
# Compressibility (1/GPa) = 0.03814184
#
# Stress axis : x y z
#
# Youngs Moduli (GPa) = 90.97567 118.54149 36.87770
#
# Poissons Ratio (x) = 0.30871 -0.01641
# Poissons Ratio (y) = 0.23693 0.07530
# Poissons Ratio (z) = -0.04048 0.24206
#
# Static dielectric constant tensor:
#      x y z
#    x 4.126860 0.090800 0.305610 
#    y 0.090800 4.033710 0.032440 
#    z 0.305610 0.032440 3.697710 
# 
# 
# High freq. dielectric constant tensor:
#      x y z
#    x 1.872180 0.006030 0.028470 
#    y 0.006030 1.876580 0.005030 
#    z 0.028470 0.005030 1.840830 
# 
# From -- ./inp_files/271942.got.cif
#   From: 2010.06.25/outbox.cif.g09.slc.cpg/sg2_136_cif.got.tgz:271942.got - 2010.06.27 13:26:56.
