data_PCOD8040581
_publ_section_title
;
Structure prediction by ZEFSAII (Michael W. Deem and Ramdas Pophale) SiO2 
 PCOD8040581
Probable space group: P -1
;
_chemical_formula_sum "Si O2"
_cell_formula_units_Z 16
_cell_length_a 8.646606
_cell_length_b 8.479448
_cell_length_c 18.878252
_cell_angle_alpha 140.434557
_cell_angle_beta 124.622520
_cell_angle_gamma 67.107273
_cell_volume 722.329341
_symmetry_space_group_name_H-M "P -1"
_symmetry_group_IT_number 2
_symmetry_cell_setting 'triclinic'
loop_
_space_group_symop_operation_xyz
x,y,z
-x,-y,-z
loop_
_atom_site_type_symbol
_atom_site_label
_atom_site_fract_x
_atom_site_fract_y
_atom_site_fract_z
Si Si1 0.799067 0.064558 0.895503
Si Si2 0.455258 0.470199 0.698888
Si Si3 0.069160 0.313816 0.304014
Si Si4 0.710762 0.011537 0.138642
Si Si5 0.149728 0.238751 0.637086
Si Si6 0.218464 0.224751 0.066460
Si Si7 0.620131 0.450296 0.445981
Si Si8 0.396954 0.123388 0.789538
O O1 0.797946 0.809009 0.760918
O O2 0.762681 0.980091 0.937873
O O3 0.622665 0.211409 0.873213
O O4 0.994807 0.241719 0.999872
O O5 0.400533 0.745896 0.797901
O O6 0.316918 0.258311 0.628163
O O7 0.676889 0.500447 0.791526
O O8 0.447656 0.408203 0.591926
O O9 0.170253 0.438642 0.441812
O O10 0.932439 0.095226 0.226520
O O11 0.960012 0.516931 0.304414
O O12 0.666382 0.825323 0.128759
O O13 0.669333 0.870110 0.004934
O O14 0.260451 0.249353 0.744095
O O15 0.000000 0.000000 0.500000
O O16 0.500000 0.500000 0.500000
O O17 0.629687 0.165857 0.334254
#
# Coordination Sequence:
#
# PCOD8040581 Si02
#       8
#     2   2   2   2   2   2   2   2
#     4  10  20  35  67  90 112 151 199 252 285 351
#     4  10  21  35  58  90 119 156 196 243 289 352
#     4  10  20  37  60  89 116 154 196 242 295 350
#     4   9  20  33  63  86 115 151 200 247 285 348
#     4  11  24  38  57  85 129 160 190 239 299 356
#     4  10  18  37  63  88 113 148 209 244 291 334
#     4  11  19  34  63  88 118 148 202 247 292 342
#     4  11  21  37  57  90 119 153 197 240 299 342
#
# _framework density 22.150562999999998
#
# number of rings (size 3 to 8) (size 9 to 14) (size 15 to 20)
#    0.000    1.750    5.000    0.375    1.750    1.500 
#    0.000    1.875   11.000    0.000    0.000    0.000 
#    0.000    0.000    0.000    0.000    0.000    0.000 
#
# Total GULP energy -198265.603670 kJ/mol
# GULP energy per Si atom -12391.600229 kJ/mol
# Density = 2.210015 g / cm^3
# Si number density = 22.150563 Si / 1000 Ang^3
#
#
#
# Elastic Constant Matrix: (Units=GPa)
#
#
# Indices 1 2 3 4 5 6 
#
# 1 112.7028 47.0610 59.8442 -18.7144 2.9278 18.6705
# 2 47.0610 58.0373 39.3598 -18.1051 8.8429 9.6952
# 3 59.8442 39.3598 124.8625 -32.2204 21.4420 9.2611
# 4 -18.7144 -18.1051 -32.2204 29.9932 3.7416 2.7110
# 5 2.9278 8.8429 21.4420 3.7416 48.0247 -8.1562
# 6 18.6705 9.6952 9.2611 2.7110 -8.1562 32.3423
#
#
#
# Elastic Compliance Matrix: (Units=1/GPa)
#
#
# Indices 1 2 3 4 5 6 
#
# 1 0.015992 -0.009563 -0.005043 -0.001130 0.002409 -0.004219
# 2 -0.009563 0.031994 0.000411 0.015460 -0.007969 -0.007494
# 3 -0.005043 0.000411 0.016668 0.016715 -0.009494 -0.005781
# 4 -0.001130 0.015460 0.016715 0.063916 -0.018408 -0.018768
# 5 0.002409 -0.007969 -0.009494 -0.018408 0.029994 0.012824
# 6 -0.004219 -0.007494 -0.005781 -0.018768 0.012824 0.042064
#
#
# Mechanical properties :
#
#
# Convention : Reuss Voigt Hill
#
# Bulk Modulus (GPa) = 27.57326 65.34807 46.46067
# Shear Modulus (GPa) = 20.73772 32.02786 26.38279
#
# Velocity S-wave (km/s) = 3.06308 3.80665 3.45493
# Velocity P-wave (km/s) = 4.99851 6.99189 6.07749
#
# Compressibility (1/GPa) = 0.03626702
#
# Stress axis : x y z
#
# Youngs Moduli (GPa) = 62.52992 31.25561 59.99365
#
# Poissons Ratio (x) = 0.29889 0.30254
# Poissons Ratio (y) = 0.59795 -0.02468
# Poissons Ratio (z) = 0.31533 -0.01286
#
# Static dielectric constant tensor:
#      x y z
#    x 4.467030 0.254870 0.228000 
#    y 0.254870 3.714290 -0.469650 
#    z 0.228000 -0.469650 4.623440 
# 
# 
# High freq. dielectric constant tensor:
#      x y z
#    x 1.884210 0.016350 0.017800 
#    y 0.016350 1.820830 -0.027050 
#    z 0.017800 -0.027050 1.890480 
# 
# From -- ./inp_files/355556.got.cif
#   From: 2010.06.25/outbox.cif.g09.slc.cpg/sg2_178_cif.got.tgz:355556.got - 2010.06.27 13:26:56.
