data_PCOD8040958
_publ_section_title
;
Structure prediction by ZEFSAII (Michael W. Deem and Ramdas Pophale) SiO2 
 PCOD8040958
Probable space group: P -1
;
_chemical_formula_sum "Si O2"
_cell_formula_units_Z 16
_cell_length_a 12.171979
_cell_length_b 23.518477
_cell_length_c 11.934606
_cell_angle_alpha 156.832576
_cell_angle_beta 35.197534
_cell_angle_gamma 144.676286
_cell_volume 742.611888
_symmetry_space_group_name_H-M "P -1"
_symmetry_group_IT_number 2
_symmetry_cell_setting 'triclinic'
loop_
_space_group_symop_operation_xyz
x,y,z
-x,-y,-z
loop_
_atom_site_type_symbol
_atom_site_label
_atom_site_fract_x
_atom_site_fract_y
_atom_site_fract_z
Si Si1 0.504478 0.782978 0.540836
Si Si2 0.863232 0.716817 0.231107
Si Si3 0.101508 0.126402 0.277965
Si Si4 0.524317 0.090986 0.806533
Si Si5 0.212182 0.621590 0.304346
Si Si6 0.092059 0.207100 0.189154
Si Si7 0.517760 0.227960 0.830267
Si Si8 0.258800 0.886329 0.116298
O O1 0.638931 0.700077 0.348032
O O2 0.390634 0.679921 0.349142
O O3 0.655723 0.934730 0.641923
O O4 0.333073 0.810543 0.812059
O O5 0.893813 0.775085 0.438148
O O6 0.018861 0.828987 0.220208
O O7 0.898586 0.553021 0.899145
O O8 0.048762 0.211401 0.366651
O O9 0.303801 0.085364 0.014208
O O10 0.938789 0.965259 0.137859
O O11 0.598695 0.191978 0.817878
O O12 0.667901 0.168254 0.927374
O O13 0.527829 0.920158 0.477313
O O14 0.311528 0.640488 0.132384
O O15 0.047160 0.712086 0.615714
O O16 0.323235 0.287401 0.114658
#
# Coordination Sequence:
#
# PCOD8040958 Si02
#       8
#     2   2   2   2   2   2   2   2
#     4  11  25  46  67  93 132 173 229 274 314 390
#     4  12  27  42  68  99 135 175 214 275 335 388
#     4  10  20  40  67  97 133 167 224 270 314 388
#     4  10  18  40  67  98 128 166 221 271 320 378
#     4  12  26  44  64 101 139 172 214 270 338 396
#     4  10  22  39  66  98 130 176 216 267 319 391
#     4  10  21  37  67  97 131 171 212 265 327 393
#     4  11  23  42  71  98 121 175 226 278 314 386
#
# _framework density 21.545574999999999
#
# number of rings (size 3 to 8) (size 9 to 14) (size 15 to 20)
#    0.000    1.250    3.750    1.500    5.250    3.000 
#    0.000    1.250    0.000    0.000    0.000    0.000 
#    0.000    0.000    0.000    0.000    0.000    0.000 
#
# Total GULP energy -198436.819648 kJ/mol
# GULP energy per Si atom -12402.301228 kJ/mol
# Density = 2.149654 g / cm^3
# Si number density = 21.545575 Si / 1000 Ang^3
#
#
#
# Elastic Constant Matrix: (Units=GPa)
#
#
# Indices 1 2 3 4 5 6 
#
# 1 92.9445 12.0509 31.6779 5.7146 2.5004 -3.3541
# 2 12.0509 81.1434 34.9332 3.1848 13.4193 -5.1058
# 3 31.6779 34.9332 81.6914 8.7849 6.2859 -2.8318
# 4 5.7146 3.1848 8.7849 15.7845 -4.9084 -1.7960
# 5 2.5004 13.4193 6.2859 -4.9084 17.6670 -9.4044
# 6 -3.3541 -5.1058 -2.8318 -1.7960 -9.4044 21.8719
#
#
#
# Elastic Compliance Matrix: (Units=1/GPa)
#
#
# Indices 1 2 3 4 5 6 
#
# 1 0.012491 0.000384 -0.004735 -0.001945 -0.000336 0.001088
# 2 0.000384 0.017158 -0.005979 -0.004992 -0.014023 -0.003149
# 3 -0.004735 -0.005979 0.017891 -0.008928 -0.005085 -0.002725
# 4 -0.001945 -0.004992 -0.008928 0.086208 0.043532 0.023177
# 5 -0.000336 -0.014023 -0.005085 0.043532 0.105026 0.044750
# 6 0.001088 -0.003149 -0.002725 0.023177 0.044750 0.065944
#
#
# Mechanical properties :
#
#
# Convention : Reuss Voigt Hill
#
# Bulk Modulus (GPa) = 37.20396 45.90037 41.55217
# Shear Modulus (GPa) = 14.95487 22.87251 18.91369
#
# Velocity S-wave (km/s) = 2.63744 3.26174 2.96606
# Velocity P-wave (km/s) = 5.15557 5.96115 5.57293
#
# Compressibility (1/GPa) = 0.02687886
#
# Stress axis : x y z
#
# Youngs Moduli (GPa) = 80.05709 58.28249 55.89367
#
# Poissons Ratio (x) = -0.02237 0.26466
# Poissons Ratio (y) = -0.03073 0.33420
# Poissons Ratio (z) = 0.37908 0.34849
#
# Static dielectric constant tensor:
#      x y z
#    x 4.060130 -0.039100 -0.019220 
#    y -0.039100 3.902720 -0.174490 
#    z -0.019220 -0.174490 3.566930 
# 
# 
# High freq. dielectric constant tensor:
#      x y z
#    x 1.855080 -0.000100 -0.004190 
#    y -0.000100 1.843980 -0.022210 
#    z -0.004190 -0.022210 1.823510 
# 
# From -- ./inp_files/439322.got.cif
#   From: 2010.06.25/outbox.cif.g09.slc.cpg/sg2_220_cif.got.tgz:439322.got - 2010.06.27 13:26:56.
