data_PCOD8040325
_publ_section_title
;
Structure prediction by ZEFSAII (Michael W. Deem and Ramdas Pophale) SiO2 
 PCOD8040325
Probable space group: P -1
;
_chemical_formula_sum "Si O2"
_cell_formula_units_Z 16
_cell_length_a 9.529537
_cell_length_b 20.402480
_cell_length_c 20.501825
_cell_angle_alpha 151.040335
_cell_angle_beta 150.661075
_cell_angle_gamma 29.234083
_cell_volume 838.093292
_symmetry_space_group_name_H-M "P -1"
_symmetry_group_IT_number 2
_symmetry_cell_setting 'triclinic'
loop_
_space_group_symop_operation_xyz
x,y,z
-x,-y,-z
loop_
_atom_site_type_symbol
_atom_site_label
_atom_site_fract_x
_atom_site_fract_y
_atom_site_fract_z
Si Si1 0.810328 0.182397 0.702392
Si Si2 0.113165 0.870201 0.632880
Si Si3 0.717685 0.852964 0.918933
Si Si4 0.346129 0.073305 0.381477
Si Si5 0.129879 0.331838 0.874955
Si Si6 0.299564 0.672454 0.084636
Si Si7 0.172887 0.247867 0.681647
Si Si8 0.846386 0.070744 0.931244
O O1 0.466684 0.202524 0.551079
O O2 0.742292 0.311646 0.841181
O O3 0.992609 0.223901 0.756016
O O4 0.030243 0.019419 0.684800
O O5 0.484101 0.793131 0.739127
O O6 0.876982 0.921899 0.644391
O O7 0.082459 0.733265 0.462337
O O8 0.960137 0.729486 0.960012
O O9 0.906321 0.886842 0.968130
O O10 0.500000 0.000000 0.000000
O O11 0.695392 0.925534 0.392979
O O12 0.184726 0.064128 0.239537
O O13 0.017486 0.361610 0.778924
O O14 0.518111 0.229900 0.945989
O O15 0.000000 0.500000 0.000000
O O16 0.498300 0.757872 0.215864
O O17 0.500000 0.500000 0.000000
O O18 0.000000 0.000000 0.000000
#
# Coordination Sequence:
#
# PCOD8040325 Si02
#       8
#     2   2   2   2   2   2   2   2
#     4  11  20  34  64  88 113 163 206 242 306 352
#     4  11  19  35  66  91 121 146 203 265 300 341
#     4  12  21  38  61  93 121 157 199 255 303 348
#     4  10  18  36  61  91 121 146 203 264 292 349
#     4  11  24  40  58  86 126 163 204 243 290 370
#     4  12  22  37  62  88 119 165 206 239 297 365
#     4  10  19  39  58  86 120 160 197 253 298 343
#     4  11  23  38  60  89 124 155 200 251 304 352
#
# _framework density 19.090954
#
# number of rings (size 3 to 8) (size 9 to 14) (size 15 to 20)
#    0.000    1.000    7.500    2.250    0.000    5.500 
#    0.000    0.625    2.750    1.500    0.000    0.000 
#    0.000    0.000    0.000    0.000    0.000    0.000 
#
# Total GULP energy -198238.086602 kJ/mol
# GULP energy per Si atom -12389.880413 kJ/mol
# Density = 1.904750 g / cm^3
# Si number density = 19.090954 Si / 1000 Ang^3
#
#
#
# Elastic Constant Matrix: (Units=GPa)
#
#
# Indices 1 2 3 4 5 6 
#
# 1 107.0214 31.6322 49.0233 -13.7573 -8.0802 -14.5185
# 2 31.6322 87.2701 56.0836 -8.6977 -11.3593 -11.6368
# 3 49.0233 56.0836 148.5634 -31.7987 -22.1225 -7.9783
# 4 -13.7573 -8.6977 -31.7987 28.1157 -1.3151 -2.6010
# 5 -8.0802 -11.3593 -22.1225 -1.3151 44.9146 -3.1921
# 6 -14.5185 -11.6368 -7.9783 -2.6010 -3.1921 22.9068
#
#
#
# Elastic Compliance Matrix: (Units=1/GPa)
#
#
# Indices 1 2 3 4 5 6 
#
# 1 0.012306 -0.001677 -0.002005 0.003938 0.001407 0.006892
# 2 -0.001677 0.016303 -0.005349 -0.001253 0.001536 0.005428
# 3 -0.002005 -0.005349 0.013044 0.012615 0.005274 0.002722
# 4 0.003938 -0.001253 0.012615 0.053055 0.009122 0.013549
# 5 0.001407 0.001536 0.005274 0.009122 0.026355 0.008217
# 6 0.006892 0.005428 0.002722 0.013549 0.008217 0.054413
#
#
# Mechanical properties :
#
#
# Convention : Reuss Voigt Hill
#
# Bulk Modulus (GPa) = 42.39058 68.48145 55.43602
# Shear Modulus (GPa) = 24.82626 32.92846 28.87736
#
# Velocity S-wave (km/s) = 3.61005 4.15760 3.89346
# Velocity P-wave (km/s) = 6.29518 7.68092 7.02232
#
# Compressibility (1/GPa) = 0.02359014
#
# Stress axis : x y z
#
# Youngs Moduli (GPa) = 81.26431 61.33889 76.66549
#
# Poissons Ratio (x) = 0.10288 0.15369
# Poissons Ratio (y) = 0.13630 0.41008
# Poissons Ratio (z) = 0.16291 0.32810
#
# Static dielectric constant tensor:
#      x y z
#    x 3.454000 -0.228850 -0.261400 
#    y -0.228850 3.164430 -0.269610 
#    z -0.261400 -0.269610 4.245290 
# 
# 
# High freq. dielectric constant tensor:
#      x y z
#    x 1.753100 -0.013330 -0.009670 
#    y -0.013330 1.697270 -0.011490 
#    z -0.009670 -0.011490 1.761060 
# 
# From -- ./inp_files/200820.got.cif
#   From: 2010.06.25/outbox.cif.g09.slc.cpg/sg2_101_cif.got.tgz:200820.got - 2010.06.27 13:26:56.
