data_PCOD8040528
_publ_section_title
;
Structure prediction by ZEFSAII (Michael W. Deem and Ramdas Pophale) SiO2 
 PCOD8040528
Probable space group: P -1
;
_chemical_formula_sum "Si O2"
_cell_formula_units_Z 16
_cell_length_a 15.515130
_cell_length_b 30.015624
_cell_length_c 9.250967
_cell_angle_alpha 141.328422
_cell_angle_beta 132.478949
_cell_angle_gamma 18.302858
_cell_volume 796.250311
_symmetry_space_group_name_H-M "P -1"
_symmetry_group_IT_number 2
_symmetry_cell_setting 'triclinic'
loop_
_space_group_symop_operation_xyz
x,y,z
-x,-y,-z
loop_
_atom_site_type_symbol
_atom_site_label
_atom_site_fract_x
_atom_site_fract_y
_atom_site_fract_z
Si Si1 0.316915 0.343808 0.630881
Si Si2 0.840872 0.125957 0.768754
Si Si3 0.396843 0.849467 0.838528
Si Si4 0.839830 0.381998 0.494817
Si Si5 0.055074 0.628803 0.920115
Si Si6 0.146019 0.506875 0.424030
Si Si7 0.521785 0.539264 0.828310
Si Si8 0.446195 0.984057 0.256316
O O1 0.548184 0.242834 0.756870
O O2 0.466264 0.226733 0.360835
O O3 0.106665 0.525532 0.802379
O O4 0.136266 0.385155 0.613498
O O5 0.752626 0.254821 0.948320
O O6 0.000000 0.000000 0.500000
O O7 0.061113 0.008662 0.856529
O O8 0.564993 0.702151 0.761672
O O9 0.402705 0.925668 0.102907
O O10 0.846475 0.458385 0.633705
O O11 0.727166 0.447721 0.696331
O O12 0.608767 0.466472 0.350793
O O13 0.163190 0.168547 0.316102
O O14 0.125609 0.579291 0.706524
O O15 0.274155 0.568009 0.071131
O O16 0.723000 0.838896 0.097063
O O17 0.500000 0.000000 0.500000
#
# Coordination Sequence:
#
# PCOD8040528 Si02
#       8
#     2   2   2   2   2   2   2   2
#     4   9  17  34  61  89 116 152 197 241 297 343
#     4   9  18  33  64  89 106 154 206 238 275 354
#     4  10  18  37  61  85 117 153 200 241 287 354
#     4  11  25  38  60  86 123 159 193 244 302 352
#     4  10  19  37  63  86 116 158 201 241 287 355
#     4  11  21  38  61  92 118 150 197 255 300 331
#     4  10  21  42  59  82 121 164 196 233 301 366
#     4  12  21  37  60  89 113 163 203 230 290 362
#
# _framework density 20.094183999999998
#
# number of rings (size 3 to 8) (size 9 to 14) (size 15 to 20)
#    0.000    1.750    5.000    1.500    0.000    1.000 
#    0.000    7.500    0.000    0.000    0.000    0.000 
#    0.000    0.000    0.000    0.000    0.000    0.000 
#
# Total GULP energy -198368.082697 kJ/mol
# GULP energy per Si atom -12398.005169 kJ/mol
# Density = 2.004845 g / cm^3
# Si number density = 20.094184 Si / 1000 Ang^3
#
#
#
# Elastic Constant Matrix: (Units=GPa)
#
#
# Indices 1 2 3 4 5 6 
#
# 1 69.2293 32.7296 5.3588 4.3778 13.5674 -3.7431
# 2 32.7296 117.5275 28.8406 7.1703 5.8000 -18.6041
# 3 5.3588 28.8406 82.3184 3.1947 9.5179 -4.1918
# 4 4.3778 7.1703 3.1947 41.9635 -6.2623 7.6014
# 5 13.5674 5.8000 9.5179 -6.2623 16.7436 1.3127
# 6 -3.7431 -18.6041 -4.1918 7.6014 1.3127 20.9824
#
#
#
# Elastic Compliance Matrix: (Units=1/GPa)
#
#
# Indices 1 2 3 4 5 6 
#
# 1 0.020606 -0.004737 0.002825 -0.004890 -0.018725 0.002983
# 2 -0.004737 0.012649 -0.003326 -0.003540 -0.000842 0.011041
# 3 0.002825 -0.003326 0.014579 -0.002815 -0.010646 0.002153
# 4 -0.004890 -0.003540 -0.002815 0.031217 0.019806 -0.017121
# 5 -0.018725 -0.000842 -0.010646 0.019806 0.090140 -0.019028
# 6 0.002983 0.011041 0.002153 -0.017121 -0.019028 0.065804
#
#
# Mechanical properties :
#
#
# Convention : Reuss Voigt Hill
#
# Bulk Modulus (GPa) = 26.76851 44.77036 35.76943
# Shear Modulus (GPa) = 19.38552 29.41430 24.39991
#
# Velocity S-wave (km/s) = 3.10938 3.83014 3.48843
# Velocity P-wave (km/s) = 5.12264 6.47214 5.83653
#
# Compressibility (1/GPa) = 0.03735733
#
# Stress axis : x y z
#
# Youngs Moduli (GPa) = 48.53018 79.05541 68.59051
#
# Poissons Ratio (x) = 0.37448 -0.19376
# Poissons Ratio (y) = 0.22989 0.22816
# Poissons Ratio (z) = -0.13709 0.26297
#
# Static dielectric constant tensor:
#      x y z
#    x 3.155280 -0.458400 0.094020 
#    y -0.458400 4.076670 -0.018530 
#    z 0.094020 -0.018530 3.821300 
# 
# 
# High freq. dielectric constant tensor:
#      x y z
#    x 1.733280 -0.033250 0.009360 
#    y -0.033250 1.798070 -0.001160 
#    z 0.009360 -0.001160 1.797460 
# 
# From -- ./inp_files/274583.got.cif
#   From: 2010.06.25/outbox.cif.g09.slc.cpg/sg2_138_cif.got.tgz:274583.got - 2010.06.27 13:26:56.
