data_PCOD8040609
_publ_section_title
;
Structure prediction by ZEFSAII (Michael W. Deem and Ramdas Pophale) SiO2 
 PCOD8040609
Probable space group: P -1
;
_chemical_formula_sum "Si O2"
_cell_formula_units_Z 14
_cell_length_a 12.828973
_cell_length_b 14.311679
_cell_length_c 14.132698
_cell_angle_alpha 138.171699
_cell_angle_beta 31.615126
_cell_angle_gamma 115.265542
_cell_volume 729.601826
_symmetry_space_group_name_H-M "P -1"
_symmetry_group_IT_number 2
_symmetry_cell_setting 'triclinic'
loop_
_space_group_symop_operation_xyz
x,y,z
-x,-y,-z
loop_
_atom_site_type_symbol
_atom_site_label
_atom_site_fract_x
_atom_site_fract_y
_atom_site_fract_z
Si Si1 0.296227 0.338263 0.274394
Si Si2 0.433637 0.592878 0.330507
Si Si3 0.227692 0.008444 0.327963
Si Si4 0.057366 0.686362 0.354528
Si Si5 0.804698 0.159004 0.477206
Si Si6 0.507424 0.076957 0.758429
Si Si7 0.214856 0.923807 0.851966
O O1 0.300490 0.503087 0.389299
O O2 0.043957 0.397598 0.566014
O O3 0.305766 0.265089 0.106329
O O4 0.531731 0.181501 0.034035
O O5 0.317383 0.700150 0.405014
O O6 0.387663 0.715005 0.547823
O O7 0.728231 0.456447 0.988582
O O8 0.170664 0.157849 0.412615
O O9 0.281331 0.049596 0.422344
O O10 0.000000 0.000000 0.500000
O O11 0.177194 0.757758 0.379282
O O12 0.630915 0.099363 0.589284
O O13 0.081762 0.990584 0.107641
O O14 0.376361 0.993241 0.758578
O O15 0.000000 0.000000 0.000000
#
# Coordination Sequence:
#
# PCOD8040609 Si02
#       7
#     2   2   2   2   2   2   2
#     4  10  22  35  62  91 115 152 199 244 294 341
#     4  11  24  37  56  93 124 148 198 255 286 345
#     4  10  18  37  64  90 117 149 200 251 290 343
#     4  12  20  37  64  91 116 154 200 249 292 344
#     4  11  21  38  63  86 120 162 194 237 301 358
#     4  10  21  38  64  89 113 161 201 233 295 360
#     4  10  24  42  57  84 127 161 195 238 295 360
#
# _framework density 19.188548999999998
#
# number of rings (size 3 to 8) (size 9 to 14) (size 15 to 20)
#    0.857    0.571    5.714    0.857    0.000    6.286 
#    0.000    0.714    0.000    4.286    0.000    0.000 
#    0.000    0.000    0.000    0.000    0.000    0.000 
#
# Total GULP energy -173552.491134 kJ/mol
# GULP energy per Si atom -12396.606510 kJ/mol
# Density = 1.914487 g / cm^3
# Si number density = 19.188549 Si / 1000 Ang^3
#
#
#
# Elastic Constant Matrix: (Units=GPa)
#
#
# Indices 1 2 3 4 5 6 
#
# 1 48.6490 47.4470 23.5180 3.0500 -11.1559 9.0327
# 2 47.4470 164.4336 55.7924 -12.6194 8.6369 16.3142
# 3 23.5180 55.7924 81.1553 -5.1543 16.8727 14.0360
# 4 3.0500 -12.6194 -5.1543 37.3084 2.8965 -2.5207
# 5 -11.1559 8.6369 16.8727 2.8965 29.4880 1.3030
# 6 9.0327 16.3142 14.0360 -2.5207 1.3030 37.5659
#
#
#
# Elastic Compliance Matrix: (Units=1/GPa)
#
#
# Indices 1 2 3 4 5 6 
#
# 1 0.044350 -0.010982 -0.011171 -0.011262 0.027645 -0.003435
# 2 -0.010982 0.010875 -0.002588 0.004668 -0.006292 -0.000584
# 3 -0.011171 -0.002588 0.021514 0.004024 -0.016023 -0.003403
# 4 -0.011262 0.004668 0.004024 0.030825 -0.011030 0.001628
# 5 0.027645 -0.006292 -0.016023 -0.011030 0.056493 -0.000628
# 6 -0.003435 -0.000584 -0.003403 0.001628 -0.000628 0.029102
#
#
# Mechanical properties :
#
#
# Convention : Reuss Voigt Hill
#
# Bulk Modulus (GPa) = 36.68896 60.86142 48.77519
# Shear Modulus (GPa) = 19.86275 32.03783 25.95029
#
# Velocity S-wave (km/s) = 3.22084 4.09055 3.68147
# Velocity P-wave (km/s) = 5.74400 7.35503 6.59887
#
# Compressibility (1/GPa) = 0.02725616
#
# Stress axis : x y z
#
# Youngs Moduli (GPa) = 22.54802 91.95170 46.48135
#
# Poissons Ratio (x) = 1.00984 0.51923
# Poissons Ratio (y) = 0.24763 0.12031
# Poissons Ratio (z) = 0.25188 0.23801
#
# Static dielectric constant tensor:
#      x y z
#    x 3.686680 -0.117430 0.278940 
#    y -0.117430 3.549380 0.016750 
#    z 0.278940 0.016750 3.910690 
# 
# 
# High freq. dielectric constant tensor:
#      x y z
#    x 1.720540 0.003050 -0.001630 
#    y 0.003050 1.750770 -0.016420 
#    z -0.001630 -0.016420 1.746330 
# 
# From -- ./inp_files/457499.got.cif
#   From: 2010.06.25/outbox.cif.g09.slc.cpg/sg2_229_cif.got.tgz:457499.got - 2010.06.27 13:26:56.
