data_PCOD8040865
_publ_section_title
;
Structure prediction by ZEFSAII (Michael W. Deem and Ramdas Pophale) SiO2 
 PCOD8040865
Probable space group: P -1
;
_chemical_formula_sum "Si O2"
_cell_formula_units_Z 16
_cell_length_a 18.515209
_cell_length_b 7.620662
_cell_length_c 16.134437
_cell_angle_alpha 114.378121
_cell_angle_beta 21.768066
_cell_angle_gamma 123.127922
_cell_volume 673.292126
_symmetry_space_group_name_H-M "P -1"
_symmetry_group_IT_number 2
_symmetry_cell_setting 'triclinic'
loop_
_space_group_symop_operation_xyz
x,y,z
-x,-y,-z
loop_
_atom_site_type_symbol
_atom_site_label
_atom_site_fract_x
_atom_site_fract_y
_atom_site_fract_z
Si Si1 0.461654 0.092798 0.877161
Si Si2 0.910277 0.484874 0.497584
Si Si3 0.038725 0.524343 0.102368
Si Si4 0.199082 0.950684 0.787104
Si Si5 0.055168 0.119645 0.376804
Si Si6 0.582655 0.046933 0.286287
Si Si7 0.228470 0.326429 0.473339
Si Si8 0.706278 0.409769 0.000336
O O1 0.707781 0.240066 0.681449
O O2 0.470280 0.099151 0.768724
O O3 0.304985 0.189731 0.095603
O O4 0.359958 0.846051 0.970884
O O5 0.824724 0.588627 0.537802
O O6 0.965896 0.653148 0.551158
O O7 0.135351 0.485739 0.228093
O O8 0.151946 0.461334 0.045325
O O9 0.896227 0.311379 0.157673
O O10 0.876559 0.615462 0.325163
O O11 0.233015 0.703664 0.874963
O O12 0.334287 0.055451 0.748565
O O13 0.358775 0.047007 0.555647
O O14 0.000000 0.000000 0.000000
O O15 0.878524 0.940553 0.466150
O O16 0.000000 0.000000 0.500000
O O17 0.492677 0.441904 0.225325
#
# Coordination Sequence:
#
# PCOD8040865 Si02
#       8
#     2   2   2   2   2   2   2   2
#     4  11  20  41  64  88 126 165 205 254 306 363
#     4  10  21  38  59  89 126 165 207 255 304 357
#     4  10  21  42  62  89 125 161 203 246 308 370
#     4  11  25  41  64  95 123 155 201 258 305 364
#     4  10  18  39  64  87 125 168 203 253 311 352
#     4  10  22  41  63  89 126 162 200 249 306 369
#     4  10  20  39  63  87 125 169 200 255 308 355
#     4  10  21  38  60  91 125 164 207 255 299 360
#
# _framework density 23.763829000000001
#
# number of rings (size 3 to 8) (size 9 to 14) (size 15 to 20)
#    0.000    1.750    5.000    2.250    0.000    6.000 
#    2.250    0.625    0.000    0.000    0.000    0.000 
#    0.000    0.000    0.000    0.000    0.000    0.000 
#
# Total GULP energy -198432.972030 kJ/mol
# GULP energy per Si atom -12402.060752 kJ/mol
# Density = 2.370974 g / cm^3
# Si number density = 23.763829 Si / 1000 Ang^3
#
#
#
# Elastic Constant Matrix: (Units=GPa)
#
#
# Indices 1 2 3 4 5 6 
#
# 1 76.4972 10.7023 49.6423 10.0979 2.0386 23.2059
# 2 10.7023 79.8315 33.3695 4.1736 -1.2029 20.0700
# 3 49.6423 33.3695 217.1320 13.4165 -2.4518 10.7071
# 4 10.0979 4.1736 13.4165 39.1760 -0.5346 -3.2077
# 5 2.0386 -1.2029 -2.4518 -0.5346 40.1591 -0.8799
# 6 23.2059 20.0700 10.7071 -3.2077 -0.8799 27.5684
#
#
#
# Elastic Compliance Matrix: (Units=1/GPa)
#
#
# Indices 1 2 3 4 5 6 
#
# 1 0.022814 0.004562 -0.004462 -0.006634 -0.001856 -0.021623
# 2 0.004562 0.017159 -0.002702 -0.003366 -0.000271 -0.015683
# 3 -0.004462 -0.002702 0.005897 -0.000294 0.000577 0.003416
# 4 -0.006634 -0.003366 -0.000294 0.028649 0.000852 0.011510
# 5 -0.001856 -0.000271 0.000577 0.000852 0.025087 0.002435
# 6 -0.021623 -0.015683 0.003416 0.011510 0.002435 0.065982
#
#
# Mechanical properties :
#
#
# Convention : Reuss Voigt Hill
#
# Bulk Modulus (GPa) = 24.59027 62.32101 43.45564
# Shear Modulus (GPa) = 27.12265 40.03046 33.57656
#
# Velocity S-wave (km/s) = 3.38204 4.10873 3.76297
# Velocity P-wave (km/s) = 5.06174 6.98506 6.09968
#
# Compressibility (1/GPa) = 0.04066649
#
# Stress axis : x y z
#
# Youngs Moduli (GPa) = 43.83188 58.27946 169.57827
#
# Poissons Ratio (x) = -0.26585 0.75662
# Poissons Ratio (y) = -0.19994 0.45814
# Poissons Ratio (z) = 0.19557 0.15745
#
# Static dielectric constant tensor:
#      x y z
#    x 4.287240 0.346360 -0.029620 
#    y 0.346360 3.949110 -0.096130 
#    z -0.029620 -0.096130 4.464880 
# 
# 
# High freq. dielectric constant tensor:
#      x y z
#    x 1.941830 0.009930 0.001860 
#    y 0.009930 1.935940 -0.009260 
#    z 0.001860 -0.009260 1.960240 
# 
# From -- ./inp_files/577355.got.cif
#   From: 2010.06.25/outbox.cif.g09.slc.cpg/sg2_289_cif.got.tgz:577355.got - 2010.06.27 13:26:56.
