data_PCOD8040980
_publ_section_title
;
Structure prediction by ZEFSAII (Michael W. Deem and Ramdas Pophale) SiO2 
 PCOD8040980
Probable space group: P -1
;
_chemical_formula_sum "Si O2"
_cell_formula_units_Z 16
_cell_length_a 9.351993
_cell_length_b 8.742687
_cell_length_c 12.191664
_cell_angle_alpha 67.045092
_cell_angle_beta 112.077321
_cell_angle_gamma 72.653081
_cell_volume 725.905092
_symmetry_space_group_name_H-M "P -1"
_symmetry_group_IT_number 2
_symmetry_cell_setting 'triclinic'
loop_
_space_group_symop_operation_xyz
x,y,z
-x,-y,-z
loop_
_atom_site_type_symbol
_atom_site_label
_atom_site_fract_x
_atom_site_fract_y
_atom_site_fract_z
Si Si1 0.234904 0.822650 0.313598
Si Si2 0.861324 0.918297 0.280093
Si Si3 0.687038 0.430963 0.804713
Si Si4 0.437174 0.216343 0.458502
Si Si5 0.447287 0.682511 0.005796
Si Si6 0.915343 0.642753 0.541699
Si Si7 0.940498 0.854122 0.977209
Si Si8 0.210668 0.306842 0.843763
O O1 0.293428 0.659141 0.284445
O O2 0.397790 0.763275 0.458704
O O3 0.062962 0.839045 0.318830
O O4 0.188473 0.033178 0.193770
O O5 0.883129 0.852825 0.433836
O O6 0.765522 0.811421 0.227279
O O7 0.733015 0.145392 0.152560
O O8 0.617880 0.657365 0.704991
O O9 0.567023 0.374820 0.857960
O O10 0.876726 0.342778 0.949920
O O11 0.277674 0.309581 0.478133
O O12 0.500000 0.000000 0.500000
O O13 0.604286 0.729127 0.043998
O O14 0.500000 0.500000 0.000000
O O15 0.000000 0.500000 0.500000
O O16 0.061681 0.536441 0.712877
O O17 0.844021 0.800141 0.054660
O O18 0.000000 0.000000 0.000000
#
# Coordination Sequence:
#
# PCOD8040980 Si02
#       8
#     2   2   2   2   2   2   2   2
#     4  11  23  42  75 101 128 179 231 284 337 403
#     4  11  22  44  69 100 133 172 233 285 334 404
#     4  11  22  46  69  93 137 175 235 277 332 415
#     4  12  28  44  68 105 141 181 226 283 351 407
#     4  12  29  42  64 103 142 181 220 281 352 407
#     4  10  24  43  69 100 135 177 232 282 333 409
#     4  10  18  40  70  97 126 165 227 289 325 388
#     4  11  22  43  69  98 129 176 232 280 335 401
#
# _framework density 22.041450999999999
#
# number of rings (size 3 to 8) (size 9 to 14) (size 15 to 20)
#    0.000    1.000    5.000    2.250    8.750    1.000 
#    0.000    2.500    0.000    0.000    0.000    0.000 
#    0.000    0.000    0.000    0.000    0.000    0.000 
#
# Total GULP energy -198211.013107 kJ/mol
# GULP energy per Si atom -12388.188319 kJ/mol
# Density = 2.199128 g / cm^3
# Si number density = 22.041451 Si / 1000 Ang^3
#
#
#
# Elastic Constant Matrix: (Units=GPa)
#
#
# Indices 1 2 3 4 5 6 
#
# 1 141.9605 38.0473 50.2123 -9.2923 -12.0683 -1.8915
# 2 38.0473 73.7409 26.2196 -26.5394 4.4098 -2.8120
# 3 50.2123 26.2196 112.6059 -43.0127 -27.3998 -1.3145
# 4 -9.2923 -26.5394 -43.0127 32.0584 8.7081 -4.4682
# 5 -12.0683 4.4098 -27.3998 8.7081 44.3601 -13.3846
# 6 -1.8915 -2.8120 -1.3145 -4.4682 -13.3846 19.0042
#
#
#
# Elastic Compliance Matrix: (Units=1/GPa)
#
#
# Indices 1 2 3 4 5 6 
#
# 1 0.012080 -0.009714 -0.010843 -0.019819 -0.000328 -0.005876
# 2 -0.009714 0.029342 0.012832 0.040953 -0.001882 0.012566
# 3 -0.010843 0.012832 0.035811 0.055157 0.015205 0.026974
# 4 -0.019819 0.040953 0.055157 0.136770 0.012500 0.048863
# 5 -0.000328 -0.001882 0.015205 0.012500 0.038970 0.031126
# 6 -0.005876 0.012566 0.026974 0.048863 0.031126 0.089171
#
#
# Mechanical properties :
#
#
# Convention : Reuss Voigt Hill
#
# Bulk Modulus (GPa) = 16.18635 61.91838 39.05237
# Shear Modulus (GPa) = 13.22092 33.33975 23.28034
#
# Velocity S-wave (km/s) = 2.45178 3.89343 3.25346
# Velocity P-wave (km/s) = 3.92103 6.95446 5.64531
#
# Compressibility (1/GPa) = 0.06178045
#
# Stress axis : x y z
#
# Youngs Moduli (GPa) = 82.78352 34.08128 27.92438
#
# Poissons Ratio (x) = 0.33108 0.30279
# Poissons Ratio (y) = 0.80420 -0.35832
# Poissons Ratio (z) = 0.89764 -0.43732
#
# Static dielectric constant tensor:
#      x y z
#    x 4.076950 -0.101120 0.006660 
#    y -0.101120 3.744500 -0.544820 
#    z 0.006660 -0.544820 5.037910 
# 
# 
# High freq. dielectric constant tensor:
#      x y z
#    x 1.875720 -0.004460 -0.011570 
#    y -0.004460 1.830540 -0.037270 
#    z -0.011570 -0.037270 1.890030 
# 
# From -- ./inp_files/381748.got.cif
#   From: 2010.06.25/outbox.cif.g09.slc.cpg/sg2_191_cif.got.tgz:381748.got - 2010.06.27 13:26:56.
