data_PCOD8040572
_publ_section_title
;
Structure prediction by ZEFSAII (Michael W. Deem and Ramdas Pophale) SiO2 
 PCOD8040572
Probable space group: P -1
;
_chemical_formula_sum "Si O2"
_cell_formula_units_Z 16
_cell_length_a 8.310498
_cell_length_b 16.705736
_cell_length_c 17.144404
_cell_angle_alpha 155.948575
_cell_angle_beta 109.722087
_cell_angle_gamma 82.937159
_cell_volume 799.718262
_symmetry_space_group_name_H-M "P -1"
_symmetry_group_IT_number 2
_symmetry_cell_setting 'triclinic'
loop_
_space_group_symop_operation_xyz
x,y,z
-x,-y,-z
loop_
_atom_site_type_symbol
_atom_site_label
_atom_site_fract_x
_atom_site_fract_y
_atom_site_fract_z
Si Si1 0.360583 0.730365 0.649827
Si Si2 0.009674 0.259241 0.158860
Si Si3 0.959893 0.806033 0.461289
Si Si4 0.631604 0.081164 0.340107
Si Si5 0.822389 0.314985 0.725196
Si Si6 0.239514 0.007650 0.981581
Si Si7 0.757945 0.317892 0.040587
Si Si8 0.866781 0.202922 0.796107
O O1 0.196524 0.479511 0.416924
O O2 0.402473 0.776157 0.605308
O O3 0.286215 0.898398 0.818544
O O4 0.560402 0.776114 0.765489
O O5 0.925532 0.305978 0.108088
O O6 0.079010 0.076339 0.989236
O O7 0.845116 0.170322 0.119674
O O8 0.005244 0.740958 0.324702
O O9 0.805558 0.575801 0.273969
O O10 0.165615 0.922767 0.646245
O O11 0.869246 0.969659 0.587948
O O12 0.645804 0.206387 0.536966
O O13 0.454656 0.827787 0.086149
O O14 0.751212 0.211936 0.707740
O O15 0.913759 0.585065 0.981810
O O16 0.752624 0.214028 0.862763
#
# Coordination Sequence:
#
# PCOD8040572 Si02
#       8
#     2   2   2   2   2   2   2   2
#     4  11  20  41  58  82 112 145 188 228 282 333
#     4  11  21  39  58  83 115 143 186 232 281 327
#     4   9  20  38  57  81 111 155 182 231 280 324
#     4  10  21  39  56  81 120 148 183 237 276 326
#     4   8  19  36  61  85 113 148 184 238 277 323
#     4  10  24  36  61  84 107 148 185 232 282 334
#     4  11  22  37  56  84 118 150 185 234 276 332
#     4  10  18  37  63  83 112 151 193 222 284 337
#
# _framework density 20.007048000000001
#
# number of rings (size 3 to 8) (size 9 to 14) (size 15 to 20)
#    0.750    1.250    2.500    1.125    1.750    0.500 
#    2.250    0.625    0.000    0.000    0.000    0.000 
#    0.000    0.000    0.000    0.000    0.000    0.000 
#
# Total GULP energy -198338.540625 kJ/mol
# GULP energy per Si atom -12396.158789 kJ/mol
# Density = 1.996151 g / cm^3
# Si number density = 20.007048 Si / 1000 Ang^3
#
#
#
# Elastic Constant Matrix: (Units=GPa)
#
#
# Indices 1 2 3 4 5 6 
#
# 1 45.0073 9.9757 32.3916 2.1367 10.5022 6.4048
# 2 9.9757 80.1565 33.6098 -4.9939 -8.1209 -1.1421
# 3 32.3916 33.6098 101.3427 13.5872 8.5124 1.7787
# 4 2.1367 -4.9939 13.5872 29.4401 2.0873 2.2073
# 5 10.5022 -8.1209 8.5124 2.0873 32.3448 9.0585
# 6 6.4048 -1.1421 1.7787 2.2073 9.0585 16.3799
#
#
#
# Elastic Compliance Matrix: (Units=1/GPa)
#
#
# Indices 1 2 3 4 5 6 
#
# 1 0.031776 -0.000300 -0.009872 0.003248 -0.005557 -0.008738
# 2 -0.000300 0.016156 -0.006472 0.005479 0.006112 -0.002172
# 3 -0.009872 -0.006472 0.016468 -0.008081 -0.003539 0.004667
# 4 0.003248 0.005479 -0.008081 0.038733 0.001672 -0.006155
# 5 -0.005557 0.006112 -0.003539 0.001672 0.040594 -0.019692
# 6 -0.008738 -0.002172 0.004667 -0.006155 -0.019692 0.075529
#
#
# Mechanical properties :
#
#
# Convention : Reuss Voigt Hill
#
# Bulk Modulus (GPa) = 32.14242 42.05119 37.09681
# Shear Modulus (GPa) = 19.01749 25.66825 22.34287
#
# Velocity S-wave (km/s) = 3.08643 3.58573 3.34541
# Velocity P-wave (km/s) = 5.36673 6.18119 5.78830
#
# Compressibility (1/GPa) = 0.03111153
#
# Stress axis : x y z
#
# Youngs Moduli (GPa) = 31.47008 61.89544 60.72380
#
# Poissons Ratio (x) = 0.01859 0.59947
# Poissons Ratio (y) = 0.00945 0.39300
# Poissons Ratio (z) = 0.31068 0.40058
#
# Static dielectric constant tensor:
#      x y z
#    x 3.251190 0.119200 0.174540 
#    y 0.119200 3.608580 -0.026130 
#    z 0.174540 -0.026130 3.588510 
# 
# 
# High freq. dielectric constant tensor:
#      x y z
#    x 1.747980 0.009960 0.015790 
#    y 0.009960 1.785280 0.000330 
#    z 0.015790 0.000330 1.782480 
# 
# From -- ./inp_files/562137.got.cif
#   From: 2010.06.25/outbox.cif.g09.slc.cpg/sg2_282_cif.got.tgz:562137.got - 2010.06.27 13:26:56.
