data_PCOD8040273
_publ_section_title
;
Structure prediction by ZEFSAII (Michael W. Deem and Ramdas Pophale) SiO2 
 PCOD8040273
Probable space group: P -1
;
_chemical_formula_sum "Si O2"
_cell_formula_units_Z 16
_cell_length_a 6.729425
_cell_length_b 20.623544
_cell_length_c 9.256638
_cell_angle_alpha 115.658972
_cell_angle_beta 129.002055
_cell_angle_gamma 52.523832
_cell_volume 789.681716
_symmetry_space_group_name_H-M "P -1"
_symmetry_group_IT_number 2
_symmetry_cell_setting 'triclinic'
loop_
_space_group_symop_operation_xyz
x,y,z
-x,-y,-z
loop_
_atom_site_type_symbol
_atom_site_label
_atom_site_fract_x
_atom_site_fract_y
_atom_site_fract_z
Si Si1 0.188709 0.535395 0.550001
Si Si2 0.270686 0.112221 0.609294
Si Si3 0.156356 0.280252 0.435137
Si Si4 0.373179 0.057937 0.280448
Si Si5 0.151216 0.543986 0.200430
Si Si6 0.787546 0.192197 0.153284
Si Si7 0.285366 0.273975 0.801259
Si Si8 0.626218 0.151774 0.327612
O O1 0.163968 0.525039 0.357782
O O2 0.513258 0.488352 0.720651
O O3 0.000000 0.500000 0.500000
O O4 0.062899 0.629180 0.631694
O O5 0.395251 0.092648 0.483362
O O6 0.232283 0.197248 0.734986
O O7 0.961244 0.115627 0.488751
O O8 0.497593 0.039641 0.747360
O O9 0.321960 0.283982 0.658236
O O10 0.403234 0.234708 0.385807
O O11 0.966857 0.235006 0.345073
O O12 0.548106 0.080171 0.261745
O O13 0.032030 0.102954 0.119895
O O14 0.975649 0.640966 0.176557
O O15 0.000000 0.500000 0.000000
O O16 0.591258 0.177693 0.168307
O O17 0.590457 0.252258 0.995432
#
# Coordination Sequence:
#
# PCOD8040273 Si02
#       8
#     2   2   2   2   2   2   2   2
#     4  10  23  39  64  89 115 156 200 244 299 358
#     4  10  19  35  60  85 115 153 195 237 288 344
#     4  10  21  40  59  84 118 152 191 239 292 347
#     4   9  19  37  57  84 118 154 190 240 291 335
#     4  10  23  42  61  87 124 156 194 248 300 354
#     4  10  21  38  58  86 119 153 192 240 287 341
#     4  11  21  39  61  85 115 156 194 235 292 347
#     4  10  18  36  60  84 116 152 195 237 287 339
#
# _framework density 20.261326
#
# number of rings (size 3 to 8) (size 9 to 14) (size 15 to 20)
#    0.000    2.000    3.750    1.125    1.750    3.000 
#    4.500    0.625    0.000    0.000    0.000    0.000 
#    0.000    0.000    0.000    0.000    0.000    0.000 
#
# Total GULP energy -198310.407627 kJ/mol
# GULP energy per Si atom -12394.400477 kJ/mol
# Density = 2.021521 g / cm^3
# Si number density = 20.261326 Si / 1000 Ang^3
#
#
#
# Elastic Constant Matrix: (Units=GPa)
#
#
# Indices 1 2 3 4 5 6 
#
# 1 121.5623 39.3232 26.4103 -5.7287 13.7419 4.3411
# 2 39.3232 171.9662 45.6232 -16.4279 12.0182 -6.7220
# 3 26.4103 45.6232 92.3535 -18.8384 11.7694 -7.2923
# 4 -5.7287 -16.4279 -18.8384 34.9640 -5.1062 6.8239
# 5 13.7419 12.0182 11.7694 -5.1062 13.8531 -4.7658
# 6 4.3411 -6.7220 -7.2923 6.8239 -4.7658 27.7850
#
#
#
# Elastic Compliance Matrix: (Units=1/GPa)
#
#
# Indices 1 2 3 4 5 6 
#
# 1 0.010151 -0.001507 -0.001382 -0.000371 -0.009022 -0.003769
# 2 -0.001507 0.007110 -0.002526 0.001341 -0.001808 0.000653
# 3 -0.001382 -0.002526 0.014437 0.005230 -0.006429 0.001007
# 4 -0.000371 0.001341 0.005230 0.033865 0.005299 -0.005653
# 5 -0.009022 -0.001808 -0.006429 0.005299 0.095034 0.014284
# 6 -0.003769 0.000653 0.001007 -0.005653 0.014284 0.040840
#
#
# Mechanical properties :
#
#
# Convention : Reuss Voigt Hill
#
# Bulk Modulus (GPa) = 47.92082 67.62171 57.77126
# Shear Modulus (GPa) = 22.80798 33.62210 28.21504
#
# Velocity S-wave (km/s) = 3.35877 4.07802 3.73575
# Velocity P-wave (km/s) = 6.22451 7.45794 6.86897
#
# Compressibility (1/GPa) = 0.02086776
#
# Stress axis : x y z
#
# Youngs Moduli (GPa) = 98.51340 140.65100 69.26879
#
# Poissons Ratio (x) = 0.21194 0.09574
# Poissons Ratio (y) = 0.14844 0.17496
# Poissons Ratio (z) = 0.13616 0.35525
#
# Static dielectric constant tensor:
#      x y z
#    x 3.489970 -0.092220 0.041570 
#    y -0.092220 3.816070 -0.217870 
#    z 0.041570 -0.217870 3.515270 
# 
# 
# High freq. dielectric constant tensor:
#      x y z
#    x 1.777980 -0.003390 0.006070 
#    y -0.003390 1.813120 -0.017610 
#    z 0.006070 -0.017610 1.772120 
# 
# From -- ./inp_files/127601.got.cif
#   From: 2010.06.25/outbox.cif.g09.slc.cpg/sg2_64_cif.got.tgz:127601.got - 2010.06.27 13:26:56.
