data_PCOD8040948
_publ_section_title
;
Structure prediction by ZEFSAII (Michael W. Deem and Ramdas Pophale) SiO2 
 PCOD8040948
Probable space group: P -1
;
_chemical_formula_sum "Si O2"
_cell_formula_units_Z 14
_cell_length_a 12.618309
_cell_length_b 8.095384
_cell_length_c 9.052229
_cell_angle_alpha 112.067514
_cell_angle_beta 109.187804
_cell_angle_gamma 58.218972
_cell_volume 718.350566
_symmetry_space_group_name_H-M "P -1"
_symmetry_group_IT_number 2
_symmetry_cell_setting 'triclinic'
loop_
_space_group_symop_operation_xyz
x,y,z
-x,-y,-z
loop_
_atom_site_type_symbol
_atom_site_label
_atom_site_fract_x
_atom_site_fract_y
_atom_site_fract_z
Si Si1 0.392972 0.205795 0.459949
Si Si2 0.826715 0.891099 0.738714
Si Si3 0.480411 0.380974 0.316959
Si Si4 0.309921 0.606249 0.736784
Si Si5 0.966819 0.075419 0.346625
Si Si6 0.995461 0.189781 0.974401
Si Si7 0.279536 0.655774 0.079784
O O1 0.259341 0.203958 0.391102
O O2 0.437475 0.227896 0.321815
O O3 0.374745 0.383670 0.622698
O O4 0.500000 0.000000 0.500000
O O5 0.920902 0.882314 0.648489
O O6 0.740757 0.119120 0.828757
O O7 0.908752 0.753996 0.871117
O O8 0.500000 0.500000 0.500000
O O9 0.613614 0.277575 0.254023
O O10 0.374360 0.518743 0.200061
O O11 0.164530 0.723099 0.660448
O O12 0.330199 0.584729 0.914491
O O13 0.000000 0.000000 0.500000
O O14 0.956720 0.892244 0.195401
O O15 0.850821 0.362351 0.966010
O O16 0.000000 0.000000 0.000000
#
# Coordination Sequence:
#
# PCOD8040948 Si02
#       7
#     2   2   2   2   2   2   2
#     4  11  26  41  56  85 127 159 194 249 305 339
#     4  10  19  40  62  84 127 151 188 250 304 344
#     4  10  23  37  61  85 113 160 207 237 289 354
#     4  11  21  40  63  90 117 156 206 240 289 363
#     4  10  20  33  65  98 112 150 201 245 288 354
#     4   8  16  34  59  85 118 145 189 235 300 346
#     4  10  18  40  65  88 111 158 205 243 287 358
#
# _framework density 19.489089
#
# number of rings (size 3 to 8) (size 9 to 14) (size 15 to 20)
#    0.000    2.286    4.286    2.143   10.000    0.571 
#    0.000    5.000    0.000    0.000    0.000    0.000 
#    0.000    0.000    0.000    0.000    0.000    0.000 
#
# Total GULP energy -173474.186537 kJ/mol
# GULP energy per Si atom -12391.013324 kJ/mol
# Density = 1.944473 g / cm^3
# Si number density = 19.489089 Si / 1000 Ang^3
#
#
#
# Elastic Constant Matrix: (Units=GPa)
#
#
# Indices 1 2 3 4 5 6 
#
# 1 130.5936 53.9921 58.9716 -12.3790 -1.5800 -13.6363
# 2 53.9921 69.4973 57.5299 -10.4924 -10.9721 -10.2211
# 3 58.9716 57.5299 152.2168 -31.2653 -14.8776 -10.7198
# 4 -12.3790 -10.4924 -31.2653 33.4130 -8.3738 -0.2900
# 5 -1.5800 -10.9721 -14.8776 -8.3738 32.1621 -0.8902
# 6 -13.6363 -10.2211 -10.7198 -0.2900 -0.8902 22.9877
#
#
#
# Elastic Compliance Matrix: (Units=1/GPa)
#
#
# Indices 1 2 3 4 5 6 
#
# 1 0.011959 -0.007934 -0.001864 -0.000548 -0.003053 0.002572
# 2 -0.007934 0.027590 -0.005909 0.001980 0.006946 0.005099
# 3 -0.001864 -0.005909 0.012596 0.010925 0.006634 0.002535
# 4 -0.000548 0.001980 0.010925 0.045046 0.017621 0.006900
# 5 -0.003053 0.006946 0.006634 0.017621 0.041140 0.006186
# 6 0.002572 0.005099 0.002535 0.006900 0.006186 0.048803
#
#
# Mechanical properties :
#
#
# Convention : Reuss Voigt Hill
#
# Bulk Modulus (GPa) = 48.23921 77.03278 62.63600
# Shear Modulus (GPa) = 22.17693 29.83350 26.00522
#
# Velocity S-wave (km/s) = 3.37696 3.91676 3.65684
# Velocity P-wave (km/s) = 6.32541 7.75027 7.07380
#
# Compressibility (1/GPa) = 0.02073002
#
# Stress axis : x y z
#
# Youngs Moduli (GPa) = 83.61782 36.24486 79.39025
#
# Poissons Ratio (x) = 0.28758 0.14801
# Poissons Ratio (y) = 0.66344 0.46912
# Poissons Ratio (z) = 0.15590 0.21417
#
# Static dielectric constant tensor:
#      x y z
#    x 4.073960 -0.250370 0.032290 
#    y -0.250370 3.287180 -0.166340 
#    z 0.032290 -0.166340 4.056070 
# 
# 
# High freq. dielectric constant tensor:
#      x y z
#    x 1.764240 -0.028400 -0.000380 
#    y -0.028400 1.725070 -0.016750 
#    z -0.000380 -0.016750 1.774760 
# 
# From -- ./inp_files/188133.got.cif
#   From: 2010.06.25/outbox.cif.g09.slc.cpg/sg2_95_cif.got.tgz:188133.got - 2010.06.27 13:26:56.
