data_PCOD8040615
_publ_section_title
;
Structure prediction by ZEFSAII (Michael W. Deem and Ramdas Pophale) SiO2 
 PCOD8040615
Probable space group: P -1
;
_chemical_formula_sum "Si O2"
_cell_formula_units_Z 16
_cell_length_a 8.621967
_cell_length_b 15.870097
_cell_length_c 10.251386
_cell_angle_alpha 45.932875
_cell_angle_beta 133.801346
_cell_angle_gamma 135.022694
_cell_volume 654.731599
_symmetry_space_group_name_H-M "P -1"
_symmetry_group_IT_number 2
_symmetry_cell_setting 'triclinic'
loop_
_space_group_symop_operation_xyz
x,y,z
-x,-y,-z
loop_
_atom_site_type_symbol
_atom_site_label
_atom_site_fract_x
_atom_site_fract_y
_atom_site_fract_z
Si Si1 0.895060 0.421952 0.884459
Si Si2 0.347019 0.317934 0.690133
Si Si3 0.726268 0.158714 0.937525
Si Si4 0.026554 0.599124 0.524364
Si Si5 0.316681 0.935057 0.706716
Si Si6 0.780051 0.962937 0.000670
Si Si7 0.843211 0.683016 0.690371
Si Si8 0.485262 0.217112 0.500776
O O1 0.627059 0.390541 0.807654
O O2 0.908737 0.292424 0.970469
O O3 0.015590 0.538218 0.726501
O O4 0.928026 0.568687 0.897215
O O5 0.185905 0.354604 0.659990
O O6 0.308986 0.368084 0.473407
O O7 0.265429 0.163458 0.803360
O O8 0.851346 0.094378 0.986244
O O9 0.558946 0.207500 0.704054
O O10 0.610880 0.058054 0.100719
O O11 0.000000 0.500000 0.500000
O O12 0.286546 0.720148 0.529200
O O13 0.073892 0.818151 0.647226
O O14 0.559151 0.930694 0.802992
O O15 0.312645 0.069357 0.513736
O O16 0.000000 0.000000 0.000000
O O17 0.672952 0.702175 0.679557
#
# Coordination Sequence:
#
# PCOD8040615 Si02
#       8
#     2   2   2   2   2   2   2   2
#     4  11  24  44  69  99 128 181 235 262 328 395
#     4  12  23  45  70  97 136 175 226 278 324 402
#     4  10  18  37  64  95 131 166 218 262 319 398
#     4  12  26  44  69  95 133 182 224 279 337 390
#     4  10  20  37  64  98 133 171 219 262 329 409
#     4  11  21  35  64 102 137 170 206 277 339 384
#     4  11  22  41  70  98 132 175 224 272 327 401
#     4  11  20  38  64 100 135 171 218 271 331 391
#
# _framework density 24.437494999999998
#
# number of rings (size 3 to 8) (size 9 to 14) (size 15 to 20)
#    0.000    1.000    5.000    4.500    0.000    2.000 
#    0.000    6.250    0.000    0.000    0.000    0.000 
#    0.000    0.000    0.000    0.000    0.000    0.000 
#
# Total GULP energy -198319.406674 kJ/mol
# GULP energy per Si atom -12394.962917 kJ/mol
# Density = 2.438187 g / cm^3
# Si number density = 24.437495 Si / 1000 Ang^3
#
#
#
# Elastic Constant Matrix: (Units=GPa)
#
#
# Indices 1 2 3 4 5 6 
#
# 1 147.6900 51.8693 56.8055 -6.6984 39.3874 15.5453
# 2 51.8693 101.2160 41.9336 -10.7248 12.9697 10.8723
# 3 56.8055 41.9336 137.0973 -12.2566 25.0444 3.0106
# 4 -6.6984 -10.7248 -12.2566 46.9762 -1.8154 2.9959
# 5 39.3874 12.9697 25.0444 -1.8154 46.0374 -12.6947
# 6 15.5453 10.8723 3.0106 2.9959 -12.6947 39.1351
#
#
#
# Elastic Compliance Matrix: (Units=1/GPa)
#
#
# Indices 1 2 3 4 5 6 
#
# 1 0.012259 -0.003297 -0.001950 0.000544 -0.010475 -0.007243
# 2 -0.003297 0.013030 -0.002364 0.002031 -0.000125 -0.002325
# 3 -0.001950 -0.002364 0.009497 0.001572 -0.002866 -0.000349
# 4 0.000544 0.002031 0.001572 0.022371 -0.001901 -0.003230
# 5 -0.010475 -0.000125 -0.002866 -0.001901 0.036748 0.016482
# 6 -0.007243 -0.002325 -0.000349 -0.003230 0.016482 0.034696
#
#
# Mechanical properties :
#
#
# Convention : Reuss Voigt Hill
#
# Bulk Modulus (GPa) = 51.11253 76.35779 63.73516
# Shear Modulus (GPa) = 33.25715 42.12274 37.68994
#
# Velocity S-wave (km/s) = 3.69305 4.15624 3.93147
# Velocity P-wave (km/s) = 6.25666 7.37201 6.83712
#
# Compressibility (1/GPa) = 0.01956468
#
# Stress axis : x y z
#
# Youngs Moduli (GPa) = 81.57022 76.74850 105.29733
#
# Poissons Ratio (x) = 0.25301 0.20534
# Poissons Ratio (y) = 0.26891 0.24891
# Poissons Ratio (z) = 0.15907 0.18142
#
# Static dielectric constant tensor:
#      x y z
#    x 4.477160 -0.207110 0.333770 
#    y -0.207110 4.546010 -0.168700 
#    z 0.333770 -0.168700 4.645550 
# 
# 
# High freq. dielectric constant tensor:
#      x y z
#    x 1.966090 -0.007730 0.025320 
#    y -0.007730 1.992080 -0.021600 
#    z 0.025320 -0.021600 1.973560 
# 
# From -- ./inp_files/257611.got.cif
#   From: 2010.06.25/outbox.cif.g09.slc.cpg/sg2_129_cif.got.tgz:257611.got - 2010.06.27 13:26:56.
