data_PCOD8040979
_publ_section_title
;
Structure prediction by ZEFSAII (Michael W. Deem and Ramdas Pophale) SiO2 
 PCOD8040979
Probable space group: P -1
;
_chemical_formula_sum "Si O2"
_cell_formula_units_Z 16
_cell_length_a 10.662116
_cell_length_b 13.046096
_cell_length_c 11.097654
_cell_angle_alpha 33.618586
_cell_angle_beta 63.243980
_cell_angle_gamma 53.553216
_cell_volume 684.062648
_symmetry_space_group_name_H-M "P -1"
_symmetry_group_IT_number 2
_symmetry_cell_setting 'triclinic'
loop_
_space_group_symop_operation_xyz
x,y,z
-x,-y,-z
loop_
_atom_site_type_symbol
_atom_site_label
_atom_site_fract_x
_atom_site_fract_y
_atom_site_fract_z
Si Si1 0.639576 0.627490 0.566530
Si Si2 0.320979 0.553061 0.031863
Si Si3 0.037547 0.942906 0.848788
Si Si4 0.441728 0.468234 0.686027
Si Si5 0.836682 0.336237 0.244816
Si Si6 0.955720 0.312622 0.680469
Si Si7 0.482714 0.040093 0.109043
Si Si8 0.848379 0.931918 0.708884
O O1 0.690359 0.601997 0.709648
O O2 0.480261 0.605794 0.631904
O O3 0.767955 0.434571 0.624843
O O4 0.615319 0.849626 0.311078
O O5 0.500000 0.500000 0.000000
O O6 0.216182 0.791909 0.882052
O O7 0.256976 0.511302 0.974256
O O8 0.916489 0.970315 0.767476
O O9 0.986685 0.838911 0.081781
O O10 0.025302 0.167187 0.674701
O O11 0.500000 0.500000 0.500000
O O12 0.250975 0.554109 0.698986
O O13 0.522608 0.231363 0.924425
O O14 0.022217 0.276870 0.210139
O O15 0.820696 0.121956 0.446900
O O16 0.000000 0.500000 0.500000
O O17 0.308578 0.092556 0.178357
O O18 0.500000 0.000000 0.000000
#
# Coordination Sequence:
#
# PCOD8040979 Si02
#       8
#     2   2   2   2   2   2   2   2
#     4  11  24  41  65  94 132 171 220 270 334 392
#     4  10  18  40  70  89 125 175 220 265 323 398
#     4   9  22  38  64  93 124 169 215 263 323 392
#     4  12  24  41  66 101 129 171 221 273 346 391
#     4  10  21  41  70  94 129 178 218 274 337 398
#     4  10  23  40  62  92 130 170 213 265 328 391
#     4  12  25  39  65 100 135 171 223 277 329 400
#     4  10  21  41  67  95 131 176 222 271 338 392
#
# _framework density 23.389668
#
# number of rings (size 3 to 8) (size 9 to 14) (size 15 to 20)
#    0.000    1.500    3.750    0.000    5.250    2.500 
#    0.000    0.625   22.000    0.000    0.000    0.000 
#    0.000    0.000    0.000    0.000    0.000    0.000 
#
# Total GULP energy -198221.709209 kJ/mol
# GULP energy per Si atom -12388.856826 kJ/mol
# Density = 2.333643 g / cm^3
# Si number density = 23.389668 Si / 1000 Ang^3
#
#
#
# Elastic Constant Matrix: (Units=GPa)
#
#
# Indices 1 2 3 4 5 6 
#
# 1 42.6355 12.6062 26.5921 4.3653 9.3801 -2.0471
# 2 12.6062 132.8461 39.6646 9.0277 9.2475 -14.3477
# 3 26.5921 39.6646 150.4917 -7.1653 14.9987 5.4339
# 4 4.3653 9.0277 -7.1653 36.9060 4.9160 -4.9364
# 5 9.3801 9.2475 14.9987 4.9160 37.5427 -6.1552
# 6 -2.0471 -14.3477 5.4339 -4.9364 -6.1552 32.2071
#
#
#
# Elastic Compliance Matrix: (Units=1/GPa)
#
#
# Indices 1 2 3 4 5 6 
#
# 1 0.027800 -0.000674 -0.004483 -0.003289 -0.004415 0.000875
# 2 -0.000674 0.008903 -0.002456 -0.002023 -0.000122 0.004004
# 3 -0.004483 -0.002456 0.008572 0.002746 -0.002533 -0.002888
# 4 -0.003289 -0.002023 0.002746 0.029250 -0.003232 0.002292
# 5 -0.004415 -0.000122 -0.002533 -0.003232 0.030081 0.005346
# 6 0.000875 0.004004 -0.002888 0.002292 0.005346 0.034749
#
#
# Mechanical properties :
#
#
# Convention : Reuss Voigt Hill
#
# Bulk Modulus (GPa) = 33.27952 53.74435 43.51193
# Shear Modulus (GPa) = 30.37716 37.80520 34.09118
#
# Velocity S-wave (km/s) = 3.60772 4.02471 3.82190
# Velocity P-wave (km/s) = 5.62257 6.68023 6.17409
#
# Compressibility (1/GPa) = 0.03004851
#
# Stress axis : x y z
#
# Youngs Moduli (GPa) = 35.97139 112.31757 116.66087
#
# Poissons Ratio (x) = 0.07573 0.52296
# Poissons Ratio (y) = 0.02425 0.28655
# Poissons Ratio (z) = 0.16125 0.27588
#
# Static dielectric constant tensor:
#      x y z
#    x 3.997150 -0.469270 0.301130 
#    y -0.469270 4.961480 -0.110990 
#    z 0.301130 -0.110990 4.650960 
# 
# 
# High freq. dielectric constant tensor:
#      x y z
#    x 1.888680 -0.026970 0.019050 
#    y -0.026970 1.942050 0.002870 
#    z 0.019050 0.002870 1.932990 
# 
# From -- ./inp_files/432273.got.cif
#   From: 2010.06.25/outbox.cif.g09.slc.cpg/sg2_217_cif.got.tgz:432273.got - 2010.06.27 13:26:56.
