data_PCOD8040069
_publ_section_title
;
Structure prediction by ZEFSAII (Michael W. Deem and Ramdas Pophale) SiO2 
 PCOD8040069
Probable space group: P -1
;
_chemical_formula_sum "Si O2"
_cell_formula_units_Z 16
_cell_length_a 8.193913
_cell_length_b 8.631493
_cell_length_c 12.202472
_cell_angle_alpha 75.132983
_cell_angle_beta 94.578558
_cell_angle_gamma 118.395056
_cell_volume 732.878315
_symmetry_space_group_name_H-M "P -1"
_symmetry_group_IT_number 2
_symmetry_cell_setting 'triclinic'
loop_
_space_group_symop_operation_xyz
x,y,z
-x,-y,-z
loop_
_atom_site_type_symbol
_atom_site_label
_atom_site_fract_x
_atom_site_fract_y
_atom_site_fract_z
Si Si1 0.490074 0.692532 0.231753
Si Si2 0.691443 0.153196 0.940206
Si Si3 0.164329 0.922613 0.832971
Si Si4 0.092367 0.905729 0.227241
Si Si5 0.749555 0.578583 0.562989
Si Si6 0.845417 0.240449 0.362806
Si Si7 0.255146 0.457857 0.683872
Si Si8 0.801754 0.945217 0.555019
O O1 0.343861 0.678546 0.130936
O O2 0.371380 0.614431 0.350112
O O3 0.598355 0.577483 0.228908
O O4 0.637705 0.904638 0.217358
O O5 0.753007 0.072921 0.855489
O O6 0.832153 0.199237 0.041709
O O7 0.500000 0.000000 0.000000
O O8 0.095731 0.793466 0.747444
O O9 0.015249 0.989018 0.842808
O O10 0.953357 0.692404 0.272354
O O11 0.188698 0.992668 0.331277
O O12 0.699629 0.558641 0.436733
O O13 0.689314 0.726080 0.581447
O O14 0.966810 0.638583 0.580604
O O15 0.723356 0.344527 0.325228
O O16 0.719892 0.052080 0.456522
O O17 0.000000 0.000000 0.500000
#
# Coordination Sequence:
#
# PCOD8040069 Si02
#       8
#     2   2   2   2   2   2   2   2
#     4  10  23  41  59  86 129 171 201 251 312 364
#     4  10  23  42  66  87 121 167 217 260 303 360
#     4  10  21  43  65  90 124 161 214 260 297 370
#     4  11  19  39  68  94 117 166 208 253 313 368
#     4  11  20  39  61  92 133 165 193 258 313 372
#     4  11  21  37  63  97 126 157 209 254 303 371
#     4  11  22  36  63  94 130 165 202 246 314 384
#     4  10  18  35  62  95 127 152 199 253 308 370
#
# _framework density 21.831728999999999
#
# number of rings (size 3 to 8) (size 9 to 14) (size 15 to 20)
#    0.000    1.500    5.000    2.625    1.750    0.000 
#    4.500    4.375    2.750    0.000    0.000    0.000 
#    0.000    0.000    0.000    0.000    0.000    0.000 
#
# Total GULP energy -198332.477504 kJ/mol
# GULP energy per Si atom -12395.779844 kJ/mol
# Density = 2.178204 g / cm^3
# Si number density = 21.831729 Si / 1000 Ang^3
#
#
#
# Elastic Constant Matrix: (Units=GPa)
#
#
# Indices 1 2 3 4 5 6 
#
# 1 87.4340 34.1442 63.3030 -11.8094 12.2858 -27.8701
# 2 34.1442 71.3342 44.6177 -8.8921 11.3967 -25.4800
# 3 63.3030 44.6177 149.8754 -3.8548 9.2424 -19.6386
# 4 -11.8094 -8.8921 -3.8548 28.6718 -6.1626 5.5460
# 5 12.2858 11.3967 9.2424 -6.1626 45.5420 -12.9157
# 6 -27.8701 -25.4800 -19.6386 5.5460 -12.9157 26.2797
#
#
#
# Elastic Compliance Matrix: (Units=1/GPa)
#
#
# Indices 1 2 3 4 5 6 
#
# 1 0.023238 0.000998 -0.007497 0.005373 0.001258 0.019495
# 2 0.000998 0.024274 -0.004910 0.003493 0.000988 0.020673
# 3 -0.007497 -0.004910 0.010684 -0.002420 -0.000512 -0.004468
# 4 0.005373 0.003493 -0.002420 0.038447 0.003640 0.000951
# 5 0.001258 0.000988 -0.000512 0.003640 0.025901 0.013872
# 6 0.019495 0.020673 -0.004468 0.000951 0.013872 0.082049
#
#
# Mechanical properties :
#
#
# Convention : Reuss Voigt Hill
#
# Bulk Modulus (GPa) = 28.26613 65.86374 47.06493
# Shear Modulus (GPa) = 20.90263 31.20392 26.05327
#
# Velocity S-wave (km/s) = 3.09761 3.78470 3.45826
# Velocity P-wave (km/s) = 5.07632 7.02374 6.12788
#
# Compressibility (1/GPa) = 0.03537803
#
# Stress axis : x y z
#
# Youngs Moduli (GPa) = 43.03216 41.19705 93.59369
#
# Poissons Ratio (x) = -0.04113 0.70171
# Poissons Ratio (y) = -0.04296 0.45956
# Poissons Ratio (z) = 0.32263 0.20228
#
# Static dielectric constant tensor:
#      x y z
#    x 4.068450 -0.229460 0.490920 
#    y -0.229460 3.918330 -0.435270 
#    z 0.490920 -0.435270 4.434280 
# 
# 
# High freq. dielectric constant tensor:
#      x y z
#    x 1.858330 -0.013760 0.012990 
#    y -0.013760 1.830920 -0.021000 
#    z 0.012990 -0.021000 1.860530 
# 
# From -- ./inp_files/216425.got.cif
#   From: 2010.06.25/outbox.cif.g09.slc.cpg/sg2_109_cif.got.tgz:216425.got - 2010.06.27 13:26:56.
