data_PCOD8040467
_publ_section_title
;
Structure prediction by ZEFSAII (Michael W. Deem and Ramdas Pophale) SiO2 
 PCOD8040467
Probable space group: P -1
;
_chemical_formula_sum "Si O2"
_cell_formula_units_Z 16
_cell_length_a 12.061987
_cell_length_b 9.366209
_cell_length_c 16.650541
_cell_angle_alpha 83.636692
_cell_angle_beta 122.064616
_cell_angle_gamma 48.310934
_cell_volume 809.703268
_symmetry_space_group_name_H-M "P -1"
_symmetry_group_IT_number 2
_symmetry_cell_setting 'triclinic'
loop_
_space_group_symop_operation_xyz
x,y,z
-x,-y,-z
loop_
_atom_site_type_symbol
_atom_site_label
_atom_site_fract_x
_atom_site_fract_y
_atom_site_fract_z
Si Si1 0.428457 0.673242 0.550679
Si Si2 0.105855 0.238163 0.991487
Si Si3 0.036229 0.079085 0.841453
Si Si4 0.361598 0.136638 0.228819
Si Si5 0.339756 0.855288 0.673425
Si Si6 0.522514 0.837738 0.465399
Si Si7 0.832521 0.266521 0.971851
Si Si8 0.931302 0.245290 0.625109
O O1 0.272497 0.856242 0.560300
O O2 0.373225 0.851276 0.453715
O O3 0.313814 0.632502 0.475066
O O4 0.727138 0.381298 0.709645
O O5 0.356451 0.069214 0.141391
O O6 0.166024 0.075616 0.950573
O O7 0.914930 0.542501 0.869773
O O8 0.963395 0.296794 0.009001
O O9 0.121734 0.024363 0.785747
O O10 0.144991 0.819160 0.924210
O O11 0.566655 0.070313 0.307639
O O12 0.421399 0.960542 0.329345
O O13 0.538746 0.560728 0.812837
O O14 0.077653 0.105826 0.606716
O O15 0.817378 0.509690 0.585881
O O16 0.500000 0.000000 0.500000
O O17 0.000000 0.000000 0.000000
#
# Coordination Sequence:
#
# PCOD8040467 Si02
#       8
#     2   2   2   2   2   2   2   2
#     4  11  21  40  59  89 119 159 200 241 292 354
#     4   9  18  32  58  87 107 145 195 258 278 337
#     4  10  18  37  57  87 112 146 205 246 287 340
#     4  10  19  34  58  86 112 149 201 235 302 341
#     4  11  21  41  55  88 127 154 190 247 301 352
#     4  11  21  39  64  84 116 161 202 250 280 350
#     4   9  17  32  63  80 107 152 193 244 287 338
#     4  11  26  35  60  88 128 157 191 243 303 354
#
# _framework density 19.760325999999999
#
# number of rings (size 3 to 8) (size 9 to 14) (size 15 to 20)
#    0.000    1.750    5.000    2.625    3.500    1.000 
#    0.000    0.625    0.000    0.000    0.000    0.000 
#    0.000    0.000    0.000    0.000    0.000    0.000 
#
# Total GULP energy -198259.452255 kJ/mol
# GULP energy per Si atom -12391.215766 kJ/mol
# Density = 1.971535 g / cm^3
# Si number density = 19.760326 Si / 1000 Ang^3
#
#
#
# Elastic Constant Matrix: (Units=GPa)
#
#
# Indices 1 2 3 4 5 6 
#
# 1 74.2422 30.7169 40.3774 -5.9360 -27.9115 -1.7820
# 2 30.7169 86.9711 23.9431 5.8000 -4.3484 1.3565
# 3 40.3774 23.9431 76.3615 3.8393 -29.0053 6.9622
# 4 -5.9360 5.8000 3.8393 36.1390 2.6910 1.7874
# 5 -27.9115 -4.3484 -29.0053 2.6910 37.8329 3.9543
# 6 -1.7820 1.3565 6.9622 1.7874 3.9543 30.5288
#
#
#
# Elastic Compliance Matrix: (Units=1/GPa)
#
#
# Indices 1 2 3 4 5 6 
#
# 1 0.024843 -0.006612 -0.007017 0.004942 0.011676 0.001543
# 2 -0.006612 0.014572 -0.003027 -0.002728 -0.005384 0.000514
# 3 -0.007017 -0.003027 0.023855 -0.003869 0.013800 -0.007276
# 4 0.004942 -0.002728 -0.003869 0.029469 -0.001708 -0.000212
# 5 0.011676 -0.005384 0.013800 -0.001708 0.045973 -0.008081
# 6 0.001543 0.000514 -0.007276 -0.000212 -0.008081 0.035542
#
#
# Mechanical properties :
#
#
# Convention : Reuss Voigt Hill
#
# Bulk Modulus (GPa) = 33.38245 47.51662 40.44953
# Shear Modulus (GPa) = 22.98303 30.40265 26.69284
#
# Velocity S-wave (km/s) = 3.41411 3.92672 3.67935
# Velocity P-wave (km/s) = 5.69841 6.68263 6.21005
#
# Compressibility (1/GPa) = 0.02995586
#
# Stress axis : x y z
#
# Youngs Moduli (GPa) = 40.25254 68.62688 41.92031
#
# Poissons Ratio (x) = 0.45378 0.29416
# Poissons Ratio (y) = 0.26616 0.12691
# Poissons Ratio (z) = 0.28246 0.20776
#
# Static dielectric constant tensor:
#      x y z
#    x 3.795150 0.159300 -0.565290 
#    y 0.159300 3.595460 0.125380 
#    z -0.565290 0.125380 3.680570 
# 
# 
# High freq. dielectric constant tensor:
#      x y z
#    x 1.754990 0.015500 -0.033720 
#    y 0.015500 1.768140 0.015180 
#    z -0.033720 0.015180 1.758670 
# 
# From -- ./inp_files/214408.got.cif
#   From: 2010.06.25/outbox.cif.g09.slc.cpg/sg2_108_cif.got.tgz:214408.got - 2010.06.27 13:26:56.
