data_PCOD8040520
_publ_section_title
;
Structure prediction by ZEFSAII (Michael W. Deem and Ramdas Pophale) SiO2 
 PCOD8040520
Probable space group: P -1
;
_chemical_formula_sum "Si O2"
_cell_formula_units_Z 14
_cell_length_a 24.384300
_cell_length_b 12.114202
_cell_length_c 13.744033
_cell_angle_alpha 44.637441
_cell_angle_beta 159.494428
_cell_angle_gamma 145.794847
_cell_volume 757.393256
_symmetry_space_group_name_H-M "P -1"
_symmetry_group_IT_number 2
_symmetry_cell_setting 'triclinic'
loop_
_space_group_symop_operation_xyz
x,y,z
-x,-y,-z
loop_
_atom_site_type_symbol
_atom_site_label
_atom_site_fract_x
_atom_site_fract_y
_atom_site_fract_z
Si Si1 0.386007 0.046807 0.169508
Si Si2 0.205051 0.817875 0.284479
Si Si3 0.224750 0.610884 0.145595
Si Si4 0.789239 0.322309 0.138574
Si Si5 0.343235 0.208668 0.181662
Si Si6 0.225870 0.487733 0.815971
Si Si7 0.476395 0.863597 0.861498
O O1 0.619661 0.137182 0.527044
O O2 0.313221 0.134130 0.066504
O O3 0.391548 0.117489 0.023125
O O4 0.230616 0.796703 0.071396
O O5 0.274038 0.821899 0.507467
O O6 0.209159 0.008330 0.155671
O O7 0.983657 0.602282 0.025874
O O8 0.415575 0.635588 0.488031
O O9 0.235796 0.606835 0.049908
O O10 0.764226 0.436908 0.107107
O O11 0.009420 0.381617 0.472081
O O12 0.612566 0.075862 0.015499
O O13 0.251685 0.319721 0.971771
O O14 0.409752 0.679121 0.936145
#
# Coordination Sequence:
#
# PCOD8040520 Si02
#       7
#     2   2   2   2   2   2   2
#     4   8  19  34  57  82 113 142 180 221 268 330
#     4   9  18  35  58  81 107 148 179 213 270 333
#     4  10  18  37  61  79 108 151 181 217 272 331
#     4  10  20  40  60  75 107 153 186 214 278 331
#     4  11  22  35  53  91 115 130 185 237 266 309
#     4  11  23  36  58  83 110 142 184 233 268 320
#     4   9  19  38  59  78 106 150 185 212 271 335
#
# _framework density 18.484452000000001
#
# number of rings (size 3 to 8) (size 9 to 14) (size 15 to 20)
#    0.857    1.429    2.857    2.143    0.000    4.571 
#    0.000    3.571    0.000    0.000    0.000    0.000 
#    0.000    0.000    0.000    0.000    0.000    0.000 
#
# Total GULP energy -173541.234412 kJ/mol
# GULP energy per Si atom -12395.802458 kJ/mol
# Density = 1.844238 g / cm^3
# Si number density = 18.484452 Si / 1000 Ang^3
#
#
#
# Elastic Constant Matrix: (Units=GPa)
#
#
# Indices 1 2 3 4 5 6 
#
# 1 63.1069 45.4204 31.9062 -2.9500 -8.7634 -11.2808
# 2 45.4204 120.7506 48.1191 11.4634 7.7203 6.5139
# 3 31.9062 48.1191 49.2616 13.6461 6.4995 -13.4681
# 4 -2.9500 11.4634 13.6461 38.6526 6.5439 5.2030
# 5 -8.7634 7.7203 6.4995 6.5439 11.8457 7.7720
# 6 -11.2808 6.5139 -13.4681 5.2030 7.7720 30.7011
#
#
#
# Elastic Compliance Matrix: (Units=1/GPa)
#
#
# Indices 1 2 3 4 5 6 
#
# 1 0.049296 -0.004909 -0.045767 0.012033 0.072041 -0.021199
# 2 -0.004909 0.019113 -0.021820 0.003051 0.005590 -0.017363
# 3 -0.045767 -0.021820 0.113016 -0.027314 -0.112875 0.070595
# 4 0.012033 0.003051 -0.027314 0.035564 0.013902 -0.017755
# 5 0.072041 0.005590 -0.112875 0.013902 0.246752 -0.089053
# 6 -0.021199 -0.017363 0.070595 -0.017755 -0.089053 0.084989
#
#
# Mechanical properties :
#
#
# Convention : Reuss Voigt Hill
#
# Bulk Modulus (GPa) = 27.44818 53.77895 40.61356
# Shear Modulus (GPa) = 7.08351 23.41809 15.25080
#
# Velocity S-wave (km/s) = 1.95971 3.56323 2.87550
# Velocity P-wave (km/s) = 4.47238 6.78867 5.74840
#
# Compressibility (1/GPa) = 0.03643229
#
# Stress axis : x y z
#
# Youngs Moduli (GPa) = 20.28569 52.32028 8.84834
#
# Poissons Ratio (x) = 0.25686 0.40496
# Poissons Ratio (y) = 0.09959 0.19307
# Poissons Ratio (z) = 0.92841 1.14163
#
# Static dielectric constant tensor:
#      x y z
#    x 3.262080 0.085420 -0.183180 
#    y 0.085420 3.273850 0.245810 
#    z -0.183180 0.245810 3.247800 
# 
# 
# High freq. dielectric constant tensor:
#      x y z
#    x 1.712920 0.011880 -0.019330 
#    y 0.011880 1.713190 0.023220 
#    z -0.019330 0.023220 1.699110 
# 
# From -- ./inp_files/543951.got.cif
#   From: 2010.06.25/outbox.cif.g09.slc.cpg/sg2_272_cif.got.tgz:543951.got - 2010.06.27 13:26:56.
