data_PCOD8040357
_publ_section_title
;
Structure prediction by ZEFSAII (Michael W. Deem and Ramdas Pophale) SiO2 
 PCOD8040357
Probable space group: P -1
;
_chemical_formula_sum "Si O2"
_cell_formula_units_Z 14
_cell_length_a 10.915265
_cell_length_b 20.566985
_cell_length_c 21.212078
_cell_angle_alpha 159.483707
_cell_angle_beta 22.249182
_cell_angle_gamma 150.760951
_cell_volume 631.330763
_symmetry_space_group_name_H-M "P -1"
_symmetry_group_IT_number 2
_symmetry_cell_setting 'triclinic'
loop_
_space_group_symop_operation_xyz
x,y,z
-x,-y,-z
loop_
_atom_site_type_symbol
_atom_site_label
_atom_site_fract_x
_atom_site_fract_y
_atom_site_fract_z
Si Si1 0.228844 0.258867 0.515599
Si Si2 0.652937 0.805012 0.739394
Si Si3 0.779686 0.926437 0.130354
Si Si4 0.767711 0.267983 0.524015
Si Si5 0.464583 0.578567 0.018813
Si Si6 0.533832 0.919578 0.102950
Si Si7 0.416612 0.407279 0.302793
O O1 0.385314 0.266950 0.378755
O O2 0.446360 0.381586 0.573410
O O3 0.868318 0.325665 0.748001
O O4 0.233532 0.049987 0.350920
O O5 0.463835 0.665306 0.751225
O O6 0.035883 0.814533 0.584621
O O7 0.500000 0.000000 0.000000
O O8 0.749396 0.735381 0.011502
O O9 0.588396 0.894183 0.127462
O O10 0.617410 0.094644 0.398244
O O11 0.156847 0.981568 0.990128
O O12 0.024136 0.392530 0.472127
O O13 0.488457 0.401710 0.800354
O O14 0.500000 0.500000 0.000000
O O15 0.444109 0.717464 0.932853
#
# Coordination Sequence:
#
# PCOD8040357 Si02
#       7
#     2   2   2   2   2   2   2
#     4  12  22  37  62  94 128 161 204 257 314 376
#     4  10  18  36  62  91 121 153 212 257 303 355
#     4  10  23  44  67  87 128 163 213 263 300 370
#     4   9  21  40  60  91 120 165 208 253 310 358
#     4  12  25  41  60  93 133 168 200 247 325 379
#     4  10  22  43  67  94 115 168 218 259 305 352
#     4   9  20  36  63  91 119 158 211 263 302 356
#
# _framework density 22.175381000000002
#
# number of rings (size 3 to 8) (size 9 to 14) (size 15 to 20)
#    0.857    0.857    2.857    1.286    0.000    5.714 
#    0.000    5.714    0.000    0.000    0.000    0.000 
#    0.000    0.000    0.000    0.000    0.000    0.000 
#
# Total GULP energy -173532.089433 kJ/mol
# GULP energy per Si atom -12395.149245 kJ/mol
# Density = 2.212491 g / cm^3
# Si number density = 22.175381 Si / 1000 Ang^3
#
#
#
# Elastic Constant Matrix: (Units=GPa)
#
#
# Indices 1 2 3 4 5 6 
#
# 1 98.3601 31.2049 47.9323 14.3818 20.8418 10.2925
# 2 31.2049 57.6111 21.3042 13.2966 23.6620 -0.8906
# 3 47.9323 21.3042 165.6420 21.8201 17.5899 9.1862
# 4 14.3818 13.2966 21.8201 21.5923 18.0782 6.4464
# 5 20.8418 23.6620 17.5899 18.0782 34.8575 11.0578
# 6 10.2925 -0.8906 9.1862 6.4464 11.0578 29.2086
#
#
#
# Elastic Compliance Matrix: (Units=1/GPa)
#
#
# Indices 1 2 3 4 5 6 
#
# 1 0.014261 -0.005899 -0.002936 -0.000418 -0.001699 -0.003546
# 2 -0.005899 0.028701 -0.000480 -0.000784 -0.018578 0.010311
# 3 -0.002936 -0.000480 0.007695 -0.007063 0.002058 -0.000621
# 4 -0.000418 -0.000784 -0.007063 0.089484 -0.041530 -0.001682
# 5 -0.001699 -0.018578 0.002058 -0.041530 0.068306 -0.017309
# 6 -0.003546 0.010311 -0.000621 -0.001682 -0.017309 0.042920
#
#
# Mechanical properties :
#
#
# Convention : Reuss Voigt Hill
#
# Bulk Modulus (GPa) = 31.22427 58.05512 44.63970
# Shear Modulus (GPa) = 17.81432 31.87647 24.84539
#
# Velocity S-wave (km/s) = 2.83740 3.79551 3.35088
# Velocity P-wave (km/s) = 4.98454 6.74127 5.92833
#
# Compressibility (1/GPa) = 0.03202637
#
# Stress axis : x y z
#
# Youngs Moduli (GPa) = 70.11997 34.84160 129.96034
#
# Poissons Ratio (x) = 0.20555 0.38155
# Poissons Ratio (y) = 0.41367 0.06239
# Poissons Ratio (z) = 0.20587 0.01673
#
# Static dielectric constant tensor:
#      x y z
#    x 3.887700 -0.061910 0.195840 
#    y -0.061910 3.656260 0.205510 
#    z 0.195840 0.205510 4.071660 
# 
# 
# High freq. dielectric constant tensor:
#      x y z
#    x 1.865190 0.002550 0.013910 
#    y 0.002550 1.837380 0.023670 
#    z 0.013910 0.023670 1.882990 
# 
# From -- ./inp_files/610980.got.cif
#   From: 2010.06.25/outbox.cif.g09.slc.cpg/sg2_306_cif.got.tgz:610980.got - 2010.06.27 13:26:56.
