data_PCOD8040314
_publ_section_title
;
Structure prediction by ZEFSAII (Michael W. Deem and Ramdas Pophale) SiO2 
 PCOD8040314
Probable space group: P -1
;
_chemical_formula_sum "Si O2"
_cell_formula_units_Z 16
_cell_length_a 10.590261
_cell_length_b 9.656728
_cell_length_c 18.196564
_cell_angle_alpha 67.775234
_cell_angle_beta 125.572126
_cell_angle_gamma 67.435680
_cell_volume 837.252500
_symmetry_space_group_name_H-M "P -1"
_symmetry_group_IT_number 2
_symmetry_cell_setting 'triclinic'
loop_
_space_group_symop_operation_xyz
x,y,z
-x,-y,-z
loop_
_atom_site_type_symbol
_atom_site_label
_atom_site_fract_x
_atom_site_fract_y
_atom_site_fract_z
Si Si1 0.783199 0.737012 0.931887
Si Si2 0.710109 0.594129 0.078975
Si Si3 0.469037 0.037536 0.632365
Si Si4 0.858312 0.979559 0.153763
Si Si5 0.034664 0.522767 0.309849
Si Si6 0.560906 0.697935 0.626607
Si Si7 0.854106 0.967400 0.697635
Si Si8 0.005673 0.837276 0.071493
O O1 0.520293 0.968530 0.749753
O O2 0.725023 0.676716 0.992850
O O3 0.000000 0.500000 0.000000
O O4 0.880813 0.820073 0.975971
O O5 0.785243 0.630679 0.170170
O O6 0.417456 0.763479 0.956969
O O7 0.890258 0.310536 0.190302
O O8 0.176489 0.326317 0.464183
O O9 0.684341 0.987867 0.685931
O O10 0.489002 0.862143 0.635405
O O11 0.957881 0.745727 0.268798
O O12 0.066677 0.948311 0.246105
O O13 0.833796 0.975155 0.059152
O O14 0.238337 0.366129 0.343168
O O15 0.307503 0.849529 0.464090
O O16 0.697583 0.441685 0.754072
O O17 0.000000 0.000000 0.000000
#
# Coordination Sequence:
#
# PCOD8040314 Si02
#       8
#     2   2   2   2   2   2   2   2
#     4  12  21  36  61  91 115 151 200 244 285 343
#     4  12  21  40  63  83 121 162 200 230 286 363
#     4  11  19  35  64  88 113 149 205 248 284 337
#     4  11  25  37  57  91 123 155 194 240 293 356
#     4  10  19  37  60  83 113 159 194 241 288 338
#     4  10  18  36  61  88 113 150 203 246 282 347
#     4  11  20  36  62  87 117 154 201 243 288 342
#     4  11  23  38  59  90 121 150 189 251 305 332
#
# _framework density 19.110123999999999
#
# number of rings (size 3 to 8) (size 9 to 14) (size 15 to 20)
#    0.000    1.000    7.500    2.250    0.000    5.500 
#    0.000    0.625    2.750    1.500    0.000    0.000 
#    0.000    0.000    0.000    0.000    0.000    0.000 
#
# Total GULP energy -198417.371276 kJ/mol
# GULP energy per Si atom -12401.085705 kJ/mol
# Density = 1.906663 g / cm^3
# Si number density = 19.110124 Si / 1000 Ang^3
#
#
#
# Elastic Constant Matrix: (Units=GPa)
#
#
# Indices 1 2 3 4 5 6 
#
# 1 51.2973 26.5902 41.4078 -0.8525 -4.2160 5.9683
# 2 26.5902 94.3038 38.2794 11.1206 -0.7790 12.9782
# 3 41.4078 38.2794 142.2765 6.5211 -23.9335 -2.4504
# 4 -0.8525 11.1206 6.5211 36.6957 5.3333 1.5546
# 5 -4.2160 -0.7790 -23.9335 5.3333 31.3574 -3.2788
# 6 5.9683 12.9782 -2.4504 1.5546 -3.2788 23.2333
#
#
#
# Elastic Compliance Matrix: (Units=1/GPa)
#
#
# Indices 1 2 3 4 5 6 
#
# 1 0.028946 -0.004464 -0.008193 0.004330 -0.003904 -0.006647
# 2 -0.004464 0.014482 -0.003047 -0.003229 -0.002795 -0.007443
# 3 -0.008193 -0.003047 0.012034 -0.003023 0.009210 0.006578
# 4 0.004330 -0.003229 -0.003023 0.030025 -0.007189 -0.002651
# 5 -0.003904 -0.002795 0.009210 -0.007189 0.040567 0.009742
# 6 -0.006647 -0.007443 0.006578 -0.002651 0.009742 0.051153
#
#
# Mechanical properties :
#
#
# Convention : Reuss Voigt Hill
#
# Bulk Modulus (GPa) = 41.57555 55.60359 48.58957
# Shear Modulus (GPa) = 23.08056 30.36397 26.72226
#
# Velocity S-wave (km/s) = 3.47906 3.99042 3.74348
# Velocity P-wave (km/s) = 6.15967 7.09865 6.64576
#
# Compressibility (1/GPa) = 0.02405260
#
# Stress axis : x y z
#
# Youngs Moduli (GPa) = 34.54681 69.05238 83.09800
#
# Poissons Ratio (x) = 0.30827 0.68082
# Poissons Ratio (y) = 0.15423 0.25324
# Poissons Ratio (z) = 0.28304 0.21043
#
# Static dielectric constant tensor:
#      x y z
#    x 3.188660 0.053090 -0.216010 
#    y 0.053090 3.581440 0.089900 
#    z -0.216010 0.089900 4.005860 
# 
# 
# High freq. dielectric constant tensor:
#      x y z
#    x 1.700020 0.015240 -0.011860 
#    y 0.015240 1.750820 0.001060 
#    z -0.011860 0.001060 1.760280 
# 
# From -- ./inp_files/259093.got.cif
#   From: 2010.06.25/outbox.cif.g09.slc.cpg/sg2_130_cif.got.tgz:259093.got - 2010.06.27 13:26:56.
