data_PCOD8040986
_publ_section_title
;
Structure prediction by ZEFSAII (Michael W. Deem and Ramdas Pophale) SiO2 
 PCOD8040986
Probable space group: P -1
;
_chemical_formula_sum "Si O2"
_cell_formula_units_Z 14
_cell_length_a 18.848890
_cell_length_b 7.663189
_cell_length_c 11.855840
_cell_angle_alpha 110.752260
_cell_angle_beta 29.029042
_cell_angle_gamma 111.014264
_cell_volume 772.572334
_symmetry_space_group_name_H-M "P -1"
_symmetry_group_IT_number 2
_symmetry_cell_setting 'triclinic'
loop_
_space_group_symop_operation_xyz
x,y,z
-x,-y,-z
loop_
_atom_site_type_symbol
_atom_site_label
_atom_site_fract_x
_atom_site_fract_y
_atom_site_fract_z
Si Si1 0.349373 0.565445 0.180997
Si Si2 0.227927 0.574653 0.889523
Si Si3 0.741909 0.141428 0.474897
Si Si4 0.576178 0.183431 0.492086
Si Si5 0.423058 0.542770 0.823797
Si Si6 0.257228 0.281433 0.603951
Si Si7 0.105647 0.476942 0.661469
O O1 0.338820 0.781263 0.284726
O O2 0.214763 0.432941 0.397147
O O3 0.500000 0.500000 0.000000
O O4 0.332290 0.548565 0.066889
O O5 0.285310 0.732482 0.755511
O O6 0.323029 0.607507 0.877645
O O7 0.240949 0.368646 0.771140
O O8 0.059748 0.598979 0.158495
O O9 0.625213 0.125386 0.533124
O O10 0.879435 0.295985 0.287027
O O11 0.796394 0.939597 0.375011
O O12 0.459238 0.333508 0.700050
O O13 0.500000 0.000000 0.500000
O O14 0.572071 0.683347 0.661708
O O15 0.153191 0.381120 0.687551
#
# Coordination Sequence:
#
# PCOD8040986 Si02
#       7
#     2   2   2   2   2   2   2
#     4  10  18  41  60  81 117 156 199 236 281 341
#     4  11  22  37  58  89 126 148 187 245 300 338
#     4  10  21  36  62  89 109 155 199 230 290 340
#     4  11  20  37  59  89 119 147 194 242 290 347
#     4  11  20  37  61  83 117 158 190 243 284 342
#     4  11  20  38  63  87 117 150 198 235 292 351
#     4  10  22  40  58  87 120 157 186 247 288 338
#
# _framework density 18.121279999999999
#
# number of rings (size 3 to 8) (size 9 to 14) (size 15 to 20)
#    0.857    0.571    5.714    3.857    0.000    1.714 
#    2.571    0.000    0.000    1.714    0.000    0.000 
#    0.000    0.000    0.000    0.000    0.000    0.000 
#
# Total GULP energy -173548.410021 kJ/mol
# GULP energy per Si atom -12396.315002 kJ/mol
# Density = 1.808004 g / cm^3
# Si number density = 18.121280 Si / 1000 Ang^3
#
#
#
# Elastic Constant Matrix: (Units=GPa)
#
#
# Indices 1 2 3 4 5 6 
#
# 1 93.5398 27.9830 37.0422 -1.2338 6.0846 0.6043
# 2 27.9830 115.5107 31.0735 1.8186 -5.2319 -10.5197
# 3 37.0422 31.0735 100.5634 -7.4022 1.2533 5.1844
# 4 -1.2338 1.8186 -7.4022 13.3658 5.9416 -2.1208
# 5 6.0846 -5.2319 1.2533 5.9416 30.3560 -0.0324
# 6 0.6043 -10.5197 5.1844 -2.1208 -0.0324 23.3047
#
#
#
# Elastic Compliance Matrix: (Units=1/GPa)
#
#
# Indices 1 2 3 4 5 6 
#
# 1 0.013182 -0.002286 -0.004050 0.000539 -0.002975 -0.000428
# 2 -0.002286 0.010722 -0.003073 -0.003972 0.003216 0.005226
# 3 -0.004050 -0.003073 0.013143 0.007538 -0.001739 -0.003522
# 4 0.000539 -0.003972 0.007538 0.088491 -0.018419 0.004543
# 5 -0.002975 0.003216 -0.001739 -0.018419 0.037770 0.000292
# 6 -0.000428 0.005226 -0.003522 0.004543 0.000292 0.046477
#
#
# Mechanical properties :
#
#
# Convention : Reuss Voigt Hill
#
# Bulk Modulus (GPa) = 54.85794 55.75681 55.30737
# Shear Modulus (GPa) = 21.30559 27.63966 24.47262
#
# Velocity S-wave (km/s) = 3.43260 3.90969 3.67889
# Velocity P-wave (km/s) = 6.78592 7.15657 6.97371
#
# Compressibility (1/GPa) = 0.01822890
#
# Stress axis : x y z
#
# Youngs Moduli (GPa) = 75.86198 93.26885 76.08354
#
# Poissons Ratio (x) = 0.21321 0.30816
# Poissons Ratio (y) = 0.17342 0.23379
# Poissons Ratio (z) = 0.30726 0.28659
#
# Static dielectric constant tensor:
#      x y z
#    x 3.368630 0.017400 0.140770 
#    y 0.017400 3.268260 -0.022700 
#    z 0.140770 -0.022700 3.302750 
# 
# 
# High freq. dielectric constant tensor:
#      x y z
#    x 1.703890 -0.001480 0.004670 
#    y -0.001480 1.686960 -0.003070 
#    z 0.004670 -0.003070 1.692990 
# 
# From -- ./inp_files/256764.got.cif
#   From: 2010.06.25/outbox.cif.g09.slc.cpg/sg2_129_cif.got.tgz:256764.got - 2010.06.27 13:26:56.
