data_PCOD8040152
_publ_section_title
;
Structure prediction by ZEFSAII (Michael W. Deem and Ramdas Pophale) SiO2 
 PCOD8040152
Probable space group: P -1
;
_chemical_formula_sum "Si O2"
_cell_formula_units_Z 16
_cell_length_a 14.962289
_cell_length_b 11.015181
_cell_length_c 8.823563
_cell_angle_alpha 109.450808
_cell_angle_beta 46.889979
_cell_angle_gamma 75.832926
_cell_volume 728.244137
_symmetry_space_group_name_H-M "P -1"
_symmetry_group_IT_number 2
_symmetry_cell_setting 'triclinic'
loop_
_space_group_symop_operation_xyz
x,y,z
-x,-y,-z
loop_
_atom_site_type_symbol
_atom_site_label
_atom_site_fract_x
_atom_site_fract_y
_atom_site_fract_z
Si Si1 0.407326 0.486600 0.727364
Si Si2 0.820280 0.920161 0.706475
Si Si3 0.182953 0.306261 0.182203
Si Si4 0.964692 0.981674 0.831538
Si Si5 0.079360 0.708001 0.058147
Si Si6 0.845044 0.860682 0.134878
Si Si7 0.323934 0.760852 0.181408
Si Si8 0.510553 0.235787 0.747972
O O1 0.500000 0.500000 0.500000
O O2 0.525093 0.295998 0.592483
O O3 0.257010 0.518731 0.825958
O O4 0.342985 0.624733 0.995274
O O5 0.758724 0.825532 0.798865
O O6 0.881147 0.951314 0.794031
O O7 0.977854 0.786858 0.362312
O O8 0.679875 0.105566 0.859973
O O9 0.000000 0.500000 0.500000
O O10 0.174858 0.232519 0.006144
O O11 0.324842 0.311400 0.006290
O O12 0.160146 0.862709 0.518473
O O13 0.871912 0.185244 0.015340
O O14 0.932040 0.932922 0.009512
O O15 0.971193 0.712133 0.056173
O O16 0.662000 0.022467 0.487781
O O17 0.474872 0.674146 0.090823
#
# Coordination Sequence:
#
# PCOD8040152 Si02
#       8
#     2   2   2   2   2   2   2   2
#     4  12  26  39  64 104 147 167 214 278 344 392
#     4  10  19  40  71  90 127 174 227 261 326 392
#     4  11  27  47  68  90 133 185 231 272 333 395
#     4  10  18  35  70  94 133 166 223 255 341 388
#     4  11  19  39  64 100 127 169 218 272 332 395
#     4  11  24  41  71  96 129 178 229 274 327 400
#     4  11  22  41  67 101 132 178 216 273 330 410
#     4  12  26  45  66 101 139 175 223 281 331 391
#
# _framework density 21.970655000000001
#
# number of rings (size 3 to 8) (size 9 to 14) (size 15 to 20)
#    0.000    1.000    5.000    3.375    5.250    1.500 
#    0.000    2.500    0.000    0.000    0.000    0.000 
#    0.000    0.000    0.000    0.000    0.000    0.000 
#
# Total GULP energy -198320.326916 kJ/mol
# GULP energy per Si atom -12395.020432 kJ/mol
# Density = 2.192065 g / cm^3
# Si number density = 21.970655 Si / 1000 Ang^3
#
#
#
# Elastic Constant Matrix: (Units=GPa)
#
#
# Indices 1 2 3 4 5 6 
#
# 1 78.2502 28.0290 35.8583 24.4230 -27.1340 -12.9682
# 2 28.0290 81.0370 12.0660 -3.6954 -16.7559 -17.5200
# 3 35.8583 12.0660 66.3472 -2.3152 -8.3147 -7.9879
# 4 24.4230 -3.6954 -2.3152 5.7856 4.3534 -7.9253
# 5 -27.1340 -16.7559 -8.3147 4.3534 27.6703 2.8366
# 6 -12.9682 -17.5200 -7.9879 -7.9253 2.8366 37.0269
#
#
#
# Elastic Compliance Matrix: (Units=1/GPa)
#
#
# Indices 1 2 3 4 5 6 
#
# 1 -0.004121 0.003281 0.003238 0.041493 -0.008671 0.010353
# 2 0.003281 0.014843 -0.002612 -0.007586 0.012095 0.005058
# 3 0.003238 -0.002612 0.014042 -0.018978 0.008986 -0.001823
# 4 0.041493 -0.007586 -0.018978 -0.056221 0.040083 -0.008256
# 5 -0.008671 0.012095 0.008986 0.040083 0.030239 0.010888
# 6 0.010353 0.005058 -0.001823 -0.008256 0.010888 0.030032
#
#
# Mechanical properties :
#
#
# Convention : Reuss Voigt Hill
#
# Bulk Modulus (GPa) = 30.69673 41.94899 36.32286
# Shear Modulus (GPa) = 156.93849 24.07532 90.50691
#
# Velocity S-wave (km/s) = 8.46085 3.31387 6.42525
# Velocity P-wave (km/s) = 10.46184 5.81179 8.46248
#
# Compressibility (1/GPa) = 0.03257676
#
# Stress axis : x y z
#
# Youngs Moduli (GPa) = -242.67012 67.37269 71.21746
#
# Poissons Ratio (x) = -0.22104 -0.23062
# Poissons Ratio (y) = 0.79615 0.18605
# Poissons Ratio (z) = 0.78583 0.17601
#
# Static dielectric constant tensor:
#      x y z
#    x 4.134900 -0.114540 0.061160 
#    y -0.114540 4.746390 0.126120 
#    z 0.061160 0.126120 3.967290 
# 
# 
# High freq. dielectric constant tensor:
#      x y z
#    x 1.871000 -0.024440 0.000260 
#    y -0.024440 1.862410 -0.010810 
#    z 0.000260 -0.010810 1.851580 
# 
# From -- ./inp_files/186921.got.cif
#   From: 2010.06.25/outbox.cif.g09.slc.cpg/sg2_94_cif.got.tgz:186921.got - 2010.06.27 13:26:56.
