data_PCOD8040589
_publ_section_title
;
Structure prediction by ZEFSAII (Michael W. Deem and Ramdas Pophale) SiO2 
 PCOD8040589
Probable space group: P -1
;
_chemical_formula_sum "Si O2"
_cell_formula_units_Z 16
_cell_length_a 11.453984
_cell_length_b 10.812517
_cell_length_c 11.901283
_cell_angle_alpha 90.825513
_cell_angle_beta 36.945027
_cell_angle_gamma 109.008479
_cell_volume 755.117102
_symmetry_space_group_name_H-M "P -1"
_symmetry_group_IT_number 2
_symmetry_cell_setting 'triclinic'
loop_
_space_group_symop_operation_xyz
x,y,z
-x,-y,-z
loop_
_atom_site_type_symbol
_atom_site_label
_atom_site_fract_x
_atom_site_fract_y
_atom_site_fract_z
Si Si1 0.082850 0.752799 0.464154
Si Si2 0.883691 0.784671 0.149708
Si Si3 0.394977 0.441257 0.820326
Si Si4 0.738508 0.007731 0.300287
Si Si5 0.851871 0.732062 0.421913
Si Si6 0.709857 0.486766 0.876673
Si Si7 0.510552 0.764774 0.106767
Si Si8 0.982927 0.044138 0.332670
O O1 0.350570 0.818420 0.282135
O O2 0.026232 0.871132 0.551619
O O3 0.020686 0.722815 0.379839
O O4 0.940233 0.602348 0.638681
O O5 0.757842 0.639938 0.170679
O O6 0.940896 0.744798 0.226413
O O7 0.722542 0.853387 0.291069
O O8 0.128330 0.896027 0.908802
O O9 0.605999 0.589941 0.617006
O O10 0.469153 0.338980 0.821219
O O11 0.256704 0.482957 0.014981
O O12 0.888785 0.085225 0.296551
O O13 0.500000 0.000000 0.500000
O O14 0.837171 0.873017 0.465144
O O15 0.631215 0.324221 0.897158
O O16 0.500000 0.500000 0.000000
O O17 0.753572 0.903866 0.891798
#
# Coordination Sequence:
#
# PCOD8040589 Si02
#       8
#     2   2   2   2   2   2   2   2
#     4  12  22  38  66  96 122 169 212 253 311 374
#     4  10  22  41  64  93 125 164 205 255 312 372
#     4  11  20  42  67  89 122 170 208 258 306 368
#     4  10  22  41  69  92 122 160 214 259 301 370
#     4  11  24  39  61  92 137 164 198 256 326 366
#     4  10  18  37  63  93 121 157 213 263 298 354
#     4  11  22  38  68  93 120 161 219 258 303 363
#     4  11  23  42  62  94 123 165 207 262 312 365
#
# _framework density 21.188768
#
# number of rings (size 3 to 8) (size 9 to 14) (size 15 to 20)
#    0.000    1.250    6.250    1.125    1.750    0.500 
#    0.000    5.000    0.000    4.500    0.000    0.000 
#    0.000    0.000    0.000    0.000    0.000    0.000 
#
# Total GULP energy -198338.878927 kJ/mol
# GULP energy per Si atom -12396.179933 kJ/mol
# Density = 2.114054 g / cm^3
# Si number density = 21.188768 Si / 1000 Ang^3
#
#
#
# Elastic Constant Matrix: (Units=GPa)
#
#
# Indices 1 2 3 4 5 6 
#
# 1 83.9616 19.0218 55.1037 6.8894 12.4895 23.3633
# 2 19.0218 64.7223 33.2707 -16.0642 0.7761 21.5989
# 3 55.1037 33.2707 126.3698 3.5498 -6.4853 -4.0640
# 4 6.8894 -16.0642 3.5498 30.3712 -2.7294 2.5499
# 5 12.4895 0.7761 -6.4853 -2.7294 44.2402 6.0318
# 6 23.3633 21.5989 -4.0640 2.5499 6.0318 31.8988
#
#
#
# Elastic Compliance Matrix: (Units=1/GPa)
#
#
# Indices 1 2 3 4 5 6 
#
# 1 0.030422 0.011529 -0.017755 0.003278 -0.006923 -0.031303
# 2 0.011529 0.040604 -0.017673 0.024342 0.000427 -0.040215
# 3 -0.017755 -0.017673 0.021687 -0.009814 0.004114 0.027740
# 4 0.003278 0.024342 -0.009814 0.048599 0.003574 -0.024694
# 5 -0.006923 0.000427 0.004114 0.003574 0.025343 0.000228
# 6 -0.031303 -0.040215 0.027740 -0.024694 0.000228 0.086971
#
#
# Mechanical properties :
#
#
# Convention : Reuss Voigt Hill
#
# Bulk Modulus (GPa) = 22.26380 54.42735 38.34557
# Shear Modulus (GPa) = 15.80297 32.47921 24.14109
#
# Velocity S-wave (km/s) = 2.73393 3.91941 3.37906
# Velocity P-wave (km/s) = 4.52725 6.79890 5.77586
#
# Compressibility (1/GPa) = 0.04491596
#
# Stress axis : x y z
#
# Youngs Moduli (GPa) = 32.87067 24.62816 46.11006
#
# Poissons Ratio (x) = -0.28394 0.81869
# Poissons Ratio (y) = -0.37897 0.81489
# Poissons Ratio (z) = 0.58362 0.43525
#
# Static dielectric constant tensor:
#      x y z
#    x 3.779810 0.295910 0.246920 
#    y 0.295910 4.212090 0.221730 
#    z 0.246920 0.221730 3.956850 
# 
# 
# High freq. dielectric constant tensor:
#      x y z
#    x 1.813160 0.023830 0.012400 
#    y 0.023830 1.830780 -0.001100 
#    z 0.012400 -0.001100 1.831390 
# 
# From -- ./inp_files/423651.got.cif
#   From: 2010.06.25/outbox.cif.g09.slc.cpg/sg2_212_cif.got.tgz:423651.got - 2010.06.27 13:26:56.
