data_PCOD8040259
_publ_section_title
;
Structure prediction by ZEFSAII (Michael W. Deem and Ramdas Pophale) SiO2 
 PCOD8040259
Probable space group: P -1
;
_chemical_formula_sum "Si O2"
_cell_formula_units_Z 16
_cell_length_a 10.026656
_cell_length_b 18.479610
_cell_length_c 10.819553
_cell_angle_alpha 23.844745
_cell_angle_beta 101.996674
_cell_angle_gamma 101.885247
_cell_volume 792.099568
_symmetry_space_group_name_H-M "P -1"
_symmetry_group_IT_number 2
_symmetry_cell_setting 'triclinic'
loop_
_space_group_symop_operation_xyz
x,y,z
-x,-y,-z
loop_
_atom_site_type_symbol
_atom_site_label
_atom_site_fract_x
_atom_site_fract_y
_atom_site_fract_z
Si Si1 0.646704 0.325110 0.703688
Si Si2 0.160137 0.627099 0.555913
Si Si3 0.980335 0.732882 0.825351
Si Si4 0.930657 0.870716 0.087622
Si Si5 0.171183 0.799325 0.554020
Si Si6 0.656940 0.685977 0.279743
Si Si7 0.644420 0.974431 0.623181
Si Si8 0.818710 0.057281 0.298756
O O1 0.707908 0.372508 0.506523
O O2 0.679538 0.480142 0.568778
O O3 0.483393 0.296307 0.697908
O O4 0.710833 0.143833 0.050462
O O5 0.192841 0.729593 0.529890
O O6 0.039388 0.721373 0.309221
O O7 0.117534 0.427686 0.896923
O O8 0.077438 0.671526 0.825329
O O9 0.070034 0.793170 0.866991
O O10 0.891447 0.893061 0.503196
O O11 0.786692 0.764392 0.262967
O O12 0.897325 0.003500 0.762112
O O13 0.000000 0.000000 0.000000
O O14 0.319582 0.846000 0.568470
O O15 0.643107 0.791100 0.984998
O O16 0.500000 0.000000 0.500000
O O17 0.750565 0.962137 0.552496
#
# Coordination Sequence:
#
# PCOD8040259 Si02
#       8
#     2   2   2   2   2   2   2   2
#     4  11  22  35  57  89 121 150 186 240 290 345
#     4  11  21  36  58  85 119 153 188 232 288 340
#     4  10  20  34  57  84 117 144 193 242 279 336
#     4   9  19  37  59  84 112 151 189 234 283 341
#     4   9  20  36  57  83 112 148 190 232 283 340
#     4  10  21  37  58  88 118 148 194 235 293 337
#     4  10  18  36  60  80 107 149 189 233 279 335
#     4  10  20  34  56  89 110 148 193 238 287 331
#
# _framework density 20.199480999999999
#
# number of rings (size 3 to 8) (size 9 to 14) (size 15 to 20)
#    0.000    2.000    1.250    2.625    0.000    4.000 
#    0.000    5.625    2.750    1.500    0.000    0.000 
#    0.000    0.000    0.000    0.000    0.000    0.000 
#
# Total GULP energy -198274.858702 kJ/mol
# GULP energy per Si atom -12392.178669 kJ/mol
# Density = 2.015351 g / cm^3
# Si number density = 20.199481 Si / 1000 Ang^3
#
#
#
# Elastic Constant Matrix: (Units=GPa)
#
#
# Indices 1 2 3 4 5 6 
#
# 1 139.5577 59.7801 42.7946 -3.9672 -16.7135 4.9480
# 2 59.7801 80.3685 23.9740 -1.4817 -6.6848 2.1366
# 3 42.7946 23.9740 79.0137 -3.5772 -10.1338 -4.6321
# 4 -3.9672 -1.4817 -3.5772 22.4313 -2.5579 -6.1242
# 5 -16.7135 -6.6848 -10.1338 -2.5579 36.6390 4.5400
# 6 4.9480 2.1366 -4.6321 -6.1242 4.5400 34.7784
#
#
#
# Elastic Compliance Matrix: (Units=1/GPa)
#
#
# Indices 1 2 3 4 5 6 
#
# 1 0.012061 -0.007450 -0.003923 0.000834 0.003373 -0.002074
# 2 -0.007450 0.018439 -0.001664 -0.000508 -0.000490 -0.000320
# 3 -0.003923 -0.001664 0.015858 0.002782 0.002117 0.002986
# 4 0.000834 -0.000508 0.002782 0.047776 0.003369 0.008256
# 5 0.003373 -0.000490 0.002117 0.003369 0.029996 -0.003490
# 6 -0.002074 -0.000320 0.002986 0.008256 -0.003490 0.031375
#
#
# Mechanical properties :
#
#
# Convention : Reuss Voigt Hill
#
# Bulk Modulus (GPa) = 49.30164 61.33748 55.31956
# Shear Modulus (GPa) = 26.54752 30.26249 28.40500
#
# Velocity S-wave (km/s) = 3.62922 3.87483 3.75403
# Velocity P-wave (km/s) = 6.48244 7.10288 6.79974
#
# Compressibility (1/GPa) = 0.02028330
#
# Stress axis : x y z
#
# Youngs Moduli (GPa) = 82.91297 54.23316 63.05799
#
# Poissons Ratio (x) = 0.40403 0.24739
# Poissons Ratio (y) = 0.61769 0.10495
# Poissons Ratio (z) = 0.32528 0.09027
#
# Static dielectric constant tensor:
#      x y z
#    x 3.797890 0.154160 0.168420 
#    y 0.154160 3.501790 0.117740 
#    z 0.168420 0.117740 3.777920 
# 
# 
# High freq. dielectric constant tensor:
#      x y z
#    x 1.793470 0.005680 -0.009330 
#    y 0.005680 1.762770 0.001450 
#    z -0.009330 0.001450 1.794190 
# 
# From -- ./inp_files/379696.got.cif
#   From: 2010.06.25/outbox.cif.g09.slc.cpg/sg2_190_cif.got.tgz:379696.got - 2010.06.27 13:26:56.
