data_PCOD8040241
_publ_section_title
;
Structure prediction by ZEFSAII (Michael W. Deem and Ramdas Pophale) SiO2 
 PCOD8040241
Probable space group: P -1
;
_chemical_formula_sum "Si O2"
_cell_formula_units_Z 14
_cell_length_a 9.549710
_cell_length_b 19.757878
_cell_length_c 9.477079
_cell_angle_alpha 48.982466
_cell_angle_beta 81.824053
_cell_angle_gamma 123.010795
_cell_volume 693.840002
_symmetry_space_group_name_H-M "P -1"
_symmetry_group_IT_number 2
_symmetry_cell_setting 'triclinic'
loop_
_space_group_symop_operation_xyz
x,y,z
-x,-y,-z
loop_
_atom_site_type_symbol
_atom_site_label
_atom_site_fract_x
_atom_site_fract_y
_atom_site_fract_z
Si Si1 0.811528 0.172814 0.760828
Si Si2 0.547659 0.260850 0.430385
Si Si3 0.990721 0.633077 0.789216
Si Si4 0.528404 0.708905 0.299004
Si Si5 0.059969 0.887726 0.931448
Si Si6 0.242384 0.698297 0.201400
Si Si7 0.024470 0.695267 0.019264
O O1 0.855682 0.284658 0.692202
O O2 0.999227 0.281815 0.444104
O O3 0.905575 0.137448 0.884112
O O4 0.500000 0.000000 0.000000
O O5 0.414883 0.222376 0.647562
O O6 0.773779 0.308902 0.367172
O O7 0.310971 0.093067 0.593747
O O8 0.697252 0.425632 0.107408
O O9 0.053352 0.709745 0.827501
O O10 0.504248 0.781958 0.096647
O O11 0.263921 0.501588 0.620142
O O12 0.778670 0.787469 0.099752
O O13 0.060905 0.816163 0.903282
O O14 0.000000 0.500000 0.500000
O O15 0.267694 0.765168 0.956574
#
# Coordination Sequence:
#
# PCOD8040241 Si02
#       7
#     2   2   2   2   2   2   2
#     4  11  20  37  57  88 108 147 193 235 270 335
#     4  10  20  34  59  86 107 153 188 230 283 327
#     4  10  20  38  59  80 120 144 190 235 279 334
#     4  10  18  36  59  84 116 151 186 231 278 346
#     4  11  21  35  60  88 115 145 192 232 282 333
#     4   9  18  34  56  84 106 144 197 220 273 332
#     4   9  21  35  57  86 112 150 185 235 287 320
#
# _framework density 20.17756
#
# number of rings (size 3 to 8) (size 9 to 14) (size 15 to 20)
#    0.000    2.000    2.857    0.857    2.000    0.571 
#    0.000    2.857    3.143    0.857    0.000    0.000 
#    0.000    0.000    0.000    0.000    0.000    0.000 
#
# Total GULP energy -173539.616496 kJ/mol
# GULP energy per Si atom -12395.686893 kJ/mol
# Density = 2.013164 g / cm^3
# Si number density = 20.177560 Si / 1000 Ang^3
#
#
#
# Elastic Constant Matrix: (Units=GPa)
#
#
# Indices 1 2 3 4 5 6 
#
# 1 97.9921 25.8559 27.9704 5.0837 -0.5615 4.3721
# 2 25.8559 116.4498 51.5935 -6.4345 15.2709 -11.2710
# 3 27.9704 51.5935 86.0176 0.8366 11.8842 2.9233
# 4 5.0837 -6.4345 0.8366 32.9608 5.8525 7.8628
# 5 -0.5615 15.2709 11.8842 5.8525 13.8894 -1.1141
# 6 4.3721 -11.2710 2.9233 7.8628 -1.1141 28.7431
#
#
#
# Elastic Compliance Matrix: (Units=1/GPa)
#
#
# Indices 1 2 3 4 5 6 
#
# 1 0.012090 -0.002443 -0.003408 -0.003259 0.007362 -0.001274
# 2 -0.002443 0.014160 -0.006300 0.004182 -0.011640 0.004969
# 3 -0.003408 -0.006300 0.017989 0.001656 -0.009671 -0.004609
# 4 -0.003259 0.004182 0.001656 0.037889 -0.022857 -0.009283
# 5 0.007362 -0.011640 -0.009671 -0.022857 0.103444 0.005562
# 6 -0.001274 0.004969 -0.004609 -0.009283 0.005562 0.040157
#
#
# Mechanical properties :
#
#
# Convention : Reuss Voigt Hill
#
# Bulk Modulus (GPa) = 50.15906 56.81102 53.48504
# Shear Modulus (GPa) = 19.47966 28.12131 23.80049
#
# Velocity S-wave (km/s) = 3.11048 3.73727 3.43819
# Velocity P-wave (km/s) = 6.14922 6.84394 6.50586
#
# Compressibility (1/GPa) = 0.01993658
#
# Stress axis : x y z
#
# Youngs Moduli (GPa) = 82.70977 70.62349 55.58931
#
# Poissons Ratio (x) = 0.17256 0.18946
# Poissons Ratio (y) = 0.20209 0.35020
# Poissons Ratio (z) = 0.28189 0.44492
#
# Static dielectric constant tensor:
#      x y z
#    x 3.955700 0.111210 0.353810 
#    y 0.111210 3.840910 -0.125540 
#    z 0.353810 -0.125540 3.614280 
# 
# 
# High freq. dielectric constant tensor:
#      x y z
#    x 1.766470 -0.006390 0.014420 
#    y -0.006390 1.802610 -0.014860 
#    z 0.014420 -0.014860 1.770800 
# 
# From -- ./inp_files/157447.got.cif
#   From: 2010.06.25/outbox.cif.g09.slc.cpg/sg2_79_cif.got.tgz:157447.got - 2010.06.27 13:26:56.
