data_PCOD8040075
_publ_section_title
;
Structure prediction by ZEFSAII (Michael W. Deem and Ramdas Pophale) SiO2 
 PCOD8040075
Probable space group: P -1
;
_chemical_formula_sum "Si O2"
_cell_formula_units_Z 16
_cell_length_a 22.640061
_cell_length_b 15.743994
_cell_length_c 10.201858
_cell_angle_alpha 138.053406
_cell_angle_beta 138.106300
_cell_angle_gamma 18.310066
_cell_volume 750.838898
_symmetry_space_group_name_H-M "P -1"
_symmetry_group_IT_number 2
_symmetry_cell_setting 'triclinic'
loop_
_space_group_symop_operation_xyz
x,y,z
-x,-y,-z
loop_
_atom_site_type_symbol
_atom_site_label
_atom_site_fract_x
_atom_site_fract_y
_atom_site_fract_z
Si Si1 0.942341 0.927938 0.107823
Si Si2 0.222139 0.222255 0.022195
Si Si3 0.880628 0.033092 0.551516
Si Si4 0.811972 0.455795 0.698229
Si Si5 0.328092 0.116227 0.347862
Si Si6 0.896171 0.767817 0.404246
Si Si7 0.263052 0.994258 0.319000
Si Si8 0.366011 0.580582 0.644151
O O1 0.018839 0.967174 0.230194
O O2 0.108291 0.649826 0.144619
O O3 0.754270 0.186116 0.182200
O O4 0.904913 0.877235 0.872012
O O5 0.294087 0.275596 0.186014
O O6 0.333714 0.032539 0.120267
O O7 0.248867 0.109510 0.802852
O O8 0.000000 0.500000 0.000000
O O9 0.687371 0.309824 0.466890
O O10 0.852699 0.974933 0.561156
O O11 0.012731 0.783270 0.385785
O O12 0.665548 0.529731 0.517386
O O13 0.349815 0.985072 0.348138
O O14 0.121015 0.449324 0.395520
O O15 0.500000 0.000000 0.500000
O O16 0.824859 0.816250 0.485861
O O17 0.411673 0.695893 0.270754
#
# Coordination Sequence:
#
# PCOD8040075 Si02
#       8
#     2   2   2   2   2   2   2   2
#     4   9  19  34  60  89 114 161 196 244 289 351
#     4  10  18  35  63  85 109 160 201 231 287 359
#     4   9  18  36  61  82 117 154 203 230 291 353
#     4   9  15  34  60  84 107 147 210 242 272 347
#     4  11  24  41  64  88 118 158 201 245 293 355
#     4  11  24  40  60  89 123 158 193 248 299 353
#     4  12  24  38  58  92 129 147 192 257 308 332
#     4   9  20  35  59  87 115 155 198 247 284 353
#
# _framework density 21.309498000000001
#
# number of rings (size 3 to 8) (size 9 to 14) (size 15 to 20)
#    0.000    2.000    2.500    4.500    3.500    1.000 
#    0.000    5.000    0.000    0.000    0.000    0.000 
#    0.000    0.000    0.000    0.000    0.000    0.000 
#
# Total GULP energy -198230.471068 kJ/mol
# GULP energy per Si atom -12389.404442 kJ/mol
# Density = 2.126100 g / cm^3
# Si number density = 21.309498 Si / 1000 Ang^3
#
#
#
# Elastic Constant Matrix: (Units=GPa)
#
#
# Indices 1 2 3 4 5 6 
#
# 1 94.9342 21.5168 44.8610 0.6092 -1.3653 17.4250
# 2 21.5168 53.6773 13.6191 -10.9836 -12.8601 15.0414
# 3 44.8610 13.6191 128.4126 -14.0460 -17.3627 -5.3684
# 4 0.6092 -10.9836 -14.0460 24.8523 5.0026 1.5059
# 5 -1.3653 -12.8601 -17.3627 5.0026 28.1451 3.5455
# 6 17.4250 15.0414 -5.3684 1.5059 3.5455 20.5446
#
#
#
# Elastic Compliance Matrix: (Units=1/GPa)
#
#
# Indices 1 2 3 4 5 6 
#
# 1 0.016890 -0.002604 -0.006951 -0.004230 -0.002200 -0.013546
# 2 -0.002604 0.033591 -0.000129 0.013182 0.016095 -0.026162
# 3 -0.006951 -0.000129 0.011808 0.005315 0.004958 0.007830
# 4 -0.004230 0.013182 0.005315 0.049409 0.001390 -0.008537
# 5 -0.002200 0.016095 0.004958 0.001390 0.047726 -0.016961
# 6 -0.013546 -0.026162 0.007830 -0.008537 -0.016961 0.084917
#
#
# Mechanical properties :
#
#
# Convention : Reuss Voigt Hill
#
# Bulk Modulus (GPa) = 23.29738 48.55755 35.92747
# Shear Modulus (GPa) = 17.98467 27.84354 22.91411
#
# Velocity S-wave (km/s) = 2.90828 3.61865 3.28273
# Velocity P-wave (km/s) = 4.71530 6.34790 5.59150
#
# Compressibility (1/GPa) = 0.04292328
#
# Stress axis : x y z
#
# Youngs Moduli (GPa) = 59.20607 29.76991 84.68594
#
# Poissons Ratio (x) = 0.07751 0.58864
# Poissons Ratio (y) = 0.15416 0.01088
# Poissons Ratio (z) = 0.41153 0.00383
#
# Static dielectric constant tensor:
#      x y z
#    x 4.034230 0.316280 0.043720 
#    y 0.316280 3.573970 -0.210920 
#    z 0.043720 -0.210920 4.033420 
# 
# 
# High freq. dielectric constant tensor:
#      x y z
#    x 1.831400 0.025020 0.004590 
#    y 0.025020 1.807330 -0.021150 
#    z 0.004590 -0.021150 1.833170 
# 
# From -- ./inp_files/262720.got.cif
#   From: 2010.06.25/outbox.cif.g09.slc.cpg/sg2_132_cif.got.tgz:262720.got - 2010.06.27 13:26:56.
