data_PCOD8040478
_publ_section_title
;
Structure prediction by ZEFSAII (Michael W. Deem and Ramdas Pophale) SiO2 
 PCOD8040478
Probable space group: P -1
;
_chemical_formula_sum "Si O2"
_cell_formula_units_Z 14
_cell_length_a 9.898934
_cell_length_b 14.946651
_cell_length_c 12.211437
_cell_angle_alpha 152.203866
_cell_angle_beta 44.124668
_cell_angle_gamma 128.195012
_cell_volume 585.820925
_symmetry_space_group_name_H-M "P -1"
_symmetry_group_IT_number 2
_symmetry_cell_setting 'triclinic'
loop_
_space_group_symop_operation_xyz
x,y,z
-x,-y,-z
loop_
_atom_site_type_symbol
_atom_site_label
_atom_site_fract_x
_atom_site_fract_y
_atom_site_fract_z
Si Si1 0.671822 0.551483 0.691612
Si Si2 0.401777 0.102146 0.464596
Si Si3 0.263278 0.705640 0.181363
Si Si4 0.674668 0.377964 0.714676
Si Si5 0.995728 0.777676 0.230066
Si Si6 0.290076 0.766143 0.856677
Si Si7 0.372461 0.122514 0.083106
O O1 0.783207 0.495564 0.681864
O O2 0.708475 0.375139 0.398939
O O3 0.740024 0.744727 0.800370
O O4 0.446774 0.576406 0.887314
O O5 0.585769 0.187276 0.509364
O O6 0.226181 0.264854 0.719922
O O7 0.321554 0.927391 0.391694
O O8 0.466597 0.022149 0.222393
O O9 0.189862 0.666858 0.306863
O O10 0.079835 0.663777 0.164954
O O11 0.500000 0.500000 0.000000
O O12 0.127371 0.715588 0.982870
O O13 0.000000 0.000000 0.500000
O O14 0.504027 0.745503 0.765783
O O15 0.235377 0.985198 0.082333
#
# Coordination Sequence:
#
# PCOD8040478 Si02
#       7
#     2   2   2   2   2   2   2
#     4  10  19  34  57  87 113 148 203 240 276 336
#     4  10  18  37  58  89 118 151 194 241 293 349
#     4   9  19  34  57  89 114 154 189 243 283 348
#     4  10  20  35  58  84 118 152 202 242 274 346
#     4  10  19  35  59  89 124 146 188 242 305 343
#     4  11  19  34  59  86 122 150 189 246 290 343
#     4  10  20  32  59  88 115 150 197 239 291 338
#
# _framework density 23.898088000000001
#
# number of rings (size 3 to 8) (size 9 to 14) (size 15 to 20)
#    0.000    2.000    5.714    0.857    0.000    0.000 
#    0.000    2.857   15.714    6.857    3.714    0.000 
#    0.000    0.000    0.000    0.000    0.000    0.000 
#
# Total GULP energy -173436.774046 kJ/mol
# GULP energy per Si atom -12388.341003 kJ/mol
# Density = 2.384369 g / cm^3
# Si number density = 23.898088 Si / 1000 Ang^3
#
#
#
# Elastic Constant Matrix: (Units=GPa)
#
#
# Indices 1 2 3 4 5 6 
#
# 1 79.4609 59.9259 23.4506 -10.6681 9.2805 -38.6113
# 2 59.9259 118.7986 9.3126 -0.7548 10.9898 -50.1748
# 3 23.4506 9.3126 68.6382 -13.0330 15.7845 -17.6738
# 4 -10.6681 -0.7548 -13.0330 19.7012 -6.8672 12.3757
# 5 9.2805 10.9898 15.7845 -6.8672 22.0801 -5.1262
# 6 -38.6113 -50.1748 -17.6738 12.3757 -5.1262 45.5232
#
#
#
# Elastic Compliance Matrix: (Units=1/GPa)
#
#
# Indices 1 2 3 4 5 6 
#
# 1 0.025406 -0.008710 -0.004325 0.005094 0.000406 0.008930
# 2 -0.008710 0.024270 0.005247 -0.020847 -0.012701 0.025637
# 3 -0.004325 0.005247 0.020843 0.001891 -0.013200 0.008206
# 4 0.005094 -0.020847 0.001891 0.087019 0.024946 -0.038770
# 5 0.000406 -0.012701 -0.013200 0.024946 0.064384 -0.018311
# 6 0.008930 0.025637 0.008206 -0.038770 -0.018311 0.069461
#
#
# Mechanical properties :
#
#
# Convention : Reuss Voigt Hill
#
# Bulk Modulus (GPa) = 18.20114 50.25287 34.22700
# Shear Modulus (GPa) = 15.37172 29.07480 22.22326
#
# Velocity S-wave (km/s) = 2.53893 3.49179 3.05276
# Velocity P-wave (km/s) = 4.02835 6.10986 5.17484
#
# Compressibility (1/GPa) = 0.05494162
#
# Stress axis : x y z
#
# Youngs Moduli (GPa) = 39.36153 41.20279 47.97872
#
# Poissons Ratio (x) = 0.35888 0.20750
# Poissons Ratio (y) = 0.34284 -0.25173
# Poissons Ratio (z) = 0.17024 -0.21618
#
# Static dielectric constant tensor:
#      x y z
#    x -27.034180 -19.194580 -17.083190 
#    y -19.194580 -5.852770 -9.865090 
#    z -17.083190 -9.865090 -5.013830 
# 
# 
# High freq. dielectric constant tensor:
#      x y z
#    x 1.912890 -0.039360 0.016480 
#    y -0.039360 1.949920 0.004880 
#    z 0.016480 0.004880 1.946240 
# 
# From -- ./inp_files/432024.got.cif
#   From: 2010.06.25/outbox.cif.g09.slc.cpg/sg2_217_cif.got.tgz:432024.got - 2010.06.27 13:26:56.
