data_PCOD8040796
_publ_section_title
;
Structure prediction by ZEFSAII (Michael W. Deem and Ramdas Pophale) SiO2 
 PCOD8040796
Probable space group: P -1
;
_chemical_formula_sum "Si O2"
_cell_formula_units_Z 16
_cell_length_a 17.209286
_cell_length_b 8.546913
_cell_length_c 18.652959
_cell_angle_alpha 42.972416
_cell_angle_beta 31.166248
_cell_angle_gamma 31.521084
_cell_volume 742.301059
_symmetry_space_group_name_H-M "P -1"
_symmetry_group_IT_number 2
_symmetry_cell_setting 'triclinic'
loop_
_space_group_symop_operation_xyz
x,y,z
-x,-y,-z
loop_
_atom_site_type_symbol
_atom_site_label
_atom_site_fract_x
_atom_site_fract_y
_atom_site_fract_z
Si Si1 0.519993 0.177714 0.610470
Si Si2 0.428822 0.776214 0.229599
Si Si3 0.842182 0.359035 0.009570
Si Si4 0.126868 0.602341 0.865927
Si Si5 0.334746 0.561161 0.504691
Si Si6 0.210348 0.854970 0.119010
Si Si7 0.097687 0.202658 0.235862
Si Si8 0.432631 0.207051 0.186083
O O1 0.305359 0.415174 0.734299
O O2 0.483142 0.225560 0.536934
O O3 0.666596 0.233384 0.503551
O O4 0.601172 0.856896 0.684503
O O5 0.612019 0.546594 0.106450
O O6 0.413667 0.571433 0.362829
O O7 0.229952 0.003051 0.265807
O O8 0.454709 0.982662 0.186438
O O9 0.795810 0.440768 0.101791
O O10 0.921701 0.502973 0.856965
O O11 0.000000 0.000000 0.000000
O O12 0.990059 0.945954 0.834028
O O13 0.000000 0.500000 0.000000
O O14 0.119452 0.677898 0.621965
O O15 0.248537 0.547113 0.199819
O O16 0.197058 0.995079 0.158008
O O17 0.375761 0.821543 0.953608
#
# Coordination Sequence:
#
# PCOD8040796 Si02
#       8
#     2   2   2   2   2   2   2   2
#     4  10  18  38  68  88 126 162 211 259 316 366
#     4  11  23  45  62  90 134 168 207 258 320 378
#     4  12  26  41  66  96 126 166 212 261 320 372
#     4  12  18  39  65  94 121 155 211 268 302 370
#     4  10  21  39  69  90 120 176 211 254 316 370
#     4  11  22  34  65  97 127 156 210 260 318 365
#     4  12  23  42  64  93 129 170 208 255 318 384
#     4  10  21  38  62  98 124 162 201 269 312 373
#
# _framework density 21.554596
#
# number of rings (size 3 to 8) (size 9 to 14) (size 15 to 20)
#    0.000    1.000    7.500    0.750    1.750    1.000 
#    0.000    3.125    2.750    0.000    0.000    0.000 
#    0.000    0.000    0.000    0.000    0.000    0.000 
#
# Total GULP energy -198247.873400 kJ/mol
# GULP energy per Si atom -12390.492087 kJ/mol
# Density = 2.150554 g / cm^3
# Si number density = 21.554596 Si / 1000 Ang^3
#
#
#
# Elastic Constant Matrix: (Units=GPa)
#
#
# Indices 1 2 3 4 5 6 
#
# 1 58.6557 25.3704 26.1801 -7.5854 -1.6913 -32.0446
# 2 25.3704 118.7262 47.4872 -14.5172 -7.5770 -23.0142
# 3 26.1801 47.4872 131.3134 -15.8421 -10.2672 -13.7694
# 4 -7.5854 -14.5172 -15.8421 30.6633 -13.7125 6.0346
# 5 -1.6913 -7.5770 -10.2672 -13.7125 29.4277 0.8121
# 6 -32.0446 -23.0142 -13.7694 6.0346 0.8121 36.0557
#
#
#
# Elastic Compliance Matrix: (Units=1/GPa)
#
#
# Indices 1 2 3 4 5 6 
#
# 1 0.034952 -0.000150 -0.003677 0.001059 0.000370 0.029378
# 2 -0.000150 0.011367 -0.002637 0.004779 0.004080 0.005223
# 3 -0.003677 -0.002637 0.010238 0.006046 0.005559 -0.002179
# 4 0.001059 0.004779 0.006046 0.051006 0.027246 -0.002850
# 5 0.000370 0.004080 0.005559 0.027246 0.049706 -0.000623
# 6 0.029378 0.005223 -0.002179 -0.002850 -0.000623 0.056838
#
#
# Mechanical properties :
#
#
# Convention : Reuss Voigt Hill
#
# Bulk Modulus (GPa) = 22.92116 56.30786 39.61451
# Shear Modulus (GPa) = 20.69723 33.20653 26.95188
#
# Velocity S-wave (km/s) = 3.10211 3.92928 3.53994
# Velocity P-wave (km/s) = 4.84643 6.83855 5.92679
#
# Compressibility (1/GPa) = 0.04362780
#
# Stress axis : x y z
#
# Youngs Moduli (GPa) = 28.61042 87.97469 97.67772
#
# Poissons Ratio (x) = 0.01323 0.35914
# Poissons Ratio (y) = 0.00430 0.25762
# Poissons Ratio (z) = 0.10519 0.23203
#
# Static dielectric constant tensor:
#      x y z
#    x 3.987040 -0.533200 -0.028930 
#    y -0.533200 4.137810 -0.246950 
#    z -0.028930 -0.246950 4.135030 
# 
# 
# High freq. dielectric constant tensor:
#      x y z
#    x 1.830710 -0.043760 -0.000070 
#    y -0.043760 1.840050 -0.013470 
#    z -0.000070 -0.013470 1.855910 
# 
# From -- ./inp_files/599705.got.cif
#   From: 2010.06.25/outbox.cif.g09.slc.cpg/sg2_300_cif.got.tgz:599705.got - 2010.06.27 13:26:56.
