data_PCOD8040175
_publ_section_title
;
Structure prediction by ZEFSAII (Michael W. Deem and Ramdas Pophale) SiO2 
 PCOD8040175
Probable space group: P -1
;
_chemical_formula_sum "Si O2"
_cell_formula_units_Z 14
_cell_length_a 14.742349
_cell_length_b 9.039266
_cell_length_c 8.751997
_cell_angle_alpha 76.400111
_cell_angle_beta 39.836213
_cell_angle_gamma 91.109723
_cell_volume 687.718661
_symmetry_space_group_name_H-M "P -1"
_symmetry_group_IT_number 2
_symmetry_cell_setting 'triclinic'
loop_
_space_group_symop_operation_xyz
x,y,z
-x,-y,-z
loop_
_atom_site_type_symbol
_atom_site_label
_atom_site_fract_x
_atom_site_fract_y
_atom_site_fract_z
Si Si1 0.792491 0.978689 0.004060
Si Si2 0.001151 0.692120 0.338203
Si Si3 0.326376 0.545310 0.638996
Si Si4 0.842243 0.390467 0.430163
Si Si5 0.696089 0.244634 0.937998
Si Si6 0.549977 0.718187 0.537549
Si Si7 0.115479 0.298765 0.187908
O O1 0.691176 0.879895 0.297635
O O2 0.855887 0.867753 0.842975
O O3 0.693676 0.060416 0.007182
O O4 0.932742 0.124177 0.855884
O O5 0.915644 0.575657 0.343182
O O6 0.891816 0.685434 0.624219
O O7 0.144820 0.639456 0.222489
O O8 0.213692 0.609480 0.670900
O O9 0.457085 0.695496 0.503575
O O10 0.393467 0.435087 0.471570
O O11 0.248711 0.445761 0.912159
O O12 0.700682 0.295354 0.742238
O O13 0.961525 0.295370 0.305418
O O14 0.548916 0.267184 0.194774
#
# Coordination Sequence:
#
# PCOD8040175 Si02
#       7
#     2   2   2   2   2   2   2
#     4   9  20  33  60  77 105 145 176 211 257 325
#     4   9  19  32  58  83 105 134 174 217 270 310
#     4  10  22  33  58  77 107 140 180 221 257 310
#     4  11  20  34  55  86 107 132 176 225 269 302
#     4   9  19  33  59  77 106 140 176 218 258 312
#     4  10  19  39  53  77 102 148 184 208 258 316
#     4  10  18  36  56  81 107 140 174 216 264 319
#
# _framework density 20.357161999999999
#
# number of rings (size 3 to 8) (size 9 to 14) (size 15 to 20)
#    0.857    1.429    0.000    4.714    0.000    0.571 
#    0.000    3.571    3.143    0.000    0.000    0.000 
#    0.000    0.000    0.000    0.000    0.000    0.000 
#
# Total GULP energy -173518.643515 kJ/mol
# GULP energy per Si atom -12394.188823 kJ/mol
# Density = 2.031083 g / cm^3
# Si number density = 20.357162 Si / 1000 Ang^3
#
#
#
# Elastic Constant Matrix: (Units=GPa)
#
#
# Indices 1 2 3 4 5 6 
#
# 1 44.5605 -1.7468 0.2833 -1.6454 -1.9650 -5.6728
# 2 -1.7468 79.3814 42.7032 7.2037 -1.4327 -5.5012
# 3 0.2833 42.7032 121.8484 12.9360 -5.1496 -0.9733
# 4 -1.6454 7.2037 12.9360 31.4673 -8.2146 -3.0797
# 5 -1.9650 -1.4327 -5.1496 -8.2146 11.7907 3.0500
# 6 -5.6728 -5.5012 -0.9733 -3.0797 3.0500 11.5978
#
#
#
# Elastic Compliance Matrix: (Units=1/GPa)
#
#
# Indices 1 2 3 4 5 6 
#
# 1 0.024369 0.001566 -0.000723 0.003209 0.002888 0.012694
# 2 0.001566 0.016332 -0.005656 -0.001382 -0.003403 0.008566
# 3 -0.000723 -0.005656 0.010569 -0.002693 0.002868 -0.003619
# 4 0.003209 -0.001382 -0.002693 0.040700 0.026366 0.004562
# 5 0.002888 -0.003403 0.002868 0.026366 0.110176 -0.021934
# 6 0.012694 0.008566 -0.003619 0.004562 -0.021934 0.103171
#
#
# Mechanical properties :
#
#
# Convention : Reuss Voigt Hill
#
# Bulk Modulus (GPa) = 24.01293 36.47441 30.24367
# Shear Modulus (GPa) = 15.20565 24.60788 19.90677
#
# Velocity S-wave (km/s) = 2.73599 3.48056 3.13049
# Velocity P-wave (km/s) = 4.66929 5.84025 5.28729
#
# Compressibility (1/GPa) = 0.04164423
#
# Stress axis : x y z
#
# Youngs Moduli (GPa) = 41.03535 61.22876 94.61547
#
# Poissons Ratio (x) = -0.09586 0.06837
# Poissons Ratio (y) = -0.06424 0.53516
# Poissons Ratio (z) = 0.02965 0.34632
#
# Static dielectric constant tensor:
#      x y z
#    x 3.088350 -0.090760 -0.135850 
#    y -0.090760 3.689950 -0.004420 
#    z -0.135850 -0.004420 3.851670 
# 
# 
# High freq. dielectric constant tensor:
#      x y z
#    x 1.735400 -0.007070 -0.007650 
#    y -0.007070 1.797190 0.001230 
#    z -0.007650 0.001230 1.813260 
# 
# From -- ./inp_files/297757.got.cif
#   From: 2010.06.25/outbox.cif.g09.slc.cpg/sg2_149_cif.got.tgz:297757.got - 2010.06.27 13:26:56.
