data_PCOD8040311
_publ_section_title
;
Structure prediction by ZEFSAII (Michael W. Deem and Ramdas Pophale) SiO2 
 PCOD8040311
Probable space group: P -1
;
_chemical_formula_sum "Si O2"
_cell_formula_units_Z 16
_cell_length_a 14.988112
_cell_length_b 15.902868
_cell_length_c 12.738672
_cell_angle_alpha 35.908730
_cell_angle_beta 130.573277
_cell_angle_gamma 151.189374
_cell_volume 839.105076
_symmetry_space_group_name_H-M "P -1"
_symmetry_group_IT_number 2
_symmetry_cell_setting 'triclinic'
loop_
_space_group_symop_operation_xyz
x,y,z
-x,-y,-z
loop_
_atom_site_type_symbol
_atom_site_label
_atom_site_fract_x
_atom_site_fract_y
_atom_site_fract_z
Si Si1 0.580393 0.728416 0.445893
Si Si2 0.653069 0.760090 0.240916
Si Si3 0.739074 0.031076 0.838844
Si Si4 0.304521 0.235702 0.103601
Si Si5 0.166037 0.348951 0.548800
Si Si6 0.212352 0.972405 0.498443
Si Si7 0.457925 0.888261 0.471318
Si Si8 0.143805 0.356506 0.765804
O O1 0.660376 0.843886 0.275361
O O2 0.542653 0.520001 0.635425
O O3 0.378573 0.617377 0.424531
O O4 0.736864 0.922830 0.453307
O O5 0.827938 0.816331 0.304529
O O6 0.657509 0.885090 0.029912
O O7 0.655995 0.111501 0.689750
O O8 0.967020 0.262686 0.782971
O O9 0.672384 0.876546 0.843262
O O10 0.236660 0.121950 0.280863
O O11 0.500000 0.500000 0.000000
O O12 0.158947 0.209431 0.968725
O O13 0.096321 0.304877 0.658620
O O14 0.012840 0.280511 0.424183
O O15 0.342646 0.960767 0.582785
O O16 0.336417 0.627853 0.660068
O O17 0.500000 0.000000 0.500000
#
# Coordination Sequence:
#
# PCOD8040311 Si02
#       8
#     2   2   2   2   2   2   2   2
#     4   9  20  39  59  85 116 151 198 244 293 331
#     4   9  19  39  58  85 117 151 193 250 286 339
#     4  12  22  35  59  87 118 157 192 236 299 347
#     4  12  19  33  57  85 115 148 192 239 287 345
#     4  10  18  36  61  86 111 148 197 235 292 344
#     4  12  21  34  59  84 115 157 192 238 286 348
#     4  12  23  38  53  87 126 157 188 235 300 355
#     4  12  21  37  58  88 122 153 191 242 296 353
#
# _framework density 19.067931999999999
#
# number of rings (size 3 to 8) (size 9 to 14) (size 15 to 20)
#    0.750    0.250    6.250    2.250    0.000    0.500 
#    0.000    0.625    0.000    0.750    0.000    0.000 
#    0.000    0.000    0.000    0.000    0.000    0.000 
#
# Total GULP energy -198358.730055 kJ/mol
# GULP energy per Si atom -12397.420628 kJ/mol
# Density = 1.902453 g / cm^3
# Si number density = 19.067932 Si / 1000 Ang^3
#
#
#
# Elastic Constant Matrix: (Units=GPa)
#
#
# Indices 1 2 3 4 5 6 
#
# 1 69.6871 23.3921 35.6220 17.5927 -3.0001 -6.5658
# 2 23.3921 96.0142 7.0485 17.5312 -4.0476 -2.3033
# 3 35.6220 7.0485 57.0600 9.2337 -2.5307 -0.3307
# 4 17.5927 17.5312 9.2337 21.7926 -0.3066 -1.6712
# 5 -3.0001 -4.0476 -2.5307 -0.3066 37.9246 12.0013
# 6 -6.5658 -2.3033 -0.3307 -1.6712 12.0013 36.6219
#
#
#
# Elastic Compliance Matrix: (Units=1/GPa)
#
#
# Indices 1 2 3 4 5 6 
#
# 1 0.025852 -0.002959 -0.013775 -0.012359 -0.000535 0.003936
# 2 -0.002959 0.012605 0.001722 -0.008505 0.001330 -0.000546
# 3 -0.013775 0.001722 0.026225 -0.001564 0.001703 -0.002754
# 4 -0.012359 -0.008505 -0.001564 0.063397 -0.001693 0.000683
# 5 -0.000535 0.001330 0.001703 -0.001693 0.029668 -0.009797
# 6 0.003936 -0.000546 -0.002754 0.000683 -0.009797 0.031194
#
#
# Mechanical properties :
#
#
# Convention : Reuss Voigt Hill
#
# Bulk Modulus (GPa) = 28.85197 39.43184 34.14191
# Shear Modulus (GPa) = 21.69035 29.71439 25.70237
#
# Velocity S-wave (km/s) = 3.37639 3.95187 3.67541
# Velocity P-wave (km/s) = 5.51035 6.44574 5.99631
#
# Compressibility (1/GPa) = 0.03465968
#
# Stress axis : x y z
#
# Youngs Moduli (GPa) = 38.68166 79.33095 38.13184
#
# Poissons Ratio (x) = 0.23472 0.52525
# Poissons Ratio (y) = 0.11445 -0.06567
# Poissons Ratio (z) = 0.53283 -0.13662
#
# Static dielectric constant tensor:
#      x y z
#    x 3.512880 0.151750 0.057980 
#    y 0.151750 3.771310 -0.048230 
#    z 0.057980 -0.048230 3.437740 
# 
# 
# High freq. dielectric constant tensor:
#      x y z
#    x 1.735550 0.004860 -0.002580 
#    y 0.004860 1.746380 0.012540 
#    z -0.002580 0.012540 1.709950 
# 
# From -- ./inp_files/454534.got.cif
#   From: 2010.06.25/outbox.cif.g09.slc.cpg/sg2_228_cif.got.tgz:454534.got - 2010.06.27 13:26:56.
