data_PCOD8040337
_publ_section_title
;
Structure prediction by ZEFSAII (Michael W. Deem and Ramdas Pophale) SiO2 
 PCOD8040337
Probable space group: P -1
;
_chemical_formula_sum "Si O2"
_cell_formula_units_Z 16
_cell_length_a 10.935644
_cell_length_b 8.550991
_cell_length_c 17.210943
_cell_angle_alpha 59.630217
_cell_angle_beta 148.152445
_cell_angle_gamma 109.267176
_cell_volume 714.979793
_symmetry_space_group_name_H-M "P -1"
_symmetry_group_IT_number 2
_symmetry_cell_setting 'triclinic'
loop_
_space_group_symop_operation_xyz
x,y,z
-x,-y,-z
loop_
_atom_site_type_symbol
_atom_site_label
_atom_site_fract_x
_atom_site_fract_y
_atom_site_fract_z
Si Si1 0.530049 0.813503 0.423973
Si Si2 0.293416 0.546719 0.939532
Si Si3 0.334739 0.618258 0.115396
Si Si4 0.955750 0.681284 0.236221
Si Si5 0.506035 0.474943 0.399873
Si Si6 0.673003 0.836129 0.180036
Si Si7 0.970413 0.933712 0.663506
Si Si8 0.084820 0.048066 0.196828
O O1 0.441798 0.690018 0.340567
O O2 0.605947 0.667543 0.573257
O O3 0.760908 0.896086 0.502870
O O4 0.321510 0.992581 0.286202
O O5 0.093060 0.437106 0.834290
O O6 0.195563 0.765068 0.827790
O O7 0.500000 0.500000 0.000000
O O8 0.356146 0.501952 0.075425
O O9 0.398191 0.470959 0.256461
O O10 0.528259 0.748112 0.187731
O O11 0.073174 0.747584 0.958325
O O12 0.770123 0.679184 0.206586
O O13 0.213044 0.595716 0.430740
O O14 0.931087 0.891809 0.139776
O O15 0.902181 0.895570 0.329729
O O16 0.500000 0.000000 0.000000
O O17 0.841481 0.964113 0.669808
#
# Coordination Sequence:
#
# PCOD8040337 Si02
#       8
#     2   2   2   2   2   2   2   2
#     4  10  20  41  63  82 117 167 207 233 303 360
#     4  11  19  33  61  89 118 158 198 240 293 368
#     4  11  22  38  60  97 123 149 201 255 299 341
#     4  10  18  36  62  85 116 167 196 227 305 367
#     4  10  23  38  61  91 122 154 199 260 296 344
#     4  11  18  36  62  87 121 159 195 239 302 367
#     4  10  19  34  63  89 109 158 209 235 283 369
#     4   9  20  35  64  83 115 162 201 242 291 361
#
# _framework density 22.378253999999998
#
# number of rings (size 3 to 8) (size 9 to 14) (size 15 to 20)
#    0.000    1.750    6.250    0.375    0.000    1.000 
#    0.000    3.125   11.000    0.000    0.000    0.000 
#    0.000    0.000    0.000    0.000    0.000    0.000 
#
# Total GULP energy -198273.427039 kJ/mol
# GULP energy per Si atom -12392.089190 kJ/mol
# Density = 2.232732 g / cm^3
# Si number density = 22.378254 Si / 1000 Ang^3
#
#
#
# Elastic Constant Matrix: (Units=GPa)
#
#
# Indices 1 2 3 4 5 6 
#
# 1 61.8282 13.3729 32.8947 -4.3508 3.6825 -19.2332
# 2 13.3729 89.6087 23.9831 18.5743 -0.5747 -18.4287
# 3 32.8947 23.9831 79.5225 7.6771 -2.1954 -9.1745
# 4 -4.3508 18.5743 7.6771 30.6081 -3.5554 9.9193
# 5 3.6825 -0.5747 -2.1954 -3.5554 38.6507 -0.0995
# 6 -19.2332 -18.4287 -9.1745 9.9193 -0.0995 34.9388
#
#
#
# Elastic Compliance Matrix: (Units=1/GPa)
#
#
# Indices 1 2 3 4 5 6 
#
# 1 0.024736 0.000796 -0.009403 0.001465 -0.002716 0.011144
# 2 0.000796 0.017305 -0.002753 -0.013993 -0.001229 0.012812
# 3 -0.009403 -0.002753 0.017567 -0.003572 0.001522 -0.000997
# 4 0.001465 -0.013993 -0.003572 0.049734 0.003969 -0.021620
# 5 -0.002716 -0.001229 0.001522 0.003969 0.026558 -0.002795
# 6 0.011144 0.012812 -0.000997 -0.021620 -0.002795 0.047382
#
#
# Mechanical properties :
#
#
# Convention : Reuss Voigt Hill
#
# Bulk Modulus (GPa) = 27.10964 41.27344 34.19154
# Shear Modulus (GPa) = 22.90461 31.55345 27.22903
#
# Velocity S-wave (km/s) = 3.20272 3.75908 3.49200
# Velocity P-wave (km/s) = 5.08106 6.10938 5.61879
#
# Compressibility (1/GPa) = 0.03688725
#
# Stress axis : x y z
#
# Youngs Moduli (GPa) = 40.42760 57.78630 56.92599
#
# Poissons Ratio (x) = -0.04599 0.53526
# Poissons Ratio (y) = -0.03218 0.15673
# Poissons Ratio (z) = 0.38013 0.15910
#
# Static dielectric constant tensor:
#      x y z
#    x 3.900470 -0.261870 0.334000 
#    y -0.261870 4.689980 0.294630 
#    z 0.334000 0.294630 3.747710 
# 
# 
# High freq. dielectric constant tensor:
#      x y z
#    x 1.856390 -0.018250 0.041030 
#    y -0.018250 1.892280 0.014500 
#    z 0.041030 0.014500 1.856450 
# 
# From -- ./inp_files/299507.got.cif
#   From: 2010.06.25/outbox.cif.g09.slc.cpg/sg2_150_cif.got.tgz:299507.got - 2010.06.27 13:26:56.
