data_PCOD8040412
_publ_section_title
;
Structure prediction by ZEFSAII (Michael W. Deem and Ramdas Pophale) SiO2 
 PCOD8040412
Probable space group: P -1
;
_chemical_formula_sum "Si O2"
_cell_formula_units_Z 14
_cell_length_a 11.486763
_cell_length_b 9.497471
_cell_length_c 9.654136
_cell_angle_alpha 126.111993
_cell_angle_beta 66.626681
_cell_angle_gamma 127.245556
_cell_volume 676.014490
_symmetry_space_group_name_H-M "P -1"
_symmetry_group_IT_number 2
_symmetry_cell_setting 'triclinic'
loop_
_space_group_symop_operation_xyz
x,y,z
-x,-y,-z
loop_
_atom_site_type_symbol
_atom_site_label
_atom_site_fract_x
_atom_site_fract_y
_atom_site_fract_z
Si Si1 0.166865 0.366638 0.979973
Si Si2 0.281720 0.056533 0.713315
Si Si3 0.477761 0.676053 0.063626
Si Si4 0.777263 0.950761 0.573408
Si Si5 0.090963 0.325153 0.680874
Si Si6 0.127452 0.729391 0.811020
Si Si7 0.630417 0.955304 0.920736
O O1 0.210069 0.193497 0.866638
O O2 0.110278 0.383059 0.865908
O O3 0.303865 0.589791 0.079878
O O4 0.038389 0.317045 0.120018
O O5 0.444454 0.146473 0.755614
O O6 0.296378 0.049222 0.537702
O O7 0.180543 0.835475 0.698035
O O8 0.500000 0.500000 0.000000
O O9 0.564358 0.749553 0.919919
O O10 0.806319 0.764364 0.463939
O O11 0.664895 0.919221 0.728802
O O12 0.923594 0.162743 0.639077
O O13 0.134092 0.524003 0.686336
O O14 0.226079 0.870768 0.971557
O O15 0.500000 0.000000 0.000000
#
# Coordination Sequence:
#
# PCOD8040412 Si02
#       7
#     2   2   2   2   2   2   2
#     4  10  18  36  65  91 121 162 208 251 293 363
#     4   9  21  39  60  90 129 159 197 253 317 350
#     4   9  20  39  59  90 122 159 206 241 300 364
#     4  10  22  42  61  88 131 157 196 256 311 361
#     4  10  21  37  63  93 122 157 204 252 309 349
#     4  11  21  37  65  94 117 160 215 248 294 364
#     4  11  23  40  66  91 118 163 208 249 300 362
#
# _framework density 20.709614999999999
#
# number of rings (size 3 to 8) (size 9 to 14) (size 15 to 20)
#    0.000    2.000    1.429    1.714    2.000    0.571 
#    0.000   15.714    0.000    0.000    0.000    0.000 
#    0.000    0.000    0.000    0.000    0.000    0.000 
#
# Total GULP energy -173581.057891 kJ/mol
# GULP energy per Si atom -12398.646992 kJ/mol
# Density = 2.066248 g / cm^3
# Si number density = 20.709615 Si / 1000 Ang^3
#
#
#
# Elastic Constant Matrix: (Units=GPa)
#
#
# Indices 1 2 3 4 5 6 
#
# 1 64.1578 53.2151 65.4646 -8.1578 11.5189 7.9718
# 2 53.2151 164.5232 72.9892 -9.0705 4.9590 -9.0493
# 3 65.4646 72.9892 114.2226 -26.7348 12.6508 5.9002
# 4 -8.1578 -9.0705 -26.7348 30.2560 -0.9675 2.5531
# 5 11.5189 4.9590 12.6508 -0.9675 31.5601 2.9847
# 6 7.9718 -9.0493 5.9002 2.5531 2.9847 42.9156
#
#
#
# Elastic Compliance Matrix: (Units=1/GPa)
#
#
# Indices 1 2 3 4 5 6 
#
# 1 0.043847 -0.004183 -0.024043 -0.010458 -0.005584 -0.004711
# 2 -0.004183 0.009480 -0.004613 -0.002607 0.001479 0.003462
# 3 -0.024043 -0.004613 0.030198 0.018898 -0.001869 -0.001653
# 4 -0.010458 -0.002607 0.018898 0.046424 -0.001560 -0.003859
# 5 -0.005584 0.001479 -0.001869 -0.001560 0.034257 -0.000684
# 6 -0.004711 0.003462 -0.001653 -0.003859 -0.000684 0.025411
#
#
# Mechanical properties :
#
#
# Convention : Reuss Voigt Hill
#
# Bulk Modulus (GPa) = 56.03368 80.69350 68.36359
# Shear Modulus (GPa) = 19.13907 31.02864 25.08386
#
# Velocity S-wave (km/s) = 3.04330 3.87495 3.48403
# Velocity P-wave (km/s) = 6.28208 7.68565 7.01903
#
# Compressibility (1/GPa) = 0.01784641
#
# Stress axis : x y z
#
# Youngs Moduli (GPa) = 22.80635 105.48609 33.11470
#
# Poissons Ratio (x) = 0.44128 0.79618
# Poissons Ratio (y) = 0.09541 0.15276
# Poissons Ratio (z) = 0.54834 0.48661
#
# Static dielectric constant tensor:
#      x y z
#    x 4.283010 0.325300 0.469290 
#    y 0.325300 4.184020 0.269630 
#    z 0.469290 0.269630 3.556870 
# 
# 
# High freq. dielectric constant tensor:
#      x y z
#    x 1.820260 -0.002400 0.017420 
#    y -0.002400 1.824940 0.002450 
#    z 0.017420 0.002450 1.783720 
# 
# From -- ./inp_files/156678.got.cif
#   From: 2010.06.25/outbox.cif.g09.slc.cpg/sg2_79_cif.got.tgz:156678.got - 2010.06.27 13:26:56.
