data_PCOD8040504
_publ_section_title
;
Structure prediction by ZEFSAII (Michael W. Deem and Ramdas Pophale) SiO2 
 PCOD8040504
Probable space group: P -1
;
_chemical_formula_sum "Si O2"
_cell_formula_units_Z 16
_cell_length_a 8.245986
_cell_length_b 17.218654
_cell_length_c 9.226407
_cell_angle_alpha 127.116909
_cell_angle_beta 51.363977
_cell_angle_gamma 108.846328
_cell_volume 812.930762
_symmetry_space_group_name_H-M "P -1"
_symmetry_group_IT_number 2
_symmetry_cell_setting 'triclinic'
loop_
_space_group_symop_operation_xyz
x,y,z
-x,-y,-z
loop_
_atom_site_type_symbol
_atom_site_label
_atom_site_fract_x
_atom_site_fract_y
_atom_site_fract_z
Si Si1 0.343942 0.034519 0.499172
Si Si2 0.391306 0.356711 0.740030
Si Si3 0.739585 0.168322 0.646590
Si Si4 0.541789 0.460656 0.272051
Si Si5 0.343068 0.310069 0.040251
Si Si6 0.065404 0.687690 0.110571
Si Si7 0.996170 0.805664 0.006444
Si Si8 0.341393 0.840437 0.646270
O O1 0.484931 0.080733 0.348674
O O2 0.500000 0.000000 0.500000
O O3 0.236746 0.937104 0.401252
O O4 0.174212 0.118682 0.740087
O O5 0.479581 0.452302 0.733473
O O6 0.549289 0.266254 0.502230
O O7 0.164600 0.345894 0.787668
O O8 0.380502 0.363799 0.927606
O O9 0.912588 0.235368 0.684782
O O10 0.770275 0.153893 0.441504
O O11 0.510378 0.217941 0.864495
O O12 0.500000 0.500000 0.500000
O O13 0.366551 0.387500 0.243744
O O14 0.771486 0.406305 0.069355
O O15 0.117028 0.267663 0.120142
O O16 0.112245 0.740436 0.992991
O O17 0.162173 0.863638 0.891712
#
# Coordination Sequence:
#
# PCOD8040504 Si02
#       8
#     2   2   2   2   2   2   2   2
#     4  10  18  37  60  83 116 149 192 229 278 333
#     4  10  19  39  57  78 111 155 191 224 278 344
#     4   9  19  36  58  83 114 150 188 233 279 335
#     4  11  22  35  57  85 114 143 189 239 282 334
#     4   9  19  38  56  79 112 151 188 229 280 335
#     4  10  21  38  58  82 117 151 183 234 294 327
#     4  11  20  37  60  84 117 151 186 236 277 334
#     4  10  20  36  60  83 112 153 194 228 275 331
#
# _framework density 19.681871000000001
#
# number of rings (size 3 to 8) (size 9 to 14) (size 15 to 20)
#    0.000    2.000    5.000    1.500    0.000    3.500 
#    0.000    7.500    0.000    0.000    0.000    0.000 
#    0.000    0.000    0.000    0.000    0.000    0.000 
#
# Total GULP energy -198363.357685 kJ/mol
# GULP energy per Si atom -12397.709855 kJ/mol
# Density = 1.963707 g / cm^3
# Si number density = 19.681871 Si / 1000 Ang^3
#
#
#
# Elastic Constant Matrix: (Units=GPa)
#
#
# Indices 1 2 3 4 5 6 
#
# 1 63.4753 17.5940 14.7875 10.5737 0.4907 3.0437
# 2 17.5940 120.5038 40.6917 4.0657 -7.5609 -2.3586
# 3 14.7875 40.6917 48.2933 -6.0586 4.2554 11.8274
# 4 10.5737 4.0657 -6.0586 31.0505 7.4554 -4.3104
# 5 0.4907 -7.5609 4.2554 7.4554 24.4231 2.9075
# 6 3.0437 -2.3586 11.8274 -4.3104 2.9075 24.4815
#
#
#
# Elastic Compliance Matrix: (Units=1/GPa)
#
#
# Indices 1 2 3 4 5 6 
#
# 1 0.018859 0.000176 -0.007148 -0.008857 0.003729 -0.000877
# 2 0.000176 0.014200 -0.015090 -0.005866 0.008021 0.006651
# 3 -0.007148 -0.015090 0.042780 0.013777 -0.014148 -0.017127
# 4 -0.008857 -0.005866 0.013777 0.043440 -0.017732 0.003635
# 5 0.003729 0.008021 -0.014148 -0.017732 0.051480 -0.002092
# 6 -0.000877 0.006651 -0.017127 0.003635 -0.002092 0.050760
#
#
# Mechanical properties :
#
#
# Convention : Reuss Voigt Hill
#
# Bulk Modulus (GPa) = 31.53113 42.04653 36.78883
# Shear Modulus (GPa) = 18.10190 26.60428 22.35309
#
# Velocity S-wave (km/s) = 3.03599 3.68056 3.37370
# Velocity P-wave (km/s) = 5.32398 6.28263 5.82307
#
# Compressibility (1/GPa) = 0.03171469
#
# Stress axis : x y z
#
# Youngs Moduli (GPa) = 53.02438 70.42356 23.37548
#
# Poissons Ratio (x) = -0.01238 0.16708
# Poissons Ratio (y) = -0.00932 0.35274
# Poissons Ratio (z) = 0.37901 1.06270
#
# Static dielectric constant tensor:
#      x y z
#    x 3.703950 0.011860 0.054620 
#    y 0.011860 3.981930 0.313770 
#    z 0.054620 0.313770 3.343900 
# 
# 
# High freq. dielectric constant tensor:
#      x y z
#    x 1.766730 -0.002190 -0.005470 
#    y -0.002190 1.777420 0.016330 
#    z -0.005470 0.016330 1.738820 
# 
# From -- ./inp_files/218482.got.cif
#   From: 2010.06.25/outbox.cif.g09.slc.cpg/sg2_110_cif.got.tgz:218482.got - 2010.06.27 13:26:56.
