data_PCOD8040389
_publ_section_title
;
Structure prediction by ZEFSAII (Michael W. Deem and Ramdas Pophale) SiO2 
 PCOD8040389
Probable space group: P -1
;
_chemical_formula_sum "Si O2"
_cell_formula_units_Z 16
_cell_length_a 11.724501
_cell_length_b 10.480642
_cell_length_c 11.945685
_cell_angle_alpha 64.078340
_cell_angle_beta 142.628285
_cell_angle_gamma 121.459520
_cell_volume 759.307539
_symmetry_space_group_name_H-M "P -1"
_symmetry_group_IT_number 2
_symmetry_cell_setting 'triclinic'
loop_
_space_group_symop_operation_xyz
x,y,z
-x,-y,-z
loop_
_atom_site_type_symbol
_atom_site_label
_atom_site_fract_x
_atom_site_fract_y
_atom_site_fract_z
Si Si1 0.744360 0.707734 0.376665
Si Si2 0.263261 0.942637 0.233564
Si Si3 0.848428 0.764930 0.918959
Si Si4 0.127411 0.175676 0.329926
Si Si5 0.841046 0.280970 0.334356
Si Si6 0.683567 0.072506 0.468583
Si Si7 0.268218 0.975676 0.815164
Si Si8 0.604692 0.479590 0.973665
O O1 0.750730 0.724006 0.510693
O O2 0.545287 0.591797 0.216692
O O3 0.921592 0.644065 0.502042
O O4 0.770392 0.866908 0.279659
O O5 0.458540 0.974542 0.295822
O O6 0.213845 0.096026 0.142475
O O7 0.311245 0.888389 0.412138
O O8 0.086071 0.808206 0.095321
O O9 0.799660 0.727273 0.763830
O O10 0.745744 0.633613 0.975075
O O11 0.170160 0.019300 0.413191
O O12 0.886017 0.127491 0.173750
O O13 0.797105 0.112965 0.316542
O O14 0.746666 0.239682 0.399470
O O15 0.741795 0.377892 0.145596
O O16 0.500000 0.000000 0.000000
O O17 0.500000 0.500000 0.000000
#
# Coordination Sequence:
#
# PCOD8040389 Si02
#       8
#     2   2   2   2   2   2   2   2
#     4  11  23  43  65  99 134 167 219 274 323 386
#     4   9  21  38  65  89 130 168 217 277 320 375
#     4  10  23  43  60  95 129 172 226 264 321 391
#     4  10  21  38  67  96 128 164 218 280 320 380
#     4  11  22  40  67  98 129 168 219 267 324 389
#     4  10  18  36  64 100 122 164 218 270 330 377
#     4  11  20  38  70 101 127 164 219 274 330 376
#     4  12  28  44  64  94 135 182 218 260 335 397
#
# _framework density 21.071831
#
# number of rings (size 3 to 8) (size 9 to 14) (size 15 to 20)
#    0.000    1.500    3.750    1.500    3.500    2.000 
#    6.750    2.500    0.000    0.000    0.000    0.000 
#    0.000    0.000    0.000    0.000    0.000    0.000 
#
# Total GULP energy -198277.078361 kJ/mol
# GULP energy per Si atom -12392.317398 kJ/mol
# Density = 2.102387 g / cm^3
# Si number density = 21.071831 Si / 1000 Ang^3
#
#
#
# Elastic Constant Matrix: (Units=GPa)
#
#
# Indices 1 2 3 4 5 6 
#
# 1 95.5965 33.1160 47.1619 -7.6654 1.1765 19.0469
# 2 33.1160 84.2807 48.0896 -1.9458 -9.7181 20.0046
# 3 47.1619 48.0896 129.6415 3.4899 12.6068 17.3391
# 4 -7.6654 -1.9458 3.4899 21.1404 4.6350 -12.0097
# 5 1.1765 -9.7181 12.6068 4.6350 40.1091 -3.3774
# 6 19.0469 20.0046 17.3391 -12.0097 -3.3774 25.5179
#
#
#
# Elastic Compliance Matrix: (Units=1/GPa)
#
#
# Indices 1 2 3 4 5 6 
#
# 1 0.014338 -0.002309 -0.003691 0.002801 -0.000576 -0.005142
# 2 -0.002309 0.019028 -0.005025 -0.006380 0.005985 -0.011989
# 3 -0.003691 -0.005025 0.012164 -0.005493 -0.004700 -0.004778
# 4 0.002801 -0.006380 -0.005493 0.072502 -0.004902 0.040117
# 5 -0.000576 0.005985 -0.004700 -0.004902 0.028476 0.000394
# 6 -0.005142 -0.011989 -0.004778 0.040117 0.000394 0.074605
#
#
# Mechanical properties :
#
#
# Convention : Reuss Voigt Hill
#
# Bulk Modulus (GPa) = 42.58931 62.91709 52.75320
# Shear Modulus (GPa) = 19.92108 29.43022 24.67565
#
# Velocity S-wave (km/s) = 3.07805 3.74125 3.42574
# Velocity P-wave (km/s) = 5.73480 6.97035 6.38254
#
# Compressibility (1/GPa) = 0.02348007
#
# Stress axis : x y z
#
# Youngs Moduli (GPa) = 69.74693 52.55331 82.20685
#
# Poissons Ratio (x) = 0.12134 0.30342
# Poissons Ratio (y) = 0.16104 0.41311
# Poissons Ratio (z) = 0.25743 0.26409
#
# Static dielectric constant tensor:
#      x y z
#    x 3.982800 0.164240 0.134520 
#    y 0.164240 3.498250 0.092770 
#    z 0.134520 0.092770 4.124390 
# 
# 
# High freq. dielectric constant tensor:
#      x y z
#    x 1.831730 0.015210 0.006300 
#    y 0.015210 1.794120 -0.000090 
#    z 0.006300 -0.000090 1.839630 
# 
# From -- ./inp_files/427906.got.cif
#   From: 2010.06.25/outbox.cif.g09.slc.cpg/sg2_214_cif.got.tgz:427906.got - 2010.06.27 13:26:56.
