data_PCOD8040474
_publ_section_title
;
Structure prediction by ZEFSAII (Michael W. Deem and Ramdas Pophale) SiO2 
 PCOD8040474
Probable space group: P -1
;
_chemical_formula_sum "Si O2"
_cell_formula_units_Z 16
_cell_length_a 18.892507
_cell_length_b 21.305989
_cell_length_c 9.479446
_cell_angle_alpha 127.641174
_cell_angle_beta 135.831668
_cell_angle_gamma 18.867015
_cell_volume 819.599039
_symmetry_space_group_name_H-M "P -1"
_symmetry_group_IT_number 2
_symmetry_cell_setting 'triclinic'
loop_
_space_group_symop_operation_xyz
x,y,z
-x,-y,-z
loop_
_atom_site_type_symbol
_atom_site_label
_atom_site_fract_x
_atom_site_fract_y
_atom_site_fract_z
Si Si1 0.749284 0.735448 0.117847
Si Si2 0.508604 0.691474 0.052653
Si Si3 0.572239 0.604418 0.455194
Si Si4 0.962448 0.085207 0.934616
Si Si5 0.319848 0.164015 0.161019
Si Si6 0.667916 0.676807 0.507650
Si Si7 0.249789 0.446253 0.083293
Si Si8 0.725297 0.398474 0.144588
O O1 0.024447 0.550724 0.332769
O O2 0.530045 0.943302 0.172075
O O3 0.768898 0.752240 0.009906
O O4 0.670855 0.699625 0.956979
O O5 0.617365 0.689403 0.290698
O O6 0.638252 0.518946 0.060627
O O7 0.573488 0.654121 0.931202
O O8 0.195673 0.909939 0.916339
O O9 0.309160 0.742659 0.293309
O O10 0.505742 0.734354 0.457004
O O11 0.700737 0.527769 0.683929
O O12 0.779664 0.408702 0.380957
O O13 0.965316 0.173580 0.121090
O O14 0.000000 0.000000 0.000000
O O15 0.436604 0.158961 0.393219
O O16 0.054346 0.328896 0.086951
O O17 0.500000 0.500000 0.000000
#
# Coordination Sequence:
#
# PCOD8040474 Si02
#       8
#     2   2   2   2   2   2   2   2
#     4  10  20  36  60  88 114 151 199 235 283 347
#     4  11  24  37  60  87 119 157 186 243 295 330
#     4  10  19  37  62  85 115 155 190 241 285 338
#     4  11  20  39  63  86 113 148 200 240 276 343
#     4  10  20  36  61  86 116 154 194 238 282 347
#     4  10  18  37  58  86 110 154 199 234 279 342
#     4  11  22  41  54  87 130 146 186 245 295 336
#     4   9  19  38  60  82 107 145 201 235 273 340
#
# _framework density 19.521742
#
# number of rings (size 3 to 8) (size 9 to 14) (size 15 to 20)
#    0.000    1.750    6.250    0.750    0.000    5.500 
#    2.250    3.750    0.000    0.000    0.000    0.000 
#    0.000    0.000    0.000    0.000    0.000    0.000 
#
# Total GULP energy -198372.931460 kJ/mol
# GULP energy per Si atom -12398.308216 kJ/mol
# Density = 1.947731 g / cm^3
# Si number density = 19.521742 Si / 1000 Ang^3
#
#
#
# Elastic Constant Matrix: (Units=GPa)
#
#
# Indices 1 2 3 4 5 6 
#
# 1 73.1569 43.2570 27.0930 10.0462 3.2387 -18.5370
# 2 43.2570 129.7643 24.9549 13.9240 11.0006 3.5167
# 3 27.0930 24.9549 87.8018 20.7944 9.3195 2.6216
# 4 10.0462 13.9240 20.7944 26.8321 -1.0124 2.5292
# 5 3.2387 11.0006 9.3195 -1.0124 24.7547 4.4695
# 6 -18.5370 3.5167 2.6216 2.5292 4.4695 32.1209
#
#
#
# Elastic Compliance Matrix: (Units=1/GPa)
#
#
# Indices 1 2 3 4 5 6 
#
# 1 0.024103 -0.007078 -0.005095 -0.002899 -0.001001 0.015468
# 2 -0.007078 0.010711 0.000287 -0.002818 -0.003225 -0.004610
# 3 -0.005095 0.000287 0.016059 -0.010640 -0.005457 -0.002685
# 4 -0.002899 -0.002818 -0.010640 0.048911 0.008639 -0.005549
# 5 -0.001001 -0.003225 -0.005457 0.008639 0.045597 -0.006804
# 6 0.015468 -0.004610 -0.002685 -0.005549 -0.006804 0.042167
#
#
# Mechanical properties :
#
#
# Convention : Reuss Voigt Hill
#
# Bulk Modulus (GPa) = 36.89824 53.48144 45.18984
# Shear Modulus (GPa) = 22.69074 29.76941 26.23008
#
# Velocity S-wave (km/s) = 3.41300 3.90928 3.66954
# Velocity P-wave (km/s) = 5.87142 6.91606 6.41504
#
# Compressibility (1/GPa) = 0.02710157
#
# Stress axis : x y z
#
# Youngs Moduli (GPa) = 41.48802 93.35921 62.27032
#
# Poissons Ratio (x) = 0.66083 0.31726
# Poissons Ratio (y) = 0.29367 -0.01788
# Poissons Ratio (z) = 0.21137 -0.02680
#
# Static dielectric constant tensor:
#      x y z
#    x 3.439550 0.149430 0.382250 
#    y 0.149430 3.695100 0.415400 
#    z 0.382250 0.415400 3.688590 
# 
# 
# High freq. dielectric constant tensor:
#      x y z
#    x 1.739660 0.000020 0.021140 
#    y 0.000020 1.764400 0.013510 
#    z 0.021140 0.013510 1.754600 
# 
# From -- ./inp_files/306280.got.cif
#   From: 2010.06.25/outbox.cif.g09.slc.cpg/sg2_154_cif.got.tgz:306280.got - 2010.06.27 13:26:56.
