data_PCOD8040229
_publ_section_title
;
Structure prediction by ZEFSAII (Michael W. Deem and Ramdas Pophale) SiO2 
 PCOD8040229
Probable space group: P -1
;
_chemical_formula_sum "Si O2"
_cell_formula_units_Z 16
_cell_length_a 24.753544
_cell_length_b 21.649040
_cell_length_c 9.120134
_cell_angle_alpha 43.567236
_cell_angle_beta 34.118382
_cell_angle_gamma 18.376811
_cell_volume 811.034230
_symmetry_space_group_name_H-M "P -1"
_symmetry_group_IT_number 2
_symmetry_cell_setting 'triclinic'
loop_
_space_group_symop_operation_xyz
x,y,z
-x,-y,-z
loop_
_atom_site_type_symbol
_atom_site_label
_atom_site_fract_x
_atom_site_fract_y
_atom_site_fract_z
Si Si1 0.407385 0.253100 0.631324
Si Si2 0.676655 0.010797 0.903178
Si Si3 0.860418 0.682895 0.894843
Si Si4 0.497491 0.452117 0.240903
Si Si5 0.310248 0.365713 0.325048
Si Si6 0.127744 0.656526 0.614260
Si Si7 0.756155 0.054036 0.369884
Si Si8 0.751187 0.388577 0.908910
O O1 0.331884 0.217354 0.919510
O O2 0.413853 0.248417 0.448829
O O3 0.225987 0.474470 0.724944
O O4 0.653025 0.071275 0.453046
O O5 0.674426 0.090889 0.649967
O O6 0.435431 0.207686 0.185257
O O7 0.858744 0.881631 0.844179
O O8 0.739287 0.863407 0.945136
O O9 0.000000 0.500000 0.000000
O O10 0.041398 0.572754 0.564189
O O11 0.245021 0.622875 0.530344
O O12 0.676187 0.221761 0.230674
O O13 0.500000 0.500000 0.000000
O O14 0.566282 0.463553 0.196033
O O15 0.352330 0.436553 0.082726
O O16 0.185910 0.639867 0.348934
O O17 0.024457 0.830044 0.134437
#
# Coordination Sequence:
#
# PCOD8040229 Si02
#       8
#     2   2   2   2   2   2   2   2
#     4   9  18  34  56  80 110 147 184 229 270 324
#     4  11  20  35  57  82 115 148 179 233 279 320
#     4  10  18  36  59  79 112 147 191 226 269 326
#     4   9  17  30  59  84 105 145 189 221 272 339
#     4  10  20  36  57  80 112 150 189 221 273 331
#     4   8  15  32  51  78 110 140 180 227 267 319
#     4  10  19  34  56  83 115 143 179 233 285 316
#     4   9  16  33  53  77 110 144 181 223 270 330
#
# _framework density 19.727899000000001
#
# number of rings (size 3 to 8) (size 9 to 14) (size 15 to 20)
#    0.000    2.500    5.000    1.125    0.000    2.500 
#    0.000    4.375    0.000    0.000    0.000    0.000 
#    0.000    0.000    0.000    0.000    0.000    0.000 
#
# Total GULP energy -198251.276400 kJ/mol
# GULP energy per Si atom -12390.704775 kJ/mol
# Density = 1.968300 g / cm^3
# Si number density = 19.727899 Si / 1000 Ang^3
#
#
#
# Elastic Constant Matrix: (Units=GPa)
#
#
# Indices 1 2 3 4 5 6 
#
# 1 87.3198 51.3513 53.7537 2.9485 -35.5999 3.4134
# 2 51.3513 103.9862 43.3579 -1.4431 -12.5046 9.8455
# 3 53.7537 43.3579 66.7887 3.4000 -17.6457 18.9365
# 4 2.9485 -1.4431 3.4000 23.9914 6.7345 0.4360
# 5 -35.5999 -12.5046 -17.6457 6.7345 38.8972 0.2214
# 6 3.4134 9.8455 18.9365 0.4360 0.2214 32.5724
#
#
#
# Elastic Compliance Matrix: (Units=1/GPa)
#
#
# Indices 1 2 3 4 5 6 
#
# 1 0.042201 -0.008873 -0.024192 -0.009939 0.026447 0.012277
# 2 -0.008873 0.015193 -0.004113 0.004247 -0.005830 -0.001288
# 3 -0.024192 -0.004113 0.041977 -0.001725 -0.004005 -0.020575
# 4 -0.009939 0.004247 -0.001725 0.048128 -0.016847 0.000231
# 5 0.026447 -0.005830 -0.004005 -0.016847 0.049132 0.001211
# 6 0.012277 -0.001288 -0.020575 0.000231 0.001211 0.041754
#
#
# Mechanical properties :
#
#
# Convention : Reuss Voigt Hill
#
# Bulk Modulus (GPa) = 39.97739 61.66894 50.82316
# Shear Modulus (GPa) = 15.57246 26.40097 20.98672
#
# Velocity S-wave (km/s) = 2.81261 3.66219 3.26515
# Velocity P-wave (km/s) = 5.55482 7.01497 6.32716
#
# Compressibility (1/GPa) = 0.02501414
#
# Stress axis : x y z
#
# Youngs Moduli (GPa) = 23.69634 65.81907 23.82265
#
# Poissons Ratio (x) = 0.58399 0.57632
# Poissons Ratio (y) = 0.21025 0.09799
# Poissons Ratio (z) = 0.57327 0.27074
#
# Static dielectric constant tensor:
#      x y z
#    x 3.878230 -0.175750 -0.764170 
#    y -0.175750 3.647730 -0.117200 
#    z -0.764170 -0.117200 3.627320 
# 
# 
# High freq. dielectric constant tensor:
#      x y z
#    x 1.753680 -0.007430 -0.044550 
#    y -0.007430 1.772270 -0.013000 
#    z -0.044550 -0.013000 1.737600 
# 
# From -- ./inp_files/213290.got.cif
#   From: 2010.06.25/outbox.cif.g09.slc.cpg/sg2_107_cif.got.tgz:213290.got - 2010.06.27 13:26:56.
