data_PCOD8040539
_publ_section_title
;
Structure prediction by ZEFSAII (Michael W. Deem and Ramdas Pophale) SiO2 
 PCOD8040539
Probable space group: P -1
;
_chemical_formula_sum "Si O2"
_cell_formula_units_Z 14
_cell_length_a 9.405072
_cell_length_b 17.113616
_cell_length_c 5.205318
_cell_angle_alpha 114.234701
_cell_angle_beta 106.990206
_cell_angle_gamma 120.343139
_cell_volume 509.443066
_symmetry_space_group_name_H-M "P -1"
_symmetry_group_IT_number 2
_symmetry_cell_setting 'triclinic'
loop_
_space_group_symop_operation_xyz
x,y,z
-x,-y,-z
loop_
_atom_site_type_symbol
_atom_site_label
_atom_site_fract_x
_atom_site_fract_y
_atom_site_fract_z
Si Si1 0.877078 0.721231 0.347834
Si Si2 0.889347 0.212873 0.949302
Si Si3 0.531244 0.872982 0.328943
Si Si4 0.595720 0.730202 0.464734
Si Si5 0.004988 0.944881 0.182058
Si Si6 0.118219 0.449213 0.653705
Si Si7 0.700843 0.362369 0.396618
O O1 0.666824 0.694919 0.223529
O O2 0.798091 0.589506 0.158319
O O3 0.005391 0.790457 0.246189
O O4 0.047514 0.814122 0.793187
O O5 0.634498 0.122498 0.663323
O O6 0.994657 0.351338 0.218877
O O7 0.571752 0.818501 0.491848
O O8 0.767158 0.014505 0.606525
O O9 0.441129 0.782761 0.910950
O O10 0.381301 0.618177 0.368153
O O11 0.789238 0.799738 0.868376
O O12 0.000000 0.000000 0.500000
O O13 0.000000 0.000000 0.000000
O O14 0.310138 0.584931 0.806019
O O15 0.946253 0.440449 0.685934
#
# Coordination Sequence:
#
# PCOD8040539 Si02
#       7
#     2   2   2   2   2   2   2
#     4  10  22  39  58  85 128 153 187 243 298 343
#     4   9  21  40  60  80 122 161 189 235 290 348
#     4  10  21  37  64  85 114 155 205 239 285 349
#     4  11  23  35  62  89 120 151 196 244 301 339
#     4  10  21  37  58  89 119 145 193 248 291 337
#     4   8  20  36  60  85 121 151 199 238 287 344
#     4  10  18  37  61  89 108 159 200 240 282 351
#
# _framework density 27.480991
#
# number of rings (size 3 to 8) (size 9 to 14) (size 15 to 20)
#    0.857    1.429    1.429    0.857    2.000    1.714 
#    0.000    7.143    0.000    0.000    0.000    0.000 
#    0.000    0.000    0.000    0.000    0.000    0.000 
#
# Total GULP energy -173437.761737 kJ/mol
# GULP energy per Si atom -12388.411553 kJ/mol
# Density = 2.741844 g / cm^3
# Si number density = 27.480991 Si / 1000 Ang^3
#
#
#
# Elastic Constant Matrix: (Units=GPa)
#
#
# Indices 1 2 3 4 5 6 
#
# 1 204.8092 65.9161 36.4247 -9.7464 25.0254 50.6137
# 2 65.9161 116.1966 21.2307 -16.9848 5.1511 41.1131
# 3 36.4247 21.2307 62.0205 -8.1524 3.6031 27.2912
# 4 -9.7464 -16.9848 -8.1524 54.3293 12.6839 -1.5399
# 5 25.0254 5.1511 3.6031 12.6839 40.1912 -3.6666
# 6 50.6137 41.1131 27.2912 -1.5399 -3.6666 55.4127
#
#
#
# Elastic Compliance Matrix: (Units=1/GPa)
#
#
# Indices 1 2 3 4 5 6 
#
# 1 0.007789 -0.001696 -0.000889 0.001896 -0.005675 -0.005741
# 2 -0.001696 0.013319 0.001145 0.004474 -0.002984 -0.008970
# 3 -0.000889 0.001145 0.021815 0.004056 -0.003826 -0.010923
# 4 0.001896 0.004474 0.004056 0.022884 -0.009985 -0.007073
# 5 -0.005675 -0.002984 -0.003826 -0.009985 0.033313 0.011208
# 6 -0.005741 -0.008970 -0.010923 -0.007073 0.011208 0.035870
#
#
# Mechanical properties :
#
#
# Convention : Reuss Voigt Hill
#
# Bulk Modulus (GPa) = 24.97244 70.01882 47.49563
# Shear Modulus (GPa) = 33.06489 47.28363 40.17426
#
# Velocity S-wave (km/s) = 3.47247 4.15250 3.82762
# Velocity P-wave (km/s) = 5.01839 6.96602 6.07082
#
# Compressibility (1/GPa) = 0.04004415
#
# Stress axis : x y z
#
# Youngs Moduli (GPa) = 128.38778 75.08063 45.83952
#
# Poissons Ratio (x) = 0.12735 0.04074
# Poissons Ratio (y) = 0.21776 -0.05250
# Poissons Ratio (z) = 0.11410 -0.08599
#
# Static dielectric constant tensor:
#      x y z
#    x 5.185160 0.166550 0.216610 
#    y 0.166550 4.835010 0.393480 
#    z 0.216610 0.393480 5.197200 
# 
# 
# High freq. dielectric constant tensor:
#      x y z
#    x 2.127630 0.006870 0.006590 
#    y 0.006870 2.092700 0.010480 
#    z 0.006590 0.010480 2.119020 
# 
# From -- ./inp_files/45056.got.cif
#   From: 2010.06.25/outbox.cif.g09.slc.cpg/sg2_23_cif.got.tgz:45056.got - 2010.06.27 13:26:56.
