data_PCOD8040374
_publ_section_title
;
Structure prediction by ZEFSAII (Michael W. Deem and Ramdas Pophale) SiO2 
 PCOD8040374
Probable space group: P -1
;
_chemical_formula_sum "Si O2"
_cell_formula_units_Z 14
_cell_length_a 8.342976
_cell_length_b 11.195994
_cell_length_c 9.473392
_cell_angle_alpha 66.671239
_cell_angle_beta 115.489513
_cell_angle_gamma 80.578520
_cell_volume 671.228943
_symmetry_space_group_name_H-M "P -1"
_symmetry_group_IT_number 2
_symmetry_cell_setting 'triclinic'
loop_
_space_group_symop_operation_xyz
x,y,z
-x,-y,-z
loop_
_atom_site_type_symbol
_atom_site_label
_atom_site_fract_x
_atom_site_fract_y
_atom_site_fract_z
Si Si1 0.086955 0.771121 0.613284
Si Si2 0.255911 0.948740 0.724160
Si Si3 0.835695 0.664275 0.739293
Si Si4 0.428041 0.150592 0.669587
Si Si5 0.822646 0.112692 0.964442
Si Si6 0.019483 0.656620 0.091225
Si Si7 0.060650 0.335825 0.626068
O O1 0.273663 0.800359 0.724779
O O2 0.033113 0.667626 0.745225
O O3 0.104664 0.707132 0.491481
O O4 0.906202 0.922564 0.481722
O O5 0.445008 0.986439 0.761910
O O6 0.202102 0.952310 0.866108
O O7 0.639596 0.781688 0.543287
O O8 0.838143 0.509362 0.782801
O O9 0.843082 0.691236 0.896694
O O10 0.633529 0.152354 0.778095
O O11 0.269187 0.247266 0.677258
O O12 0.853252 0.255418 0.939558
O O13 0.000000 0.000000 0.000000
O O14 0.923903 0.702984 0.186312
O O15 0.000000 0.500000 0.500000
#
# Coordination Sequence:
#
# PCOD8040374 Si02
#       7
#     2   2   2   2   2   2   2
#     4   9  16  33  61  86 117 158 199 236 297 356
#     4   9  18  35  61  83 117 161 197 241 295 358
#     4   9  19  37  62  91 121 161 191 245 309 348
#     4  10  22  40  63  87 123 160 203 245 293 361
#     4  12  24  38  61  92 121 158 204 252 301 346
#     4  11  20  36  66  90 123 157 196 246 304 359
#     4  10  18  36  63  89 117 156 197 241 297 358
#
# _framework density 20.857267
#
# number of rings (size 3 to 8) (size 9 to 14) (size 15 to 20)
#    0.000    2.286    4.286    2.143    0.000    0.571 
#    0.000    0.714    9.429    4.286    0.000    0.000 
#    0.000    0.000    0.000    0.000    0.000    0.000 
#
# Total GULP energy -173477.073662 kJ/mol
# GULP energy per Si atom -12391.219547 kJ/mol
# Density = 2.080979 g / cm^3
# Si number density = 20.857267 Si / 1000 Ang^3
#
#
#
# Elastic Constant Matrix: (Units=GPa)
#
#
# Indices 1 2 3 4 5 6 
#
# 1 51.2600 40.2077 36.8685 -0.2027 13.4660 11.7552
# 2 40.2077 132.0957 40.7903 15.8346 8.2014 31.5330
# 3 36.8685 40.7903 119.3316 20.3240 -8.5805 -2.7703
# 4 -0.2027 15.8346 20.3240 41.0472 4.4641 -10.6902
# 5 13.4660 8.2014 -8.5805 4.4641 29.7946 4.6413
# 6 11.7552 31.5330 -2.7703 -10.6902 4.6413 28.9782
#
#
#
# Elastic Compliance Matrix: (Units=1/GPa)
#
#
# Indices 1 2 3 4 5 6 
#
# 1 0.042461 -0.008420 -0.014034 0.012568 -0.022620 -0.001145
# 2 -0.008420 0.016088 -0.001213 -0.010940 0.003598 -0.018818
# 3 -0.014034 -0.001213 0.015322 -0.007440 0.011600 0.003875
# 4 0.012568 -0.010940 -0.007440 0.039916 -0.014395 0.023125
# 5 -0.022620 0.003598 0.011600 -0.014395 0.049360 -0.006847
# 6 -0.001145 -0.018818 0.003875 0.023125 -0.006847 0.065449
#
#
# Mechanical properties :
#
#
# Convention : Reuss Voigt Hill
#
# Bulk Modulus (GPa) = 37.68292 59.82447 48.75369
# Shear Modulus (GPa) = 17.55771 32.28541 24.92156
#
# Velocity S-wave (km/s) = 2.90453 3.93863 3.46043
# Velocity P-wave (km/s) = 5.41800 7.03056 6.27628
#
# Compressibility (1/GPa) = 0.02653722
#
# Stress axis : x y z
#
# Youngs Moduli (GPa) = 23.55087 62.15909 65.26615
#
# Poissons Ratio (x) = 0.52336 0.91597
# Poissons Ratio (y) = 0.19829 0.07916
# Poissons Ratio (z) = 0.33052 0.07539
#
# Static dielectric constant tensor:
#      x y z
#    x 3.565600 0.639800 -0.156980 
#    y 0.639800 4.259910 0.241210 
#    z -0.156980 0.241210 3.961480 
# 
# 
# High freq. dielectric constant tensor:
#      x y z
#    x 1.767380 0.040850 -0.022360 
#    y 0.040850 1.828260 0.013240 
#    z -0.022360 0.013240 1.828670 
# 
# From -- ./inp_files/168781.got.cif
#   From: 2010.06.25/outbox.cif.g09.slc.cpg/sg2_85_cif.got.tgz:168781.got - 2010.06.27 13:26:56.
