data_PCOD8040952
_publ_section_title
;
Structure prediction by ZEFSAII (Michael W. Deem and Ramdas Pophale) SiO2 
 PCOD8040952
Probable space group: P -1
;
_chemical_formula_sum "Si O2"
_cell_formula_units_Z 12
_cell_length_a 8.498025
_cell_length_b 8.838686
_cell_length_c 14.709287
_cell_angle_alpha 96.265193
_cell_angle_beta 145.517557
_cell_angle_gamma 76.619326
_cell_volume 601.806151
_symmetry_space_group_name_H-M "P -1"
_symmetry_group_IT_number 2
_symmetry_cell_setting 'triclinic'
loop_
_space_group_symop_operation_xyz
x,y,z
-x,-y,-z
loop_
_atom_site_type_symbol
_atom_site_label
_atom_site_fract_x
_atom_site_fract_y
_atom_site_fract_z
Si Si1 0.600159 0.088782 0.137605
Si Si2 0.631703 0.644629 0.071052
Si Si3 0.260836 0.663833 0.390716
Si Si4 0.168822 0.956501 0.482688
Si Si5 0.711446 0.111043 0.942768
Si Si6 0.278140 0.908873 0.255308
O O1 0.448331 0.033590 0.150045
O O2 0.476665 0.272521 0.071687
O O3 0.943724 0.041854 0.304236
O O4 0.500000 0.000000 0.000000
O O5 0.508140 0.744474 0.106796
O O6 0.973175 0.605577 0.237277
O O7 0.500000 0.500000 0.000000
O O8 0.500000 0.500000 0.500000
O O9 0.253168 0.768933 0.486237
O O10 0.302653 0.772414 0.332366
O O11 0.438941 0.027850 0.602696
O O12 0.000000 0.000000 0.500000
O O13 0.767051 0.161674 0.870544
O O14 0.996982 0.056505 0.138631
#
# Coordination Sequence:
#
# PCOD8040952 Si02
#       6
#     2   2   2   2   2   2
#     4  10  18  40  66  86 121 169 217 260 301 380
#     4  11  23  41  62  89 129 177 207 249 331 386
#     4  12  26  42  60  97 138 162 206 274 324 376
#     4  12  23  43  70  96 122 170 223 260 315 386
#     4  10  20  43  67  92 122 166 223 267 307 377
#     4  11  23  40  69  95 125 164 219 272 313 375
#
# _framework density 19.939973999999999
#
# number of rings (size 3 to 8) (size 9 to 14) (size 15 to 20)
#    0.000    1.000    6.667    1.500    4.667    0.000 
#    3.000    2.500    0.000    0.000    0.000    0.000 
#    0.000    0.000    0.000    0.000    0.000    0.000 
#
# Total GULP energy -148659.655715 kJ/mol
# GULP energy per Si atom -12388.304643 kJ/mol
# Density = 1.989459 g / cm^3
# Si number density = 19.939974 Si / 1000 Ang^3
#
#
#
# Elastic Constant Matrix: (Units=GPa)
#
#
# Indices 1 2 3 4 5 6 
#
# 1 96.2750 65.6706 44.4879 -4.1564 7.2518 6.1650
# 2 65.6706 137.4338 67.1572 -6.4882 12.2274 12.3394
# 3 44.4879 67.1572 152.9842 -7.5177 35.0774 6.1712
# 4 -4.1564 -6.4882 -7.5177 34.2140 5.5773 12.4980
# 5 7.2518 12.2274 35.0774 5.5773 48.8018 4.1653
# 6 6.1650 12.3394 6.1712 12.4980 4.1653 32.3617
#
#
#
# Elastic Compliance Matrix: (Units=1/GPa)
#
#
# Indices 1 2 3 4 5 6 
#
# 1 0.015738 -0.006674 -0.001756 0.000273 0.000591 -0.000300
# 2 -0.006674 0.012522 -0.003384 0.002121 0.000363 -0.003723
# 3 -0.001756 -0.003384 0.010160 0.002607 -0.006450 -0.000489
# 4 0.000273 0.002121 0.002607 0.036503 -0.005358 -0.014766
# 5 0.000591 0.000363 -0.006450 -0.005358 0.025582 -0.000244
# 6 -0.000300 -0.003723 -0.000489 -0.014766 -0.000244 0.038205
#
#
# Mechanical properties :
#
#
# Convention : Reuss Voigt Hill
#
# Bulk Modulus (GPa) = 67.62086 82.36935 74.99510
# Shear Modulus (GPa) = 29.89191 37.03400 33.46295
#
# Velocity S-wave (km/s) = 3.87601 4.31429 4.10101
# Velocity P-wave (km/s) = 7.34964 8.13731 7.75348
#
# Compressibility (1/GPa) = 0.01478834
#
# Stress axis : x y z
#
# Youngs Moduli (GPa) = 63.54109 79.86244 98.42664
#
# Poissons Ratio (x) = 0.53304 0.17288
# Poissons Ratio (y) = 0.42410 0.33312
# Poissons Ratio (z) = 0.11161 0.27029
#
# Static dielectric constant tensor:
#      x y z
#    x 4.201160 0.170590 -0.025630 
#    y 0.170590 3.332220 0.006070 
#    z -0.025630 0.006070 4.135080 
# 
# 
# High freq. dielectric constant tensor:
#      x y z
#    x 1.795020 0.009360 0.012640 
#    y 0.009360 1.746590 0.000180 
#    z 0.012640 0.000180 1.797720 
# 
# From -- ./inp_files/148023.got.cif
#   From: 2010.06.25/outbox.cif.g09.slc.cpg/sg2_75_cif.got.tgz:148023.got - 2010.06.27 13:26:56.
