data_PCOD8040976
_publ_section_title
;
Structure prediction by ZEFSAII (Michael W. Deem and Ramdas Pophale) SiO2 
 PCOD8040976
Probable space group: P -1
;
_chemical_formula_sum "Si O2"
_cell_formula_units_Z 16
_cell_length_a 14.552257
_cell_length_b 11.831700
_cell_length_c 8.568646
_cell_angle_alpha 112.219684
_cell_angle_beta 140.855130
_cell_angle_gamma 49.618673
_cell_volume 685.346802
_symmetry_space_group_name_H-M "P -1"
_symmetry_group_IT_number 2
_symmetry_cell_setting 'triclinic'
loop_
_space_group_symop_operation_xyz
x,y,z
-x,-y,-z
loop_
_atom_site_type_symbol
_atom_site_label
_atom_site_fract_x
_atom_site_fract_y
_atom_site_fract_z
Si Si1 0.447747 0.012119 0.257153
Si Si2 0.905814 0.708744 0.221889
Si Si3 0.243127 0.499658 0.358859
Si Si4 0.220015 0.467539 0.945501
Si Si5 0.409393 0.642823 0.575659
Si Si6 0.613047 0.202284 0.828163
Si Si7 0.252489 0.960677 0.384779
Si Si8 0.921998 0.233778 0.264881
O O1 0.606233 0.001359 0.359711
O O2 0.500000 0.000000 0.500000
O O3 0.432559 0.872450 0.131571
O O4 0.254375 0.173229 0.046740
O O5 0.067456 0.558598 0.261728
O O6 0.974962 0.792631 0.450359
O O7 0.839362 0.640968 0.225219
O O8 0.202774 0.490186 0.121620
O O9 0.273205 0.630507 0.493418
O O10 0.422127 0.335819 0.566078
O O11 0.429885 0.379681 0.120881
O O12 0.103275 0.624449 0.779598
O O13 0.500000 0.500000 0.500000
O O14 0.301811 0.803273 0.432799
O O15 0.740366 0.059731 0.802495
O O16 0.731516 0.260017 0.066407
O O17 0.048718 0.090816 0.242367
#
# Coordination Sequence:
#
# PCOD8040976 Si02
#       8
#     2   2   2   2   2   2   2   2
#     4  10  24  43  68  95 132 173 222 276 328 395
#     4  12  27  45  63 103 140 175 221 273 343 398
#     4  11  23  41  75  98 128 174 229 281 323 390
#     4  11  21  45  69  96 130 176 233 275 319 395
#     4  10  18  40  69  96 123 166 225 280 316 373
#     4  11  22  44  67 102 132 174 228 274 331 393
#     4  11  22  43  68  98 131 175 227 276 325 393
#     4  12  28  41  67 101 141 178 215 277 340 398
#
# _framework density 23.345844
#
# number of rings (size 3 to 8) (size 9 to 14) (size 15 to 20)
#    0.000    1.000    5.000    2.625    7.000    1.500 
#    0.000    0.000    0.000    0.000    0.000    0.000 
#    0.000    0.000    0.000    0.000    0.000    0.000 
#
# Total GULP energy -198271.234731 kJ/mol
# GULP energy per Si atom -12391.952171 kJ/mol
# Density = 2.329271 g / cm^3
# Si number density = 23.345844 Si / 1000 Ang^3
#
#
#
# Elastic Constant Matrix: (Units=GPa)
#
#
# Indices 1 2 3 4 5 6 
#
# 1 52.5242 26.5030 21.9149 -1.3521 20.1377 33.1802
# 2 26.5030 69.8876 22.6818 -6.3784 -0.7893 44.3610
# 3 21.9149 22.6818 108.0279 -3.8161 14.9463 10.3279
# 4 -1.3521 -6.3784 -3.8161 36.0748 6.9167 2.6326
# 5 20.1377 -0.7893 14.9463 6.9167 28.0586 7.7825
# 6 33.1802 44.3610 10.3279 2.6326 7.7825 44.7683
#
#
#
# Elastic Compliance Matrix: (Units=1/GPa)
#
#
# Indices 1 2 3 4 5 6 
#
# 1 0.056528 0.011745 -0.005115 0.012390 -0.027155 -0.048362
# 2 0.011745 0.053757 -0.009011 0.011167 0.012529 -0.062728
# 3 -0.005115 -0.009011 0.011952 -0.000182 -0.005958 0.011010
# 4 0.012390 0.011167 -0.000182 0.033762 -0.011188 -0.020247
# 5 -0.027155 0.012529 -0.005958 -0.011188 0.061685 -0.000979
# 6 -0.048362 -0.062728 0.011010 -0.020247 -0.000979 0.119159
#
#
# Mechanical properties :
#
#
# Convention : Reuss Voigt Hill
#
# Bulk Modulus (GPa) = 8.51258 41.40436 24.95847
# Shear Modulus (GPa) = 13.13154 32.40301 22.76728
#
# Velocity S-wave (km/s) = 2.37424 3.72957 3.12624
# Velocity P-wave (km/s) = 3.34219 6.02661 4.87289
#
# Compressibility (1/GPa) = 0.11747320
#
# Stress axis : x y z
#
# Youngs Moduli (GPa) = 17.69049 18.60239 83.66861
#
# Poissons Ratio (x) = -0.21849 0.42797
# Poissons Ratio (y) = -0.20778 0.75397
# Poissons Ratio (z) = 0.09049 0.16763
#
# Static dielectric constant tensor:
#      x y z
#    x 4.658510 0.629530 0.652910 
#    y 0.629530 4.488380 0.286010 
#    z 0.652910 0.286010 4.332840 
# 
# 
# High freq. dielectric constant tensor:
#      x y z
#    x 1.914210 0.035540 0.032320 
#    y 0.035540 1.917110 -0.001830 
#    z 0.032320 -0.001830 1.925880 
# 
# From -- ./inp_files/308222.got.cif
#   From: 2010.06.25/outbox.cif.g09.slc.cpg/sg2_155_cif.got.tgz:308222.got - 2010.06.27 13:26:56.
