data_PCOD8040166
_publ_section_title
;
Structure prediction by ZEFSAII (Michael W. Deem and Ramdas Pophale) SiO2 
 PCOD8040166
Probable space group: P -1
;
_chemical_formula_sum "Si O2"
_cell_formula_units_Z 16
_cell_length_a 8.678840
_cell_length_b 25.413809
_cell_length_c 11.468955
_cell_angle_alpha 34.520402
_cell_angle_beta 37.659304
_cell_angle_gamma 38.087918
_cell_volume 806.734400
_symmetry_space_group_name_H-M "P -1"
_symmetry_group_IT_number 2
_symmetry_cell_setting 'triclinic'
loop_
_space_group_symop_operation_xyz
x,y,z
-x,-y,-z
loop_
_atom_site_type_symbol
_atom_site_label
_atom_site_fract_x
_atom_site_fract_y
_atom_site_fract_z
Si Si1 0.746642 0.419626 0.858453
Si Si2 0.878466 0.777242 0.594596
Si Si3 0.098455 0.225477 0.146126
Si Si4 0.158084 0.937570 0.372328
Si Si5 0.652402 0.671861 0.761050
Si Si6 0.224191 0.378599 0.475459
Si Si7 0.413818 0.805566 0.255271
Si Si8 0.643363 0.111185 0.419052
O O1 0.689589 0.525902 0.760531
O O2 0.927573 0.409712 0.653311
O O3 0.457422 0.417267 0.992371
O O4 0.887734 0.331107 0.028890
O O5 0.838551 0.757919 0.788520
O O6 0.877353 0.677516 0.708862
O O7 0.627550 0.877879 0.512678
O O8 0.149522 0.797494 0.367887
O O9 0.979735 0.139931 0.368169
O O10 0.385017 0.184467 0.980800
O O11 0.331464 0.902526 0.213814
O O12 0.344207 0.941511 0.364724
O O13 0.916828 0.047947 0.296957
O O14 0.787763 0.664349 0.566658
O O15 0.377953 0.775051 0.750701
O O16 0.454074 0.295225 0.564874
#
# Coordination Sequence:
#
# PCOD8040166 Si02
#       8
#     2   2   2   2   2   2   2   2
#     4  10  20  35  56  78  99 131 176 215 249 298
#     4   9  20  35  49  77 108 136 163 209 254 304
#     4  10  19  34  54  75 104 139 169 206 254 302
#     4  10  18  37  55  76 101 132 178 213 242 297
#     4  10  18  36  55  74 100 138 166 208 259 296
#     4  10  20  35  56  78  99 131 176 215 249 298
#     4  10  19  34  54  75 104 139 169 206 254 302
#     4   9  19  35  56  75 105 134 165 217 255 287
#
# _framework density 19.833044999999998
#
# number of rings (size 3 to 8) (size 9 to 14) (size 15 to 20)
#    0.750    1.500    2.500    1.125    0.000    3.000 
#    0.000   10.000    0.000    4.500    0.000    0.000 
#    0.000    0.000    0.000    0.000    0.000    0.000 
#
# Total GULP energy -198265.586199 kJ/mol
# GULP energy per Si atom -12391.599137 kJ/mol
# Density = 1.978790 g / cm^3
# Si number density = 19.833045 Si / 1000 Ang^3
#
#
#
# Elastic Constant Matrix: (Units=GPa)
#
#
# Indices 1 2 3 4 5 6 
#
# 1 93.4641 15.8514 14.0035 13.4488 8.9694 13.5028
# 2 15.8514 83.4887 6.8956 3.1181 9.6160 16.0307
# 3 14.0035 6.8956 50.3126 11.7095 12.3469 8.0681
# 4 13.4488 3.1181 11.7095 21.8769 -0.1901 -1.8880
# 5 8.9694 9.6160 12.3469 -0.1901 11.1309 4.6702
# 6 13.5028 16.0307 8.0681 -1.8880 4.6702 23.6540
#
#
#
# Elastic Compliance Matrix: (Units=1/GPa)
#
#
# Indices 1 2 3 4 5 6 
#
# 1 0.014024 0.000326 0.002618 -0.010835 -0.011429 -0.007728
# 2 0.000326 0.015239 0.004080 -0.005505 -0.014030 -0.009575
# 3 0.002618 0.004080 0.035535 -0.022434 -0.041226 -0.010031
# 4 -0.010835 -0.005505 -0.022434 0.066868 0.032604 0.016468
# 5 -0.011429 -0.014030 -0.041226 0.032604 0.156721 0.001754
# 6 -0.007728 -0.009575 -0.010031 0.016468 0.001754 0.057566
#
#
# Mechanical properties :
#
#
# Convention : Reuss Voigt Hill
#
# Bulk Modulus (GPa) = 12.68308 33.41849 23.05079
# Shear Modulus (GPa) = 13.95921 24.03335 18.99628
#
# Velocity S-wave (km/s) = 2.65587 3.48484 3.09821
# Velocity P-wave (km/s) = 3.97664 5.75141 4.94431
#
# Compressibility (1/GPa) = 0.07884517
#
# Stress axis : x y z
#
# Youngs Moduli (GPa) = 71.30585 65.62210 28.14148
#
# Poissons Ratio (x) = -0.02139 -0.07366
# Poissons Ratio (y) = -0.02324 -0.11483
# Poissons Ratio (z) = -0.18665 -0.26776
#
# Static dielectric constant tensor:
#      x y z
#    x 3.586690 0.144170 -0.010570 
#    y 0.144170 3.825560 0.085790 
#    z -0.010570 0.085790 3.349510 
# 
# 
# High freq. dielectric constant tensor:
#      x y z
#    x 1.765930 0.012490 -0.003180 
#    y 0.012490 1.782130 0.006900 
#    z -0.003180 0.006900 1.750530 
# 
# From -- ./inp_files/395813.got.cif
#   From: 2010.06.25/outbox.cif.g09.slc.cpg/sg2_198_cif.got.tgz:395813.got - 2010.06.27 13:26:56.
