data_PCOD8040545
_publ_section_title
;
Structure prediction by ZEFSAII (Michael W. Deem and Ramdas Pophale) SiO2 
 PCOD8040545
Probable space group: P -1
;
_chemical_formula_sum "Si O2"
_cell_formula_units_Z 16
_cell_length_a 8.078160
_cell_length_b 8.223754
_cell_length_c 17.338666
_cell_angle_alpha 59.751474
_cell_angle_beta 95.647914
_cell_angle_gamma 55.184933
_cell_volume 685.309343
_symmetry_space_group_name_H-M "P -1"
_symmetry_group_IT_number 2
_symmetry_cell_setting 'triclinic'
loop_
_space_group_symop_operation_xyz
x,y,z
-x,-y,-z
loop_
_atom_site_type_symbol
_atom_site_label
_atom_site_fract_x
_atom_site_fract_y
_atom_site_fract_z
Si Si1 0.307878 0.923295 0.807522
Si Si2 0.821849 0.791875 0.635679
Si Si3 0.645624 0.151204 0.796029
Si Si4 0.736694 0.702579 0.972628
Si Si5 0.091029 0.718156 0.806642
Si Si6 0.620500 0.583519 0.521376
Si Si7 0.798683 0.602170 0.375543
Si Si8 0.832205 0.374471 0.744939
O O1 0.574257 0.707130 0.907329
O O2 0.260895 0.762348 0.802951
O O3 0.279119 0.116092 0.698638
O O4 0.120423 0.111637 0.825008
O O5 0.757763 0.641531 0.708830
O O6 0.006900 0.752957 0.707231
O O7 0.943209 0.647078 0.593070
O O8 0.581221 0.103600 0.535627
O O9 0.399096 0.360836 0.687407
O O10 0.693786 0.318414 0.796708
O O11 0.631351 0.002827 0.897767
O O12 0.860726 0.930446 0.799654
O O13 0.750955 0.590424 0.083481
O O14 0.000000 0.500000 0.000000
O O15 0.500000 0.500000 0.500000
O O16 0.804217 0.530359 0.481725
O O17 0.773493 0.395286 0.646224
#
# Coordination Sequence:
#
# PCOD8040545 Si02
#       8
#     2   2   2   2   2   2   2   2
#     4   9  19  36  60  88 125 165 204 255 308 366
#     4  11  24  39  60  95 128 160 213 256 306 369
#     4   9  17  39  60  87 124 166 202 261 307 359
#     4   9  18  32  65  94 121 161 214 252 308 377
#     4  10  18  37  61  92 126 168 205 255 311 369
#     4  12  22  42  67  88 124 171 208 253 314 366
#     4  10  21  40  61  89 127 161 209 259 302 363
#     4  10  21  39  61  87 127 167 204 262 311 360
#
# _framework density 23.347121999999999
#
# number of rings (size 3 to 8) (size 9 to 14) (size 15 to 20)
#    0.000    2.000    2.500    1.500    0.000    2.500 
#    2.250    6.250    0.000    0.000    0.000    0.000 
#    0.000    0.000    0.000    0.000    0.000    0.000 
#
# Total GULP energy -198349.421766 kJ/mol
# GULP energy per Si atom -12396.838860 kJ/mol
# Density = 2.329398 g / cm^3
# Si number density = 23.347122 Si / 1000 Ang^3
#
#
#
# Elastic Constant Matrix: (Units=GPa)
#
#
# Indices 1 2 3 4 5 6 
#
# 1 129.2689 21.7908 10.5032 -12.8705 -11.4362 18.2268
# 2 21.7908 70.6966 19.1210 -8.9772 -5.7225 0.1831
# 3 10.5032 19.1210 64.3816 -12.3880 -6.0430 -9.7109
# 4 -12.8705 -8.9772 -12.3880 20.2050 1.9703 -4.8841
# 5 -11.4362 -5.7225 -6.0430 1.9703 39.5174 -5.5003
# 6 18.2268 0.1831 -9.7109 -4.8841 -5.5003 26.5682
#
#
#
# Elastic Compliance Matrix: (Units=1/GPa)
#
#
# Indices 1 2 3 4 5 6 
#
# 1 0.009438 -0.002123 -0.001191 0.002734 0.001252 -0.006134
# 2 -0.002123 0.016330 -0.003489 0.003898 0.001165 0.001026
# 3 -0.001191 -0.003489 0.021441 0.013367 0.003411 0.011841
# 4 0.002734 0.003898 0.013367 0.064646 0.002312 0.015346
# 5 0.001252 0.001165 0.003411 0.002312 0.027137 0.006423
# 6 -0.006134 0.001026 0.011841 0.015346 0.006423 0.050319
#
#
# Mechanical properties :
#
#
# Convention : Reuss Voigt Hill
#
# Bulk Modulus (GPa) = 29.75905 40.79746 35.27825
# Shear Modulus (GPa) = 23.35173 31.45359 27.40266
#
# Velocity S-wave (km/s) = 3.16602 3.67442 3.42966
# Velocity P-wave (km/s) = 5.11262 5.95937 5.55216
#
# Compressibility (1/GPa) = 0.03360323
#
# Stress axis : x y z
#
# Youngs Moduli (GPa) = 105.95215 61.23837 46.63932
#
# Poissons Ratio (x) = 0.12999 0.05555
# Poissons Ratio (y) = 0.22490 0.16274
# Poissons Ratio (z) = 0.12619 0.21368
#
# Static dielectric constant tensor:
#      x y z
#    x 4.813620 0.141020 -0.237810 
#    y 0.141020 3.732860 -0.336180 
#    z -0.237810 -0.336180 4.433400 
# 
# 
# High freq. dielectric constant tensor:
#      x y z
#    x 1.955210 0.008890 0.000690 
#    y 0.008890 1.878760 -0.025940 
#    z 0.000690 -0.025940 1.916130 
# 
# From -- ./inp_files/504152.got.cif
#   From: 2010.06.25/outbox.cif.g09.slc.cpg/sg2_253_cif.got.tgz:504152.got - 2010.06.27 13:26:56.
