data_PCOD8040854
_publ_section_title
;
Structure prediction by ZEFSAII (Michael W. Deem and Ramdas Pophale) SiO2 
 PCOD8040854
Probable space group: P -1
;
_chemical_formula_sum "Si O2"
_cell_formula_units_Z 16
_cell_length_a 11.103123
_cell_length_b 11.968201
_cell_length_c 16.571891
_cell_angle_alpha 34.166098
_cell_angle_beta 53.016545
_cell_angle_gamma 37.529819
_cell_volume 743.721788
_symmetry_space_group_name_H-M "P -1"
_symmetry_group_IT_number 2
_symmetry_cell_setting 'triclinic'
loop_
_space_group_symop_operation_xyz
x,y,z
-x,-y,-z
loop_
_atom_site_type_symbol
_atom_site_label
_atom_site_fract_x
_atom_site_fract_y
_atom_site_fract_z
Si Si1 0.212122 0.859261 0.038210
Si Si2 0.987671 0.089422 0.276272
Si Si3 0.313180 0.371957 0.228179
Si Si4 0.000644 0.643759 0.575358
Si Si5 0.996087 0.276085 0.999519
Si Si6 0.625056 0.928191 0.258989
Si Si7 0.558509 0.239999 0.670854
Si Si8 0.183737 0.520402 0.749711
O O1 0.344467 0.543015 0.168012
O O2 0.161523 0.973463 0.081200
O O3 0.329614 0.934986 0.902939
O O4 0.000000 0.000000 0.000000
O O5 0.902810 0.275260 0.120605
O O6 0.862112 0.257086 0.305696
O O7 0.963388 0.874517 0.401043
O O8 0.215896 0.956768 0.273479
O O9 0.203529 0.303090 0.368288
O O10 0.529499 0.100787 0.276052
O O11 0.184680 0.537001 0.101933
O O12 0.168171 0.365182 0.629114
O O13 0.075460 0.643612 0.633819
O O14 0.110947 0.382960 0.904468
O O15 0.465695 0.914048 0.293064
O O16 0.500000 0.500000 0.500000
O O17 0.420890 0.313545 0.760348
#
# Coordination Sequence:
#
# PCOD8040854 Si02
#       8
#     2   2   2   2   2   2   2   2
#     4  10  18  39  63  83 109 146 193 245 283 332
#     4  12  23  35  58  84 126 151 184 233 284 332
#     4  10  21  37  67  80 108 151 196 240 280 336
#     4  10  20  36  56  88 111 150 191 234 269 340
#     4  10  21  40  54  87 118 149 188 238 286 331
#     4  11  19  36  62  88 107 141 206 231 272 338
#     4  11  21  34  57  86 114 156 185 227 273 337
#     4  10  20  37  55  79 116 155 195 214 272 344
#
# _framework density 21.513421000000001
#
# number of rings (size 3 to 8) (size 9 to 14) (size 15 to 20)
#    0.000    1.500    7.500    2.625    1.750    0.500 
#    2.250    0.625    0.000    0.750    0.000    0.000 
#    0.000    0.000    0.000    0.000    0.000    0.000 
#
# Total GULP energy -198402.321004 kJ/mol
# GULP energy per Si atom -12400.145063 kJ/mol
# Density = 2.146446 g / cm^3
# Si number density = 21.513421 Si / 1000 Ang^3
#
#
#
# Elastic Constant Matrix: (Units=GPa)
#
#
# Indices 1 2 3 4 5 6 
#
# 1 21.8589 -3.3709 12.3010 -1.4324 -14.9728 1.5469
# 2 -3.3709 129.7485 23.5004 -21.7996 -7.8315 11.6830
# 3 12.3010 23.5004 106.5899 5.1475 -22.2386 7.2895
# 4 -1.4324 -21.7996 5.1475 26.3406 6.5584 -10.9384
# 5 -14.9728 -7.8315 -22.2386 6.5584 29.4698 -5.2596
# 6 1.5469 11.6830 7.2895 -10.9384 -5.2596 14.7134
#
#
#
# Elastic Compliance Matrix: (Units=1/GPa)
#
#
# Indices 1 2 3 4 5 6 
#
# 1 0.072696 0.004118 -0.001688 -0.000363 0.037374 0.003014
# 2 0.004118 0.009870 -0.002969 0.008822 0.000501 -0.000062
# 3 -0.001688 -0.002969 0.013338 -0.011256 0.009296 -0.009119
# 4 -0.000363 0.008822 -0.011256 0.069797 -0.013730 0.045591
# 5 0.037374 0.000501 0.009296 -0.013730 0.063778 0.003659
# 6 0.003014 -0.000062 -0.009119 0.045591 0.003659 0.107417
#
#
# Mechanical properties :
#
#
# Convention : Reuss Voigt Hill
#
# Bulk Modulus (GPa) = 10.54565 35.89538 23.22051
# Shear Modulus (GPa) = 13.52877 29.15588 21.34232
#
# Velocity S-wave (km/s) = 2.51041 3.68535 3.15309
# Velocity P-wave (km/s) = 3.64903 5.90173 4.90642
#
# Compressibility (1/GPa) = 0.09482581
#
# Stress axis : x y z
#
# Youngs Moduli (GPa) = 13.75583 101.31782 74.97482
#
# Poissons Ratio (x) = -0.41723 0.12659
# Poissons Ratio (y) = -0.05665 0.22258
# Poissons Ratio (z) = 0.02323 0.30079
#
# Static dielectric constant tensor:
#      x y z
#    x 3.467130 0.050330 -0.413800 
#    y 0.050330 4.226490 -0.134890 
#    z -0.413800 -0.134890 3.840970 
# 
# 
# High freq. dielectric constant tensor:
#      x y z
#    x 1.804230 0.000080 -0.040550 
#    y 0.000080 1.858610 -0.003880 
#    z -0.040550 -0.003880 1.839980 
# 
# From -- ./inp_files/272350.got.cif
#   From: 2010.06.25/outbox.cif.g09.slc.cpg/sg2_137_cif.got.tgz:272350.got - 2010.06.27 13:26:56.
