data_PCOD8040023
_publ_section_title
;
Structure prediction by ZEFSAII (Michael W. Deem and Ramdas Pophale) SiO2 
 PCOD8040023
Probable space group: P -1
;
_chemical_formula_sum "Si O2"
_cell_formula_units_Z 16
_cell_length_a 18.396429
_cell_length_b 8.956739
_cell_length_c 12.734417
_cell_angle_alpha 64.247174
_cell_angle_beta 152.626828
_cell_angle_gamma 123.506589
_cell_volume 795.887630
_symmetry_space_group_name_H-M "P -1"
_symmetry_group_IT_number 2
_symmetry_cell_setting 'triclinic'
loop_
_space_group_symop_operation_xyz
x,y,z
-x,-y,-z
loop_
_atom_site_type_symbol
_atom_site_label
_atom_site_fract_x
_atom_site_fract_y
_atom_site_fract_z
Si Si1 0.493298 0.678859 0.985420
Si Si2 0.221198 0.682703 0.007179
Si Si3 0.810782 0.492920 0.774509
Si Si4 0.822060 0.363190 0.267462
Si Si5 0.235501 0.027314 0.619130
Si Si6 0.681282 0.118238 0.646714
Si Si7 0.565075 0.024654 0.304970
Si Si8 0.008983 0.829758 0.824686
O O1 0.333357 0.613003 0.880090
O O2 0.466427 0.797976 0.820672
O O3 0.500000 0.500000 0.000000
O O4 0.668614 0.800894 0.234884
O O5 0.178512 0.583913 0.871088
O O6 0.064822 0.733398 0.830488
O O7 0.245951 0.541225 0.165180
O O8 0.389693 0.866221 0.164261
O O9 0.689196 0.321963 0.602425
O O10 0.830116 0.687238 0.695206
O O11 0.000000 0.500000 0.000000
O O12 0.000000 0.500000 0.500000
O O13 0.802319 0.156284 0.310027
O O14 0.050036 0.019758 0.345278
O O15 0.357712 0.042039 0.672942
O O16 0.694776 0.073305 0.555739
O O17 0.500000 0.000000 0.500000
O O18 0.834557 0.089073 0.915758
#
# Coordination Sequence:
#
# PCOD8040023 Si02
#       8
#     2   2   2   2   2   2   2   2
#     4  11  25  42  64  94 125 168 209 253 317 381
#     4  10  18  39  64  85 125 166 204 253 312 362
#     4   8  18  34  57  87 119 156 204 248 299 363
#     4  11  24  42  65  95 123 166 211 258 318 366
#     4  11  24  43  61  92 134 162 203 262 316 372
#     4  10  18  35  61  91 115 159 212 248 304 364
#     4  11  20  40  68  84 127 168 200 261 314 366
#     4  10  23  37  61  94 124 165 208 252 309 372
#
# _framework density 20.103341
#
# number of rings (size 3 to 8) (size 9 to 14) (size 15 to 20)
#    0.000    2.000    5.000    0.750    3.500    7.000 
#    0.000    0.625    0.000    0.000    0.000    0.000 
#    0.000    0.000    0.000    0.000    0.000    0.000 
#
# Total GULP energy -198303.103409 kJ/mol
# GULP energy per Si atom -12393.943963 kJ/mol
# Density = 2.005758 g / cm^3
# Si number density = 20.103341 Si / 1000 Ang^3
#
#
#
# Elastic Constant Matrix: (Units=GPa)
#
#
# Indices 1 2 3 4 5 6 
#
# 1 104.3991 39.8994 38.1713 9.1295 -21.7388 9.6095
# 2 39.8994 74.2795 38.5702 20.0049 1.3809 -8.8186
# 3 38.1713 38.5702 108.2758 13.1540 -13.9974 -12.3857
# 4 9.1295 20.0049 13.1540 37.4029 -5.8525 3.7482
# 5 -21.7388 1.3809 -13.9974 -5.8525 35.8741 8.3243
# 6 9.6095 -8.8186 -12.3857 3.7482 8.3243 29.1129
#
#
#
# Elastic Compliance Matrix: (Units=1/GPa)
#
#
# Indices 1 2 3 4 5 6 
#
# 1 0.020911 -0.014426 -0.003099 0.008353 0.017727 -0.018735
# 2 -0.014426 0.030277 -0.003889 -0.016194 -0.018636 0.019692
# 3 -0.003099 -0.003889 0.012742 -0.001867 0.001779 0.004997
# 4 0.008353 -0.016194 -0.001867 0.038189 0.015305 -0.017750
# 5 0.017727 -0.018636 0.001779 0.015305 0.048707 -0.026637
# 6 -0.018735 0.019692 0.004997 -0.017750 -0.026637 0.058526
#
#
# Mechanical properties :
#
#
# Convention : Reuss Voigt Hill
#
# Bulk Modulus (GPa) = 47.39044 57.80405 52.59725
# Shear Modulus (GPa) = 19.28922 31.83223 25.56072
#
# Velocity S-wave (km/s) = 3.10095 3.98355 3.56963
# Velocity P-wave (km/s) = 6.03703 7.06924 6.57343
#
# Compressibility (1/GPa) = 0.02110130
#
# Stress axis : x y z
#
# Youngs Moduli (GPa) = 47.82284 33.02857 78.48137
#
# Poissons Ratio (x) = 0.47649 0.24320
# Poissons Ratio (y) = 0.68991 0.30518
# Poissons Ratio (z) = 0.14820 0.12844
#
# Static dielectric constant tensor:
#      x y z
#    x 4.064890 0.474910 -0.336090 
#    y 0.474910 3.847540 -0.091660 
#    z -0.336090 -0.091660 3.710750 
# 
# 
# High freq. dielectric constant tensor:
#      x y z
#    x 1.790450 0.020780 -0.014420 
#    y 0.020780 1.775490 0.014290 
#    z -0.014420 0.014290 1.780460 
# 
# From -- ./inp_files/297590.got.cif
#   From: 2010.06.25/outbox.cif.g09.slc.cpg/sg2_149_cif.got.tgz:297590.got - 2010.06.27 13:26:56.
