data_PCOD8040371
_publ_section_title
;
Structure prediction by ZEFSAII (Michael W. Deem and Ramdas Pophale) SiO2 
 PCOD8040371
Probable space group: P -1
;
_chemical_formula_sum "Si O2"
_cell_formula_units_Z 14
_cell_length_a 14.203405
_cell_length_b 10.970832
_cell_length_c 11.461715
_cell_angle_alpha 51.649244
_cell_angle_beta 147.829304
_cell_angle_gamma 116.578319
_cell_volume 732.700779
_symmetry_space_group_name_H-M "P -1"
_symmetry_group_IT_number 2
_symmetry_cell_setting 'triclinic'
loop_
_space_group_symop_operation_xyz
x,y,z
-x,-y,-z
loop_
_atom_site_type_symbol
_atom_site_label
_atom_site_fract_x
_atom_site_fract_y
_atom_site_fract_z
Si Si1 0.111241 0.187920 0.616944
Si Si2 0.021725 0.020155 0.202387
Si Si3 0.256349 0.080195 0.603174
Si Si4 0.931896 0.524536 0.283865
Si Si5 0.475388 0.229940 0.904822
Si Si6 0.832998 0.228512 0.689620
Si Si7 0.472353 0.453160 0.132310
O O1 0.107708 0.103582 0.537214
O O2 0.314186 0.219667 0.833861
O O3 0.971066 0.353705 0.364531
O O4 0.069127 0.076478 0.741551
O O5 0.156448 0.118448 0.351854
O O6 0.134801 0.899429 0.302805
O O7 0.869012 0.143441 0.903016
O O8 0.405362 0.189841 0.724233
O O9 0.347279 0.895360 0.802744
O O10 0.000000 0.500000 0.500000
O O11 0.035170 0.645734 0.255452
O O12 0.719775 0.596910 0.020128
O O13 0.520614 0.402916 0.857093
O O14 0.624970 0.308355 0.417240
O O15 0.500000 0.500000 0.000000
#
# Coordination Sequence:
#
# PCOD8040371 Si02
#       7
#     2   2   2   2   2   2   2
#     4  10  18  36  63  86 115 154 203 239 285 353
#     4  11  22  38  59  84 129 156 190 248 301 347
#     4   9  19  36  59  89 120 155 199 245 289 349
#     4  12  21  38  64  87 113 154 205 237 293 349
#     4   9  19  34  60  94 113 147 211 242 288 340
#     4  11  24  41  55  95 122 155 196 243 305 350
#     4  12  21  37  63  84 120 154 199 254 285 345
#
# _framework density 19.107391
#
# number of rings (size 3 to 8) (size 9 to 14) (size 15 to 20)
#    0.857    0.571    4.286    2.143    0.000    0.000 
#    2.571    4.286    0.000    2.571    0.000    0.000 
#    0.000    0.000    0.000    0.000    0.000    0.000 
#
# Total GULP energy -173514.693488 kJ/mol
# GULP energy per Si atom -12393.906678 kJ/mol
# Density = 1.906390 g / cm^3
# Si number density = 19.107391 Si / 1000 Ang^3
#
#
#
# Elastic Constant Matrix: (Units=GPa)
#
#
# Indices 1 2 3 4 5 6 
#
# 1 69.3657 24.2584 58.7176 -2.9105 3.1109 -6.3502
# 2 24.2584 73.0360 51.7385 0.4946 -4.7510 -3.8801
# 3 58.7176 51.7385 159.7408 -3.6257 7.8002 -14.1450
# 4 -2.9105 0.4946 -3.6257 32.3059 -3.2947 5.8888
# 5 3.1109 -4.7510 7.8002 -3.2947 37.9702 2.9695
# 6 -6.3502 -3.8801 -14.1450 5.8888 2.9695 27.2132
#
#
#
# Elastic Compliance Matrix: (Units=1/GPa)
#
#
# Indices 1 2 3 4 5 6 
#
# 1 0.021212 -0.002085 -0.006996 0.000943 -0.000548 0.000872
# 2 -0.002085 0.018462 -0.005491 -0.000535 0.003640 -0.000990
# 3 -0.006996 -0.005491 0.011062 -0.000251 -0.002696 0.003683
# 4 0.000943 -0.000535 -0.000251 0.032712 0.003327 -0.007429
# 5 -0.000548 0.003640 -0.002696 0.003327 0.028054 -0.004791
# 6 0.000872 -0.000990 0.003683 -0.007429 -0.004791 0.040854
#
#
# Mechanical properties :
#
#
# Convention : Reuss Voigt Hill
#
# Bulk Modulus (GPa) = 46.31353 63.50793 54.91073
# Shear Modulus (GPa) = 26.49739 30.65973 28.57856
#
# Velocity S-wave (km/s) = 3.72796 4.01009 3.87160
# Velocity P-wave (km/s) = 6.54381 7.39937 6.98470
#
# Compressibility (1/GPa) = 0.02159196
#
# Stress axis : x y z
#
# Youngs Moduli (GPa) = 47.14352 54.16589 90.39614
#
# Poissons Ratio (x) = 0.11292 0.63245
# Poissons Ratio (y) = 0.09828 0.49635
# Poissons Ratio (z) = 0.32984 0.29741
#
# Static dielectric constant tensor:
#      x y z
#    x 3.400160 -0.255350 0.159950 
#    y -0.255350 3.779890 0.094480 
#    z 0.159950 0.094480 3.587440 
# 
# 
# High freq. dielectric constant tensor:
#      x y z
#    x 1.722740 -0.022840 0.022490 
#    y -0.022840 1.747760 0.010960 
#    z 0.022490 0.010960 1.739860 
# 
# From -- ./inp_files/449818.got.cif
#   From: 2010.06.25/outbox.cif.g09.slc.cpg/sg2_225_cif.got.tgz:449818.got - 2010.06.27 13:26:56.
