data_PCOD8040488
_publ_section_title
;
Structure prediction by ZEFSAII (Michael W. Deem and Ramdas Pophale) SiO2 
 PCOD8040488
Probable space group: P -1
;
_chemical_formula_sum "Si O2"
_cell_formula_units_Z 16
_cell_length_a 21.623358
_cell_length_b 12.114907
_cell_length_c 9.228397
_cell_angle_alpha 114.463660
_cell_angle_beta 142.856892
_cell_angle_gamma 39.210536
_cell_volume 780.679278
_symmetry_space_group_name_H-M "P -1"
_symmetry_group_IT_number 2
_symmetry_cell_setting 'triclinic'
loop_
_space_group_symop_operation_xyz
x,y,z
-x,-y,-z
loop_
_atom_site_type_symbol
_atom_site_label
_atom_site_fract_x
_atom_site_fract_y
_atom_site_fract_z
Si Si1 0.128903 0.434639 0.935086
Si Si2 0.067252 0.611095 0.211713
Si Si3 0.230822 0.299252 0.592490
Si Si4 0.309154 0.590542 0.572856
Si Si5 0.721767 0.950932 0.926374
Si Si6 0.369582 0.794677 0.853118
Si Si7 0.534317 0.146043 0.214660
Si Si8 0.583308 0.660883 0.613586
O O1 0.949776 0.567457 0.590784
O O2 0.056188 0.527535 0.012881
O O3 0.266910 0.192717 0.060385
O O4 0.228612 0.455616 0.071710
O O5 0.196685 0.427461 0.470265
O O6 0.139953 0.670185 0.323607
O O7 0.878751 0.822490 0.038476
O O8 0.326656 0.086653 0.597663
O O9 0.351540 0.251653 0.908107
O O10 0.261003 0.778607 0.595674
O O11 0.388047 0.491416 0.503992
O O12 0.443044 0.426356 0.859904
O O13 0.536147 0.139338 0.602793
O O14 0.738448 0.032171 0.131515
O O15 0.394294 0.856768 0.794996
O O16 0.506000 0.271453 0.359526
#
# Coordination Sequence:
#
# PCOD8040488 Si02
#       8
#     2   2   2   2   2   2   2   2
#     4  10  20  34  58  83 116 144 186 228 272 331
#     4  10  18  37  59  85 111 144 185 235 269 324
#     4  10  21  34  53  84 119 146 173 225 287 327
#     4   9  20  39  60  77 110 144 198 228 267 317
#     4  10  20  34  59  84 110 145 190 224 279 322
#     4  10  21  38  56  83 109 150 185 235 267 323
#     4  11  22  35  55  82 122 146 178 222 282 339
#     4  10  21  35  57  83 108 153 182 226 275 334
#
# _framework density 20.494972000000001
#
# number of rings (size 3 to 8) (size 9 to 14) (size 15 to 20)
#    0.000    2.000    1.250    3.375    3.500    1.500 
#    2.250    0.000    0.000    6.750    0.000    0.000 
#    0.000    0.000    0.000    0.000    0.000    0.000 
#
# Total GULP energy -198339.769988 kJ/mol
# GULP energy per Si atom -12396.235624 kJ/mol
# Density = 2.044832 g / cm^3
# Si number density = 20.494972 Si / 1000 Ang^3
#
#
#
# Elastic Constant Matrix: (Units=GPa)
#
#
# Indices 1 2 3 4 5 6 
#
# 1 63.3962 39.7009 12.8604 3.5542 -1.2323 -11.3321
# 2 39.7009 117.0057 22.3280 17.2813 3.3352 -9.5852
# 3 12.8604 22.3280 55.1888 -7.0771 9.9991 7.6649
# 4 3.5542 17.2813 -7.0771 21.7155 -3.4662 2.8759
# 5 -1.2323 3.3352 9.9991 -3.4662 19.0764 8.7571
# 6 -11.3321 -9.5852 7.6649 2.8759 8.7571 28.6571
#
#
#
# Elastic Compliance Matrix: (Units=1/GPa)
#
#
# Indices 1 2 3 4 5 6 
#
# 1 0.021668 -0.005830 -0.004035 -0.001080 0.000878 0.007538
# 2 -0.005830 0.014748 -0.006531 -0.014832 -0.005721 0.007611
# 3 -0.004035 -0.006531 0.026032 0.014931 -0.005155 -0.010666
# 4 -0.001080 -0.014832 0.014931 0.068445 0.016974 -0.021437
# 5 0.000878 -0.005721 -0.005155 0.016974 0.069944 -0.023265
# 6 0.007538 0.007611 -0.010666 -0.021437 -0.023265 0.052535
#
#
# Mechanical properties :
#
#
# Convention : Reuss Voigt Hill
#
# Bulk Modulus (GPa) = 33.71893 42.81882 38.26887
# Shear Modulus (GPa) = 16.88904 24.60321 20.74613
#
# Velocity S-wave (km/s) = 2.87376 3.46851 3.18505
# Velocity P-wave (km/s) = 5.24398 6.08099 5.67793
#
# Compressibility (1/GPa) = 0.02965693
#
# Stress axis : x y z
#
# Youngs Moduli (GPa) = 46.14999 67.80453 38.41435
#
# Poissons Ratio (x) = 0.39532 0.15500
# Poissons Ratio (y) = 0.26907 0.25087
# Poissons Ratio (z) = 0.18621 0.44281
#
# Static dielectric constant tensor:
#      x y z
#    x 3.439780 -0.133840 0.068400 
#    y -0.133840 3.819800 0.161160 
#    z 0.068400 0.161160 3.701950 
# 
# 
# High freq. dielectric constant tensor:
#      x y z
#    x 1.783840 -0.017780 0.005270 
#    y -0.017780 1.796900 0.010320 
#    z 0.005270 0.010320 1.798570 
# 
# From -- ./inp_files/180091.got.cif
#   From: 2010.06.25/outbox.cif.g09.slc.cpg/sg2_91_cif.got.tgz:180091.got - 2010.06.27 13:26:56.
