data_PCOD8040113
_publ_section_title
;
Structure prediction by ZEFSAII (Michael W. Deem and Ramdas Pophale) SiO2 
 PCOD8040113
Probable space group: P -1
;
_chemical_formula_sum "Si O2"
_cell_formula_units_Z 16
_cell_length_a 11.857637
_cell_length_b 9.281258
_cell_length_c 17.528913
_cell_angle_alpha 77.205743
_cell_angle_beta 136.176302
_cell_angle_gamma 135.047163
_cell_volume 761.326931
_symmetry_space_group_name_H-M "P -1"
_symmetry_group_IT_number 2
_symmetry_cell_setting 'triclinic'
loop_
_space_group_symop_operation_xyz
x,y,z
-x,-y,-z
loop_
_atom_site_type_symbol
_atom_site_label
_atom_site_fract_x
_atom_site_fract_y
_atom_site_fract_z
Si Si1 0.735364 0.704120 0.409792
Si Si2 0.662433 0.567548 0.221726
Si Si3 0.207549 0.369126 0.281208
Si Si4 0.768723 0.471927 0.563285
Si Si5 0.330235 0.715839 0.808194
Si Si6 0.854143 0.018763 0.700351
Si Si7 0.742155 0.520360 0.053971
Si Si8 0.706704 0.192923 0.009984
O O1 0.616659 0.595377 0.279959
O O2 0.506913 0.617868 0.360146
O O3 0.820502 0.609191 0.497805
O O4 0.000000 0.000000 0.500000
O O5 0.607724 0.349159 0.224167
O O6 0.974829 0.819098 0.312124
O O7 0.455406 0.497023 0.071167
O O8 0.220035 0.412447 0.371789
O O9 0.120192 0.136247 0.252297
O O10 0.994310 0.318532 0.140740
O O11 0.006076 0.522885 0.676833
O O12 0.467376 0.171375 0.447244
O O13 0.400294 0.666264 0.922086
O O14 0.536478 0.010811 0.872913
O O15 0.969243 0.193194 0.809887
O O16 0.778900 0.421124 0.017647
O O17 0.500000 0.000000 0.000000
#
# Coordination Sequence:
#
# PCOD8040113 Si02
#       8
#     2   2   2   2   2   2   2   2
#     4  11  25  40  61  91 129 168 197 248 312 373
#     4  11  22  39  61  90 128 162 200 251 312 360
#     4  11  20  40  65  91 119 161 214 250 299 362
#     4  11  22  39  65  91 120 162 210 252 306 359
#     4  10  21  37  64  94 121 160 205 255 304 359
#     4  10  20  36  62  93 120 157 211 252 298 368
#     4  10  20  36  62  92 121 155 206 256 304 349
#     4  10  18  35  64  93 117 150 207 261 298 339
#
# _framework density 21.015937999999998
#
# number of rings (size 3 to 8) (size 9 to 14) (size 15 to 20)
#    0.000    1.500    2.500    6.750    1.750    2.500 
#    2.250    6.250    0.000    0.000    0.000    0.000 
#    0.000    0.000    0.000    0.000    0.000    0.000 
#
# Total GULP energy -198329.279748 kJ/mol
# GULP energy per Si atom -12395.579984 kJ/mol
# Density = 2.096810 g / cm^3
# Si number density = 21.015938 Si / 1000 Ang^3
#
#
#
# Elastic Constant Matrix: (Units=GPa)
#
#
# Indices 1 2 3 4 5 6 
#
# 1 75.3056 34.3036 46.6186 -4.2908 6.6360 -25.2264
# 2 34.3036 72.5843 38.2221 17.6196 1.1590 -18.3140
# 3 46.6186 38.2221 121.4753 9.9782 2.2950 -14.2404
# 4 -4.2908 17.6196 9.9782 35.1694 -8.1348 -10.9298
# 5 6.6360 1.1590 2.2950 -8.1348 29.0970 -1.3074
# 6 -25.2264 -18.3140 -14.2404 -10.9298 -1.3074 40.1202
#
#
#
# Elastic Compliance Matrix: (Units=1/GPa)
#
#
# Indices 1 2 3 4 5 6 
#
# 1 0.027611 -0.009043 -0.007206 0.014299 -0.000717 0.014547
# 2 -0.009043 0.022393 -0.002518 -0.011962 -0.001961 0.000319
# 3 -0.007206 -0.002518 0.011815 -0.003849 -0.000379 -0.002548
# 4 0.014299 -0.011962 -0.003849 0.044224 0.010537 0.014555
# 5 -0.000717 -0.001961 -0.000379 0.010537 0.037703 0.002619
# 6 0.014547 0.000319 -0.002548 0.014555 0.002619 0.037364
#
#
# Mechanical properties :
#
#
# Convention : Reuss Voigt Hill
#
# Bulk Modulus (GPa) = 41.18245 56.40599 48.79422
# Shear Modulus (GPa) = 22.05185 30.89203 26.47194
#
# Velocity S-wave (km/s) = 3.24279 3.83813 3.55295
# Velocity P-wave (km/s) = 5.80166 6.82199 6.33241
#
# Compressibility (1/GPa) = 0.02428219
#
# Stress axis : x y z
#
# Youngs Moduli (GPa) = 36.21771 44.65779 84.64030
#
# Poissons Ratio (x) = 0.40385 0.60995
# Poissons Ratio (y) = 0.32753 0.21315
# Poissons Ratio (z) = 0.26100 0.11246
#
# Static dielectric constant tensor:
#      x y z
#    x 4.207680 -0.718570 -0.406020 
#    y -0.718570 4.180500 0.647700 
#    z -0.406020 0.647700 4.366450 
# 
# 
# High freq. dielectric constant tensor:
#      x y z
#    x 1.812390 -0.033440 0.003040 
#    y -0.033440 1.805980 0.014180 
#    z 0.003040 0.014180 1.832750 
# 
# From -- ./inp_files/566743.got.cif
#   From: 2010.06.25/outbox.cif.g09.slc.cpg/sg2_284_cif.got.tgz:566743.got - 2010.06.27 13:26:56.
