data_PCOD8040910
_publ_section_title
;
Structure prediction by ZEFSAII (Michael W. Deem and Ramdas Pophale) SiO2 
 PCOD8040910
Probable space group: P -1
;
_chemical_formula_sum "Si O2"
_cell_formula_units_Z 16
_cell_length_a 11.719602
_cell_length_b 9.060496
_cell_length_c 9.150087
_cell_angle_alpha 58.652927
_cell_angle_beta 71.900110
_cell_angle_gamma 55.400094
_cell_volume 682.863415
_symmetry_space_group_name_H-M "P -1"
_symmetry_group_IT_number 2
_symmetry_cell_setting 'triclinic'
loop_
_space_group_symop_operation_xyz
x,y,z
-x,-y,-z
loop_
_atom_site_type_symbol
_atom_site_label
_atom_site_fract_x
_atom_site_fract_y
_atom_site_fract_z
Si Si1 0.798757 0.973860 0.436051
Si Si2 0.491303 0.188505 0.492104
Si Si3 0.162251 0.251824 0.977304
Si Si4 0.811320 0.255266 0.482870
Si Si5 0.841310 0.059208 0.050083
Si Si6 0.960879 0.639778 0.721865
Si Si7 0.351589 0.636674 0.226190
Si Si8 0.603751 0.656262 0.237473
O O1 0.844335 0.744461 0.584724
O O2 0.647551 0.136784 0.462932
O O3 0.883299 0.048687 0.466200
O O4 0.822848 0.989498 0.250485
O O5 0.402571 0.400807 0.335894
O O6 0.439155 0.204735 0.671300
O O7 0.500000 0.000000 0.500000
O O8 0.286333 0.302724 0.915203
O O9 0.029062 0.405624 0.850182
O O10 0.213098 0.041775 0.991882
O O11 0.107676 0.241850 0.163452
O O12 0.768651 0.233974 0.674437
O O13 0.671000 0.426148 0.373419
O O14 0.915482 0.337733 0.403970
O O15 0.728097 0.290664 0.937933
O O16 0.000000 0.000000 0.000000
O O17 0.473759 0.692481 0.169355
#
# Coordination Sequence:
#
# PCOD8040910 Si02
#       8
#     2   2   2   2   2   2   2   2
#     4  12  22  39  61  95 129 173 215 268 330 390
#     4  11  23  41  65 103 135 168 218 270 339 400
#     4  10  23  43  64  98 128 173 225 274 332 392
#     4  10  18  39  69  93 121 165 225 266 320 395
#     4  12  27  42  63  95 136 176 224 275 340 390
#     4  10  22  39  67  93 126 167 223 279 319 385
#     4  11  22  44  70  95 132 179 219 273 331 397
#     4  10  20  42  70  94 131 175 224 267 324 405
#
# _framework density 23.430748000000001
#
# number of rings (size 3 to 8) (size 9 to 14) (size 15 to 20)
#    0.000    1.250    2.500    4.125    0.000    2.500 
#    2.250    0.000    0.000    0.000    0.000    0.000 
#    0.000    0.000    0.000    0.000    0.000    0.000 
#
# Total GULP energy -198210.147102 kJ/mol
# GULP energy per Si atom -12388.134194 kJ/mol
# Density = 2.337742 g / cm^3
# Si number density = 23.430748 Si / 1000 Ang^3
#
#
#
# Elastic Constant Matrix: (Units=GPa)
#
#
# Indices 1 2 3 4 5 6 
#
# 1 79.8241 30.4678 42.5109 -3.5755 2.6504 -8.5930
# 2 30.4678 70.0942 23.7318 -6.6766 6.1378 -0.9447
# 3 42.5109 23.7318 135.1901 -13.7767 16.2944 -23.9704
# 4 -3.5755 -6.6766 -13.7767 29.2567 -14.8954 -1.6846
# 5 2.6504 6.1378 16.2944 -14.8954 32.2117 -2.4256
# 6 -8.5930 -0.9447 -23.9704 -1.6846 -2.4256 38.4880
#
#
#
# Elastic Compliance Matrix: (Units=1/GPa)
#
#
# Indices 1 2 3 4 5 6 
#
# 1 0.017287 -0.006202 -0.004427 -0.000351 0.001916 0.001056
# 2 -0.006202 0.017612 -0.001049 0.001874 -0.001570 -0.001623
# 3 -0.004427 -0.001049 0.010625 0.003016 -0.002999 0.005546
# 4 -0.000351 0.001874 0.003016 0.046477 0.020025 0.005142
# 5 0.001916 -0.001570 -0.002999 0.020025 0.042118 0.002052
# 6 0.001056 -0.001623 0.005546 0.005142 0.002052 0.029987
#
#
# Mechanical properties :
#
#
# Convention : Reuss Voigt Hill
#
# Bulk Modulus (GPa) = 45.10910 53.16993 49.13951
# Shear Modulus (GPa) = 25.66092 32.55116 29.10604
#
# Velocity S-wave (km/s) = 3.31294 3.73131 3.52833
# Velocity P-wave (km/s) = 5.82478 6.42691 6.13324
#
# Compressibility (1/GPa) = 0.02216848
#
# Stress axis : x y z
#
# Youngs Moduli (GPa) = 57.84848 56.78051 94.11610
#
# Poissons Ratio (x) = 0.35216 0.41661
# Poissons Ratio (y) = 0.35879 0.09870
# Poissons Ratio (z) = 0.25607 0.05955
#
# Static dielectric constant tensor:
#      x y z
#    x 4.335590 -0.410970 0.152850 
#    y -0.410970 4.175640 -0.414200 
#    z 0.152850 -0.414200 4.371230 
# 
# 
# High freq. dielectric constant tensor:
#      x y z
#    x 1.923970 -0.024630 -0.003140 
#    y -0.024630 1.928500 -0.015400 
#    z -0.003140 -0.015400 1.931320 
# 
# From -- ./inp_files/242550.got.cif
#   From: 2010.06.25/outbox.cif.g09.slc.cpg/sg2_122_cif.got.tgz:242550.got - 2010.06.27 13:26:56.
