data_PCOD8040269
_publ_section_title
;
Structure prediction by ZEFSAII (Michael W. Deem and Ramdas Pophale) SiO2 
 PCOD8040269
Probable space group: P -1
;
_chemical_formula_sum "Si O2"
_cell_formula_units_Z 14
_cell_length_a 9.633185
_cell_length_b 18.501381
_cell_length_c 11.271934
_cell_angle_alpha 28.225597
_cell_angle_beta 133.888500
_cell_angle_gamma 132.887201
_cell_volume 670.264855
_symmetry_space_group_name_H-M "P -1"
_symmetry_group_IT_number 2
_symmetry_cell_setting 'triclinic'
loop_
_space_group_symop_operation_xyz
x,y,z
-x,-y,-z
loop_
_atom_site_type_symbol
_atom_site_label
_atom_site_fract_x
_atom_site_fract_y
_atom_site_fract_z
Si Si1 0.681964 0.910585 0.083165
Si Si2 0.795387 0.764163 0.591078
Si Si3 0.425209 0.099510 0.548068
Si Si4 0.246219 0.387357 0.567240
Si Si5 0.208290 0.847195 0.619787
Si Si6 0.149500 0.820239 0.358871
Si Si7 0.628104 0.450938 0.822500
O O1 0.477018 0.970128 0.858393
O O2 0.859291 0.037174 0.943136
O O3 0.719321 0.880951 0.285392
O O4 0.661003 0.751658 0.229020
O O5 0.725873 0.805587 0.620465
O O6 0.711423 0.582302 0.778595
O O7 0.031148 0.793934 0.685108
O O8 0.630801 0.218604 0.463663
O O9 0.337246 0.011580 0.502794
O O10 0.394506 0.453020 0.667427
O O11 0.255555 0.513122 0.285761
O O12 0.020921 0.328828 0.562024
O O13 0.113205 0.868217 0.404315
O O14 0.339003 0.716064 0.873463
#
# Coordination Sequence:
#
# PCOD8040269 Si02
#       7
#     2   2   2   2   2   2   2
#     4   9  19  36  59  82 115 141 194 235 277 323
#     4  11  22  38  59  85 117 152 185 234 285 332
#     4  10  23  37  57  88 117 145 189 236 287 331
#     4  10  18  36  60  84 107 150 195 239 266 331
#     4  12  21  37  60  86 114 152 190 231 277 343
#     4  10  21  35  60  87 115 142 194 237 283 324
#     4  10  21  36  59  84 111 150 198 226 274 341
#
# _framework density 20.887267000000001
#
# number of rings (size 3 to 8) (size 9 to 14) (size 15 to 20)
#    0.857    0.857    4.286    2.143    0.000    0.000 
#    0.000    1.429    0.000    0.000    0.000    0.000 
#    0.000    0.000    0.000    0.000    0.000    0.000 
#
# Total GULP energy -173497.043875 kJ/mol
# GULP energy per Si atom -12392.645991 kJ/mol
# Density = 2.083973 g / cm^3
# Si number density = 20.887267 Si / 1000 Ang^3
#
#
#
# Elastic Constant Matrix: (Units=GPa)
#
#
# Indices 1 2 3 4 5 6 
#
# 1 90.7649 29.1470 10.5495 -11.5961 8.0620 10.0837
# 2 29.1470 87.6438 10.6017 -6.6525 -1.5028 24.4232
# 3 10.5495 10.6017 43.3601 -1.7366 -2.5468 -4.4550
# 4 -11.5961 -6.6525 -1.7366 18.5484 2.6190 0.0364
# 5 8.0620 -1.5028 -2.5468 2.6190 23.0106 -0.9219
# 6 10.0837 24.4232 -4.4550 0.0364 -0.9219 32.0471
#
#
#
# Elastic Compliance Matrix: (Units=1/GPa)
#
#
# Indices 1 2 3 4 5 6 
#
# 1 0.014358 -0.003093 -0.003073 0.008524 -0.006654 -0.002789
# 2 -0.003093 0.016695 -0.004409 0.003554 0.000787 -0.012344
# 3 -0.003073 -0.004409 0.025893 -0.001683 0.004168 0.008048
# 4 0.008524 0.003554 -0.001683 0.061813 -0.010216 -0.005989
# 5 -0.006654 0.000787 0.004168 -0.010216 0.047604 0.003455
# 6 -0.002789 -0.012344 0.008048 -0.005989 0.003455 0.042714
#
#
# Mechanical properties :
#
#
# Convention : Reuss Voigt Hill
#
# Bulk Modulus (GPa) = 27.93673 35.81835 31.87754
# Shear Modulus (GPa) = 20.64757 26.15260 23.40008
#
# Velocity S-wave (km/s) = 3.14749 3.54232 3.35072
# Velocity P-wave (km/s) = 5.15878 5.82377 5.50133
#
# Compressibility (1/GPa) = 0.03579517
#
# Stress axis : x y z
#
# Youngs Moduli (GPa) = 69.64822 59.89807 38.62080
#
# Poissons Ratio (x) = 0.18527 0.11868
# Poissons Ratio (y) = 0.21543 0.17029
# Poissons Ratio (z) = 0.21403 0.26410
#
# Static dielectric constant tensor:
#      x y z
#    x 3.477250 0.245720 -0.126560 
#    y 0.245720 3.676500 0.051250 
#    z -0.126560 0.051250 3.602070 
# 
# 
# High freq. dielectric constant tensor:
#      x y z
#    x 1.790800 0.025220 -0.005420 
#    y 0.025220 1.812590 0.008360 
#    z -0.005420 0.008360 1.801200 
# 
# From -- ./inp_files/401732.got.cif
#   From: 2010.06.25/outbox.cif.g09.slc.cpg/sg2_201_cif.got.tgz:401732.got - 2010.06.27 13:26:56.
