data_PCOD8040384
_publ_section_title
;
Structure prediction by ZEFSAII (Michael W. Deem and Ramdas Pophale) SiO2 
 PCOD8040384
Probable space group: P -1
;
_chemical_formula_sum "Si O2"
_cell_formula_units_Z 16
_cell_length_a 16.900375
_cell_length_b 8.571045
_cell_length_c 11.848846
_cell_angle_alpha 124.131624
_cell_angle_beta 31.437084
_cell_angle_gamma 113.816222
_cell_volume 729.742992
_symmetry_space_group_name_H-M "P -1"
_symmetry_group_IT_number 2
_symmetry_cell_setting 'triclinic'
loop_
_space_group_symop_operation_xyz
x,y,z
-x,-y,-z
loop_
_atom_site_type_symbol
_atom_site_label
_atom_site_fract_x
_atom_site_fract_y
_atom_site_fract_z
Si Si1 0.524703 0.601429 0.673635
Si Si2 0.160531 0.361201 0.760367
Si Si3 0.403044 0.623952 0.073994
Si Si4 0.458704 0.042193 0.916191
Si Si5 0.039113 0.732953 0.414042
Si Si6 0.747730 0.610380 0.099319
Si Si7 0.238396 0.296952 0.115931
Si Si8 0.191490 0.064767 0.409405
O O1 0.704029 0.521766 0.394711
O O2 0.405051 0.477265 0.713896
O O3 0.495642 0.819921 0.749445
O O4 0.508148 0.587989 0.821289
O O5 0.191136 0.294680 0.826164
O O6 0.158896 0.172635 0.611229
O O7 0.000000 0.500000 0.000000
O O8 0.388209 0.854050 0.215556
O O9 0.251332 0.525996 0.204469
O O10 0.500000 0.500000 0.000000
O O11 0.356705 0.149505 0.983801
O O12 0.364269 0.078569 0.164265
O O13 0.936135 0.702640 0.635532
O O14 0.930868 0.852198 0.501937
O O15 0.174517 0.840189 0.342736
O O16 0.114838 0.548484 0.178803
O O17 0.722136 0.761833 0.087613
#
# Coordination Sequence:
#
# PCOD8040384 Si02
#       8
#     2   2   2   2   2   2   2   2
#     4  11  22  38  64  93 121 168 211 253 310 372
#     4  12  25  39  60  91 132 164 206 256 314 379
#     4   9  18  32  56  94 128 150 196 263 312 351
#     4  10  18  36  63  94 121 156 215 267 301 357
#     4  10  19  37  63  90 123 159 210 255 309 362
#     4  11  22  41  60  94 126 168 206 255 314 376
#     4   9  21  34  59  92 128 162 203 260 315 362
#     4  10  20  36  63  94 118 160 206 264 304 360
#
# _framework density 21.925528
#
# number of rings (size 3 to 8) (size 9 to 14) (size 15 to 20)
#    0.000    1.750    3.750    1.125    0.000    0.000 
#    0.000    1.250    0.000    3.000    0.000    0.000 
#    0.000    0.000    0.000    0.000    0.000    0.000 
#
# Total GULP energy -198284.602102 kJ/mol
# GULP energy per Si atom -12392.787631 kJ/mol
# Density = 2.187562 g / cm^3
# Si number density = 21.925528 Si / 1000 Ang^3
#
#
#
# Elastic Constant Matrix: (Units=GPa)
#
#
# Indices 1 2 3 4 5 6 
#
# 1 104.7302 61.1447 47.8731 -10.5749 21.3850 12.2535
# 2 61.1447 98.5715 28.3841 -12.6493 8.9324 -3.6182
# 3 47.8731 28.3841 98.6129 -13.7829 0.5521 6.8009
# 4 -10.5749 -12.6493 -13.7829 37.0616 6.0213 -3.2017
# 5 21.3850 8.9324 0.5521 6.0213 33.3281 -2.2578
# 6 12.2535 -3.6182 6.8009 -3.2017 -2.2578 34.0496
#
#
#
# Elastic Compliance Matrix: (Units=1/GPa)
#
#
# Indices 1 2 3 4 5 6 
#
# 1 0.023129 -0.011313 -0.007102 0.001372 -0.012536 -0.008809
# 2 -0.011313 0.017429 0.000452 0.003032 0.002458 0.006281
# 3 -0.007102 0.000452 0.013787 0.002677 0.003748 0.000350
# 4 0.001372 0.003032 0.002677 0.030717 -0.007172 0.001706
# 5 -0.012536 0.002458 0.003748 -0.007172 0.039025 0.005937
# 6 -0.008809 0.006281 0.000350 0.001706 0.005937 0.033691
#
#
# Mechanical properties :
#
#
# Convention : Reuss Voigt Hill
#
# Bulk Modulus (GPa) = 54.29187 64.07984 59.18586
# Shear Modulus (GPa) = 25.01954 31.85537 28.43745
#
# Velocity S-wave (km/s) = 3.38170 3.81581 3.60530
# Velocity P-wave (km/s) = 6.32958 6.97879 6.66210
#
# Compressibility (1/GPa) = 0.01841896
#
# Stress axis : x y z
#
# Youngs Moduli (GPa) = 43.23629 57.37503 72.52996
#
# Poissons Ratio (x) = 0.64909 0.51514
# Poissons Ratio (y) = 0.48913 -0.03280
# Poissons Ratio (z) = 0.30708 -0.02595
#
# Static dielectric constant tensor:
#      x y z
#    x 4.703500 -0.120180 -0.184890 
#    y -0.120180 4.339610 -0.288030 
#    z -0.184890 -0.288030 3.884920 
# 
# 
# High freq. dielectric constant tensor:
#      x y z
#    x 1.899840 -0.008020 -0.017200 
#    y -0.008020 1.857020 -0.015790 
#    z -0.017200 -0.015790 1.841120 
# 
# From -- ./inp_files/298633.got.cif
#   From: 2010.06.25/outbox.cif.g09.slc.cpg/sg2_150_cif.got.tgz:298633.got - 2010.06.27 13:26:56.
