data_PCOD8040014
_publ_section_title
;
Structure prediction by ZEFSAII (Michael W. Deem and Ramdas Pophale) SiO2 
 PCOD8040014
Probable space group: P -1
;
_chemical_formula_sum "Si O2"
_cell_formula_units_Z 16
_cell_length_a 9.336247
_cell_length_b 14.498893
_cell_length_c 9.367644
_cell_angle_alpha 41.494042
_cell_angle_beta 112.264924
_cell_angle_gamma 102.210733
_cell_volume 772.076955
_symmetry_space_group_name_H-M "P -1"
_symmetry_group_IT_number 2
_symmetry_cell_setting 'triclinic'
loop_
_space_group_symop_operation_xyz
x,y,z
-x,-y,-z
loop_
_atom_site_type_symbol
_atom_site_label
_atom_site_fract_x
_atom_site_fract_y
_atom_site_fract_z
Si Si1 0.149751 0.584187 0.438908
Si Si2 0.024899 0.894873 0.999670
Si Si3 0.312822 0.125688 0.177852
Si Si4 0.306047 0.977144 0.868114
Si Si5 0.597759 0.800611 0.161541
Si Si6 0.538599 0.856631 0.500174
Si Si7 0.465606 0.555851 0.762944
Si Si8 0.655493 0.514912 0.624550
O O1 0.099162 0.746739 0.263981
O O2 0.295791 0.529477 0.663673
O O3 0.200203 0.571479 0.303407
O O4 0.000000 0.500000 0.500000
O O5 0.869088 0.880366 0.872490
O O6 0.127978 0.951848 0.846127
O O7 0.000000 0.000000 0.000000
O O8 0.367024 0.193732 0.263825
O O9 0.396443 0.970424 0.358678
O O10 0.349120 0.232602 0.942128
O O11 0.349237 0.049082 0.949948
O O12 0.339679 0.077048 0.633995
O O13 0.408556 0.823794 0.072081
O O14 0.678904 0.679729 0.433760
O O15 0.471190 0.723391 0.560588
O O16 0.613820 0.479350 0.814005
O O17 0.500000 0.500000 0.000000
O O18 0.500000 0.500000 0.500000
#
# Coordination Sequence:
#
# PCOD8040014 Si02
#       8
#     2   2   2   2   2   2   2   2
#     4  11  26  43  66  99 133 166 219 270 319 382
#     4  12  23  39  67  96 126 165 216 264 326 372
#     4  10  22  37  64  91 125 161 202 268 318 377
#     4  10  20  34  62  88 121 159 208 265 307 377
#     4  10  18  35  61  87 118 161 210 257 309 366
#     4  10  22  41  60  94 127 160 215 256 321 382
#     4  11  24  42  68  91 128 176 217 259 322 388
#     4  10  21  38  62  91 125 168 219 259 310 389
#
# _framework density 20.723323000000001
#
# number of rings (size 3 to 8) (size 9 to 14) (size 15 to 20)
#    0.000    1.500    2.500    3.000    7.000    0.500 
#    2.250    0.625    2.750    0.000    0.000    0.000 
#    0.000    0.000    0.000    0.000    0.000    0.000 
#
# Total GULP energy -198258.178569 kJ/mol
# GULP energy per Si atom -12391.136161 kJ/mol
# Density = 2.067616 g / cm^3
# Si number density = 20.723323 Si / 1000 Ang^3
#
#
#
# Elastic Constant Matrix: (Units=GPa)
#
#
# Indices 1 2 3 4 5 6 
#
# 1 160.5272 45.6555 41.1917 9.6194 -6.2545 -1.8146
# 2 45.6555 77.2450 23.9620 5.0534 -1.5177 -10.7646
# 3 41.1917 23.9620 79.2947 12.6803 -11.1053 -7.9224
# 4 9.6194 5.0534 12.6803 41.6368 -2.8934 -1.0285
# 5 -6.2545 -1.5177 -11.1053 -2.8934 27.7893 4.7002
# 6 -1.8146 -10.7646 -7.9224 -1.0285 4.7002 31.5112
#
#
#
# Elastic Compliance Matrix: (Units=1/GPa)
#
#
# Indices 1 2 3 4 5 6 
#
# 1 0.008214 -0.004123 -0.003033 -0.000472 0.000669 -0.001813
# 2 -0.004123 0.016914 -0.002685 -0.000293 -0.001979 0.005151
# 3 -0.003033 -0.002685 0.016494 -0.003594 0.005018 0.002189
# 4 -0.000472 -0.000293 -0.003594 0.025326 0.001142 -0.000374
# 5 0.000669 -0.001979 0.005018 0.001142 0.039024 -0.005160
# 6 -0.001813 0.005151 0.002189 -0.000374 -0.005160 0.034698
#
#
# Mechanical properties :
#
#
# Convention : Reuss Voigt Hill
#
# Bulk Modulus (GPa) = 45.57861 59.85390 52.71626
# Shear Modulus (GPa) = 29.82117 33.93800 31.87959
#
# Velocity S-wave (km/s) = 3.79755 4.05121 3.92643
# Velocity P-wave (km/s) = 6.42418 7.12938 6.78595
#
# Compressibility (1/GPa) = 0.02194011
#
# Stress axis : x y z
#
# Youngs Moduli (GPa) = 121.74057 59.12409 60.62637
#
# Poissons Ratio (x) = 0.24375 0.18389
# Poissons Ratio (y) = 0.50190 0.16279
# Poissons Ratio (z) = 0.36927 0.15876
#
# Static dielectric constant tensor:
#      x y z
#    x 4.055190 -0.201600 -0.137730 
#    y -0.201600 3.933810 0.076350 
#    z -0.137730 0.076350 3.345410 
# 
# 
# High freq. dielectric constant tensor:
#      x y z
#    x 1.815340 -0.012650 -0.017590 
#    y -0.012650 1.817750 -0.014420 
#    z -0.017590 -0.014420 1.788630 
# 
# From -- ./inp_files/205382.got.cif
#   From: 2010.06.25/outbox.cif.g09.slc.cpg/sg2_103_cif.got.tgz:205382.got - 2010.06.27 13:26:56.
