data_PCOD8040151
_publ_section_title
;
Structure prediction by ZEFSAII (Michael W. Deem and Ramdas Pophale) SiO2 
 PCOD8040151
Probable space group: P -1
;
_chemical_formula_sum "Si O2"
_cell_formula_units_Z 14
_cell_length_a 7.826254
_cell_length_b 13.848829
_cell_length_c 13.730845
_cell_angle_alpha 30.047760
_cell_angle_beta 103.025668
_cell_angle_gamma 85.044701
_cell_volume 592.967270
_symmetry_space_group_name_H-M "P -1"
_symmetry_group_IT_number 2
_symmetry_cell_setting 'triclinic'
loop_
_space_group_symop_operation_xyz
x,y,z
-x,-y,-z
loop_
_atom_site_type_symbol
_atom_site_label
_atom_site_fract_x
_atom_site_fract_y
_atom_site_fract_z
Si Si1 0.502056 0.146516 0.532659
Si Si2 0.534459 0.432501 0.426186
Si Si3 0.796194 0.494193 0.969942
Si Si4 0.888992 0.709020 0.501452
Si Si5 0.621988 0.730247 0.286028
Si Si6 0.312772 0.365553 0.963171
Si Si7 0.756000 0.207823 0.063920
O O1 0.633666 0.242696 0.515127
O O2 0.408834 0.266139 0.311824
O O3 0.302034 0.226127 0.507636
O O4 0.659743 0.866887 0.786164
O O5 0.668685 0.546459 0.364879
O O6 0.532076 0.295769 0.639428
O O7 0.291582 0.646839 0.170205
O O8 0.730898 0.469296 0.092813
O O9 0.863761 0.269321 0.108205
O O10 0.000000 0.500000 0.000000
O O11 0.839214 0.654971 0.434741
O O12 0.905688 0.930578 0.304686
O O13 0.112340 0.482390 0.763259
O O14 0.500000 0.000000 0.000000
O O15 0.518523 0.299457 0.988731
#
# Coordination Sequence:
#
# PCOD8040151 Si02
#       7
#     2   2   2   2   2   2   2
#     4   9  20  39  61  85 129 161 200 260 304 359
#     4   9  19  37  62  92 122 162 201 253 313 362
#     4  11  21  40  62  89 121 166 211 253 308 371
#     4  10  20  38  61  90 120 163 207 252 307 370
#     4  10  18  35  69  93 119 163 208 251 312 368
#     4  11  22  39  60  89 123 169 206 250 313 365
#     4  10  22  40  60  86 128 158 204 261 306 363
#
# _framework density 23.610073
#
# number of rings (size 3 to 8) (size 9 to 14) (size 15 to 20)
#    0.000    2.000    2.857    0.857    0.000    0.571 
#    7.714    1.429    0.000    0.000    0.000    0.000 
#    0.000    0.000    0.000    0.000    0.000    0.000 
#
# Total GULP energy -173496.503566 kJ/mol
# GULP energy per Si atom -12392.607398 kJ/mol
# Density = 2.355634 g / cm^3
# Si number density = 23.610073 Si / 1000 Ang^3
#
#
#
# Elastic Constant Matrix: (Units=GPa)
#
#
# Indices 1 2 3 4 5 6 
#
# 1 44.9697 30.1448 27.8497 3.8527 3.9075 17.7446
# 2 30.1448 154.3037 51.5408 16.1991 4.7678 52.3876
# 3 27.8497 51.5408 119.6594 13.3677 -10.8077 24.7777
# 4 3.8527 16.1991 13.3677 42.8526 8.2367 -5.9841
# 5 3.9075 4.7678 -10.8077 8.2367 32.1640 3.8591
# 6 17.7446 52.3876 24.7777 -5.9841 3.8591 40.7178
#
#
#
# Elastic Compliance Matrix: (Units=1/GPa)
#
#
# Indices 1 2 3 4 5 6 
#
# 1 0.029759 -0.001075 -0.004939 -0.001168 -0.003810 -0.008391
# 2 -0.001075 0.013962 -0.000935 -0.007811 0.001938 -0.018257
# 3 -0.004939 -0.000935 0.012227 -0.005090 0.006808 -0.005478
# 4 -0.001168 -0.007811 -0.005090 0.032858 -0.011170 0.019544
# 5 -0.003810 0.001938 0.006808 -0.011170 0.037636 -0.010184
# 6 -0.008391 -0.018257 -0.005478 0.019544 -0.010184 0.058877
#
#
# Mechanical properties :
#
#
# Convention : Reuss Voigt Hill
#
# Bulk Modulus (GPa) = 23.78192 59.77814 41.78003
# Shear Modulus (GPa) = 23.44840 37.10670 30.27755
#
# Velocity S-wave (km/s) = 3.15485 3.96870 3.58495
# Velocity P-wave (km/s) = 4.83378 6.80989 5.90509
#
# Compressibility (1/GPa) = 0.04204875
#
# Stress axis : x y z
#
# Youngs Moduli (GPa) = 33.60377 71.62339 81.78328
#
# Poissons Ratio (x) = 0.07698 0.40396
# Poissons Ratio (y) = 0.03612 0.07651
# Poissons Ratio (z) = 0.16598 0.06700
#
# Static dielectric constant tensor:
#      x y z
#    x 3.876190 0.384650 -0.416240 
#    y 0.384650 4.980080 0.095610 
#    z -0.416240 0.095610 4.399950 
# 
# 
# High freq. dielectric constant tensor:
#      x y z
#    x 1.899910 0.024470 -0.025240 
#    y 0.024470 1.953430 0.013990 
#    z -0.025240 0.013990 1.936280 
# 
# From -- ./inp_files/46942.got.cif
#   From: 2010.06.25/outbox.cif.g09.slc.cpg/sg2_24_cif.got.tgz:46942.got - 2010.06.27 13:26:56.
