data_PCOD8040614
_publ_section_title
;
Structure prediction by ZEFSAII (Michael W. Deem and Ramdas Pophale) SiO2 
 PCOD8040614
Probable space group: P -1
;
_chemical_formula_sum "Si O2"
_cell_formula_units_Z 16
_cell_length_a 11.478578
_cell_length_b 7.692195
_cell_length_c 10.842466
_cell_angle_alpha 46.038405
_cell_angle_beta 101.536990
_cell_angle_gamma 88.037539
_cell_volume 654.528290
_symmetry_space_group_name_H-M "P -1"
_symmetry_group_IT_number 2
_symmetry_cell_setting 'triclinic'
loop_
_space_group_symop_operation_xyz
x,y,z
-x,-y,-z
loop_
_atom_site_type_symbol
_atom_site_label
_atom_site_fract_x
_atom_site_fract_y
_atom_site_fract_z
Si Si1 0.618775 0.120258 0.176482
Si Si2 0.823426 0.061109 0.665694
Si Si3 0.745133 0.582394 0.511071
Si Si4 0.809277 0.338720 0.213208
Si Si5 0.692982 0.253337 0.869878
Si Si6 0.936024 0.237587 0.028514
Si Si7 0.650787 0.854208 0.888167
Si Si8 0.935568 0.721652 0.647132
O O1 0.655767 0.820583 0.308948
O O2 0.706590 0.177288 0.276449
O O3 0.477751 0.204365 0.148153
O O4 0.632910 0.287942 0.976226
O O5 0.712551 0.939076 0.739338
O O6 0.855610 0.969178 0.578066
O O7 0.938541 0.972770 0.826552
O O8 0.778243 0.361187 0.525013
O O9 0.678763 0.502893 0.659217
O O10 0.868280 0.666807 0.536188
O O11 0.866629 0.303641 0.108107
O O12 0.927841 0.243541 0.376461
O O13 0.741129 0.620723 0.087447
O O14 0.625908 0.069376 0.878514
O O15 0.841464 0.140602 0.966607
O O16 0.962500 0.491341 0.860206
#
# Coordination Sequence:
#
# PCOD8040614 Si02
#       8
#     2   2   2   2   2   2   2   2
#     4  11  24  43  56  91 133 161 208 256 298 372
#     4  10  19  35  64  97 120 162 207 256 313 370
#     4  10  24  40  65  94 126 165 202 258 316 365
#     4  10  19  35  62  89 121 165 202 256 310 364
#     4   9  22  38  65  88 118 166 206 254 311 359
#     4   9  16  34  62  92 123 150 205 265 309 360
#     4  11  20  36  65  90 120 170 209 247 312 371
#     4  10  18  37  64  93 128 154 208 263 310 367
#
# _framework density 24.445087999999998
#
# number of rings (size 3 to 8) (size 9 to 14) (size 15 to 20)
#    0.000    2.000    2.500    1.500    1.750    4.000 
#    2.250    6.250    0.000    0.000    0.000    0.000 
#    0.000    0.000    0.000    0.000    0.000    0.000 
#
# Total GULP energy -198252.355616 kJ/mol
# GULP energy per Si atom -12390.772226 kJ/mol
# Density = 2.438945 g / cm^3
# Si number density = 24.445088 Si / 1000 Ang^3
#
#
#
# Elastic Constant Matrix: (Units=GPa)
#
#
# Indices 1 2 3 4 5 6 
#
# 1 154.4596 32.3896 19.6771 -5.7752 7.9446 32.0232
# 2 32.3896 61.6387 12.7648 -34.5146 8.4897 29.1408
# 3 19.6771 12.7648 64.2982 -2.5229 -8.5735 -8.6602
# 4 -5.7752 -34.5146 -2.5229 0.7895 7.0066 18.9252
# 5 7.9446 8.4897 -8.5735 7.0066 23.7258 -10.4492
# 6 32.0232 29.1408 -8.6602 18.9252 -10.4492 19.7456
#
#
#
# Elastic Compliance Matrix: (Units=1/GPa)
#
#
# Indices 1 2 3 4 5 6 
#
# 1 0.008722 -0.004539 -0.003003 -0.005725 -0.002782 -0.004748
# 2 -0.004539 0.007283 0.001827 -0.009420 0.006772 0.010027
# 3 -0.003003 0.001827 0.017491 0.010243 0.004772 0.002553
# 4 -0.005725 -0.009420 0.010243 0.009805 0.018443 0.028042
# 5 -0.002782 0.006772 0.004772 0.018443 0.036061 -0.001983
# 6 -0.004748 0.010027 0.002553 0.028042 -0.001983 0.016742
#
#
# Mechanical properties :
#
#
# Convention : Reuss Voigt Hill
#
# Bulk Modulus (GPa) = 45.31987 45.56216 45.44102
# Shear Modulus (GPa) = 43.51997 23.22320 33.37158
#
# Velocity S-wave (km/s) = 4.22396 3.08557 3.69882
# Velocity P-wave (km/s) = 6.50913 5.60120 6.07216
#
# Compressibility (1/GPa) = 0.02206538
#
# Stress axis : x y z
#
# Youngs Moduli (GPa) = 114.65141 137.30637 57.17232
#
# Poissons Ratio (x) = 0.62326 0.17170
# Poissons Ratio (y) = 0.52043 -0.10446
# Poissons Ratio (z) = 0.34432 -0.25087
#
# Static dielectric constant tensor:
#      x y z
#    x 4.717950 0.520280 0.058990 
#    y 0.520280 4.293220 -0.069460 
#    z 0.058990 -0.069460 4.392850 
# 
# 
# High freq. dielectric constant tensor:
#      x y z
#    x 1.971550 0.026070 -0.012140 
#    y 0.026070 1.958440 -0.011030 
#    z -0.012140 -0.011030 1.969560 
# 
# From -- ./inp_files/512651.got.cif
#   From: 2010.06.25/outbox.cif.g09.slc.cpg/sg2_257_cif.got.tgz:512651.got - 2010.06.27 13:26:56.
