data_PCOD8040245
_publ_section_title
;
Structure prediction by ZEFSAII (Michael W. Deem and Ramdas Pophale) SiO2 
 PCOD8040245
Probable space group: P -1
;
_chemical_formula_sum "Si O2"
_cell_formula_units_Z 16
_cell_length_a 19.386682
_cell_length_b 28.883557
_cell_length_c 22.903620
_cell_angle_alpha 10.887950
_cell_angle_beta 19.947355
_cell_angle_gamma 20.754861
_cell_volume 811.948578
_symmetry_space_group_name_H-M "P -1"
_symmetry_group_IT_number 2
_symmetry_cell_setting 'triclinic'
loop_
_space_group_symop_operation_xyz
x,y,z
-x,-y,-z
loop_
_atom_site_type_symbol
_atom_site_label
_atom_site_fract_x
_atom_site_fract_y
_atom_site_fract_z
Si Si1 0.021336 0.157950 0.137162
Si Si2 0.771104 0.469984 0.705138
Si Si3 0.411247 0.893175 0.503768
Si Si4 0.810871 0.040075 0.285167
Si Si5 0.800626 0.763846 0.214038
Si Si6 0.535498 0.236396 0.887718
Si Si7 0.136805 0.588869 0.732243
Si Si8 0.070719 0.547469 0.702335
O O1 0.781237 0.184528 0.280468
O O2 0.142536 0.874827 0.387932
O O3 0.141347 0.308295 0.809525
O O4 0.045294 0.275849 0.035640
O O5 0.610738 0.677165 0.610269
O O6 0.744120 0.523003 0.591148
O O7 0.000000 0.500000 0.500000
O O8 0.731585 0.198096 0.093866
O O9 0.367274 0.939207 0.550231
O O10 0.456719 0.145344 0.124890
O O11 0.887722 0.749903 0.567857
O O12 0.001948 0.148032 0.024632
O O13 0.610738 0.996608 0.083261
O O14 0.361080 0.420355 0.763580
O O15 0.712842 0.392830 0.564825
O O16 0.041720 0.563344 0.775593
O O17 0.000000 0.500000 0.000000
#
# Coordination Sequence:
#
# PCOD8040245 Si02
#       8
#     2   2   2   2   2   2   2   2
#     4  11  22  39  59  86 120 154 189 243 288 342
#     4   9  17  30  60  90 110 153 200 229 284 352
#     4  10  18  36  59  85 120 152 189 243 292 333
#     4   9  16  34  55  83 115 152 190 234 283 343
#     4   8  17  34  55  81 119 148 189 238 285 333
#     4  10  19  37  60  83 115 158 190 242 288 337
#     4  12  22  41  61  84 119 152 196 240 290 340
#     4  11  23  38  61  86 119 151 197 236 289 344
#
# _framework density 19.705680999999998
#
# number of rings (size 3 to 8) (size 9 to 14) (size 15 to 20)
#    0.000    2.000    5.000    1.500    0.000    1.000 
#    0.000    5.000    0.000    0.000    0.000    0.000 
#    0.000    0.000    0.000    0.000    0.000    0.000 
#
# Total GULP energy -198292.695202 kJ/mol
# GULP energy per Si atom -12393.293450 kJ/mol
# Density = 1.966083 g / cm^3
# Si number density = 19.705681 Si / 1000 Ang^3
#
#
#
# Elastic Constant Matrix: (Units=GPa)
#
#
# Indices 1 2 3 4 5 6 
#
# 1 65.0493 38.4431 64.1421 -8.5209 11.6088 14.2224
# 2 38.4431 122.0226 44.6329 -1.3836 15.8161 -5.7399
# 3 64.1421 44.6329 85.2545 -0.9405 20.0459 15.5448
# 4 -8.5209 -1.3836 -0.9405 37.6962 2.8071 11.5819
# 5 11.6088 15.8161 20.0459 2.8071 30.7960 -1.9270
# 6 14.2224 -5.7399 15.5448 11.5819 -1.9270 34.3548
#
#
#
# Elastic Compliance Matrix: (Units=1/GPa)
#
#
# Indices 1 2 3 4 5 6 
#
# 1 0.073545 -0.005812 -0.050731 0.019221 0.005616 -0.014628
# 2 -0.005812 0.011353 -0.002403 -0.002769 -0.001433 0.006243
# 3 -0.050731 -0.002403 0.054954 -0.008386 -0.014791 -0.002268
# 4 0.019221 -0.002769 -0.008386 0.036162 -0.004730 -0.017082
# 5 0.005616 -0.001433 -0.014791 -0.004730 0.041654 0.008059
# 6 -0.014628 0.006243 -0.002268 -0.017082 0.008059 0.043444
#
#
# Mechanical properties :
#
#
# Convention : Reuss Voigt Hill
#
# Bulk Modulus (GPa) = 45.53600 62.97361 54.25481
# Shear Modulus (GPa) = 12.94248 28.90995 20.92621
#
# Velocity S-wave (km/s) = 2.56557 3.83441 3.26227
# Velocity P-wave (km/s) = 5.65105 7.18541 6.46392
#
# Compressibility (1/GPa) = 0.02196065
#
# Stress axis : x y z
#
# Youngs Moduli (GPa) = 13.59711 88.08064 18.19692
#
# Poissons Ratio (x) = 0.51195 0.92315
# Poissons Ratio (y) = 0.07903 0.04372
# Poissons Ratio (z) = 0.68979 0.21164
#
# Static dielectric constant tensor:
#      x y z
#    x 3.758150 -0.084220 0.869620 
#    y -0.084220 3.894340 0.012930 
#    z 0.869620 0.012930 3.880640 
# 
# 
# High freq. dielectric constant tensor:
#      x y z
#    x 1.732070 0.000910 0.045140 
#    y 0.000910 1.790110 0.005780 
#    z 0.045140 0.005780 1.756180 
# 
# From -- ./inp_files/213289.got.cif
#   From: 2010.06.25/outbox.cif.g09.slc.cpg/sg2_107_cif.got.tgz:213289.got - 2010.06.27 13:26:56.
