data_PCOD8040951
_publ_section_title
;
Structure prediction by ZEFSAII (Michael W. Deem and Ramdas Pophale) SiO2 
 PCOD8040951
Probable space group: P -1
;
_chemical_formula_sum "Si O2"
_cell_formula_units_Z 16
_cell_length_a 11.962373
_cell_length_b 8.181656
_cell_length_c 12.459631
_cell_angle_alpha 60.372051
_cell_angle_beta 98.976282
_cell_angle_gamma 55.743658
_cell_volume 697.935606
_symmetry_space_group_name_H-M "P -1"
_symmetry_group_IT_number 2
_symmetry_cell_setting 'triclinic'
loop_
_space_group_symop_operation_xyz
x,y,z
-x,-y,-z
loop_
_atom_site_type_symbol
_atom_site_label
_atom_site_fract_x
_atom_site_fract_y
_atom_site_fract_z
Si Si1 0.459939 0.599054 0.188012
Si Si2 0.276687 0.789590 0.893161
Si Si3 0.614325 0.031782 0.480331
Si Si4 0.918063 0.900155 0.040361
Si Si5 0.838748 0.726192 0.807267
Si Si6 0.655513 0.722289 0.179240
Si Si7 0.800043 0.773218 0.382351
Si Si8 0.833288 0.491618 0.070868
O O1 0.449727 0.600508 0.053292
O O2 0.503839 0.344488 0.326498
O O3 0.271394 0.883487 0.113292
O O4 0.605794 0.568835 0.249936
O O5 0.249216 0.605694 0.929155
O O6 0.264384 0.930779 0.738720
O O7 0.117632 0.068889 0.847578
O O8 0.500000 0.000000 0.500000
O O9 0.708099 0.971555 0.623803
O O10 0.741688 0.797058 0.485246
O O11 0.000000 0.000000 0.000000
O O12 0.043304 0.581570 0.127332
O O13 0.965289 0.742653 0.851650
O O14 0.746066 0.751550 0.890909
O O15 0.704030 0.764805 0.282412
O O16 0.811316 0.559599 0.172394
O O17 0.500000 0.000000 0.000000
O O18 0.000000 0.500000 0.500000
#
# Coordination Sequence:
#
# PCOD8040951 Si02
#       8
#     2   2   2   2   2   2   2   2
#     4  10  24  41  70 101 136 178 232 284 344 419
#     4  10  21  40  66  98 129 179 232 276 342 409
#     4  12  26  45  68 101 144 179 228 290 354 411
#     4  10  18  40  65  97 132 179 228 273 340 419
#     4  11  23  42  66 101 138 180 227 284 350 416
#     4  12  24  43  71  98 137 178 234 297 341 406
#     4  12  27  46  71  99 142 186 234 285 357 420
#     4  11  23  39  69  98 132 178 234 283 340 418
#
# _framework density 22.92475
#
# number of rings (size 3 to 8) (size 9 to 14) (size 15 to 20)
#    0.750    0.250    2.500    5.250    3.500    2.000 
#    0.000    3.125    0.000    0.000    0.000    0.000 
#    0.000    0.000    0.000    0.000    0.000    0.000 
#
# Total GULP energy -198273.199721 kJ/mol
# GULP energy per Si atom -12392.074983 kJ/mol
# Density = 2.287257 g / cm^3
# Si number density = 22.924750 Si / 1000 Ang^3
#
#
#
# Elastic Constant Matrix: (Units=GPa)
#
#
# Indices 1 2 3 4 5 6 
#
# 1 156.2517 13.7342 47.6877 8.1469 -10.3827 5.5363
# 2 13.7342 23.5247 2.4020 -0.2160 -7.7521 -3.6622
# 3 47.6877 2.4020 124.0547 0.0886 -5.1314 1.9455
# 4 8.1469 -0.2160 0.0886 37.9653 2.8672 0.6307
# 5 -10.3827 -7.7521 -5.1314 2.8672 37.9475 6.6385
# 6 5.5363 -3.6622 1.9455 0.6307 6.6385 35.2333
#
#
#
# Elastic Compliance Matrix: (Units=1/GPa)
#
#
# Indices 1 2 3 4 5 6 
#
# 1 0.007884 -0.004149 -0.002866 -0.001783 0.001361 -0.001736
# 2 -0.004149 0.048135 0.000933 0.000484 0.008075 0.004073
# 3 -0.002866 0.000933 0.009171 0.000553 0.000620 -0.000086
# 4 -0.001783 0.000484 0.000553 0.026900 -0.002394 0.000269
# 5 0.001361 0.008075 0.000620 -0.002394 0.029500 -0.004924
# 6 -0.001736 0.004073 -0.000086 0.000269 -0.004924 0.030006
#
#
# Mechanical properties :
#
#
# Convention : Reuss Voigt Hill
#
# Bulk Modulus (GPa) = 18.85842 47.94211 33.40027
# Shear Modulus (GPa) = 27.55804 38.22969 32.89386
#
# Velocity S-wave (km/s) = 3.47090 4.08808 3.79207
# Velocity P-wave (km/s) = 4.93021 6.57582 5.81156
#
# Compressibility (1/GPa) = 0.05302670
#
# Stress axis : x y z
#
# Youngs Moduli (GPa) = 126.83876 20.77495 109.03878
#
# Poissons Ratio (x) = 0.08619 0.31246
# Poissons Ratio (y) = 0.52620 -0.10168
# Poissons Ratio (z) = 0.36347 -0.01937
#
# Static dielectric constant tensor:
#      x y z
#    x 4.442760 -0.160000 -0.112620 
#    y -0.160000 4.439350 0.340840 
#    z -0.112620 0.340840 4.208730 
# 
# 
# High freq. dielectric constant tensor:
#      x y z
#    x 1.925770 -0.010560 -0.008040 
#    y -0.010560 1.910820 0.013570 
#    z -0.008040 0.013570 1.886640 
# 
# From -- ./inp_files/419154.got.cif
#   From: 2010.06.25/outbox.cif.g09.slc.cpg/sg2_210_cif.got.tgz:419154.got - 2010.06.27 13:26:56.
