data_PCOD8040702
_publ_section_title
;
Structure prediction by ZEFSAII (Michael W. Deem and Ramdas Pophale) SiO2 
 PCOD8040702
Probable space group: P -1
;
_chemical_formula_sum "Si O2"
_cell_formula_units_Z 16
_cell_length_a 13.228332
_cell_length_b 11.618394
_cell_length_c 13.065838
_cell_angle_alpha 85.892480
_cell_angle_beta 31.652988
_cell_angle_gamma 66.908116
_cell_volume 813.864731
_symmetry_space_group_name_H-M "P -1"
_symmetry_group_IT_number 2
_symmetry_cell_setting 'triclinic'
loop_
_space_group_symop_operation_xyz
x,y,z
-x,-y,-z
loop_
_atom_site_type_symbol
_atom_site_label
_atom_site_fract_x
_atom_site_fract_y
_atom_site_fract_z
Si Si1 0.980418 0.099654 0.748195
Si Si2 0.567638 0.042952 0.748890
Si Si3 0.253189 0.582916 0.000365
Si Si4 0.725442 0.543371 0.531277
Si Si5 0.271341 0.337870 0.118945
Si Si6 0.470605 0.199746 0.167397
Si Si7 0.140709 0.392863 0.791354
Si Si8 0.544256 0.078497 0.540558
O O1 0.854692 0.274238 0.845548
O O2 0.768332 0.084727 0.929045
O O3 0.148544 0.020097 0.506516
O O4 0.157780 0.011741 0.700580
O O5 0.442219 0.078570 0.741220
O O6 0.600046 0.905763 0.780330
O O7 0.417681 0.186467 0.938990
O O8 0.513291 0.526578 0.728883
O O9 0.304976 0.450038 0.031395
O O10 0.044297 0.634466 0.092301
O O11 0.645615 0.697385 0.637962
O O12 0.786290 0.538726 0.359616
O O13 0.983685 0.407166 0.370527
O O14 0.381903 0.306059 0.139040
O O15 0.401307 0.245899 0.617007
O O16 0.000000 0.500000 0.000000
O O17 0.500000 0.000000 0.500000
#
# Coordination Sequence:
#
# PCOD8040702 Si02
#       8
#     2   2   2   2   2   2   2   2
#     4   9  22  38  60  88 118 155 205 248 288 359
#     4  10  22  39  57  89 123 152 202 252 295 365
#     4  10  21  41  59  89 123 153 210 247 285 371
#     4  10  23  40  60  92 116 155 209 248 288 370
#     4  11  23  38  63  87 124 165 191 253 313 342
#     4  11  22  41  62  87 121 160 206 249 294 357
#     4  11  21  39  61  87 124 158 195 247 311 349
#     4  10  18  38  61  82 116 161 193 246 304 341
#
# _framework density 19.659288
#
# number of rings (size 3 to 8) (size 9 to 14) (size 15 to 20)
#    0.750    1.000    1.250    4.500    0.000    5.000 
#    2.250    1.875    0.000    0.000    0.000    0.000 
#    0.000    0.000    0.000    0.000    0.000    0.000 
#
# Total GULP energy -198309.950174 kJ/mol
# GULP energy per Si atom -12394.371886 kJ/mol
# Density = 1.961454 g / cm^3
# Si number density = 19.659288 Si / 1000 Ang^3
#
#
#
# Elastic Constant Matrix: (Units=GPa)
#
#
# Indices 1 2 3 4 5 6 
#
# 1 72.3252 18.1323 34.5081 -3.8943 -3.3745 -22.4093
# 2 18.1323 51.2560 20.8621 5.1371 2.0585 -12.6808
# 3 34.5081 20.8621 131.9608 -0.6686 -14.9402 -2.3799
# 4 -3.8943 5.1371 -0.6686 29.4454 2.4186 -1.0266
# 5 -3.3745 2.0585 -14.9402 2.4186 31.9393 6.3977
# 6 -22.4093 -12.6808 -2.3799 -1.0266 6.3977 25.2097
#
#
#
# Elastic Compliance Matrix: (Units=1/GPa)
#
#
# Indices 1 2 3 4 5 6 
#
# 1 0.023636 -0.000741 -0.006220 0.004273 -0.004993 0.021492
# 2 -0.000741 0.025364 -0.004285 -0.003666 -0.006061 0.013084
# 3 -0.006220 -0.004285 0.010432 -0.000638 0.006210 -0.008301
# 4 0.004273 -0.003666 -0.000638 0.035553 -0.003131 0.004137
# 5 -0.004993 -0.006061 0.006210 -0.003131 0.037635 -0.016579
# 6 0.021492 0.013084 -0.008301 0.004137 -0.016579 0.068945
#
#
# Mechanical properties :
#
#
# Convention : Reuss Voigt Hill
#
# Bulk Modulus (GPa) = 27.07011 44.72744 35.89878
# Shear Modulus (GPa) = 21.15335 29.45487 25.30411
#
# Velocity S-wave (km/s) = 3.28380 3.87495 3.59156
# Velocity P-wave (km/s) = 5.30823 6.54377 5.95811
#
# Compressibility (1/GPa) = 0.03694111
#
# Stress axis : x y z
#
# Youngs Moduli (GPa) = 42.30865 39.42628 95.85848
#
# Poissons Ratio (x) = 0.02920 0.59622
# Poissons Ratio (y) = 0.03133 0.41075
# Poissons Ratio (z) = 0.26315 0.16894
#
# Static dielectric constant tensor:
#      x y z
#    x 3.594240 -0.091260 -0.108720 
#    y -0.091260 3.373180 0.011230 
#    z -0.108720 0.011230 3.696580 
# 
# 
# High freq. dielectric constant tensor:
#      x y z
#    x 1.761770 -0.006440 -0.002240 
#    y -0.006440 1.753720 0.012930 
#    z -0.002240 0.012930 1.778060 
# 
# From -- ./inp_files/531147.got.cif
#   From: 2010.06.25/outbox.cif.g09.slc.cpg/sg2_266_cif.got.tgz:531147.got - 2010.06.27 13:26:56.
