data_PCOD8040459
_publ_section_title
;
Structure prediction by ZEFSAII (Michael W. Deem and Ramdas Pophale) SiO2 
 PCOD8040459
Probable space group: P -1
;
_chemical_formula_sum "Si O2"
_cell_formula_units_Z 16
_cell_length_a 9.079983
_cell_length_b 11.301662
_cell_length_c 21.300306
_cell_angle_alpha 147.255086
_cell_angle_beta 116.816159
_cell_angle_gamma 86.048571
_cell_volume 807.868028
_symmetry_space_group_name_H-M "P -1"
_symmetry_group_IT_number 2
_symmetry_cell_setting 'triclinic'
loop_
_space_group_symop_operation_xyz
x,y,z
-x,-y,-z
loop_
_atom_site_type_symbol
_atom_site_label
_atom_site_fract_x
_atom_site_fract_y
_atom_site_fract_z
Si Si1 0.963533 0.725565 0.796844
Si Si2 0.610228 0.247265 0.898512
Si Si3 0.249031 0.340953 0.461984
Si Si4 0.149970 0.905765 0.041231
Si Si5 0.609807 0.864606 0.005479
Si Si6 0.244854 0.185047 0.870463
Si Si7 0.558012 0.288685 0.221969
Si Si8 0.559691 0.248610 0.436093
O O1 0.769840 0.412917 0.593503
O O2 0.939880 0.963491 0.878555
O O3 0.185466 0.847930 0.861127
O O4 0.977030 0.685919 0.856628
O O5 0.769797 0.224284 0.958053
O O6 0.389223 0.129527 0.837272
O O7 0.538996 0.072761 0.741745
O O8 0.753554 0.581915 0.059966
O O9 0.254079 0.446891 0.581149
O O10 0.371511 0.215145 0.422387
O O11 0.371974 0.599781 0.551433
O O12 0.996499 0.106477 0.295905
O O13 0.342176 0.194594 0.170740
O O14 0.657041 0.707106 0.992026
O O15 0.529803 0.001312 0.092819
O O16 0.438153 0.636322 0.817657
#
# Coordination Sequence:
#
# PCOD8040459 Si02
#       8
#     2   2   2   2   2   2   2   2
#     4  10  20  32  60  88 112 143 187 237 280 327
#     4  11  24  40  58  80 119 154 187 231 284 341
#     4  11  21  36  59  87 115 144 194 237 279 330
#     4  10  18  37  56  83 117 148 183 230 285 330
#     4  10  20  34  56  86 114 147 188 230 284 329
#     4  11  24  40  56  83 117 155 188 228 284 345
#     4  10  19  34  58  84 114 144 186 245 277 320
#     4  11  20  36  58  88 114 144 191 240 277 329
#
# _framework density 19.805216000000001
#
# number of rings (size 3 to 8) (size 9 to 14) (size 15 to 20)
#    0.000    1.500    5.000    0.750    1.750    1.500 
#    0.000    1.250    0.000    4.500    0.000    0.000 
#    0.000    0.000    0.000    0.000    0.000    0.000 
#
# Total GULP energy -198225.207781 kJ/mol
# GULP energy per Si atom -12389.075486 kJ/mol
# Density = 1.976014 g / cm^3
# Si number density = 19.805216 Si / 1000 Ang^3
#
#
#
# Elastic Constant Matrix: (Units=GPa)
#
#
# Indices 1 2 3 4 5 6 
#
# 1 57.1621 22.1404 25.2554 -4.1629 -2.0371 -3.8972
# 2 22.1404 86.7925 41.9099 -21.9652 -5.6138 -15.5914
# 3 25.2554 41.9099 86.7537 -32.4442 -15.2251 -5.8504
# 4 -4.1629 -21.9652 -32.4442 29.2506 3.2867 1.6545
# 5 -2.0371 -5.6138 -15.2251 3.2867 26.1932 -3.6032
# 6 -3.8972 -15.5914 -5.8504 1.6545 -3.6032 27.0501
#
#
#
# Elastic Compliance Matrix: (Units=1/GPa)
#
#
# Indices 1 2 3 4 5 6 
#
# 1 0.021949 -0.004202 -0.008226 -0.008768 -0.002999 -0.000902
# 2 -0.004202 0.018095 -0.003468 0.008458 0.001682 0.008781
# 3 -0.008226 -0.003468 0.027107 0.024832 0.011630 0.002709
# 4 -0.008768 0.008458 0.024832 0.065574 0.008170 0.006060
# 5 -0.002999 0.001682 0.011630 0.008170 0.045220 0.008577
# 6 -0.000902 0.008781 0.002709 0.006060 0.008577 0.043258
#
#
# Mechanical properties :
#
#
# Convention : Reuss Voigt Hill
#
# Bulk Modulus (GPa) = 28.28017 45.47996 36.88006
# Shear Modulus (GPa) = 18.88359 25.92563 22.40461
#
# Velocity S-wave (km/s) = 3.09117 3.62198 3.36705
# Velocity P-wave (km/s) = 5.20102 6.36436 5.81187
#
# Compressibility (1/GPa) = 0.03536047
#
# Stress axis : x y z
#
# Youngs Moduli (GPa) = 45.55998 55.26441 36.89034
#
# Poissons Ratio (x) = 0.23222 0.30345
# Poissons Ratio (y) = 0.19144 0.12792
# Poissons Ratio (z) = 0.37477 0.19164
#
# Static dielectric constant tensor:
#      x y z
#    x 3.749070 -0.028370 -0.094570 
#    y -0.028370 3.416560 -0.447510 
#    z -0.094570 -0.447510 3.511240 
# 
# 
# High freq. dielectric constant tensor:
#      x y z
#    x 1.791720 -0.005790 -0.007400 
#    y -0.005790 1.741920 -0.043810 
#    z -0.007400 -0.043810 1.752170 
# 
# From -- ./inp_files/187674.got.cif
#   From: 2010.06.25/outbox.cif.g09.slc.cpg/sg2_94_cif.got.tgz:187674.got - 2010.06.27 13:26:56.
