data_PCOD8040912
_publ_section_title
;
Structure prediction by ZEFSAII (Michael W. Deem and Ramdas Pophale) SiO2 
 PCOD8040912
Probable space group: P -1
;
_chemical_formula_sum "Si O2"
_cell_formula_units_Z 16
_cell_length_a 9.516410
_cell_length_b 12.254895
_cell_length_c 8.257701
_cell_angle_alpha 46.439849
_cell_angle_beta 91.058826
_cell_angle_gamma 80.794504
_cell_volume 677.631186
_symmetry_space_group_name_H-M "P -1"
_symmetry_group_IT_number 2
_symmetry_cell_setting 'triclinic'
loop_
_space_group_symop_operation_xyz
x,y,z
-x,-y,-z
loop_
_atom_site_type_symbol
_atom_site_label
_atom_site_fract_x
_atom_site_fract_y
_atom_site_fract_z
Si Si1 0.589956 0.567758 0.201759
Si Si2 0.648042 0.578061 0.560624
Si Si3 0.296307 0.093254 0.741031
Si Si4 0.555718 0.904433 0.758868
Si Si5 0.981554 0.895855 0.454786
Si Si6 0.059459 0.652155 0.219784
Si Si7 0.834139 0.945758 0.877883
Si Si8 0.913595 0.416766 0.339802
O O1 0.591072 0.620958 0.334095
O O2 0.476639 0.458984 0.289131
O O3 0.742456 0.459460 0.265709
O O4 0.548171 0.724016 0.932605
O O5 0.704515 0.725455 0.471101
O O6 0.770854 0.417444 0.732875
O O7 0.183797 0.045990 0.663741
O O8 0.455753 0.986964 0.820765
O O9 0.246916 0.052105 0.957875
O O10 0.722703 0.909703 0.779802
O O11 0.500000 0.000000 0.500000
O O12 0.015460 0.708819 0.668193
O O13 0.111101 0.900578 0.321210
O O14 0.000000 0.000000 0.500000
O O15 0.024956 0.643583 0.418370
O O16 0.970457 0.571563 0.173214
O O17 0.994417 0.829583 0.989516
#
# Coordination Sequence:
#
# PCOD8040912 Si02
#       8
#     2   2   2   2   2   2   2   2
#     4  10  22  40  70 106 137 184 237 295 359 417
#     4  10  21  39  71 109 137 174 244 305 348 413
#     4  12  24  45  70 103 139 189 244 298 349 425
#     4  12  27  46  67 102 155 190 228 295 372 438
#     4  12  27  44  67 106 151 191 233 295 371 432
#     4  10  18  39  70 101 133 176 240 308 345 402
#     4  12  24  44  72 105 137 197 245 292 354 426
#     4  10  19  40  69  97 139 177 242 296 348 418
#
# _framework density 23.611661999999999
#
# number of rings (size 3 to 8) (size 9 to 14) (size 15 to 20)
#    0.000    1.000    5.000    2.250    3.500    1.000 
#    0.000    2.500    0.000    0.000    0.000    0.000 
#    0.000    0.000    0.000    0.000    0.000    0.000 
#
# Total GULP energy -198271.304476 kJ/mol
# GULP energy per Si atom -12391.956530 kJ/mol
# Density = 2.355792 g / cm^3
# Si number density = 23.611662 Si / 1000 Ang^3
#
#
#
# Elastic Constant Matrix: (Units=GPa)
#
#
# Indices 1 2 3 4 5 6 
#
# 1 108.3210 17.5858 28.0945 5.7061 0.2972 4.2331
# 2 17.5858 102.3636 19.0460 -6.3025 5.6819 5.5773
# 3 28.0945 19.0460 85.3825 1.7430 9.9842 -0.0723
# 4 5.7061 -6.3025 1.7430 15.4707 0.0604 8.4840
# 5 0.2972 5.6819 9.9842 0.0604 35.4274 -9.7607
# 6 4.2331 5.5773 -0.0723 8.4840 -9.7607 39.4795
#
#
#
# Elastic Compliance Matrix: (Units=1/GPa)
#
#
# Indices 1 2 3 4 5 6 
#
# 1 0.010518 -0.001566 -0.003156 -0.004331 0.001143 0.000301
# 2 -0.001566 0.011148 -0.001862 0.007271 -0.002234 -0.003525
# 3 -0.003156 -0.001862 0.013599 -0.001112 -0.003506 -0.000002
# 4 -0.004331 0.007271 -0.001112 0.079926 -0.006267 -0.019290
# 5 0.001143 -0.002234 -0.003506 -0.006267 0.032189 0.009492
# 6 0.000301 -0.003525 -0.000002 -0.019290 0.009492 0.032287
#
#
# Mechanical properties :
#
#
# Convention : Reuss Voigt Hill
#
# Bulk Modulus (GPa) = 45.25668 47.27996 46.26832
# Shear Modulus (GPa) = 24.97488 33.49825 29.23656
#
# Velocity S-wave (km/s) = 3.25581 3.77067 3.52266
# Velocity P-wave (km/s) = 5.77429 6.24698 6.01528
#
# Compressibility (1/GPa) = 0.02209618
#
# Stress axis : x y z
#
# Youngs Moduli (GPa) = 95.07486 89.69992 73.53725
#
# Poissons Ratio (x) = 0.14049 0.23212
# Poissons Ratio (y) = 0.14890 0.13690
# Poissons Ratio (z) = 0.30010 0.16699
#
# Static dielectric constant tensor:
#      x y z
#    x 4.585870 0.028710 -0.002210 
#    y 0.028710 3.996200 -0.211000 
#    z -0.002210 -0.211000 4.109500 
# 
# 
# High freq. dielectric constant tensor:
#      x y z
#    x 1.953330 0.003430 0.004120 
#    y 0.003430 1.917800 -0.021900 
#    z 0.004120 -0.021900 1.919950 
# 
# From -- ./inp_files/184211.got.cif
#   From: 2010.06.25/outbox.cif.g09.slc.cpg/sg2_93_cif.got.tgz:184211.got - 2010.06.27 13:26:56.
