data_PCOD8040399
_publ_section_title
;
Structure prediction by ZEFSAII (Michael W. Deem and Ramdas Pophale) SiO2 
 PCOD8040399
Probable space group: P -1
;
_chemical_formula_sum "Si O2"
_cell_formula_units_Z 14
_cell_length_a 12.377331
_cell_length_b 13.190797
_cell_length_c 20.899391
_cell_angle_alpha 158.185814
_cell_angle_beta 146.356932
_cell_angle_gamma 44.740988
_cell_volume 669.211624
_symmetry_space_group_name_H-M "P -1"
_symmetry_group_IT_number 2
_symmetry_cell_setting 'triclinic'
loop_
_space_group_symop_operation_xyz
x,y,z
-x,-y,-z
loop_
_atom_site_type_symbol
_atom_site_label
_atom_site_fract_x
_atom_site_fract_y
_atom_site_fract_z
Si Si1 0.377116 0.424906 0.990029
Si Si2 0.802054 0.086398 0.308799
Si Si3 0.954997 0.166862 0.289926
Si Si4 0.781337 0.776194 0.339669
Si Si5 0.448440 0.202689 0.147815
Si Si6 0.255758 0.668890 0.290124
Si Si7 0.807702 0.221378 0.815751
O O1 0.231734 0.266498 0.767858
O O2 0.327188 0.223328 0.909565
O O3 0.614228 0.511237 0.136954
O O4 0.325856 0.712761 0.153845
O O5 0.637289 0.266199 0.328769
O O6 0.887746 0.046400 0.257785
O O7 0.995458 0.237320 0.537107
O O8 0.000000 0.500000 0.500000
O O9 0.161301 0.084633 0.329946
O O10 0.772757 0.997255 0.052123
O O11 0.735923 0.073153 0.506057
O O12 0.425231 0.508937 0.295630
O O13 0.500000 0.000000 0.000000
O O14 0.307518 0.798494 0.320455
O O15 0.028227 0.457265 0.059035
#
# Coordination Sequence:
#
# PCOD8040399 Si02
#       7
#     2   2   2   2   2   2   2
#     4  11  24  39  66  93 122 160 218 253 307 363
#     4  11  21  41  62  87 128 168 193 259 312 358
#     4  10  21  36  62  97 128 159 206 254 311 373
#     4  11  24  41  65  93 120 165 216 254 298 382
#     4   9  20  34  58  90 127 159 196 252 308 362
#     4  10  19  38  64  93 120 159 212 248 311 369
#     4  10  18  36  64  92 120 160 204 263 302 364
#
# _framework density 20.920138999999999
#
# number of rings (size 3 to 8) (size 9 to 14) (size 15 to 20)
#    0.000    1.714    2.857    3.000    2.000    2.857 
#    0.000    0.714    0.000    2.571    0.000    0.000 
#    0.000    0.000    0.000    0.000    0.000    0.000 
#
# Total GULP energy -173500.118885 kJ/mol
# GULP energy per Si atom -12392.865635 kJ/mol
# Density = 2.087252 g / cm^3
# Si number density = 20.920139 Si / 1000 Ang^3
#
#
#
# Elastic Constant Matrix: (Units=GPa)
#
#
# Indices 1 2 3 4 5 6 
#
# 1 80.5101 41.1656 17.0922 12.6591 -11.1620 -1.4027
# 2 41.1656 187.6850 60.7921 -6.8175 -12.2942 -10.8128
# 3 17.0922 60.7921 71.3913 -0.8742 -8.0144 7.1424
# 4 12.6591 -6.8175 -0.8742 31.4999 -1.5792 1.2020
# 5 -11.1620 -12.2942 -8.0144 -1.5792 35.0189 6.3160
# 6 -1.4027 -10.8128 7.1424 1.2020 6.3160 16.3301
#
#
#
# Elastic Compliance Matrix: (Units=1/GPa)
#
#
# Indices 1 2 3 4 5 6 
#
# 1 0.015836 -0.003473 -0.000321 -0.006869 0.003760 -0.001748
# 2 -0.003473 0.009322 -0.008203 0.002745 -0.001353 0.009783
# 3 -0.000321 -0.008203 0.023492 -0.000029 0.005622 -0.017906
# 4 -0.006869 0.002745 -0.000029 0.035193 0.000643 -0.001599
# 5 0.003760 -0.001353 0.005622 0.000643 0.033487 -0.016031
# 6 -0.001748 0.009783 -0.017906 -0.001599 -0.016031 0.081714
#
#
# Mechanical properties :
#
#
# Convention : Reuss Voigt Hill
#
# Bulk Modulus (GPa) = 40.56032 64.18736 52.37384
# Shear Modulus (GPa) = 21.62114 31.27222 26.44668
#
# Velocity S-wave (km/s) = 3.21831 3.87051 3.55938
# Velocity P-wave (km/s) = 5.76544 7.12202 6.47933
#
# Compressibility (1/GPa) = 0.02465464
#
# Stress axis : x y z
#
# Youngs Moduli (GPa) = 63.14776 107.27765 42.56851
#
# Poissons Ratio (x) = 0.37261 0.01366
# Poissons Ratio (y) = 0.21933 0.34919
# Poissons Ratio (z) = 0.02026 0.88000
#
# Static dielectric constant tensor:
#      x y z
#    x 3.564410 -0.154610 0.040330 
#    y -0.154610 4.366280 -0.297290 
#    z 0.040330 -0.297290 3.820420 
# 
# 
# High freq. dielectric constant tensor:
#      x y z
#    x 1.788310 -0.012280 0.013660 
#    y -0.012280 1.825750 -0.010680 
#    z 0.013660 -0.010680 1.820000 
# 
# From -- ./inp_files/610586.got.cif
#   From: 2010.06.25/outbox.cif.g09.slc.cpg/sg2_306_cif.got.tgz:610586.got - 2010.06.27 13:26:56.
