data_PCOD8040530
_publ_section_title
;
Structure prediction by ZEFSAII (Michael W. Deem and Ramdas Pophale) SiO2 
 PCOD8040530
Probable space group: P -1
;
_chemical_formula_sum "Si O2"
_cell_formula_units_Z 16
_cell_length_a 10.984814
_cell_length_b 16.498275
_cell_length_c 9.164689
_cell_angle_alpha 77.213530
_cell_angle_beta 112.673519
_cell_angle_gamma 46.349047
_cell_volume 757.828846
_symmetry_space_group_name_H-M "P -1"
_symmetry_group_IT_number 2
_symmetry_cell_setting 'triclinic'
loop_
_space_group_symop_operation_xyz
x,y,z
-x,-y,-z
loop_
_atom_site_type_symbol
_atom_site_label
_atom_site_fract_x
_atom_site_fract_y
_atom_site_fract_z
Si Si1 0.337368 0.230255 0.155287
Si Si2 0.962747 0.130462 0.812938
Si Si3 0.191585 0.823632 0.593559
Si Si4 0.812017 0.760005 0.621128
Si Si5 0.744759 0.190791 0.957014
Si Si6 0.894665 0.900902 0.635921
Si Si7 0.323506 0.401491 0.925141
Si Si8 0.622345 0.957732 0.918448
O O1 0.213731 0.291465 0.236764
O O2 0.285872 0.174227 0.067479
O O3 0.229137 0.359945 0.943397
O O4 0.640074 0.084954 0.381918
O O5 0.820309 0.189086 0.574593
O O6 0.727965 0.253268 0.774994
O O7 0.183175 0.940607 0.008236
O O8 0.115933 0.133434 0.892670
O O9 0.102265 0.786598 0.645654
O O10 0.492830 0.672853 0.826713
O O11 0.000000 0.000000 0.500000
O O12 0.577907 0.884260 0.345105
O O13 0.827093 0.843120 0.671503
O O14 0.074608 0.595933 0.720627
O O15 0.481243 0.326395 0.875405
O O16 0.987230 0.105413 0.181241
O O17 0.500000 0.000000 0.000000
#
# Coordination Sequence:
#
# PCOD8040530 Si02
#       8
#     2   2   2   2   2   2   2   2
#     4  11  20  39  63  85 121 164 208 244 293 366
#     4  11  19  35  58  94 111 152 206 247 295 354
#     4  11  19  36  65  85 114 154 200 255 291 357
#     4  11  24  38  61  92 123 159 204 251 298 366
#     4  10  20  33  59  84 123 151 197 255 297 352
#     4  10  18  37  61  86 114 156 208 246 295 348
#     4  11  22  40  61  90 122 160 202 252 312 345
#     4  11  23  39  64  90 123 163 198 249 300 365
#
# _framework density 21.112946000000001
#
# number of rings (size 3 to 8) (size 9 to 14) (size 15 to 20)
#    0.000    1.250    3.750    5.625    0.000    3.000 
#    0.000    3.750    0.000    3.000    0.000    0.000 
#    0.000    0.000    0.000    0.000    0.000    0.000 
#
# Total GULP energy -198210.582114 kJ/mol
# GULP energy per Si atom -12388.161382 kJ/mol
# Density = 2.106489 g / cm^3
# Si number density = 21.112946 Si / 1000 Ang^3
#
#
#
# Elastic Constant Matrix: (Units=GPa)
#
#
# Indices 1 2 3 4 5 6 
#
# 1 107.7247 38.8551 22.9904 16.9432 -5.2583 -23.1802
# 2 38.8551 89.9163 38.9053 21.8341 2.1455 -18.0830
# 3 22.9904 38.9053 63.0779 13.3569 -0.1728 -3.3013
# 4 16.9432 21.8341 13.3569 39.2050 -7.3675 -12.1951
# 5 -5.2583 2.1455 -0.1728 -7.3675 21.4072 7.1396
# 6 -23.1802 -18.0830 -3.3013 -12.1951 7.1396 29.9609
#
#
#
# Elastic Compliance Matrix: (Units=1/GPa)
#
#
# Indices 1 2 3 4 5 6 
#
# 1 0.012487 -0.002783 -0.002310 -0.000664 0.000665 0.007298
# 2 -0.002783 0.019534 -0.009513 -0.005254 -0.007254 0.008178
# 3 -0.002310 -0.009513 0.022911 -0.003290 0.001688 -0.006746
# 4 -0.000664 -0.005254 -0.003290 0.033967 0.009523 0.007508
# 5 0.000665 -0.007254 0.001688 0.009523 0.055217 -0.012960
# 6 0.007298 0.008178 -0.006746 0.007508 -0.012960 0.049360
#
#
# Mechanical properties :
#
#
# Convention : Reuss Voigt Hill
#
# Bulk Modulus (GPa) = 38.88108 51.35782 45.11945
# Shear Modulus (GPa) = 21.62054 28.77915 25.19984
#
# Velocity S-wave (km/s) = 3.20354 3.69603 3.45856
# Velocity P-wave (km/s) = 5.66915 6.52627 6.11275
#
# Compressibility (1/GPa) = 0.02571945
#
# Stress axis : x y z
#
# Youngs Moduli (GPa) = 80.08234 51.19273 43.64691
#
# Poissons Ratio (x) = 0.14249 0.10083
# Poissons Ratio (y) = 0.22290 0.41521
# Poissons Ratio (z) = 0.18500 0.48700
#
# Static dielectric constant tensor:
#      x y z
#    x 4.259600 -0.203900 -0.167490 
#    y -0.203900 3.726370 0.268810 
#    z -0.167490 0.268810 3.616000 
# 
# 
# High freq. dielectric constant tensor:
#      x y z
#    x 1.855820 -0.012700 -0.000570 
#    y -0.012700 1.812760 0.025280 
#    z -0.000570 0.025280 1.797660 
# 
# From -- ./inp_files/277854.got.cif
#   From: 2010.06.25/outbox.cif.g09.slc.cpg/sg2_139_cif.got.tgz:277854.got - 2010.06.27 13:26:56.
