data_PCOD8040557
_publ_section_title
;
Structure prediction by ZEFSAII (Michael W. Deem and Ramdas Pophale) SiO2 
 PCOD8040557
Probable space group: P -1
;
_chemical_formula_sum "Si O2"
_cell_formula_units_Z 14
_cell_length_a 10.821805
_cell_length_b 11.477316
_cell_length_c 10.001774
_cell_angle_alpha 64.708829
_cell_angle_beta 40.592072
_cell_angle_gamma 68.640697
_cell_volume 729.156538
_symmetry_space_group_name_H-M "P -1"
_symmetry_group_IT_number 2
_symmetry_cell_setting 'triclinic'
loop_
_space_group_symop_operation_xyz
x,y,z
-x,-y,-z
loop_
_atom_site_type_symbol
_atom_site_label
_atom_site_fract_x
_atom_site_fract_y
_atom_site_fract_z
Si Si1 0.416111 0.628819 0.436115
Si Si2 0.382003 0.392389 0.986338
Si Si3 0.049736 0.572147 0.617909
Si Si4 0.819450 0.949579 0.248089
Si Si5 0.540751 0.156516 0.487079
Si Si6 0.432069 0.676924 0.870372
Si Si7 0.981405 0.305164 0.694443
O O1 0.500000 0.500000 0.500000
O O2 0.536456 0.667394 0.189101
O O3 0.199065 0.606300 0.590300
O O4 0.419027 0.748581 0.473563
O O5 0.472891 0.529881 0.860355
O O6 0.447208 0.302981 0.103226
O O7 0.155611 0.407424 0.155432
O O8 0.070566 0.668236 0.429795
O O9 0.090504 0.424724 0.606329
O O10 0.654060 0.916136 0.293505
O O11 0.883887 0.823877 0.342928
O O12 0.726355 0.056937 0.373472
O O13 0.000000 0.000000 0.000000
O O14 0.500523 0.229368 0.344197
O O15 0.209742 0.711481 0.058382
#
# Coordination Sequence:
#
# PCOD8040557 Si02
#       7
#     2   2   2   2   2   2   2
#     4  12  23  38  58  92 131 156 188 256 315 358
#     4  10  21  35  60  89 122 159 194 244 302 355
#     4  10  22  37  63  93 120 156 199 251 306 355
#     4  11  23  40  63  87 119 165 206 248 291 365
#     4  11  24  39  60  91 123 158 202 248 307 355
#     4  10  18  37  62  88 117 158 206 242 291 360
#     4  10  19  38  65  91 117 156 211 251 289 353
#
# _framework density 19.200267
#
# number of rings (size 3 to 8) (size 9 to 14) (size 15 to 20)
#    0.000    1.429    4.286    1.714    2.000    1.714 
#    0.000    0.714    0.000    8.571    0.000    0.000 
#    0.000    0.000    0.000    0.000    0.000    0.000 
#
# Total GULP energy -173634.233863 kJ/mol
# GULP energy per Si atom -12402.445276 kJ/mol
# Density = 1.915657 g / cm^3
# Si number density = 19.200267 Si / 1000 Ang^3
#
#
#
# Elastic Constant Matrix: (Units=GPa)
#
#
# Indices 1 2 3 4 5 6 
#
# 1 138.0471 67.7216 59.0901 10.1925 -1.8435 10.4939
# 2 67.7216 133.0159 42.4164 16.6110 7.3667 -1.1671
# 3 59.0901 42.4164 104.2014 3.5318 -4.6824 3.9415
# 4 10.1925 16.6110 3.5318 22.8013 0.9456 2.1517
# 5 -1.8435 7.3667 -4.6824 0.9456 34.0048 -1.5919
# 6 10.4939 -1.1671 3.9415 2.1517 -1.5919 31.1180
#
#
#
# Elastic Compliance Matrix: (Units=1/GPa)
#
#
# Indices 1 2 3 4 5 6 
#
# 1 0.011772 -0.004458 -0.004659 -0.001003 0.000829 -0.003435
# 2 -0.004458 0.011399 -0.002121 -0.006104 -0.002717 0.002483
# 3 -0.004659 -0.002121 0.013146 0.001527 0.001966 -0.000178
# 4 -0.001003 -0.006104 0.001527 0.048845 -0.000042 -0.003464
# 5 0.000829 -0.002717 0.001966 -0.000042 0.030356 0.000925
# 6 -0.003435 0.002483 -0.000178 -0.003464 0.000925 0.033697
#
#
# Mechanical properties :
#
#
# Convention : Reuss Voigt Hill
#
# Bulk Modulus (GPa) = 72.26056 79.30230 75.78143
# Shear Modulus (GPa) = 28.36015 31.32056 29.84035
#
# Velocity S-wave (km/s) = 3.84744 4.04326 3.94656
# Velocity P-wave (km/s) = 7.57984 7.94919 7.76671
#
# Compressibility (1/GPa) = 0.01383881
#
# Stress axis : x y z
#
# Youngs Moduli (GPa) = 84.94964 87.73022 76.07035
#
# Poissons Ratio (x) = 0.39113 0.35445
# Poissons Ratio (y) = 0.37873 0.16133
# Poissons Ratio (z) = 0.39582 0.18606
#
# Static dielectric constant tensor:
#      x y z
#    x 3.490240 -0.122400 -0.108830 
#    y -0.122400 3.531240 0.017840 
#    z -0.108830 0.017840 3.582080 
# 
# 
# High freq. dielectric constant tensor:
#      x y z
#    x 1.740530 -0.017260 -0.015810 
#    y -0.017260 1.735610 0.003490 
#    z -0.015810 0.003490 1.757770 
# 
# From -- ./inp_files/175720.got.cif
#   From: 2010.06.25/outbox.cif.g09.slc.cpg/sg2_88_cif.got.tgz:175720.got - 2010.06.27 13:26:56.
