data_PCOD8040669
_publ_section_title
;
Structure prediction by ZEFSAII (Michael W. Deem and Ramdas Pophale) SiO2 
 PCOD8040669
Probable space group: P -1
;
_chemical_formula_sum "Si O2"
_cell_formula_units_Z 16
_cell_length_a 8.947320
_cell_length_b 16.633641
_cell_length_c 9.213021
_cell_angle_alpha 50.809999
_cell_angle_beta 101.829374
_cell_angle_gamma 128.855165
_cell_volume 784.844086
_symmetry_space_group_name_H-M "P -1"
_symmetry_group_IT_number 2
_symmetry_cell_setting 'triclinic'
loop_
_space_group_symop_operation_xyz
x,y,z
-x,-y,-z
loop_
_atom_site_type_symbol
_atom_site_label
_atom_site_fract_x
_atom_site_fract_y
_atom_site_fract_z
Si Si1 0.677061 0.900908 0.897641
Si Si2 0.934251 0.231299 0.960474
Si Si3 0.252489 0.682547 0.968286
Si Si4 0.071039 0.616894 0.705398
Si Si5 0.566708 0.809509 0.300066
Si Si6 0.732677 0.143815 0.729306
Si Si7 0.042241 0.983780 0.689274
Si Si8 0.820152 0.478107 0.398129
O O1 0.882499 0.957941 0.799500
O O2 0.655243 0.015811 0.760750
O O3 0.492485 0.773559 0.911516
O O4 0.673559 0.859674 0.108564
O O5 0.802948 0.261309 0.979690
O O6 0.815913 0.135362 0.906400
O O7 0.137128 0.379725 0.771815
O O8 0.974626 0.149484 0.161156
O O9 0.158459 0.525380 0.153369
O O10 0.177065 0.696227 0.785839
O O11 0.085539 0.718505 0.479811
O O12 0.188399 0.571567 0.710235
O O13 0.451113 0.862536 0.262250
O O14 0.403698 0.642504 0.445031
O O15 0.739833 0.872976 0.383790
O O16 0.000000 0.000000 0.500000
O O17 0.000000 0.500000 0.500000
#
# Coordination Sequence:
#
# PCOD8040669 Si02
#       8
#     2   2   2   2   2   2   2   2
#     4  12  24  40  63  91 127 173 214 255 310 379
#     4  11  21  43  66  96 128 160 213 264 318 375
#     4  10  21  38  65  95 127 161 207 272 317 369
#     4   9  20  35  61 101 128 150 201 271 328 366
#     4  11  21  42  67  96 125 159 210 267 317 375
#     4  11  21  37  71  99 120 157 215 273 316 367
#     4  12  30  45  57  85 138 183 211 251 314 381
#     4  10  18  37  71 103 121 152 204 277 326 363
#
# _framework density 20.386216000000001
#
# number of rings (size 3 to 8) (size 9 to 14) (size 15 to 20)
#    0.000    1.250    5.000    2.250    5.250    0.500 
#    0.000    2.500    0.000    0.000    0.000    0.000 
#    0.000    0.000    0.000    0.000    0.000    0.000 
#
# Total GULP energy -198328.281643 kJ/mol
# GULP energy per Si atom -12395.517603 kJ/mol
# Density = 2.033982 g / cm^3
# Si number density = 20.386216 Si / 1000 Ang^3
#
#
#
# Elastic Constant Matrix: (Units=GPa)
#
#
# Indices 1 2 3 4 5 6 
#
# 1 63.0064 36.2344 31.9286 -5.3608 -10.4653 17.3481
# 2 36.2344 131.6323 54.5835 -2.1280 0.5532 21.7401
# 3 31.9286 54.5835 127.3155 -4.4829 2.0747 14.9782
# 4 -5.3608 -2.1280 -4.4829 27.3255 1.5687 -5.0523
# 5 -10.4653 0.5532 2.0747 1.5687 27.5451 1.9658
# 6 17.3481 21.7401 14.9782 -5.0523 1.9658 23.6758
#
#
#
# Elastic Compliance Matrix: (Units=1/GPa)
#
#
# Indices 1 2 3 4 5 6 
#
# 1 0.025215 -0.003229 -0.003431 0.000912 0.010854 -0.014047
# 2 -0.003229 0.010715 -0.003148 -0.001329 -0.000722 -0.005705
# 3 -0.003431 -0.003148 0.010209 0.000736 -0.001999 -0.000731
# 4 0.000912 -0.001329 0.000736 0.038508 -0.002483 0.008510
# 5 0.010854 -0.000722 -0.001999 -0.002483 0.041448 -0.009997
# 6 -0.014047 -0.005705 -0.000731 0.008510 -0.009997 0.060877
#
#
# Mechanical properties :
#
#
# Convention : Reuss Voigt Hill
#
# Bulk Modulus (GPa) = 37.70344 63.04967 50.37656
# Shear Modulus (GPa) = 23.20948 28.98981 26.09964
#
# Velocity S-wave (km/s) = 3.37781 3.77507 3.58195
# Velocity P-wave (km/s) = 5.80926 7.07081 6.47085
#
# Compressibility (1/GPa) = 0.02652278
#
# Stress axis : x y z
#
# Youngs Moduli (GPa) = 39.65832 93.32853 97.95227
#
# Poissons Ratio (x) = 0.30136 0.33611
# Poissons Ratio (y) = 0.12806 0.30833
# Poissons Ratio (z) = 0.13608 0.29378
#
# Static dielectric constant tensor:
#      x y z
#    x 3.295810 0.008340 -0.250750 
#    y 0.008340 4.019580 -0.212320 
#    z -0.250750 -0.212320 3.923990 
# 
# 
# High freq. dielectric constant tensor:
#      x y z
#    x 1.747280 -0.001710 -0.022780 
#    y -0.001710 1.816220 -0.009780 
#    z -0.022780 -0.009780 1.806320 
# 
# From -- ./inp_files/214510.got.cif
#   From: 2010.06.25/outbox.cif.g09.slc.cpg/sg2_108_cif.got.tgz:214510.got - 2010.06.27 13:26:56.
