data_PCOD8040190
_publ_section_title
;
Structure prediction by ZEFSAII (Michael W. Deem and Ramdas Pophale) SiO2 
 PCOD8040190
Probable space group: P -1
;
_chemical_formula_sum "Si O2"
_cell_formula_units_Z 16
_cell_length_a 18.278529
_cell_length_b 8.317908
_cell_length_c 7.765809
_cell_angle_alpha 126.161778
_cell_angle_beta 100.579744
_cell_angle_gamma 52.742175
_cell_volume 730.489138
_symmetry_space_group_name_H-M "P -1"
_symmetry_group_IT_number 2
_symmetry_cell_setting 'triclinic'
loop_
_space_group_symop_operation_xyz
x,y,z
-x,-y,-z
loop_
_atom_site_type_symbol
_atom_site_label
_atom_site_fract_x
_atom_site_fract_y
_atom_site_fract_z
Si Si1 0.842270 0.881276 0.610802
Si Si2 0.561909 0.793483 0.536759
Si Si3 0.716501 0.363440 0.682675
Si Si4 0.612412 0.895838 0.129041
Si Si5 0.743166 0.637903 0.360632
Si Si6 0.913326 0.003514 0.421728
Si Si7 0.652219 0.252079 0.258960
Si Si8 0.156694 0.936893 0.932392
O O1 0.746679 0.181126 0.746528
O O2 0.911144 0.816727 0.434988
O O3 0.811430 0.704423 0.485625
O O4 0.892027 0.864186 0.801602
O O5 0.500661 0.934458 0.771948
O O6 0.668999 0.708762 0.529950
O O7 0.572425 0.540089 0.333546
O O8 0.500000 0.000000 0.500000
O O9 0.813129 0.290558 0.588124
O O10 0.665980 0.296785 0.489662
O O11 0.642532 0.659307 0.877999
O O12 0.618935 0.081499 0.132931
O O13 0.682564 0.788264 0.257488
O O14 0.815940 0.333485 0.170801
O O15 0.917727 0.931316 0.177034
O O16 0.000000 0.000000 0.500000
O O17 0.749036 0.097877 0.095740
#
# Coordination Sequence:
#
# PCOD8040190 Si02
#       8
#     2   2   2   2   2   2   2   2
#     4  10  20  38  60  84 113 157 192 230 296 348
#     4   9  21  33  53  84 117 155 201 247 286 335
#     4   9  20  35  59  83 109 152 194 233 293 350
#     4  11  18  36  58  80 118 157 195 248 293 336
#     4  10  18  36  57  82 119 153 193 244 285 343
#     4   9  20  40  62  89 121 148 190 245 289 350
#     4  10  20  36  57  81 115 157 198 239 292 343
#     4  10  20  36  61  87 113 154 195 233 289 349
#
# _framework density 21.903130000000001
#
# number of rings (size 3 to 8) (size 9 to 14) (size 15 to 20)
#    0.750    1.500    2.500    0.375    0.000    4.000 
#    0.000    3.750    0.000   15.750    0.000    0.000 
#    0.000    0.000    0.000    0.000    0.000    0.000 
#
# Total GULP energy -198216.425753 kJ/mol
# GULP energy per Si atom -12388.526610 kJ/mol
# Density = 2.185328 g / cm^3
# Si number density = 21.903130 Si / 1000 Ang^3
#
#
#
# Elastic Constant Matrix: (Units=GPa)
#
#
# Indices 1 2 3 4 5 6 
#
# 1 90.4734 16.9777 9.8174 1.4963 17.1257 22.2785
# 2 16.9777 56.2834 11.8484 -15.4139 6.6883 15.7801
# 3 9.8174 11.8484 61.3567 -14.5723 16.5244 10.6557
# 4 1.4963 -15.4139 -14.5723 31.3564 3.2587 7.7550
# 5 17.1257 6.6883 16.5244 3.2587 18.2855 3.2066
# 6 22.2785 15.7801 10.6557 7.7550 3.2066 34.3379
#
#
#
# Elastic Compliance Matrix: (Units=1/GPa)
#
#
# Indices 1 2 3 4 5 6 
#
# 1 0.018094 0.003485 0.008916 0.011691 -0.025492 -0.016368
# 2 0.003485 0.033121 0.012307 0.031062 -0.027521 -0.025746
# 3 0.008916 0.012307 0.039021 0.035591 -0.049733 -0.026943
# 4 0.011691 0.031062 0.035591 0.080710 -0.060888 -0.045446
# 5 -0.025492 -0.027521 -0.049733 -0.060888 0.136421 0.045631
# 6 -0.016368 -0.025746 -0.026943 -0.045446 0.045631 0.065937
#
#
# Mechanical properties :
#
#
# Convention : Reuss Voigt Hill
#
# Bulk Modulus (GPa) = 7.16066 31.71114 19.43590
# Shear Modulus (GPa) = 13.49751 28.09396 20.79574
#
# Velocity S-wave (km/s) = 2.48510 3.58529 3.08464
# Velocity P-wave (km/s) = 3.39274 5.62569 4.64538
#
# Compressibility (1/GPa) = 0.13965194
#
# Stress axis : x y z
#
# Youngs Moduli (GPa) = 55.26726 30.19254 25.62724
#
# Poissons Ratio (x) = -0.10522 -0.22850
# Poissons Ratio (y) = -0.19260 -0.31539
# Poissons Ratio (z) = -0.49278 -0.37158
#
# Static dielectric constant tensor:
#      x y z
#    x 3.379920 0.645910 1.036740 
#    y 0.645910 3.627360 -1.313930 
#    z 1.036740 -1.313930 0.453770 
# 
# 
# High freq. dielectric constant tensor:
#      x y z
#    x 1.843550 0.014380 -0.002970 
#    y 0.014380 1.864810 -0.011210 
#    z -0.002970 -0.011210 1.841950 
# 
# From -- ./inp_files/225685.got.cif
#   From: 2010.06.25/outbox.cif.g09.slc.cpg/sg2_113_cif.got.tgz:225685.got - 2010.06.27 13:26:56.
