data_PCOD8040891
_publ_section_title
;
Structure prediction by ZEFSAII (Michael W. Deem and Ramdas Pophale) SiO2 
 PCOD8040891
Probable space group: P -1
;
_chemical_formula_sum "Si O2"
_cell_formula_units_Z 14
_cell_length_a 10.708307
_cell_length_b 9.059246
_cell_length_c 14.145599
_cell_angle_alpha 141.589428
_cell_angle_beta 71.278354
_cell_angle_gamma 125.144595
_cell_volume 673.904921
_symmetry_space_group_name_H-M "P -1"
_symmetry_group_IT_number 2
_symmetry_cell_setting 'triclinic'
loop_
_space_group_symop_operation_xyz
x,y,z
-x,-y,-z
loop_
_atom_site_type_symbol
_atom_site_label
_atom_site_fract_x
_atom_site_fract_y
_atom_site_fract_z
Si Si1 0.053931 0.192741 0.178079
Si Si2 0.204396 0.766755 0.810383
Si Si3 0.991680 0.345091 0.020824
Si Si4 0.655539 0.332735 0.878852
Si Si5 0.607649 0.327710 0.609787
Si Si6 0.569569 0.311187 0.397158
Si Si7 0.474036 0.417281 0.102385
O O1 0.223709 0.492952 0.285759
O O2 0.920249 0.265465 0.256154
O O3 0.056876 0.981531 0.149863
O O4 0.000000 0.000000 0.000000
O O5 0.122476 0.635837 0.866337
O O6 0.291025 0.615991 0.674693
O O7 0.329820 0.097601 0.962626
O O8 0.162437 0.511716 0.112474
O O9 0.000000 0.500000 0.000000
O O10 0.556714 0.373101 0.844263
O O11 0.582412 0.001265 0.739693
O O12 0.634484 0.451397 0.044376
O O13 0.643745 0.355677 0.504942
O O14 0.513689 0.477374 0.739352
O O15 0.500000 0.000000 0.500000
O O16 0.500000 0.500000 0.500000
#
# Coordination Sequence:
#
# PCOD8040891 Si02
#       7
#     2   2   2   2   2   2   2
#     4  10  20  40  69  94 128 165 218 267 316 379
#     4  10  21  44  68  87 126 179 215 263 322 384
#     4  11  22  36  67  99 123 162 226 266 312 380
#     4  10  21  38  66  93 126 167 214 268 323 382
#     4  12  23  38  67 102 129 165 218 269 319 385
#     4  11  27  42  60  92 142 173 206 267 340 380
#     4  10  18  39  67  95 116 167 223 265 310 383
#
# _framework density 20.774443000000002
#
# number of rings (size 3 to 8) (size 9 to 14) (size 15 to 20)
#    0.000    1.429    5.714    0.857    2.000    1.714 
#    0.000    3.571    0.000    0.000    0.000    0.000 
#    0.000    0.000    0.000    0.000    0.000    0.000 
#
# Total GULP energy -173442.336639 kJ/mol
# GULP energy per Si atom -12388.738331 kJ/mol
# Density = 2.072716 g / cm^3
# Si number density = 20.774443 Si / 1000 Ang^3
#
#
#
# Elastic Constant Matrix: (Units=GPa)
#
#
# Indices 1 2 3 4 5 6 
#
# 1 96.4392 51.1497 55.9295 7.6589 -19.4920 13.0122
# 2 51.1497 119.4679 44.5921 -0.6603 -14.5330 8.7272
# 3 55.9295 44.5921 107.1111 0.8870 -16.6993 14.5891
# 4 7.6589 -0.6603 0.8870 38.0835 7.1348 -3.6249
# 5 -19.4920 -14.5330 -16.6993 7.1348 38.7322 -0.3194
# 6 13.0122 8.7272 14.5891 -3.6249 -0.3194 40.5178
#
#
#
# Elastic Compliance Matrix: (Units=1/GPa)
#
#
# Indices 1 2 3 4 5 6 
#
# 1 0.018497 -0.004650 -0.006375 -0.005012 0.005713 -0.003046
# 2 -0.004650 0.011265 -0.002141 0.001029 0.000774 -0.000064
# 3 -0.006375 -0.002141 0.014223 0.000286 0.002047 -0.002571
# 4 -0.005012 0.001029 0.000286 0.029014 -0.007326 0.003823
# 5 0.005713 0.000774 0.002047 -0.007326 0.031190 -0.003148
# 6 -0.003046 -0.000064 -0.002571 0.003823 -0.003148 0.026916
#
#
# Mechanical properties :
#
#
# Convention : Reuss Voigt Hill
#
# Bulk Modulus (GPa) = 56.64882 69.59565 63.12223
# Shear Modulus (GPa) = 30.61472 34.88982 32.75227
#
# Velocity S-wave (km/s) = 3.84301 4.10257 3.97491
# Velocity P-wave (km/s) = 6.85706 7.48430 7.17754
#
# Compressibility (1/GPa) = 0.01765262
#
# Stress axis : x y z
#
# Youngs Moduli (GPa) = 54.06426 88.77187 70.30707
#
# Poissons Ratio (x) = 0.41277 0.44823
# Poissons Ratio (y) = 0.25139 0.15053
# Poissons Ratio (z) = 0.34467 0.19006
#
# Static dielectric constant tensor:
#      x y z
#    x 3.795740 0.424600 -0.416970 
#    y 0.424600 3.901960 -0.064640 
#    z -0.416970 -0.064640 3.912290 
# 
# 
# High freq. dielectric constant tensor:
#      x y z
#    x 1.798050 0.020200 -0.009010 
#    y 0.020200 1.818100 0.003700 
#    z -0.009010 0.003700 1.802410 
# 
# From -- ./inp_files/513824.got.cif
#   From: 2010.06.25/outbox.cif.g09.slc.cpg/sg2_257_cif.got.tgz:513824.got - 2010.06.27 13:26:56.
