data_PCOD8040653
_publ_section_title
;
Structure prediction by ZEFSAII (Michael W. Deem and Ramdas Pophale) SiO2 
 PCOD8040653
Probable space group: P -1
;
_chemical_formula_sum "Si O2"
_cell_formula_units_Z 14
_cell_length_a 17.574097
_cell_length_b 8.890573
_cell_length_c 11.400458
_cell_angle_alpha 133.097761
_cell_angle_beta 150.104821
_cell_angle_gamma 46.742076
_cell_volume 626.762550
_symmetry_space_group_name_H-M "P -1"
_symmetry_group_IT_number 2
_symmetry_cell_setting 'triclinic'
loop_
_space_group_symop_operation_xyz
x,y,z
-x,-y,-z
loop_
_atom_site_type_symbol
_atom_site_label
_atom_site_fract_x
_atom_site_fract_y
_atom_site_fract_z
Si Si1 0.003384 0.034578 0.849084
Si Si2 0.311889 0.952968 0.334143
Si Si3 0.687055 0.980667 0.371868
Si Si4 0.397685 0.341819 0.548193
Si Si5 0.863956 0.935201 0.211765
Si Si6 0.584108 0.220390 0.126791
Si Si7 0.140816 0.493321 0.098224
O O1 0.107790 0.040333 0.875365
O O2 0.130497 0.937848 0.068455
O O3 0.879178 0.888965 0.584107
O O4 0.891429 0.265607 0.864173
O O5 0.368655 0.904406 0.517457
O O6 0.424699 0.784824 0.311590
O O7 0.310770 0.195125 0.427593
O O8 0.646766 0.148494 0.302124
O O9 0.596530 0.795459 0.134501
O O10 0.409436 0.536987 0.751521
O O11 0.306523 0.424226 0.350629
O O12 0.693576 0.080233 0.098919
O O13 0.862646 0.687237 0.101591
O O14 0.000000 0.000000 0.500000
O O15 0.000000 0.500000 0.000000
#
# Coordination Sequence:
#
# PCOD8040653 Si02
#       7
#     2   2   2   2   2   2   2
#     4  11  22  44  68  98 129 174 222 272 320 391
#     4  11  25  41  69  96 135 167 224 275 328 379
#     4  11  24  44  63  99 138 171 209 281 334 387
#     4  11  22  44  67  99 123 179 230 263 315 401
#     4  11  20  37  67  99 126 168 226 273 307 389
#     4  11  24  43  69  97 134 174 222 265 332 389
#     4  10  18  37  67  95 120 170 231 260 304 386
#
# _framework density 22.337007
#
# number of rings (size 3 to 8) (size 9 to 14) (size 15 to 20)
#    0.000    1.143    5.714    2.143    2.000    1.143 
#    5.143    0.714    0.000    0.000    0.000    0.000 
#    0.000    0.000    0.000    0.000    0.000    0.000 
#
# Total GULP energy -173544.261815 kJ/mol
# GULP energy per Si atom -12396.018701 kJ/mol
# Density = 2.228617 g / cm^3
# Si number density = 22.337007 Si / 1000 Ang^3
#
#
#
# Elastic Constant Matrix: (Units=GPa)
#
#
# Indices 1 2 3 4 5 6 
#
# 1 75.5511 34.8851 26.7457 10.0359 0.9617 -14.6681
# 2 34.8851 101.3435 52.0946 11.9979 2.9147 -26.8990
# 3 26.7457 52.0946 159.6464 2.8516 17.6562 -14.0500
# 4 10.0359 11.9979 2.8516 33.6304 -4.8974 -5.4821
# 5 0.9617 2.9147 17.6562 -4.8974 40.5989 -1.0420
# 6 -14.6681 -26.8990 -14.0500 -5.4821 -1.0420 21.4480
#
#
#
# Elastic Compliance Matrix: (Units=1/GPa)
#
#
# Indices 1 2 3 4 5 6 
#
# 1 0.016653 -0.003255 -0.001184 -0.002730 0.000175 0.005841
# 2 -0.003255 0.017648 -0.003753 -0.002157 0.000617 0.016927
# 3 -0.001184 -0.003753 0.007997 0.000510 -0.003127 -0.000300
# 4 -0.002730 -0.002157 0.000510 0.032561 0.004035 0.004280
# 5 0.000175 0.000617 -0.003127 0.004035 0.026459 0.001162
# 6 0.005841 0.016927 -0.000300 0.004280 0.001162 0.072802
#
#
# Mechanical properties :
#
#
# Convention : Reuss Voigt Hill
#
# Bulk Modulus (GPa) = 38.59115 62.66576 50.62845
# Shear Modulus (GPa) = 25.10766 33.98984 29.54875
#
# Velocity S-wave (km/s) = 3.35631 3.90511 3.64106
# Velocity P-wave (km/s) = 5.68630 6.96051 6.35542
#
# Compressibility (1/GPa) = 0.02591268
#
# Stress axis : x y z
#
# Youngs Moduli (GPa) = 60.05008 56.66489 125.04240
#
# Poissons Ratio (x) = 0.18444 0.14808
# Poissons Ratio (y) = 0.19546 0.46933
# Poissons Ratio (z) = 0.07111 0.21268
#
# Static dielectric constant tensor:
#      x y z
#    x 3.970020 -0.098890 0.134170 
#    y -0.098890 4.014310 0.299600 
#    z 0.134170 0.299600 4.250700 
# 
# 
# High freq. dielectric constant tensor:
#      x y z
#    x 1.872550 -0.002080 0.010000 
#    y -0.002080 1.849770 0.002660 
#    z 0.010000 0.002660 1.904050 
# 
# From -- ./inp_files/462500.got.cif
#   From: 2010.06.25/outbox.cif.g09.slc.cpg/sg2_232_cif.got.tgz:462500.got - 2010.06.27 13:26:56.
