data_PCOD8040526
_publ_section_title
;
Structure prediction by ZEFSAII (Michael W. Deem and Ramdas Pophale) SiO2 
 PCOD8040526
Probable space group: P -1
;
_chemical_formula_sum "Si O2"
_cell_formula_units_Z 12
_cell_length_a 20.647512
_cell_length_b 20.451659
_cell_length_c 11.284977
_cell_angle_alpha 30.042514
_cell_angle_beta 18.965897
_cell_angle_gamma 19.212160
_cell_volume 492.654948
_symmetry_space_group_name_H-M "P -1"
_symmetry_group_IT_number 2
_symmetry_cell_setting 'triclinic'
loop_
_space_group_symop_operation_xyz
x,y,z
-x,-y,-z
loop_
_atom_site_type_symbol
_atom_site_label
_atom_site_fract_x
_atom_site_fract_y
_atom_site_fract_z
Si Si1 0.263471 0.480113 0.188217
Si Si2 0.272324 0.105339 0.046589
Si Si3 0.332614 0.917284 0.445541
Si Si4 0.011231 0.486624 0.145705
Si Si5 0.479704 0.429486 0.263440
Si Si6 0.597183 0.843062 0.671289
O O1 0.151245 0.482127 0.504638
O O2 0.458553 0.272751 0.104687
O O3 0.964907 0.678459 0.318762
O O4 0.498025 0.483903 0.799339
O O5 0.579906 0.025390 0.692283
O O6 0.022347 0.338139 0.068938
O O7 0.383243 0.959540 0.975418
O O8 0.109542 0.101703 0.443367
O O9 0.234659 0.824321 0.817315
O O10 0.627606 0.736542 0.130235
O O11 0.830097 0.508172 0.310611
O O12 0.500000 0.500000 0.000000
O O13 0.500000 0.000000 0.500000
#
# Coordination Sequence:
#
# PCOD8040526 Si02
#       6
#     2   2   2   2   2   2
#     4  10  21  37  57  84 112 149 188 231 278 323
#     4  10  19  33  58  85 106 147 194 223 271 329
#     4  10  20  36  60  84 116 144 183 235 280 333
#     4  10  18  37  61  84 113 146 183 233 282 332
#     4   9  19  35  57  85 116 143 181 233 287 327
#     4  11  21  37  59  80 113 154 193 223 266 346
#
# _framework density 24.357818000000002
#
# number of rings (size 3 to 8) (size 9 to 14) (size 15 to 20)
#    0.000    2.000    3.333    2.000    0.000    0.000 
#    0.000   10.833    0.000    5.000    0.000    0.000 
#    0.000    0.000    0.000    0.000    0.000    0.000 
#
# Total GULP energy -148676.468523 kJ/mol
# GULP energy per Si atom -12389.705710 kJ/mol
# Density = 2.430238 g / cm^3
# Si number density = 24.357818 Si / 1000 Ang^3
#
#
#
# Elastic Constant Matrix: (Units=GPa)
#
#
# Indices 1 2 3 4 5 6 
#
# 1 135.5414 56.1108 25.3023 -22.0128 -6.7297 17.8735
# 2 56.1108 126.6510 29.0430 -36.4073 -9.8081 6.3029
# 3 25.3023 29.0430 59.7681 -33.6473 -14.9377 -5.7956
# 4 -22.0128 -36.4073 -33.6473 48.6859 0.1492 13.2853
# 5 -6.7297 -9.8081 -14.9377 0.1492 37.8004 -9.2787
# 6 17.8735 6.3029 -5.7956 13.2853 -9.2787 54.9560
#
#
#
# Elastic Compliance Matrix: (Units=1/GPa)
#
#
# Indices 1 2 3 4 5 6 
#
# 1 0.009833 -0.003343 -0.002418 0.001241 -0.000943 -0.003529
# 2 -0.003343 0.011886 0.000768 0.008402 0.002309 -0.001836
# 3 -0.002418 0.000768 0.033178 0.022081 0.013054 0.001063
# 4 0.001241 0.008402 0.022081 0.044908 0.008889 -0.008394
# 5 -0.000943 0.002309 0.013054 0.008889 0.033206 0.004876
# 6 -0.003529 -0.001836 0.001063 -0.008394 0.004876 0.022519
#
#
# Mechanical properties :
#
#
# Convention : Reuss Voigt Hill
#
# Bulk Modulus (GPa) = 22.26527 60.31919 41.29223
# Shear Modulus (GPa) = 27.70323 42.38875 35.04599
#
# Velocity S-wave (km/s) = 3.37611 4.17616 3.79726
# Velocity P-wave (km/s) = 4.93541 6.93335 6.01787
#
# Compressibility (1/GPa) = 0.04491301
#
# Stress axis : x y z
#
# Youngs Moduli (GPa) = 101.69859 84.13403 30.14071
#
# Poissons Ratio (x) = 0.28122 0.07287
# Poissons Ratio (y) = 0.33993 -0.02316
# Poissons Ratio (z) = 0.24586 -0.06464
#
# Static dielectric constant tensor:
#      x y z
#    x 4.666490 -0.031840 -0.091810 
#    y -0.031840 5.100820 -0.511370 
#    z -0.091810 -0.511370 4.402590 
# 
# 
# High freq. dielectric constant tensor:
#      x y z
#    x 1.967090 -0.002390 0.019930 
#    y -0.002390 2.004530 -0.025580 
#    z 0.019930 -0.025580 1.935570 
# 
# From -- ./inp_files/241960.got.cif
#   From: 2010.06.25/outbox.cif.g09.slc.cpg/sg2_121_cif.got.tgz:241960.got - 2010.06.27 13:26:56.
