data_PCOD8040238
_publ_section_title
;
Structure prediction by ZEFSAII (Michael W. Deem and Ramdas Pophale) SiO2 
 PCOD8040238
Probable space group: P -1
;
_chemical_formula_sum "Si O2"
_cell_formula_units_Z 16
_cell_length_a 12.704099
_cell_length_b 12.534191
_cell_length_c 11.525100
_cell_angle_alpha 145.281241
_cell_angle_beta 88.034267
_cell_angle_gamma 74.006114
_cell_volume 883.480692
_symmetry_space_group_name_H-M "P -1"
_symmetry_group_IT_number 2
_symmetry_cell_setting 'triclinic'
loop_
_space_group_symop_operation_xyz
x,y,z
-x,-y,-z
loop_
_atom_site_type_symbol
_atom_site_label
_atom_site_fract_x
_atom_site_fract_y
_atom_site_fract_z
Si Si1 0.643063 0.351500 0.839481
Si Si2 0.252649 0.754685 0.505502
Si Si3 0.775039 0.885310 0.530419
Si Si4 0.410990 0.073044 0.234448
Si Si5 0.633807 0.682485 0.770376
Si Si6 0.336660 0.082066 0.825109
Si Si7 0.970719 0.181114 0.565722
Si Si8 0.220840 0.417939 0.930262
O O1 0.660450 0.369054 0.718352
O O2 0.693632 0.101001 0.647707
O O3 0.500000 0.500000 0.000000
O O4 0.714331 0.449038 0.992347
O O5 0.308517 0.578908 0.451629
O O6 0.111555 0.833724 0.546745
O O7 0.259865 0.963040 0.728851
O O8 0.699894 0.908734 0.670195
O O9 0.904390 0.862298 0.538734
O O10 0.808262 0.667861 0.262083
O O11 0.349003 0.274451 0.325154
O O12 0.512451 0.089006 0.324184
O O13 0.486350 0.836973 0.950477
O O14 0.710862 0.747505 0.912029
O O15 0.313565 0.207965 0.817714
O O16 0.000000 0.000000 0.500000
O O17 0.903158 0.418937 0.845349
#
# Coordination Sequence:
#
# PCOD8040238 Si02
#       8
#     2   2   2   2   2   2   2   2
#     4  11  21  32  52  85 117 142 177 235 284 333
#     4  11  20  34  58  80 107 153 186 228 277 334
#     4  12  22  36  56  86 118 148 188 227 284 337
#     4   9  21  38  57  83 113 150 182 239 277 333
#     4   9  19  41  55  81 115 145 193 228 284 325
#     4  10  18  36  59  83 107 144 191 225 283 339
#     4  11  20  39  55  83 117 151 186 227 282 336
#     4  11  21  35  56  85 112 152 182 229 284 337
#
# _framework density 18.110185999999999
#
# number of rings (size 3 to 8) (size 9 to 14) (size 15 to 20)
#    0.750    0.750    6.250    1.875    1.750    1.500 
#    0.000    0.625    0.000    0.750    0.000    0.000 
#    0.000    0.000    0.000    0.000    0.000    0.000 
#
# Total GULP energy -198334.882886 kJ/mol
# GULP energy per Si atom -12395.930180 kJ/mol
# Density = 1.806897 g / cm^3
# Si number density = 18.110186 Si / 1000 Ang^3
#
#
#
# Elastic Constant Matrix: (Units=GPa)
#
#
# Indices 1 2 3 4 5 6 
#
# 1 101.2126 29.4511 37.0000 -8.4054 -12.9039 13.8449
# 2 29.4511 104.5586 16.0967 5.3288 -7.8512 11.6508
# 3 37.0000 16.0967 52.8211 6.8828 2.4560 11.5383
# 4 -8.4054 5.3288 6.8828 21.7820 3.4163 0.4827
# 5 -12.9039 -7.8512 2.4560 3.4163 31.8544 4.0625
# 6 13.8449 11.6508 11.5383 0.4827 4.0625 19.2267
#
#
#
# Elastic Compliance Matrix: (Units=1/GPa)
#
#
# Indices 1 2 3 4 5 6 
#
# 1 0.017445 -0.002438 -0.011876 0.010106 0.007024 -0.005695
# 2 -0.002438 0.011316 -0.000147 -0.004003 0.002948 -0.005535
# 3 -0.011876 -0.000147 0.031178 -0.013469 -0.004692 -0.008740
# 4 0.010106 -0.004003 -0.013469 0.055320 -0.002078 0.002282
# 5 0.007024 0.002948 -0.004692 -0.002078 0.037055 -0.011806
# 6 -0.005695 -0.005535 -0.008740 0.002282 -0.011806 0.067149
#
#
# Mechanical properties :
#
#
# Convention : Reuss Voigt Hill
#
# Bulk Modulus (GPa) = 32.24114 47.07642 39.65878
# Shear Modulus (GPa) = 19.32568 26.30892 22.81730
#
# Velocity S-wave (km/s) = 3.27022 3.81558 3.55338
# Velocity P-wave (km/s) = 5.66573 6.74258 6.22748
#
# Compressibility (1/GPa) = 0.03101627
#
# Stress axis : x y z
#
# Youngs Moduli (GPa) = 57.32286 88.37392 32.07401
#
# Poissons Ratio (x) = 0.21550 0.38091
# Poissons Ratio (y) = 0.13978 0.00470
# Poissons Ratio (z) = 0.68077 0.01295
#
# Static dielectric constant tensor:
#      x y z
#    x 3.430060 -0.013960 0.070120 
#    y -0.013960 3.306130 0.256540 
#    z 0.070120 0.256540 3.253540 
# 
# 
# High freq. dielectric constant tensor:
#      x y z
#    x 1.696290 -0.001900 0.007020 
#    y -0.001900 1.692170 0.020410 
#    z 0.007020 0.020410 1.680960 
# 
# From -- ./inp_files/424487.got.cif
#   From: 2010.06.25/outbox.cif.g09.slc.cpg/sg2_213_cif.got.tgz:424487.got - 2010.06.27 13:26:56.
