data_PCOD8040721
_publ_section_title
;
Structure prediction by ZEFSAII (Michael W. Deem and Ramdas Pophale) SiO2 
 PCOD8040721
Probable space group: P -1
;
_chemical_formula_sum "Si O2"
_cell_formula_units_Z 16
_cell_length_a 7.731989
_cell_length_b 10.051655
_cell_length_c 14.328799
_cell_angle_alpha 100.012034
_cell_angle_beta 128.483041
_cell_angle_gamma 100.759523
_cell_volume 793.172331
_symmetry_space_group_name_H-M "P -1"
_symmetry_group_IT_number 2
_symmetry_cell_setting 'triclinic'
loop_
_space_group_symop_operation_xyz
x,y,z
-x,-y,-z
loop_
_atom_site_type_symbol
_atom_site_label
_atom_site_fract_x
_atom_site_fract_y
_atom_site_fract_z
Si Si1 0.711283 0.133491 0.546754
Si Si2 0.929289 0.175144 0.923754
Si Si3 0.218049 0.676434 0.948802
Si Si4 0.587400 0.597978 0.175011
Si Si5 0.476705 0.269749 0.121307
Si Si6 0.032767 0.629608 0.210661
Si Si7 0.455995 0.918595 0.721804
Si Si8 0.150614 0.096249 0.645680
O O1 0.671496 0.152591 0.426502
O O2 0.755699 0.284925 0.634042
O O3 0.944611 0.096895 0.647476
O O4 0.500000 0.000000 0.500000
O O5 0.901972 0.293128 0.858026
O O6 0.737059 0.014878 0.812338
O O7 0.870047 0.210567 0.013672
O O8 0.193725 0.173681 0.007058
O O9 0.392215 0.754035 0.930718
O O10 0.982897 0.537385 0.819532
O O11 0.347697 0.604538 0.054353
O O12 0.528098 0.439455 0.181428
O O13 0.772659 0.622679 0.155047
O O14 0.695208 0.730636 0.303469
O O15 0.585186 0.213150 0.237483
O O16 0.330153 0.024084 0.735914
O O17 0.000000 0.000000 0.500000
#
# Coordination Sequence:
#
# PCOD8040721 Si02
#       8
#     2   2   2   2   2   2   2   2
#     4  10  20  38  64  85 116 160 206 251 294 357
#     4  12  21  36  63  92 122 158 203 249 302 362
#     4  11  21  37  61  90 121 162 204 244 304 360
#     4  10  18  38  62  84 121 164 199 249 297 357
#     4  11  24  40  57  94 131 156 197 253 309 365
#     4  10  19  35  61  90 116 149 211 256 283 357
#     4  11  23  40  59  92 124 160 200 252 314 349
#     4   9  20  38  59  87 112 155 212 241 287 363
#
# _framework density 20.172162
#
# number of rings (size 3 to 8) (size 9 to 14) (size 15 to 20)
#    0.000    1.500    5.000    1.500    0.000    0.500 
#    2.250   10.000    0.000    0.750    0.000    0.000 
#    0.000    0.000    0.000    0.000    0.000    0.000 
#
# Total GULP energy -198279.332868 kJ/mol
# GULP energy per Si atom -12392.458304 kJ/mol
# Density = 2.012625 g / cm^3
# Si number density = 20.172162 Si / 1000 Ang^3
#
#
#
# Elastic Constant Matrix: (Units=GPa)
#
#
# Indices 1 2 3 4 5 6 
#
# 1 73.9998 33.2453 37.9850 -4.3585 -2.3804 14.4500
# 2 33.2453 85.4767 40.3302 -7.2127 7.2124 9.3827
# 3 37.9850 40.3302 100.0372 14.4264 -1.6009 4.3731
# 4 -4.3585 -7.2127 14.4264 39.5042 4.2776 -2.1951
# 5 -2.3804 7.2124 -1.6009 4.2776 26.6558 5.4223
# 6 14.4500 9.3827 4.3731 -2.1951 5.4223 21.1094
#
#
#
# Elastic Compliance Matrix: (Units=1/GPa)
#
#
# Indices 1 2 3 4 5 6 
#
# 1 0.021281 -0.004197 -0.006149 0.002624 0.004764 -0.012379
# 2 -0.004197 0.017434 -0.006275 0.005590 -0.006074 -0.001434
# 3 -0.006149 -0.006275 0.015947 -0.007847 0.002934 0.002126
# 4 0.002624 0.005590 -0.007847 0.030388 -0.007100 0.002329
# 5 0.004764 -0.006074 0.002934 -0.007100 0.043564 -0.013097
# 6 -0.012379 -0.001434 0.002126 0.002329 -0.013097 0.059649
#
#
# Mechanical properties :
#
#
# Convention : Reuss Voigt Hill
#
# Bulk Modulus (GPa) = 46.69056 53.62608 50.15832
# Shear Modulus (GPa) = 21.86785 27.31743 24.59264
#
# Velocity S-wave (km/s) = 3.29608 3.68396 3.49540
# Velocity P-wave (km/s) = 6.13855 6.68859 6.41947
#
# Compressibility (1/GPa) = 0.02141761
#
# Stress axis : x y z
#
# Youngs Moduli (GPa) = 46.99098 57.35851 62.70820
#
# Poissons Ratio (x) = 0.24075 0.38561
# Poissons Ratio (y) = 0.19724 0.39352
# Poissons Ratio (z) = 0.28896 0.35995
#
# Static dielectric constant tensor:
#      x y z
#    x 4.055200 -0.229300 -0.143860 
#    y -0.229300 3.679910 0.523340 
#    z -0.143860 0.523340 4.119580 
# 
# 
# High freq. dielectric constant tensor:
#      x y z
#    x 1.788250 0.005770 0.003010 
#    y 0.005770 1.764130 0.035710 
#    z 0.003010 0.035710 1.784560 
# 
# From -- ./inp_files/218851.got.cif
#   From: 2010.06.25/outbox.cif.g09.slc.cpg/sg2_110_cif.got.tgz:218851.got - 2010.06.27 13:26:56.
