data_PCOD8040344
_publ_section_title
;
Structure prediction by ZEFSAII (Michael W. Deem and Ramdas Pophale) SiO2 
 PCOD8040344
Probable space group: P -1
;
_chemical_formula_sum "Si O2"
_cell_formula_units_Z 16
_cell_length_a 8.783953
_cell_length_b 11.580056
_cell_length_c 21.659645
_cell_angle_alpha 50.127993
_cell_angle_beta 27.458136
_cell_angle_gamma 57.558662
_cell_volume 776.396310
_symmetry_space_group_name_H-M "P -1"
_symmetry_group_IT_number 2
_symmetry_cell_setting 'triclinic'
loop_
_space_group_symop_operation_xyz
x,y,z
-x,-y,-z
loop_
_atom_site_type_symbol
_atom_site_label
_atom_site_fract_x
_atom_site_fract_y
_atom_site_fract_z
Si Si1 0.400886 0.353840 0.432305
Si Si2 0.709741 0.303948 0.218945
Si Si3 0.333805 0.698126 0.314032
Si Si4 0.838765 0.855154 0.168330
Si Si5 0.515329 0.326443 0.539683
Si Si6 0.159448 0.167829 0.375773
Si Si7 0.736071 0.186773 0.077756
Si Si8 0.768347 0.649289 0.072050
O O1 0.679178 0.292503 0.308043
O O2 0.420663 0.535068 0.364036
O O3 0.453444 0.288949 0.503130
O O4 0.054125 0.285511 0.551065
O O5 0.426805 0.195849 0.324413
O O6 0.659479 0.474742 0.157293
O O7 0.079347 0.270262 0.073399
O O8 0.519742 0.821839 0.249328
O O9 0.454801 0.721380 0.190847
O O10 0.777503 0.766734 0.284771
O O11 0.872785 0.033378 0.108263
O O12 0.173388 0.805870 0.030734
O O13 0.500000 0.500000 0.500000
O O14 0.877858 0.282596 0.443125
O O15 0.346430 0.187167 0.234937
O O16 0.000000 0.000000 0.500000
O O17 0.935973 0.329688 0.990269
#
# Coordination Sequence:
#
# PCOD8040344 Si02
#       8
#     2   2   2   2   2   2   2   2
#     4  10  20  32  53  84 117 148 195 240 289 342
#     4   9  18  34  58  84 110 153 194 242 288 350
#     4   9  17  32  56  82 110 154 197 231 286 359
#     4  10  18  36  62  87 116 155 201 244 295 352
#     4  12  24  37  57  93 125 153 195 255 296 342
#     4  11  22  39  63  89 118 157 202 240 299 361
#     4   9  19  35  63  88 113 157 204 239 289 364
#     4   8  16  31  56  84 108 142 207 240 273 341
#
# _framework density 20.608032000000001
#
# number of rings (size 3 to 8) (size 9 to 14) (size 15 to 20)
#    0.000    2.250    2.500    0.750    3.500    0.000 
#    0.000    2.500    0.000    6.750    0.000    0.000 
#    0.000    0.000    0.000    0.000    0.000    0.000 
#
# Total GULP energy -198253.149526 kJ/mol
# GULP energy per Si atom -12390.821845 kJ/mol
# Density = 2.056113 g / cm^3
# Si number density = 20.608032 Si / 1000 Ang^3
#
#
#
# Elastic Constant Matrix: (Units=GPa)
#
#
# Indices 1 2 3 4 5 6 
#
# 1 54.8828 13.1501 33.2644 -5.0970 23.0725 15.6805
# 2 13.1501 65.4915 31.2285 2.2877 4.0952 9.6757
# 3 33.2644 31.2285 150.1838 14.9308 30.2827 8.7889
# 4 -5.0970 2.2877 14.9308 36.2045 18.2595 -1.7107
# 5 23.0725 4.0952 30.2827 18.2595 43.4156 1.9577
# 6 15.6805 9.6757 8.7889 -1.7107 1.9577 24.1908
#
#
#
# Elastic Compliance Matrix: (Units=1/GPa)
#
#
# Indices 1 2 3 4 5 6 
#
# 1 0.038808 -0.002162 -0.003882 0.018740 -0.024712 -0.019555
# 2 -0.002162 0.017906 -0.003340 -0.001653 0.002705 -0.004883
# 3 -0.003882 -0.003340 0.009007 -0.002585 -0.002845 0.000627
# 4 0.018740 -0.001653 -0.002585 0.044546 -0.026498 -0.005252
# 5 -0.024712 0.002705 -0.002845 -0.026498 0.048582 0.010165
# 6 -0.019555 -0.004883 0.000627 -0.005252 0.010165 0.054545
#
#
# Mechanical properties :
#
#
# Convention : Reuss Voigt Hill
#
# Bulk Modulus (GPa) = 21.29754 47.31600 34.30677
# Shear Modulus (GPa) = 20.17676 33.62319 26.89997
#
# Velocity S-wave (km/s) = 3.13241 4.04364 3.61683
# Velocity P-wave (km/s) = 4.84145 6.69411 5.84170
#
# Compressibility (1/GPa) = 0.04695378
#
# Stress axis : x y z
#
# Youngs Moduli (GPa) = 25.76810 55.84808 111.02724
#
# Poissons Ratio (x) = 0.12072 0.43100
# Poissons Ratio (y) = 0.05570 0.37080
# Poissons Ratio (z) = 0.10003 0.18652
#
# Static dielectric constant tensor:
#      x y z
#    x 3.400260 0.391750 0.160420 
#    y 0.391750 3.588620 0.296610 
#    z 0.160420 0.296610 4.450560 
# 
# 
# High freq. dielectric constant tensor:
#      x y z
#    x 1.749950 0.054460 0.006090 
#    y 0.054460 1.784240 0.012550 
#    z 0.006090 0.012550 1.844290 
# 
# From -- ./inp_files/391097.got.cif
#   From: 2010.06.25/outbox.cif.g09.slc.cpg/sg2_196_cif.got.tgz:391097.got - 2010.06.27 13:26:56.
