data_PCOD8040869
_publ_section_title
;
Structure prediction by ZEFSAII (Michael W. Deem and Ramdas Pophale) SiO2 
 PCOD8040869
Probable space group: P -1
;
_chemical_formula_sum "Si O2"
_cell_formula_units_Z 16
_cell_length_a 16.334499
_cell_length_b 9.005222
_cell_length_c 8.385241
_cell_angle_alpha 106.540225
_cell_angle_beta 127.564785
_cell_angle_gamma 49.158311
_cell_volume 726.157323
_symmetry_space_group_name_H-M "P -1"
_symmetry_group_IT_number 2
_symmetry_cell_setting 'triclinic'
loop_
_space_group_symop_operation_xyz
x,y,z
-x,-y,-z
loop_
_atom_site_type_symbol
_atom_site_label
_atom_site_fract_x
_atom_site_fract_y
_atom_site_fract_z
Si Si1 0.061077 0.608352 0.148863
Si Si2 0.568542 0.947555 0.816944
Si Si3 0.303313 0.215794 0.419645
Si Si4 0.827428 0.265375 0.928453
Si Si5 0.913433 0.025743 0.258157
Si Si6 0.324724 0.867203 0.821657
Si Si7 0.268206 0.926043 0.424257
Si Si8 0.539049 0.643839 0.784360
O O1 0.188888 0.455164 0.367426
O O2 0.110299 0.645233 0.056134
O O3 0.960462 0.811489 0.189986
O O4 0.000000 0.500000 0.000000
O O5 0.417652 0.147956 0.662779
O O6 0.639261 0.830076 0.703039
O O7 0.565812 0.802125 0.885289
O O8 0.654932 0.993985 0.018499
O O9 0.239371 0.107017 0.342576
O O10 0.829805 0.115326 0.767457
O O11 0.673273 0.426955 0.843644
O O12 0.917037 0.144175 0.152969
O O13 0.759360 0.164720 0.173679
O O14 0.000000 0.000000 0.500000
O O15 0.237582 0.984174 0.593222
O O16 0.467015 0.657691 0.869541
O O17 0.427341 0.730131 0.536255
#
# Coordination Sequence:
#
# PCOD8040869 Si02
#       8
#     2   2   2   2   2   2   2   2
#     4  12  26  46  71  98 129 185 238 271 316 406
#     4  10  18  39  65 103 136 166 209 293 340 391
#     4  10  21  38  68 101 132 173 230 270 333 395
#     4  12  23  46  72  93 134 173 229 279 336 390
#     4  12  29  49  65  95 141 187 225 274 328 403
#     4  10  22  41  66  95 143 166 221 270 350 388
#     4   9  21  40  68 105 131 169 207 280 347 401
#     4   9  21  36  71 101 132 165 217 272 348 393
#
# _framework density 22.033792999999999
#
# number of rings (size 3 to 8) (size 9 to 14) (size 15 to 20)
#    0.750    0.750    1.250    4.125    0.000    2.500 
#    2.250    1.250    0.000    0.000    0.000    0.000 
#    0.000    0.000    0.000    0.000    0.000    0.000 
#
# Total GULP energy -198302.947677 kJ/mol
# GULP energy per Si atom -12393.934230 kJ/mol
# Density = 2.198364 g / cm^3
# Si number density = 22.033793 Si / 1000 Ang^3
#
#
#
# Elastic Constant Matrix: (Units=GPa)
#
#
# Indices 1 2 3 4 5 6 
#
# 1 123.4320 49.5762 34.7660 2.6283 8.0672 4.1950
# 2 49.5762 83.6524 33.2875 -12.7142 -10.9851 3.4040
# 3 34.7660 33.2875 121.3522 8.5778 -3.7240 18.3564
# 4 2.6283 -12.7142 8.5778 29.4703 8.6755 -0.2143
# 5 8.0672 -10.9851 -3.7240 8.6755 18.0773 7.1814
# 6 4.1950 3.4040 18.3564 -0.2143 7.1814 36.4161
#
#
#
# Elastic Compliance Matrix: (Units=1/GPa)
#
#
# Indices 1 2 3 4 5 6 
#
# 1 0.012858 -0.008608 -0.002068 -0.000653 -0.012179 0.002764
# 2 -0.008608 0.021195 -0.003092 0.006775 0.013661 -0.002085
# 3 -0.002068 -0.003092 0.011381 -0.006638 0.007225 -0.006674
# 4 -0.000653 0.006775 -0.006638 0.045251 -0.021580 0.007310
# 5 -0.012179 0.013661 0.007225 -0.021580 0.089346 -0.021262
# 6 0.002764 -0.002085 -0.006674 0.007310 -0.021262 0.034937
#
#
# Mechanical properties :
#
#
# Convention : Reuss Voigt Hill
#
# Bulk Modulus (GPa) = 55.87325 62.63288 59.25307
# Shear Modulus (GPa) = 20.12318 30.84655 25.48486
#
# Velocity S-wave (km/s) = 3.02534 3.74567 3.40461
# Velocity P-wave (km/s) = 6.13324 6.86981 6.51195
#
# Compressibility (1/GPa) = 0.01789765
#
# Stress axis : x y z
#
# Youngs Moduli (GPa) = 77.77561 47.18177 87.86210
#
# Poissons Ratio (x) = 0.40615 0.18169
# Poissons Ratio (y) = 0.66950 0.27166
# Poissons Ratio (z) = 0.16083 0.14588
#
# Static dielectric constant tensor:
#      x y z
#    x 4.144580 -0.105650 0.051150 
#    y -0.105650 3.769140 -0.184530 
#    z 0.051150 -0.184530 3.862790 
# 
# 
# High freq. dielectric constant tensor:
#      x y z
#    x 1.880200 -0.001410 0.006880 
#    y -0.001410 1.844350 -0.007880 
#    z 0.006880 -0.007880 1.860770 
# 
# From -- ./inp_files/329338.got.cif
#   From: 2010.06.25/outbox.cif.g09.slc.cpg/sg2_165_cif.got.tgz:329338.got - 2010.06.27 13:26:56.
