data_PCOD8040468
_publ_section_title
;
Structure prediction by ZEFSAII (Michael W. Deem and Ramdas Pophale) SiO2 
 PCOD8040468
Probable space group: P -1
;
_chemical_formula_sum "Si O2"
_cell_formula_units_Z 16
_cell_length_a 16.444305
_cell_length_b 7.841230
_cell_length_c 23.046233
_cell_angle_alpha 129.998054
_cell_angle_beta 150.751535
_cell_angle_gamma 33.701467
_cell_volume 766.843081
_symmetry_space_group_name_H-M "P -1"
_symmetry_group_IT_number 2
_symmetry_cell_setting 'triclinic'
loop_
_space_group_symop_operation_xyz
x,y,z
-x,-y,-z
loop_
_atom_site_type_symbol
_atom_site_label
_atom_site_fract_x
_atom_site_fract_y
_atom_site_fract_z
Si Si1 0.090319 0.394676 0.712385
Si Si2 0.403781 0.763524 0.703973
Si Si3 0.882074 0.882499 0.509620
Si Si4 0.119206 0.587533 0.126099
Si Si5 0.009869 0.176778 0.718890
Si Si6 0.402021 0.230635 0.339912
Si Si7 0.730887 0.586977 0.436522
Si Si8 0.218055 0.783415 0.875292
O O1 0.083959 0.325846 0.761164
O O2 0.107290 0.643848 0.770806
O O3 0.849107 0.541842 0.561749
O O4 0.326312 0.056682 0.755947
O O5 0.694177 0.477207 0.816471
O O6 0.288854 0.657998 0.638228
O O7 0.303037 0.862522 0.598498
O O8 0.083582 0.521927 0.525657
O O9 0.694211 0.996634 0.468789
O O10 0.031451 0.946397 0.640194
O O11 0.263637 0.349743 0.219248
O O12 0.917404 0.961681 0.100584
O O13 0.000000 0.500000 0.000000
O O14 0.736014 0.474531 0.637288
O O15 0.184484 0.962552 0.835288
O O16 0.449223 0.939923 0.333205
O O17 0.500000 0.500000 0.000000
#
# Coordination Sequence:
#
# PCOD8040468 Si02
#       8
#     2   2   2   2   2   2   2   2
#     4  11  22  41  65  93 130 166 200 253 307 367
#     4  10  20  38  62  90 129 159 201 253 298 362
#     4  10  18  37  57  88 129 164 198 248 300 367
#     4  10  23  45  64  84 120 161 210 262 306 359
#     4  11  22  40  61  92 130 159 205 254 311 366
#     4  10  23  34  60  92 124 158 204 255 307 367
#     4  11  20  36  61  96 126 164 200 241 310 369
#     4  11  26  44  66  90 119 165 213 256 313 365
#
# _framework density 20.864763
#
# number of rings (size 3 to 8) (size 9 to 14) (size 15 to 20)
#    0.000    1.500    2.500    3.000    1.750    6.000 
#    0.000    0.625    0.000    0.000    0.000    0.000 
#    0.000    0.000    0.000    0.000    0.000    0.000 
#
# Total GULP energy -198264.707022 kJ/mol
# GULP energy per Si atom -12391.544189 kJ/mol
# Density = 2.081727 g / cm^3
# Si number density = 20.864763 Si / 1000 Ang^3
#
#
#
# Elastic Constant Matrix: (Units=GPa)
#
#
# Indices 1 2 3 4 5 6 
#
# 1 104.7673 37.6383 36.6288 -5.9983 -3.7608 -5.3240
# 2 37.6383 144.0948 61.5033 -11.8961 -2.5961 -14.4441
# 3 36.6288 61.5033 85.1554 -8.9294 12.6995 -9.4371
# 4 -5.9983 -11.8961 -8.9294 42.9646 -0.8314 2.3356
# 5 -3.7608 -2.5961 12.6995 -0.8314 19.5143 -2.0440
# 6 -5.3240 -14.4441 -9.4371 2.3356 -2.0440 30.3254
#
#
#
# Elastic Compliance Matrix: (Units=1/GPa)
#
#
# Indices 1 2 3 4 5 6 
#
# 1 0.011933 -0.000587 -0.005484 0.000452 0.005859 0.000469
# 2 -0.000587 0.011257 -0.008500 0.001246 0.007285 0.003009
# 3 -0.005484 -0.008500 0.023014 0.001285 -0.017015 0.000905
# 4 0.000452 0.001246 0.001285 0.023998 0.000360 -0.000751
# 5 0.005859 0.007285 -0.017015 0.000360 0.064802 0.003543
# 6 0.000469 0.003009 0.000905 -0.000751 0.003543 0.035069
#
#
# Mechanical properties :
#
#
# Convention : Reuss Voigt Hill
#
# Bulk Modulus (GPa) = 58.60706 67.28428 62.94567
# Shear Modulus (GPa) = 24.40203 31.77733 28.08968
#
# Velocity S-wave (km/s) = 3.42355 3.90682 3.67314
# Velocity P-wave (km/s) = 6.61647 7.25732 6.94429
#
# Compressibility (1/GPa) = 0.01706279
#
# Stress axis : x y z
#
# Youngs Moduli (GPa) = 83.80236 88.83452 43.45225
#
# Poissons Ratio (x) = 0.05210 0.23827
# Poissons Ratio (y) = 0.04915 0.36936
# Poissons Ratio (z) = 0.45953 0.75512
#
# Static dielectric constant tensor:
#      x y z
#    x 3.988520 0.038240 0.015120 
#    y 0.038240 3.984180 -0.193220 
#    z 0.015120 -0.193220 3.523100 
# 
# 
# High freq. dielectric constant tensor:
#      x y z
#    x 1.826410 -0.002800 -0.000240 
#    y -0.002800 1.838140 -0.011180 
#    z -0.000240 -0.011180 1.786720 
# 
# From -- ./inp_files/187447.got.cif
#   From: 2010.06.25/outbox.cif.g09.slc.cpg/sg2_94_cif.got.tgz:187447.got - 2010.06.27 13:26:56.
