data_PCOD8040211
_publ_section_title
;
Structure prediction by ZEFSAII (Michael W. Deem and Ramdas Pophale) SiO2 
 PCOD8040211
Probable space group: P -1
;
_chemical_formula_sum "Si O2"
_cell_formula_units_Z 16
_cell_length_a 10.454760
_cell_length_b 9.688942
_cell_length_c 17.401300
_cell_angle_alpha 64.628549
_cell_angle_beta 137.634890
_cell_angle_gamma 83.869238
_cell_volume 771.256638
_symmetry_space_group_name_H-M "P -1"
_symmetry_group_IT_number 2
_symmetry_cell_setting 'triclinic'
loop_
_space_group_symop_operation_xyz
x,y,z
-x,-y,-z
loop_
_atom_site_type_symbol
_atom_site_label
_atom_site_fract_x
_atom_site_fract_y
_atom_site_fract_z
Si Si1 0.535263 0.025860 0.885493
Si Si2 0.731371 0.212514 0.866291
Si Si3 0.499743 0.924174 0.600734
Si Si4 0.810466 0.629414 0.620025
Si Si5 0.075950 0.648535 0.990851
Si Si6 0.164961 0.376469 0.976224
Si Si7 0.933589 0.764389 0.262362
Si Si8 0.438070 0.656473 0.555792
O O1 0.528056 0.190354 0.798420
O O2 0.254197 0.150062 0.768155
O O3 0.592399 0.863081 0.886306
O O4 0.770325 0.902707 0.081303
O O5 0.581041 0.418008 0.697551
O O6 0.812612 0.243678 0.977297
O O7 0.000000 0.000000 0.000000
O O8 0.289858 0.144761 0.503544
O O9 0.500000 0.000000 0.500000
O O10 0.781044 0.795042 0.794518
O O11 0.426707 0.785319 0.591566
O O12 0.576764 0.653219 0.543988
O O13 0.929129 0.476502 0.635442
O O14 0.030799 0.531740 0.806875
O O15 0.065211 0.590793 0.088550
O O16 0.268119 0.445711 0.067051
O O17 0.139578 0.782760 0.368560
#
# Coordination Sequence:
#
# PCOD8040211 Si02
#       8
#     2   2   2   2   2   2   2   2
#     4  10  23  41  56  89 117 161 200 236 291 347
#     4  12  23  36  60  91 117 149 197 241 293 354
#     4  10  21  34  56  90 121 145 187 242 297 347
#     4  10  19  37  58  91 116 150 195 242 288 343
#     4  11  19  34  57  87 117 151 177 251 296 337
#     4  10  18  36  58  82 121 146 193 234 289 348
#     4  10  23  39  62  80 125 160 194 243 290 339
#     4  11  21  38  56  92 117 152 195 247 287 347
#
# _framework density 20.745366000000001
#
# number of rings (size 3 to 8) (size 9 to 14) (size 15 to 20)
#    0.000    1.500    5.000    1.875    5.250    0.500 
#    0.000    1.250    0.000    6.750    0.000    0.000 
#    0.000    0.000    0.000    0.000    0.000    0.000 
#
# Total GULP energy -198273.595891 kJ/mol
# GULP energy per Si atom -12392.099743 kJ/mol
# Density = 2.069815 g / cm^3
# Si number density = 20.745366 Si / 1000 Ang^3
#
#
#
# Elastic Constant Matrix: (Units=GPa)
#
#
# Indices 1 2 3 4 5 6 
#
# 1 69.2966 49.6814 16.7387 -15.5579 14.1926 -11.0919
# 2 49.6814 165.0586 44.9942 -23.5823 17.6898 -18.7621
# 3 16.7387 44.9942 64.2031 -9.2403 7.4731 3.2193
# 4 -15.5579 -23.5823 -9.2403 40.1316 1.6533 -2.1877
# 5 14.1926 17.6898 7.4731 1.6533 25.8680 -6.3786
# 6 -11.0919 -18.7621 3.2193 -2.1877 -6.3786 27.8550
#
#
#
# Elastic Compliance Matrix: (Units=1/GPa)
#
#
# Indices 1 2 3 4 5 6 
#
# 1 0.021238 -0.003734 -0.001325 0.006321 -0.007943 0.004772
# 2 -0.003734 0.010113 -0.005650 0.003594 -0.002036 0.005794
# 3 -0.001325 -0.005650 0.020730 0.000670 -0.003272 -0.007426
# 4 0.006321 0.003594 0.000670 0.030219 -0.006642 0.005713
# 5 -0.007943 -0.002036 -0.003272 -0.006642 0.047295 0.006153
# 6 0.004772 0.005794 -0.007426 0.005713 0.006153 0.044419
#
#
# Mechanical properties :
#
#
# Convention : Reuss Voigt Hill
#
# Bulk Modulus (GPa) = 32.61329 57.93190 45.27260
# Shear Modulus (GPa) = 24.31282 31.24719 27.78000
#
# Velocity S-wave (km/s) = 3.42711 3.88522 3.66333
# Velocity P-wave (km/s) = 5.60491 6.93631 6.30585
#
# Compressibility (1/GPa) = 0.03066235
#
# Stress axis : x y z
#
# Youngs Moduli (GPa) = 47.08545 98.88499 48.23912
#
# Poissons Ratio (x) = 0.36928 0.06391
# Poissons Ratio (y) = 0.17584 0.27255
# Poissons Ratio (z) = 0.06238 0.55869
#
# Static dielectric constant tensor:
#      x y z
#    x 3.497180 -0.057180 -0.302510 
#    y -0.057180 4.572340 -0.248120 
#    z -0.302510 -0.248120 4.110980 
# 
# 
# High freq. dielectric constant tensor:
#      x y z
#    x 1.751910 -0.006720 -0.014190 
#    y -0.006720 1.839730 -0.007650 
#    z -0.014190 -0.007650 1.813000 
# 
# From -- ./inp_files/565889.got.cif
#   From: 2010.06.25/outbox.cif.g09.slc.cpg/sg2_283_cif.got.tgz:565889.got - 2010.06.27 13:26:56.
