data_PCOD8040124
_publ_section_title
;
Structure prediction by ZEFSAII (Michael W. Deem and Ramdas Pophale) SiO2 
 PCOD8040124
Probable space group: P -1
;
_chemical_formula_sum "Si O2"
_cell_formula_units_Z 16
_cell_length_a 9.082188
_cell_length_b 14.703077
_cell_length_c 15.581770
_cell_angle_alpha 137.351760
_cell_angle_beta 33.417452
_cell_angle_gamma 132.896067
_cell_volume 763.841662
_symmetry_space_group_name_H-M "P -1"
_symmetry_group_IT_number 2
_symmetry_cell_setting 'triclinic'
loop_
_space_group_symop_operation_xyz
x,y,z
-x,-y,-z
loop_
_atom_site_type_symbol
_atom_site_label
_atom_site_fract_x
_atom_site_fract_y
_atom_site_fract_z
Si Si1 0.113473 0.328447 0.414543
Si Si2 0.910167 0.082291 0.891798
Si Si3 0.401127 0.494599 0.775175
Si Si4 0.953722 0.613273 0.986327
Si Si5 0.788859 0.456722 0.354231
Si Si6 0.544132 0.765664 0.539663
Si Si7 0.323828 0.910656 0.597726
Si Si8 0.342972 0.113229 0.256136
O O1 0.287260 0.425486 0.325072
O O2 0.033978 0.429253 0.594512
O O3 0.320870 0.239667 0.292753
O O4 0.829765 0.240242 0.460802
O O5 0.858349 0.017149 0.775555
O O6 0.077492 0.230889 0.898145
O O7 0.645867 0.082685 0.078389
O O8 0.093909 0.995659 0.796992
O O9 0.205527 0.598269 0.914316
O O10 0.338040 0.356929 0.650359
O O11 0.331985 0.457991 0.882425
O O12 0.004127 0.548938 0.826779
O O13 0.500000 0.500000 0.500000
O O14 0.726400 0.309833 0.330802
O O15 0.498843 0.882265 0.575035
O O16 0.728635 0.849593 0.584713
O O17 0.500000 0.000000 0.500000
#
# Coordination Sequence:
#
# PCOD8040124 Si02
#       8
#     2   2   2   2   2   2   2   2
#     4  10  19  40  65  88 119 157 209 247 310 361
#     4  10  20  36  61  86 123 157 200 254 299 354
#     4  10  20  31  61  90 120 153 193 262 306 358
#     4  11  18  34  57  96 125 148 197 259 317 343
#     4  11  17  34  65  93 120 154 201 262 299 355
#     4  11  20  39  63  88 120 161 211 239 311 362
#     4  11  26  42  59  84 129 171 200 245 302 373
#     4  10  18  35  65  90 109 160 211 254 290 356
#
# _framework density 20.946750999999999
#
# number of rings (size 3 to 8) (size 9 to 14) (size 15 to 20)
#    0.000    1.500    6.250    0.750    0.000    2.500 
#    0.000    8.125    2.750    2.250    0.000    0.000 
#    0.000    0.000    0.000    0.000    0.000    0.000 
#
# Total GULP energy -198225.399624 kJ/mol
# GULP energy per Si atom -12389.087476 kJ/mol
# Density = 2.089908 g / cm^3
# Si number density = 20.946751 Si / 1000 Ang^3
#
#
#
# Elastic Constant Matrix: (Units=GPa)
#
#
# Indices 1 2 3 4 5 6 
#
# 1 57.9024 30.4883 24.9372 -0.2143 10.5731 -9.6632
# 2 30.4883 109.5281 46.3574 -6.4243 20.7185 0.4664
# 3 24.9372 46.3574 99.4407 -8.4882 31.3492 1.6557
# 4 -0.2143 -6.4243 -8.4882 38.5430 -6.9396 3.5808
# 5 10.5731 20.7185 31.3492 -6.9396 29.4519 0.4757
# 6 -9.6632 0.4664 1.6557 3.5808 0.4757 30.5827
#
#
#
# Elastic Compliance Matrix: (Units=1/GPa)
#
#
# Indices 1 2 3 4 5 6 
#
# 1 0.022837 -0.004790 -0.003144 -0.002482 -0.002193 0.007784
# 2 -0.004790 0.012636 -0.003614 0.000872 -0.003091 -0.001565
# 3 -0.003144 -0.003614 0.017158 0.000728 -0.014392 -0.001729
# 4 -0.002482 0.000872 0.000728 0.027724 0.006102 -0.004178
# 5 -0.002193 -0.003091 -0.014392 0.006102 0.053696 -0.001416
# 6 0.007784 -0.001565 -0.001729 -0.004178 -0.001416 0.035786
#
#
# Mechanical properties :
#
#
# Convention : Reuss Voigt Hill
#
# Bulk Modulus (GPa) = 33.85980 52.27080 43.06530
# Shear Modulus (GPa) = 24.65753 30.72141 27.68947
#
# Velocity S-wave (km/s) = 3.43469 3.83383 3.63974
# Velocity P-wave (km/s) = 5.65060 6.67877 6.18608
#
# Compressibility (1/GPa) = 0.02953355
#
# Stress axis : x y z
#
# Youngs Moduli (GPa) = 43.78871 79.14038 58.28253
#
# Poissons Ratio (x) = 0.37909 0.18325
# Poissons Ratio (y) = 0.20975 0.21065
# Poissons Ratio (z) = 0.13768 0.28603
#
# Static dielectric constant tensor:
#      x y z
#    x 3.601470 -0.149230 0.191250 
#    y -0.149230 4.016140 0.224960 
#    z 0.191250 0.224960 3.939780 
# 
# 
# High freq. dielectric constant tensor:
#      x y z
#    x 1.785780 -0.014240 0.007990 
#    y -0.014240 1.824290 0.016090 
#    z 0.007990 0.016090 1.818600 
# 
# From -- ./inp_files/504241.got.cif
#   From: 2010.06.25/outbox.cif.g09.slc.cpg/sg2_253_cif.got.tgz:504241.got - 2010.06.27 13:26:56.
