data_PCOD8040112
_publ_section_title
;
Structure prediction by ZEFSAII (Michael W. Deem and Ramdas Pophale) SiO2 
 PCOD8040112
Probable space group: P -1
;
_chemical_formula_sum "Si O2"
_cell_formula_units_Z 16
_cell_length_a 12.244983
_cell_length_b 7.420972
_cell_length_c 9.558116
_cell_angle_alpha 91.391088
_cell_angle_beta 97.431178
_cell_angle_gamma 54.542594
_cell_volume 700.140760
_symmetry_space_group_name_H-M "P -1"
_symmetry_group_IT_number 2
_symmetry_cell_setting 'triclinic'
loop_
_space_group_symop_operation_xyz
x,y,z
-x,-y,-z
loop_
_atom_site_type_symbol
_atom_site_label
_atom_site_fract_x
_atom_site_fract_y
_atom_site_fract_z
Si Si1 0.917000 0.421952 0.552109
Si Si2 0.316013 0.721908 0.357384
Si Si3 0.594352 0.345991 0.324127
Si Si4 0.533027 0.991460 0.339367
Si Si5 0.242382 0.507813 0.727966
Si Si6 0.950042 0.173354 0.796423
Si Si7 0.981289 0.282044 0.100608
Si Si8 0.243552 0.178230 0.276043
O O1 0.859943 0.357624 0.415294
O O2 0.012521 0.211263 0.668868
O O3 0.793728 0.627934 0.620945
O O4 0.000000 0.500000 0.500000
O O5 0.446338 0.571225 0.278140
O O6 0.352074 0.628464 0.518126
O O7 0.206408 0.695812 0.269867
O O8 0.262864 0.975786 0.360600
O O9 0.690060 0.358620 0.226508
O O10 0.592001 0.132167 0.312469
O O11 0.643224 0.745366 0.299094
O O12 0.500000 0.000000 0.500000
O O13 0.390431 0.093494 0.233855
O O14 0.154252 0.511468 0.843390
O O15 0.961263 0.298484 0.931437
O O16 0.016530 0.920871 0.838051
O O17 0.119211 0.264217 0.148027
#
# Coordination Sequence:
#
# PCOD8040112 Si02
#       8
#     2   2   2   2   2   2   2   2
#     4  12  23  38  65 103 133 167 222 284 336 389
#     4  10  18  35  64  92 124 171 222 266 328 391
#     4  11  20  35  64 100 128 170 211 277 339 382
#     4  12  21  36  66  99 138 167 218 275 337 404
#     4  12  23  41  63 105 134 166 220 285 330 391
#     4  10  23  44  67  91 129 186 228 260 332 413
#     4  10  25  45  66  92 135 181 223 272 331 392
#     4  11  21  38  62  96 132 173 216 272 330 398
#
# _framework density 22.852547999999999
#
# number of rings (size 3 to 8) (size 9 to 14) (size 15 to 20)
#    0.000    1.000    6.250    1.500    0.000    3.000 
#    0.000    0.625    0.000    1.500    0.000    0.000 
#    0.000    0.000    0.000    0.000    0.000    0.000 
#
# Total GULP energy -198245.018163 kJ/mol
# GULP energy per Si atom -12390.313635 kJ/mol
# Density = 2.280053 g / cm^3
# Si number density = 22.852548 Si / 1000 Ang^3
#
#
#
# Elastic Constant Matrix: (Units=GPa)
#
#
# Indices 1 2 3 4 5 6 
#
# 1 152.5358 21.6478 34.8578 -4.3810 6.3911 -4.0684
# 2 21.6478 67.8260 4.4333 2.4703 -3.9189 1.6761
# 3 34.8578 4.4333 58.1926 5.1931 7.3795 -8.7809
# 4 -4.3810 2.4703 5.1931 22.3919 3.3038 -3.3220
# 5 6.3911 -3.9189 7.3795 3.3038 30.7808 -7.1977
# 6 -4.0684 1.6761 -8.7809 -3.3220 -7.1977 39.7156
#
#
#
# Elastic Compliance Matrix: (Units=1/GPa)
#
#
# Indices 1 2 3 4 5 6 
#
# 1 0.008150 -0.002467 -0.004835 0.003153 -0.001205 -0.000085
# 2 -0.002467 0.015794 0.000085 -0.002731 0.002644 -0.000650
# 3 -0.004835 0.000085 0.021374 -0.005010 -0.002800 0.003300
# 4 0.003153 -0.002731 -0.005010 0.047755 -0.004333 0.002540
# 5 -0.001205 0.002644 -0.002800 -0.004333 0.035428 0.005204
# 6 -0.000085 -0.000650 0.003300 0.002540 0.005204 0.027083
#
#
# Mechanical properties :
#
#
# Convention : Reuss Voigt Hill
#
# Bulk Modulus (GPa) = 32.38009 44.49245 38.43627
# Shear Modulus (GPa) = 27.72950 33.08535 30.40742
#
# Velocity S-wave (km/s) = 3.48718 3.80909 3.65169
# Velocity P-wave (km/s) = 5.51487 6.23355 5.88519
#
# Compressibility (1/GPa) = 0.03088318
#
# Stress axis : x y z
#
# Youngs Moduli (GPa) = 122.70280 63.31568 46.78522
#
# Poissons Ratio (x) = 0.15623 0.22621
# Poissons Ratio (y) = 0.30277 -0.00399
# Poissons Ratio (z) = 0.59328 -0.00540
#
# Static dielectric constant tensor:
#      x y z
#    x 4.635860 -0.115020 0.025600 
#    y -0.115020 4.233190 -0.173880 
#    z 0.025600 -0.173880 3.537430 
# 
# 
# High freq. dielectric constant tensor:
#      x y z
#    x 1.927220 0.005230 0.008890 
#    y 0.005230 1.906520 -0.009940 
#    z 0.008890 -0.009940 1.851300 
# 
# From -- ./inp_files/244032.got.cif
#   From: 2010.06.25/outbox.cif.g09.slc.cpg/sg2_123_cif.got.tgz:244032.got - 2010.06.27 13:26:56.
