data_PCOD8040019
_publ_section_title
;
Structure prediction by ZEFSAII (Michael W. Deem and Ramdas Pophale) SiO2 
 PCOD8040019
Probable space group: P -1
;
_chemical_formula_sum "Si O2"
_cell_formula_units_Z 14
_cell_length_a 14.771260
_cell_length_b 7.045864
_cell_length_c 12.112008
_cell_angle_alpha 113.563044
_cell_angle_beta 99.118123
_cell_angle_gamma 122.066680
_cell_volume 860.477585
_symmetry_space_group_name_H-M "P -1"
_symmetry_group_IT_number 2
_symmetry_cell_setting 'triclinic'
loop_
_space_group_symop_operation_xyz
x,y,z
-x,-y,-z
loop_
_atom_site_type_symbol
_atom_site_label
_atom_site_fract_x
_atom_site_fract_y
_atom_site_fract_z
Si Si1 0.368456 0.384374 0.127276
Si Si2 0.420485 0.273832 0.340418
Si Si3 0.521400 0.056483 0.833003
Si Si4 0.667923 0.112079 0.076495
Si Si5 0.096662 0.482849 0.892087
Si Si6 0.872391 0.738447 0.958721
Si Si7 0.843187 0.245050 0.812768
O O1 0.426166 0.418680 0.264854
O O2 0.228075 0.238914 0.078756
O O3 0.448784 0.684408 0.160217
O O4 0.373260 0.188184 0.005626
O O5 0.500000 0.500000 0.500000
O O6 0.474713 0.124906 0.295501
O O7 0.282157 0.056666 0.307857
O O8 0.387581 0.871553 0.819385
O O9 0.621775 0.165431 0.971603
O O10 0.814359 0.361264 0.160469
O O11 0.955934 0.299669 0.785023
O O12 0.115232 0.290496 0.913802
O O13 0.131340 0.719735 0.040919
O O14 0.833670 0.470333 0.824422
O O15 0.000000 0.000000 0.000000
#
# Coordination Sequence:
#
# PCOD8040019 Si02
#       7
#     2   2   2   2   2   2   2
#     4  11  17  31  49  74  98 130 164 196 249 291
#     4  11  22  36  50  68 100 138 170 204 234 278
#     4  10  19  33  46  73 102 129 164 198 238 301
#     4  10  18  30  49  73 106 128 150 200 256 296
#     4   9  15  29  48  70 105 126 147 202 255 293
#     4  10  15  24  46  75 103 123 152 198 250 301
#     4   9  16  31  45  71 104 125 160 199 246 286
#
# _framework density 16.270036000000001
#
# number of rings (size 3 to 8) (size 9 to 14) (size 15 to 20)
#    0.857    1.143    5.714    2.143    0.000    0.571 
#    0.000    0.000    0.000    0.857    0.000    1.000 
#    0.000    0.000    0.000    0.000    0.000    0.000 
#
# Total GULP energy -173505.258412 kJ/mol
# GULP energy per Si atom -12393.232744 kJ/mol
# Density = 1.623300 g / cm^3
# Si number density = 16.270036 Si / 1000 Ang^3
#
#
#
# Elastic Constant Matrix: (Units=GPa)
#
#
# Indices 1 2 3 4 5 6 
#
# 1 111.5455 44.2445 33.7274 4.6758 -0.1117 20.6440
# 2 44.2445 109.0455 28.8846 10.8199 -2.3023 6.9635
# 3 33.7274 28.8846 56.0475 11.9876 3.4364 9.1360
# 4 4.6758 10.8199 11.9876 12.9033 3.8017 6.0600
# 5 -0.1117 -2.3023 3.4364 3.8017 13.7361 1.4752
# 6 20.6440 6.9635 9.1360 6.0600 1.4752 40.7143
#
#
#
# Elastic Compliance Matrix: (Units=1/GPa)
#
#
# Indices 1 2 3 4 5 6 
#
# 1 0.013286 -0.004038 -0.006558 0.007437 -0.000378 -0.005668
# 2 -0.004038 0.012373 -0.002664 -0.008659 0.004928 0.001639
# 3 -0.006558 -0.002664 0.027612 -0.020895 -0.001706 0.000757
# 4 0.007437 -0.008659 -0.020895 0.115875 -0.026744 -0.013879
# 5 -0.000378 0.004928 -0.001706 -0.026744 0.081370 0.000764
# 6 -0.005668 0.001639 0.000757 -0.013879 0.000764 0.029023
#
#
# Mechanical properties :
#
#
# Convention : Reuss Voigt Hill
#
# Bulk Modulus (GPa) = 37.38143 54.48348 45.93245
# Shear Modulus (GPa) = 15.87423 24.78954 20.33189
#
# Velocity S-wave (km/s) = 3.12696 3.90761 3.53888
# Velocity P-wave (km/s) = 6.00522 7.34295 6.70752
#
# Compressibility (1/GPa) = 0.02675125
#
# Stress axis : x y z
#
# Youngs Moduli (GPa) = 75.26615 80.82147 36.21667
#
# Poissons Ratio (x) = 0.32633 0.23751
# Poissons Ratio (y) = 0.30390 0.09649
# Poissons Ratio (z) = 0.49359 0.21533
#
# Static dielectric constant tensor:
#      x y z
#    x 3.363810 -0.014260 0.011260 
#    y -0.014260 3.106850 0.038040 
#    z 0.011260 0.038040 2.434610 
# 
# 
# High freq. dielectric constant tensor:
#      x y z
#    x 1.642000 0.002220 0.005370 
#    y 0.002220 1.640900 0.010050 
#    z 0.005370 0.010050 1.542060 
# 
# From -- ./inp_files/440716.got.cif
#   From: 2010.06.25/outbox.cif.g09.slc.cpg/sg2_221_cif.got.tgz:440716.got - 2010.06.27 13:26:56.
