data_PCOD8040991
_publ_section_title
;
Structure prediction by ZEFSAII (Michael W. Deem and Ramdas Pophale) SiO2 
 PCOD8040991
Probable space group: P -1
;
_chemical_formula_sum "Si O2"
_cell_formula_units_Z 16
_cell_length_a 9.318173
_cell_length_b 6.300048
_cell_length_c 21.868201
_cell_angle_alpha 61.049822
_cell_angle_beta 34.930451
_cell_angle_gamma 64.136030
_cell_volume 641.220262
_symmetry_space_group_name_H-M "P -1"
_symmetry_group_IT_number 2
_symmetry_cell_setting 'triclinic'
loop_
_space_group_symop_operation_xyz
x,y,z
-x,-y,-z
loop_
_atom_site_type_symbol
_atom_site_label
_atom_site_fract_x
_atom_site_fract_y
_atom_site_fract_z
Si Si1 0.993090 0.284565 0.448773
Si Si2 0.035157 0.544196 0.279057
Si Si3 0.591601 0.548442 0.632883
Si Si4 0.309060 0.903692 0.951111
Si Si5 0.776702 0.852741 0.176005
Si Si6 0.451350 0.246902 0.943057
Si Si7 0.761268 0.013517 0.292689
Si Si8 0.811403 0.674806 0.864309
O O1 0.217706 0.416826 0.383069
O O2 0.005519 0.317638 0.366333
O O3 0.732316 0.419822 0.544158
O O4 0.000000 0.000000 0.500000
O O5 0.010114 0.486896 0.222842
O O6 0.301980 0.646855 0.184210
O O7 0.803810 0.746538 0.345875
O O8 0.462692 0.815262 0.621692
O O9 0.374362 0.381514 0.754109
O O10 0.278411 0.937255 0.884758
O O11 0.315025 0.440455 0.013508
O O12 0.587257 0.785439 0.883920
O O13 0.284378 0.174901 0.953733
O O14 0.691847 0.985012 0.249807
O O15 0.076739 0.763890 0.081147
O O16 0.500000 0.000000 0.000000
O O17 0.029325 0.121938 0.190474
#
# Coordination Sequence:
#
# PCOD8040991 Si02
#       8
#     2   2   2   2   2   2   2   2
#     4  11  28  54  79 108 141 192 258 317 378 439
#     4  12  25  42  77 109 145 202 244 301 371 436
#     4  11  27  48  79 101 146 195 241 322 375 430
#     4  10  21  41  69 108 155 200 251 287 364 445
#     4  11  23  44  71 108 153 200 243 308 363 438
#     4  10  18  41  66 109 154 192 241 290 353 447
#     4  12  24  45  71 111 153 190 245 299 368 442
#     4  11  23  39  72 109 156 201 241 292 361 450
#
# _framework density 24.952425999999999
#
# number of rings (size 3 to 8) (size 9 to 14) (size 15 to 20)
#    0.000    1.000    3.750    3.375    3.500    2.500 
#    0.000    5.625    0.000    0.000    0.000    0.000 
#    0.000    0.000    0.000    0.000    0.000    0.000 
#
# Total GULP energy -198298.780996 kJ/mol
# GULP energy per Si atom -12393.673812 kJ/mol
# Density = 2.489563 g / cm^3
# Si number density = 24.952426 Si / 1000 Ang^3
#
#
#
# Elastic Constant Matrix: (Units=GPa)
#
#
# Indices 1 2 3 4 5 6 
#
# 1 98.6908 23.1077 43.8827 -2.3731 -3.9897 17.0011
# 2 23.1077 155.5137 55.6744 24.4819 2.6402 -0.7097
# 3 43.8827 55.6744 117.8674 -9.9066 12.1966 4.6488
# 4 -2.3731 24.4819 -9.9066 32.2164 -0.3322 -6.0754
# 5 -3.9897 2.6402 12.1966 -0.3322 42.4712 -0.6835
# 6 17.0011 -0.7097 4.6488 -6.0754 -0.6835 38.2020
#
#
#
# Elastic Compliance Matrix: (Units=1/GPa)
#
#
# Indices 1 2 3 4 5 6 
#
# 1 0.013479 0.000075 -0.005253 -0.001705 0.002667 -0.005581
# 2 0.000075 0.009840 -0.005524 -0.009281 0.000899 -0.000639
# 3 -0.005253 -0.005524 0.014113 0.008445 -0.004108 0.001787
# 4 -0.001705 -0.009281 0.008445 0.041711 -0.001583 0.006164
# 5 0.002667 0.000899 -0.004108 -0.001583 0.024900 -0.000476
# 6 -0.005581 -0.000639 0.001787 0.006164 -0.000476 0.029403
#
#
# Mechanical properties :
#
#
# Convention : Reuss Voigt Hill
#
# Bulk Modulus (GPa) = 62.38570 68.60020 65.49295
# Shear Modulus (GPa) = 31.21275 39.20505 35.20890
#
# Velocity S-wave (km/s) = 3.54063 3.96813 3.76046
# Velocity P-wave (km/s) = 6.46304 6.96755 6.72003
#
# Compressibility (1/GPa) = 0.01602932
#
# Stress axis : x y z
#
# Youngs Moduli (GPa) = 74.18907 101.63063 70.85480
#
# Poissons Ratio (x) = -0.00766 0.37220
# Poissons Ratio (y) = -0.00559 0.39138
# Poissons Ratio (z) = 0.38972 0.56137
#
# Static dielectric constant tensor:
#      x y z
#    x 4.745470 0.443100 -0.193320 
#    y 0.443100 5.112690 0.219940 
#    z -0.193320 0.219940 4.270140 
# 
# 
# High freq. dielectric constant tensor:
#      x y z
#    x 2.000910 0.009260 -0.014800 
#    y 0.009260 2.010240 0.004620 
#    z -0.014800 0.004620 1.974580 
# 
# From -- ./inp_files/339872.got.cif
#   From: 2010.06.25/outbox.cif.g09.slc.cpg/sg2_170_cif.got.tgz:339872.got - 2010.06.27 13:26:56.
