data_PCOD8040506
_publ_section_title
;
Structure prediction by ZEFSAII (Michael W. Deem and Ramdas Pophale) SiO2 
 PCOD8040506
Probable space group: P -1
;
_chemical_formula_sum "Si O2"
_cell_formula_units_Z 16
_cell_length_a 7.203613
_cell_length_b 7.885220
_cell_length_c 17.845408
_cell_angle_alpha 82.394329
_cell_angle_beta 63.400296
_cell_angle_gamma 121.036802
_cell_volume 683.791099
_symmetry_space_group_name_H-M "P -1"
_symmetry_group_IT_number 2
_symmetry_cell_setting 'triclinic'
loop_
_space_group_symop_operation_xyz
x,y,z
-x,-y,-z
loop_
_atom_site_type_symbol
_atom_site_label
_atom_site_fract_x
_atom_site_fract_y
_atom_site_fract_z
Si Si1 0.184262 0.938469 0.117246
Si Si2 0.788989 0.611725 0.474573
Si Si3 0.371087 0.499277 0.340251
Si Si4 0.881101 0.557513 0.304573
Si Si5 0.604039 0.062514 0.366823
Si Si6 0.275189 0.038562 0.804340
Si Si7 0.854260 0.026441 0.454634
Si Si8 0.209785 0.760364 0.972976
O O1 0.132487 0.762599 0.198487
O O2 0.009914 0.016989 0.157500
O O3 0.501061 0.163324 0.055744
O O4 0.099088 0.813740 0.059226
O O5 0.500000 0.500000 0.500000
O O6 0.753936 0.472647 0.563175
O O7 0.964817 0.631604 0.372977
O O8 0.906662 0.854468 0.474209
O O9 0.613298 0.509809 0.326367
O O10 0.484440 0.690911 0.246218
O O11 0.135012 0.260108 0.361118
O O12 0.833883 0.331165 0.320580
O O13 0.662297 0.936379 0.420707
O O14 0.631409 0.024044 0.278680
O O15 0.299924 0.965126 0.447755
O O16 0.251847 0.910663 0.888218
O O17 0.000000 0.500000 0.000000
#
# Coordination Sequence:
#
# PCOD8040506 Si02
#       8
#     2   2   2   2   2   2   2   2
#     4  10  24  48  74  99 140 169 215 290 346 400
#     4  10  18  37  60  83 130 176 218 264 320 367
#     4  10  22  38  59  91 128 179 227 265 324 388
#     4  10  21  40  65  92 130 175 219 278 331 389
#     4  11  23  37  58  92 137 175 227 269 319 389
#     4  11  25  46  66 103 136 174 219 276 341 404
#     4  11  22  36  57  90 132 185 227 270 314 379
#     4  11  25  49  78 105 126 171 225 277 353 425
#
# _framework density 23.398958
#
# number of rings (size 3 to 8) (size 9 to 14) (size 15 to 20)
#    0.000    1.500    2.500    3.750    3.500    2.000 
#   11.250    0.000    0.000    0.000    0.000    0.000 
#    0.000    0.000    0.000    0.000    0.000    0.000 
#
# Total GULP energy -198297.946821 kJ/mol
# GULP energy per Si atom -12393.621676 kJ/mol
# Density = 2.334570 g / cm^3
# Si number density = 23.398958 Si / 1000 Ang^3
#
#
#
# Elastic Constant Matrix: (Units=GPa)
#
#
# Indices 1 2 3 4 5 6 
#
# 1 66.8303 25.6525 32.7872 -10.2575 13.2589 -1.6700
# 2 25.6525 104.9780 40.7704 -14.6385 -16.4780 4.9186
# 3 32.7872 40.7704 135.6502 -6.0976 20.6149 0.2945
# 4 -10.2575 -14.6385 -6.0976 40.2907 0.5848 -0.3651
# 5 13.2589 -16.4780 20.6149 0.5848 39.3308 -8.6199
# 6 -1.6700 4.9186 0.2945 -0.3651 -8.6199 25.0359
#
#
#
# Elastic Compliance Matrix: (Units=1/GPa)
#
#
# Indices 1 2 3 4 5 6 
#
# 1 0.019814 -0.004830 -0.002018 0.003094 -0.007765 -0.000334
# 2 -0.004830 0.014513 -0.004596 0.003204 0.010164 0.000427
# 3 -0.002018 -0.004596 0.010287 -0.000541 -0.007019 -0.001777
# 4 0.003094 0.003204 -0.000541 0.026687 0.000195 0.000040
# 5 -0.007765 0.010164 -0.007019 0.000195 0.038338 0.010770
# 6 -0.000334 0.000427 -0.001777 0.000040 0.010770 0.043566
#
#
# Mechanical properties :
#
#
# Convention : Reuss Voigt Hill
#
# Bulk Modulus (GPa) = 46.02543 56.20876 51.11710
# Shear Modulus (GPa) = 27.27248 34.81469 31.04359
#
# Velocity S-wave (km/s) = 3.41771 3.86148 3.64635
# Velocity P-wave (km/s) = 5.94028 6.62989 6.29453
#
# Compressibility (1/GPa) = 0.02172712
#
# Stress axis : x y z
#
# Youngs Moduli (GPa) = 50.46907 68.90308 97.20878
#
# Poissons Ratio (x) = 0.33280 0.19614
# Poissons Ratio (y) = 0.24376 0.44678
# Poissons Ratio (z) = 0.10183 0.31668
#
# Static dielectric constant tensor:
#      x y z
#    x 4.097160 0.023110 0.016270 
#    y 0.023110 4.653980 0.159860 
#    z 0.016270 0.159860 4.792240 
# 
# 
# High freq. dielectric constant tensor:
#      x y z
#    x 1.934690 0.011840 0.007040 
#    y 0.011840 1.924520 -0.009790 
#    z 0.007040 -0.009790 1.927400 
# 
# From -- ./inp_files/557248.got.cif
#   From: 2010.06.25/outbox.cif.g09.slc.cpg/sg2_279_cif.got.tgz:557248.got - 2010.06.27 13:26:56.
