data_PCOD8040487
_publ_section_title
;
Structure prediction by ZEFSAII (Michael W. Deem and Ramdas Pophale) SiO2 
 PCOD8040487
Probable space group: P -1
;
_chemical_formula_sum "Si O2"
_cell_formula_units_Z 16
_cell_length_a 13.185615
_cell_length_b 25.080476
_cell_length_c 8.964792
_cell_angle_alpha 145.732478
_cell_angle_beta 149.868969
_cell_angle_gamma 33.682706
_cell_volume 762.280921
_symmetry_space_group_name_H-M "P -1"
_symmetry_group_IT_number 2
_symmetry_cell_setting 'triclinic'
loop_
_space_group_symop_operation_xyz
x,y,z
-x,-y,-z
loop_
_atom_site_type_symbol
_atom_site_label
_atom_site_fract_x
_atom_site_fract_y
_atom_site_fract_z
Si Si1 0.000172 0.092008 0.312519
Si Si2 0.112048 0.947368 0.370511
Si Si3 0.522120 0.221681 0.955223
Si Si4 0.772834 0.380109 0.298033
Si Si5 0.487574 0.747725 0.326537
Si Si6 0.924767 0.577137 0.444492
Si Si7 0.871959 0.828089 0.613236
Si Si8 0.244966 0.455121 0.143144
O O1 0.114265 0.153703 0.505041
O O2 0.747703 0.168598 0.213776
O O3 0.133157 0.038933 0.509214
O O4 0.000000 0.000000 0.000000
O O5 0.360025 0.855939 0.504493
O O6 0.000000 0.000000 0.500000
O O7 0.950538 0.901362 0.981890
O O8 0.597380 0.222633 0.882408
O O9 0.381604 0.151737 0.627288
O O10 0.386800 0.338522 0.112922
O O11 0.652385 0.469386 0.478323
O O12 0.860137 0.420741 0.357999
O O13 0.984136 0.291872 0.441863
O O14 0.596508 0.337866 0.918242
O O15 0.756782 0.694549 0.558722
O O16 0.000000 0.500000 0.500000
O O17 0.777696 0.542973 0.061750
O O18 0.000000 0.500000 0.000000
#
# Coordination Sequence:
#
# PCOD8040487 Si02
#       8
#     2   2   2   2   2   2   2   2
#     4  10  20  37  60  86 111 144 195 242 274 346
#     4  10  22  42  58  82 120 150 188 238 288 338
#     4  11  18  34  63  88 109 150 191 231 293 323
#     4  10  18  37  59  84 115 152 188 235 284 324
#     4  10  20  38  64  78 115 157 188 232 290 339
#     4  10  21  36  56  82 118 154 188 224 281 347
#     4  10  19  36  66  82 114 147 191 236 289 336
#     4   9  18  34  58  84 117 142 187 237 273 331
#
# _framework density 20.989636999999998
#
# number of rings (size 3 to 8) (size 9 to 14) (size 15 to 20)
#    0.000    2.000    7.500    0.000    0.000    4.500 
#    4.500    3.125    0.000    0.000    0.000    0.000 
#    0.000    0.000    0.000    0.000    0.000    0.000 
#
# Total GULP energy -198271.808307 kJ/mol
# GULP energy per Si atom -12391.988019 kJ/mol
# Density = 2.094186 g / cm^3
# Si number density = 20.989637 Si / 1000 Ang^3
#
#
#
# Elastic Constant Matrix: (Units=GPa)
#
#
# Indices 1 2 3 4 5 6 
#
# 1 116.4692 54.5162 26.1338 11.6519 -3.7687 5.7375
# 2 54.5162 124.8727 19.6589 11.1382 -13.9455 -5.3136
# 3 26.1338 19.6589 41.2567 8.1981 7.7218 0.1454
# 4 11.6519 11.1382 8.1981 19.7878 -2.8237 1.3308
# 5 -3.7687 -13.9455 7.7218 -2.8237 28.3638 8.5909
# 6 5.7375 -5.3136 0.1454 1.3308 8.5909 47.5768
#
#
#
# Elastic Compliance Matrix: (Units=1/GPa)
#
#
# Indices 1 2 3 4 5 6 
#
# 1 0.012149 -0.004158 -0.005564 -0.002150 0.001515 -0.002126
# 2 -0.004158 0.011145 -0.003352 -0.001718 0.005418 0.000826
# 3 -0.005564 -0.003352 0.034122 -0.011127 -0.013686 0.002975
# 4 -0.002150 -0.001718 -0.011127 0.058830 0.008699 -0.003115
# 5 0.001515 0.005418 -0.013686 0.008699 0.045114 -0.007925
# 6 -0.002126 0.000826 0.002975 -0.003115 -0.007925 0.022876
#
#
# Mechanical properties :
#
#
# Convention : Reuss Voigt Hill
#
# Bulk Modulus (GPa) = 31.98084 53.69071 42.83578
# Shear Modulus (GPa) = 22.64432 31.29832 26.97132
#
# Velocity S-wave (km/s) = 3.28812 3.86571 3.58855
# Velocity P-wave (km/s) = 5.44842 6.74982 6.13373
#
# Compressibility (1/GPa) = 0.03126872
#
# Stress axis : x y z
#
# Youngs Moduli (GPa) = 82.30962 89.72945 29.30656
#
# Poissons Ratio (x) = 0.37307 0.16305
# Poissons Ratio (y) = 0.34222 0.09824
# Poissons Ratio (z) = 0.45793 0.30080
#
# Static dielectric constant tensor:
#      x y z
#    x 4.126710 0.126810 0.209770 
#    y 0.126810 4.990840 0.462160 
#    z 0.209770 0.462160 3.729690 
# 
# 
# High freq. dielectric constant tensor:
#      x y z
#    x 1.826370 -0.013700 0.021070 
#    y -0.013700 1.829580 0.018720 
#    z 0.021070 0.018720 1.773490 
# 
# From -- ./inp_files/282495.got.cif
#   From: 2010.06.25/outbox.cif.g09.slc.cpg/sg2_142_cif.got.tgz:282495.got - 2010.06.27 13:26:56.
