data_PCOD8040564
_publ_section_title
;
Structure prediction by ZEFSAII (Michael W. Deem and Ramdas Pophale) SiO2 
 PCOD8040564
Probable space group: P -1
;
_chemical_formula_sum "Si O2"
_cell_formula_units_Z 16
_cell_length_a 27.574348
_cell_length_b 10.545528
_cell_length_c 22.317501
_cell_angle_alpha 148.799141
_cell_angle_beta 11.911115
_cell_angle_gamma 145.934283
_cell_volume 691.653011
_symmetry_space_group_name_H-M "P -1"
_symmetry_group_IT_number 2
_symmetry_cell_setting 'triclinic'
loop_
_space_group_symop_operation_xyz
x,y,z
-x,-y,-z
loop_
_atom_site_type_symbol
_atom_site_label
_atom_site_fract_x
_atom_site_fract_y
_atom_site_fract_z
Si Si1 0.977937 0.359925 0.032627
Si Si2 0.284617 0.849605 0.452415
Si Si3 0.467588 0.381923 0.629588
Si Si4 0.014055 0.167959 0.727883
Si Si5 0.832879 0.607186 0.890749
Si Si6 0.601802 0.960230 0.213945
Si Si7 0.493264 0.070987 0.183925
Si Si8 0.261215 0.944307 0.234284
O O1 0.706954 0.303076 0.345474
O O2 0.054134 0.539352 0.066246
O O3 0.000000 0.500000 0.000000
O O4 0.137327 0.110801 0.739484
O O5 0.424872 0.805088 0.326856
O O6 0.468010 0.863045 0.180697
O O7 0.113650 0.634250 0.561256
O O8 0.252713 0.338923 0.916194
O O9 0.461690 0.669309 0.733837
O O10 0.462312 0.211839 0.508285
O O11 0.255415 0.101407 0.444885
O O12 0.045862 0.100481 0.591435
O O13 0.813685 0.016584 0.936984
O O14 0.698084 0.801179 0.088539
O O15 0.779190 0.340999 0.825273
O O16 0.713396 0.987646 0.839571
O O17 0.500000 0.000000 0.000000
#
# Coordination Sequence:
#
# PCOD8040564 Si02
#       8
#     2   2   2   2   2   2   2   2
#     4  11  17  36  65  91 128 158 201 254 308 360
#     4  12  23  37  64  96 128 160 197 258 313 366
#     4  10  19  37  62  88 124 167 200 249 305 358
#     4  10  18  37  62  92 120 159 215 247 293 368
#     4  11  23  43  64  86 132 161 200 260 305 362
#     4  12  23  36  61  97 127 163 205 239 320 377
#     4   9  17  38  64  89 121 160 207 254 303 353
#     4   9  21  40  73  89 109 170 216 248 306 362
#
# _framework density 23.132988000000001
#
# number of rings (size 3 to 8) (size 9 to 14) (size 15 to 20)
#    0.000    1.500    6.250    1.125    0.000    3.000 
#    0.000    1.250   13.750    0.000    0.000    0.000 
#    0.000    0.000    0.000    0.000    0.000    0.000 
#
# Total GULP energy -198368.443297 kJ/mol
# GULP energy per Si atom -12398.027706 kJ/mol
# Density = 2.308034 g / cm^3
# Si number density = 23.132988 Si / 1000 Ang^3
#
#
#
# Elastic Constant Matrix: (Units=GPa)
#
#
# Indices 1 2 3 4 5 6 
#
# 1 81.6291 41.4529 36.9225 -16.2556 26.5897 19.8296
# 2 41.4529 109.5188 45.6115 -27.7711 17.4024 25.0221
# 3 36.9225 45.6115 68.7685 -10.3358 40.8413 1.4747
# 4 -16.2556 -27.7711 -10.3358 34.7057 5.2700 10.1128
# 5 26.5897 17.4024 40.8413 5.2700 45.3621 1.6897
# 6 19.8296 25.0221 1.4747 10.1128 1.6897 29.8272
#
#
#
# Elastic Compliance Matrix: (Units=1/GPa)
#
#
# Indices 1 2 3 4 5 6 
#
# 1 0.040719 0.021018 -0.010543 0.054606 -0.026504 -0.061194
# 2 0.021018 0.043220 -0.020468 0.060695 -0.014956 -0.068950
# 3 -0.010543 -0.020468 0.050312 -0.009359 -0.031170 0.026631
# 4 0.054606 0.060695 -0.009359 0.148077 -0.059092 -0.133615
# 5 -0.026504 -0.014956 -0.031170 -0.059092 0.076481 0.047410
# 6 -0.061194 -0.068950 0.026631 -0.133615 0.047410 0.173350
#
#
# Mechanical properties :
#
#
# Convention : Reuss Voigt Hill
#
# Bulk Modulus (GPa) = 8.75157 56.43224 32.59191
# Shear Modulus (GPa) = 8.47122 31.04096 19.75609
#
# Velocity S-wave (km/s) = 1.91570 3.66710 2.92554
# Velocity P-wave (km/s) = 2.94696 6.50982 5.05284
#
# Compressibility (1/GPa) = 0.11426520
#
# Stress axis : x y z
#
# Youngs Moduli (GPa) = 24.55869 23.13734 19.87605
#
# Poissons Ratio (x) = -0.48630 0.20955
# Poissons Ratio (y) = -0.51617 0.40682
# Poissons Ratio (z) = 0.25892 0.47357
#
# Static dielectric constant tensor:
#      x y z
#    x 4.216370 0.362310 0.438580 
#    y 0.362310 4.235320 -0.131240 
#    z 0.438580 -0.131240 4.596830 
# 
# 
# High freq. dielectric constant tensor:
#      x y z
#    x 1.899250 0.019330 0.020990 
#    y 0.019330 1.905280 -0.016470 
#    z 0.020990 -0.016470 1.917470 
# 
# From -- ./inp_files/416322.got.cif
#   From: 2010.06.25/outbox.cif.g09.slc.cpg/sg2_209_cif.got.tgz:416322.got - 2010.06.27 13:26:56.
