data_PCOD8040098
_publ_section_title
;
Structure prediction by ZEFSAII (Michael W. Deem and Ramdas Pophale) SiO2 
 PCOD8040098
Probable space group: P -1
;
_chemical_formula_sum "Si O2"
_cell_formula_units_Z 16
_cell_length_a 8.523071
_cell_length_b 8.120704
_cell_length_c 15.220891
_cell_angle_alpha 130.360271
_cell_angle_beta 114.281367
_cell_angle_gamma 88.354886
_cell_volume 687.590786
_symmetry_space_group_name_H-M "P -1"
_symmetry_group_IT_number 2
_symmetry_cell_setting 'triclinic'
loop_
_space_group_symop_operation_xyz
x,y,z
-x,-y,-z
loop_
_atom_site_type_symbol
_atom_site_label
_atom_site_fract_x
_atom_site_fract_y
_atom_site_fract_z
Si Si1 0.759843 0.694586 0.658487
Si Si2 0.921715 0.292542 0.723080
Si Si3 0.787982 0.856808 0.902703
Si Si4 0.900538 0.066818 0.290406
Si Si5 0.752636 0.225266 0.473785
Si Si6 0.628004 0.113670 0.730346
Si Si7 0.420292 0.171260 0.991665
Si Si8 0.262745 0.692596 0.997004
O O1 0.753219 0.664704 0.752868
O O2 0.667654 0.432190 0.511827
O O3 0.671182 0.878956 0.672175
O O4 0.968767 0.779886 0.701410
O O5 0.889002 0.280650 0.607541
O O6 0.726558 0.236863 0.707240
O O7 0.021204 0.118109 0.714805
O O8 0.055244 0.543786 0.872403
O O9 0.690205 0.037236 0.916241
O O10 0.699427 0.738879 0.934466
O O11 0.000000 0.000000 0.000000
O O12 0.875930 0.226168 0.418260
O O13 0.705824 0.944940 0.159217
O O14 0.592257 0.977043 0.362474
O O15 0.697459 0.309168 0.890027
O O16 0.591349 0.374166 0.055384
O O17 0.500000 0.000000 0.000000
#
# Coordination Sequence:
#
# PCOD8040098 Si02
#       8
#     2   2   2   2   2   2   2   2
#     4  10  22  39  66  95 121 167 212 259 319 376
#     4  11  25  41  64  92 129 175 215 248 321 381
#     4  10  18  35  63  95 129 151 203 270 318 363
#     4  11  23  43  63  93 132 169 208 264 312 379
#     4  12  23  43  65  93 130 172 212 258 315 382
#     4  10  22  43  65  92 130 163 212 273 313 367
#     4  10  21  38  65  93 130 159 207 266 327 354
#     4  10  21  41  63  92 126 168 210 258 316 378
#
# _framework density 23.269653999999999
#
# number of rings (size 3 to 8) (size 9 to 14) (size 15 to 20)
#    0.000    1.500    2.500    2.625    1.750    0.500 
#    2.250    2.500    0.000    0.000    0.000    0.000 
#    0.000    0.000    0.000    0.000    0.000    0.000 
#
# Total GULP energy -198282.412151 kJ/mol
# GULP energy per Si atom -12392.650759 kJ/mol
# Density = 2.321669 g / cm^3
# Si number density = 23.269654 Si / 1000 Ang^3
#
#
#
# Elastic Constant Matrix: (Units=GPa)
#
#
# Indices 1 2 3 4 5 6 
#
# 1 106.3162 27.4030 34.2937 -5.9494 -12.7012 33.0979
# 2 27.4030 59.3738 26.7378 -15.0858 -15.2167 19.5727
# 3 34.2937 26.7378 123.4080 -12.2741 -6.9505 17.1446
# 4 -5.9494 -15.0858 -12.2741 33.5161 9.2239 2.9383
# 5 -12.7012 -15.2167 -6.9505 9.2239 42.5414 -3.1283
# 6 33.0979 19.5727 17.1446 2.9383 -3.1283 32.6398
#
#
#
# Elastic Compliance Matrix: (Units=1/GPa)
#
#
# Indices 1 2 3 4 5 6 
#
# 1 0.014799 -0.000176 -0.001751 0.002439 0.002514 -0.013960
# 2 -0.000176 0.027408 -0.002291 0.011229 0.005802 -0.015508
# 3 -0.001751 -0.002291 0.009609 0.002497 -0.000473 -0.002168
# 4 0.002439 0.011229 0.002497 0.038683 -0.004295 -0.014412
# 5 0.002514 0.005802 -0.000473 -0.004295 0.026980 -0.002807
# 6 -0.013960 -0.015508 -0.002168 -0.014412 -0.002807 0.056260
#
#
# Mechanical properties :
#
#
# Convention : Reuss Voigt Hill
#
# Bulk Modulus (GPa) = 23.05226 51.77412 37.41319
# Shear Modulus (GPa) = 25.42790 35.11702 30.27246
#
# Velocity S-wave (km/s) = 3.30926 3.88897 3.61077
# Velocity P-wave (km/s) = 4.95275 6.51639 5.78762
#
# Compressibility (1/GPa) = 0.04337970
#
# Stress axis : x y z
#
# Youngs Moduli (GPa) = 67.57338 36.48619 104.06820
#
# Poissons Ratio (x) = 0.00642 0.18220
# Poissons Ratio (y) = 0.01188 0.23845
# Poissons Ratio (z) = 0.11831 0.08360
#
# Static dielectric constant tensor:
#      x y z
#    x 4.690350 0.298280 -0.243070 
#    y 0.298280 4.158430 -0.076160 
#    z -0.243070 -0.076160 4.086480 
# 
# 
# High freq. dielectric constant tensor:
#      x y z
#    x 1.938000 0.015370 -0.005900 
#    y 0.015370 1.909700 -0.009070 
#    z -0.005900 -0.009070 1.909600 
# 
# From -- ./inp_files/179005.got.cif
#   From: 2010.06.25/outbox.cif.g09.slc.cpg/sg2_90_cif.got.tgz:179005.got - 2010.06.27 13:26:56.
