data_PCOD8040340
_publ_section_title
;
Structure prediction by ZEFSAII (Michael W. Deem and Ramdas Pophale) SiO2 
 PCOD8040340
Probable space group: P -1
;
_chemical_formula_sum "Si O2"
_cell_formula_units_Z 16
_cell_length_a 9.559284
_cell_length_b 6.664778
_cell_length_c 19.040377
_cell_angle_alpha 127.545388
_cell_angle_beta 61.539450
_cell_angle_gamma 128.780304
_cell_volume 740.896802
_symmetry_space_group_name_H-M "P -1"
_symmetry_group_IT_number 2
_symmetry_cell_setting 'triclinic'
loop_
_space_group_symop_operation_xyz
x,y,z
-x,-y,-z
loop_
_atom_site_type_symbol
_atom_site_label
_atom_site_fract_x
_atom_site_fract_y
_atom_site_fract_z
Si Si1 0.430383 0.010688 0.595284
Si Si2 0.910179 0.032761 0.716356
Si Si3 0.487630 0.137920 0.824410
Si Si4 0.322102 0.885063 0.096100
Si Si5 0.727844 0.130790 0.658719
Si Si6 0.299924 0.470007 0.739195
Si Si7 0.023803 0.573720 0.591545
Si Si8 0.649994 0.457176 0.100277
O O1 0.233795 0.738237 0.597541
O O2 0.500000 0.000000 0.500000
O O3 0.564425 0.968806 0.608026
O O4 0.424950 0.312396 0.669735
O O5 0.838846 0.127660 0.821473
O O6 0.775623 0.941161 0.661564
O O7 0.111117 0.292152 0.704633
O O8 0.923212 0.753608 0.674624
O O9 0.549245 0.192116 0.901987
O O10 0.659198 0.301997 0.764504
O O11 0.345822 0.253776 0.869223
O O12 0.400918 0.794341 0.753805
O O13 0.441168 0.203473 0.102806
O O14 0.244948 0.647272 0.001652
O O15 0.916113 0.297164 0.607044
O O16 0.251215 0.474407 0.833886
O O17 0.000000 0.500000 0.500000
#
# Coordination Sequence:
#
# PCOD8040340 Si02
#       8
#     2   2   2   2   2   2   2   2
#     4  11  23  43  64  91 123 163 206 254 309 366
#     4  10  24  41  58  93 125 154 209 255 302 368
#     4  10  20  36  61  88 123 160 208 245 306 369
#     4   9  20  35  59  91 119 161 204 256 297 369
#     4  11  23  39  66  87 120 167 197 251 312 353
#     4  10  23  39  60  90 126 160 204 258 304 366
#     4  11  24  43  64  90 125 158 205 257 304 367
#     4  10  18  36  62  86 121 163 204 248 312 358
#
# _framework density 21.59545
#
# number of rings (size 3 to 8) (size 9 to 14) (size 15 to 20)
#    0.000    1.750    2.500    1.125    5.250    1.000 
#    0.000    1.875    0.000    0.000    0.000    0.000 
#    0.000    0.000    0.000    0.000    0.000    0.000 
#
# Total GULP energy -198265.173229 kJ/mol
# GULP energy per Si atom -12391.573327 kJ/mol
# Density = 2.154630 g / cm^3
# Si number density = 21.595450 Si / 1000 Ang^3
#
#
#
# Elastic Constant Matrix: (Units=GPa)
#
#
# Indices 1 2 3 4 5 6 
#
# 1 113.3323 19.2409 28.7556 -3.5195 8.5911 6.5547
# 2 19.2409 62.2662 22.0653 -7.3759 -3.2108 7.7857
# 3 28.7556 22.0653 114.9228 -17.2717 8.8570 -2.5859
# 4 -3.5195 -7.3759 -17.2717 31.1465 1.6305 2.0442
# 5 8.5911 -3.2108 8.8570 1.6305 30.1470 -4.8207
# 6 6.5547 7.7857 -2.5859 2.0442 -4.8207 17.9539
#
#
#
# Elastic Compliance Matrix: (Units=1/GPa)
#
#
# Indices 1 2 3 4 5 6 
#
# 1 0.010151 -0.002110 -0.001984 -0.000030 -0.003160 -0.003922
# 2 -0.002110 0.019234 -0.003051 0.003024 0.002138 -0.007780
# 3 -0.001984 -0.003051 0.010813 0.005050 -0.002847 0.002265
# 4 -0.000030 0.003024 0.005050 0.036210 -0.004036 -0.005779
# 5 -0.003160 0.002138 -0.002847 -0.004036 0.036986 0.010207
# 6 -0.003922 -0.007780 0.002265 -0.005779 0.010207 0.064228
#
#
# Mechanical properties :
#
#
# Convention : Reuss Voigt Hill
#
# Bulk Modulus (GPa) = 38.59613 47.84942 43.22278
# Shear Modulus (GPa) = 24.93180 30.54679 27.73929
#
# Velocity S-wave (km/s) = 3.40147 3.76507 3.58788
# Velocity P-wave (km/s) = 5.77389 6.41141 6.10099
#
# Compressibility (1/GPa) = 0.02590933
#
# Stress axis : x y z
#
# Youngs Moduli (GPa) = 98.51628 51.99047 92.48138
#
# Poissons Ratio (x) = 0.10968 0.18348
# Poissons Ratio (y) = 0.20784 0.28212
# Poissons Ratio (z) = 0.19546 0.15860
#
# Static dielectric constant tensor:
#      x y z
#    x 4.248330 0.219640 0.048180 
#    y 0.219640 3.968340 -0.122940 
#    z 0.048180 -0.122940 4.024610 
# 
# 
# High freq. dielectric constant tensor:
#      x y z
#    x 1.840770 -0.006030 0.002900 
#    y -0.006030 1.831500 -0.015060 
#    z 0.002900 -0.015060 1.856380 
# 
# From -- ./inp_files/552469.got.cif
#   From: 2010.06.25/outbox.cif.g09.slc.cpg/sg2_277_cif.got.tgz:552469.got - 2010.06.27 13:26:56.
