data_PCOD8040044
_publ_section_title
;
Structure prediction by ZEFSAII (Michael W. Deem and Ramdas Pophale) SiO2 
 PCOD8040044
Probable space group: P -1
;
_chemical_formula_sum "Si O2"
_cell_formula_units_Z 12
_cell_length_a 8.049564
_cell_length_b 11.232010
_cell_length_c 22.606130
_cell_angle_alpha 35.114011
_cell_angle_beta 138.077841
_cell_angle_gamma 111.860947
_cell_volume 619.468052
_symmetry_space_group_name_H-M "P -1"
_symmetry_group_IT_number 2
_symmetry_cell_setting 'triclinic'
loop_
_space_group_symop_operation_xyz
x,y,z
-x,-y,-z
loop_
_atom_site_type_symbol
_atom_site_label
_atom_site_fract_x
_atom_site_fract_y
_atom_site_fract_z
Si Si1 0.673795 0.934052 0.404759
Si Si2 0.713872 0.366537 0.248044
Si Si3 0.349105 0.855229 0.025237
Si Si4 0.716046 0.763802 0.608400
Si Si5 0.689414 0.296635 0.802400
Si Si6 0.399609 0.736245 0.335475
O O1 0.539441 0.237236 0.242474
O O2 0.552041 0.873208 0.455738
O O3 0.565041 0.864956 0.346471
O O4 0.055170 0.763517 0.579870
O O5 0.447158 0.670279 0.069297
O O6 0.927116 0.324713 0.264783
O O7 0.485082 0.687118 0.190657
O O8 0.500000 0.000000 0.000000
O O9 0.974948 0.055885 0.845365
O O10 0.757862 0.505018 0.742956
O O11 0.500000 0.000000 0.500000
O O12 0.488511 0.363015 0.662124
O O13 0.000000 0.000000 0.000000
O O14 0.500000 0.500000 0.500000
#
# Coordination Sequence:
#
# PCOD8040044 Si02
#       6
#     2   2   2   2   2   2
#     4   9  19  35  61  84 120 151 195 239 296 349
#     4   9  19  37  57  87 117 155 195 238 300 351
#     4  11  22  38  61  84 121 159 197 244 297 349
#     4  10  18  35  62  85 114 152 202 236 292 358
#     4  10  21  35  59  88 116 155 199 238 296 356
#     4  11  20  39  60  88 120 155 196 245 294 350
#
# _framework density 19.371458000000001
#
# number of rings (size 3 to 8) (size 9 to 14) (size 15 to 20)
#    1.000    1.000    1.667    4.000    0.000    0.667 
#    0.000    5.000    0.000    6.000    0.000    0.000 
#    0.000    0.000    0.000    0.000    0.000    0.000 
#
# Total GULP energy -148675.848266 kJ/mol
# GULP energy per Si atom -12389.654022 kJ/mol
# Density = 1.932737 g / cm^3
# Si number density = 19.371458 Si / 1000 Ang^3
#
#
#
# Elastic Constant Matrix: (Units=GPa)
#
#
# Indices 1 2 3 4 5 6 
#
# 1 105.5142 42.6971 38.2110 -15.1754 -16.1516 -3.8143
# 2 42.6971 142.7149 49.6913 -22.1896 -12.2922 13.2905
# 3 38.2110 49.6913 68.7030 -18.6859 -12.7438 -2.2086
# 4 -15.1754 -22.1896 -18.6859 44.5039 2.3761 -3.9354
# 5 -16.1516 -12.2922 -12.7438 2.3761 35.4633 -8.7446
# 6 -3.8143 13.2905 -2.2086 -3.9354 -8.7446 35.8849
#
#
#
# Elastic Compliance Matrix: (Units=1/GPa)
#
#
# Indices 1 2 3 4 5 6 
#
# 1 0.012861 -0.001986 -0.004402 0.001590 0.004230 0.003037
# 2 -0.001986 0.010368 -0.006269 0.001506 -0.000764 -0.004458
# 3 -0.004402 -0.006269 0.024288 0.005749 0.005475 0.005313
# 4 0.001590 0.001506 0.005749 0.026353 0.002394 0.003438
# 5 0.004230 -0.000764 0.005475 0.002394 0.034041 0.009627
# 6 0.003037 -0.004458 0.005313 0.003438 0.009627 0.032891
#
#
# Mechanical properties :
#
#
# Convention : Reuss Voigt Hill
#
# Bulk Modulus (GPa) = 45.04169 64.23678 54.63923
# Shear Modulus (GPa) = 28.81574 35.59263 32.20418
#
# Velocity S-wave (km/s) = 3.86104 4.29111 4.08174
# Velocity P-wave (km/s) = 6.57107 7.60158 7.10503
#
# Compressibility (1/GPa) = 0.02220166
#
# Stress axis : x y z
#
# Youngs Moduli (GPa) = 77.75359 96.45379 41.17291
#
# Poissons Ratio (x) = 0.19160 0.18123
# Poissons Ratio (y) = 0.15446 0.25812
# Poissons Ratio (z) = 0.34225 0.60469
#
# Static dielectric constant tensor:
#      x y z
#    x 3.529110 -0.135460 -0.307070 
#    y -0.135460 3.621320 -0.114320 
#    z -0.307070 -0.114320 3.489000 
# 
# 
# High freq. dielectric constant tensor:
#      x y z
#    x 1.746330 -0.003380 -0.011550 
#    y -0.003380 1.755770 -0.029920 
#    z -0.011550 -0.029920 1.734200 
# 
# From -- ./inp_files/265223.got.cif
#   From: 2010.06.25/outbox.cif.g09.slc.cpg/sg2_133_cif.got.tgz:265223.got - 2010.06.27 13:26:56.
