data_PCOD8040956
_publ_section_title
;
Structure prediction by ZEFSAII (Michael W. Deem and Ramdas Pophale) SiO2 
 PCOD8040956
Probable space group: P -1
;
_chemical_formula_sum "Si O2"
_cell_formula_units_Z 14
_cell_length_a 8.717933
_cell_length_b 15.213353
_cell_length_c 9.784464
_cell_angle_alpha 35.432788
_cell_angle_beta 116.946699
_cell_angle_gamma 117.038354
_cell_volume 661.448000
_symmetry_space_group_name_H-M "P -1"
_symmetry_group_IT_number 2
_symmetry_cell_setting 'triclinic'
loop_
_space_group_symop_operation_xyz
x,y,z
-x,-y,-z
loop_
_atom_site_type_symbol
_atom_site_label
_atom_site_fract_x
_atom_site_fract_y
_atom_site_fract_z
Si Si1 0.453921 0.352307 0.574513
Si Si2 0.416336 0.364680 0.232838
Si Si3 0.207536 0.052472 0.884703
Si Si4 0.118721 0.964016 0.378030
Si Si5 0.423184 0.943280 0.343282
Si Si6 0.952077 0.779855 0.773586
Si Si7 0.698439 0.153339 0.040162
O O1 0.500000 0.500000 0.500000
O O2 0.443727 0.412210 0.341249
O O3 0.278557 0.235728 0.698918
O O4 0.612446 0.257545 0.769453
O O5 0.499559 0.213424 0.427014
O O6 0.210993 0.355463 0.128083
O O7 0.500000 0.500000 0.000000
O O8 0.995427 0.011426 0.836249
O O9 0.276465 0.004247 0.825667
O O10 0.279556 0.948019 0.159727
O O11 0.318314 0.957950 0.423788
O O12 0.016253 0.811593 0.602819
O O13 0.126455 0.086676 0.347540
O O14 0.575687 0.092127 0.197818
O O15 0.119585 0.743496 0.970903
#
# Coordination Sequence:
#
# PCOD8040956 Si02
#       7
#     2   2   2   2   2   2   2
#     4  11  22  41  66  94 128 173 216 253 322 387
#     4  12  25  44  62  91 132 175 212 268 318 383
#     4  10  18  40  67  93 126 164 211 262 321 375
#     4  10  20  35  67  99 126 152 210 278 311 379
#     4  11  20  36  66  98 122 161 222 257 318 370
#     4  10  22  41  61  93 130 165 207 260 332 371
#     4  10  20  41  73  91 123 169 208 267 317 383
#
# _framework density 21.165683999999999
#
# number of rings (size 3 to 8) (size 9 to 14) (size 15 to 20)
#    0.000    1.429    4.286    3.000    0.000    5.714 
#    2.571    2.143    0.000    0.000    0.000    0.000 
#    0.000    0.000    0.000    0.000    0.000    0.000 
#
# Total GULP energy -173480.747238 kJ/mol
# GULP energy per Si atom -12391.481946 kJ/mol
# Density = 2.111751 g / cm^3
# Si number density = 21.165684 Si / 1000 Ang^3
#
#
#
# Elastic Constant Matrix: (Units=GPa)
#
#
# Indices 1 2 3 4 5 6 
#
# 1 134.9363 47.6303 27.7867 1.7053 -9.1098 20.9970
# 2 47.6303 100.3099 30.2842 1.5492 -2.1290 14.4798
# 3 27.7867 30.2842 84.9835 0.1979 -11.6470 18.8169
# 4 1.7053 1.5492 0.1979 25.8030 1.6355 -0.6859
# 5 -9.1098 -2.1290 -11.6470 1.6355 27.0355 2.9946
# 6 20.9970 14.4798 18.8169 -0.6859 2.9946 35.3370
#
#
#
# Elastic Compliance Matrix: (Units=1/GPa)
#
#
# Indices 1 2 3 4 5 6 
#
# 1 0.009741 -0.003794 -0.000423 -0.000738 0.003323 -0.004304
# 2 -0.003794 0.012912 -0.003316 -0.000432 -0.001537 -0.001149
# 3 -0.000423 -0.003316 0.015711 -0.000547 0.007215 -0.007378
# 4 -0.000738 -0.000432 -0.000547 0.039082 -0.003096 0.001928
# 5 0.003323 -0.001537 0.007215 -0.003096 0.042260 -0.008828
# 6 -0.004304 -0.001149 -0.007378 0.001928 -0.008828 0.036041
#
#
# Mechanical properties :
#
#
# Convention : Reuss Voigt Hill
#
# Bulk Modulus (GPa) = 42.92371 59.07025 50.99698
# Shear Modulus (GPa) = 27.99903 31.93697 29.96800
#
# Velocity S-wave (km/s) = 3.64105 3.88867 3.76690
# Velocity P-wave (km/s) = 6.16443 6.93769 6.56246
#
# Compressibility (1/GPa) = 0.02329715
#
# Stress axis : x y z
#
# Youngs Moduli (GPa) = 102.66254 77.44895 63.65161
#
# Poissons Ratio (x) = 0.29387 0.02690
# Poissons Ratio (y) = 0.38954 0.21106
# Poissons Ratio (z) = 0.04339 0.25681
#
# Static dielectric constant tensor:
#      x y z
#    x 4.058880 0.144940 0.155920 
#    y 0.144940 3.753900 0.309070 
#    z 0.155920 0.309070 3.772850 
# 
# 
# High freq. dielectric constant tensor:
#      x y z
#    x 1.838440 0.015520 0.005600 
#    y 0.015520 1.818480 0.037550 
#    z 0.005600 0.037550 1.813750 
# 
# From -- ./inp_files/180027.got.cif
#   From: 2010.06.25/outbox.cif.g09.slc.cpg/sg2_91_cif.got.tgz:180027.got - 2010.06.27 13:26:56.
