data_PCOD8040733
_publ_section_title
;
Structure prediction by ZEFSAII (Michael W. Deem and Ramdas Pophale) SiO2 
 PCOD8040733
Probable space group: P -1
;
_chemical_formula_sum "Si O2"
_cell_formula_units_Z 16
_cell_length_a 15.731001
_cell_length_b 9.941062
_cell_length_c 9.472047
_cell_angle_alpha 137.010902
_cell_angle_beta 68.626345
_cell_angle_gamma 86.518256
_cell_volume 805.951357
_symmetry_space_group_name_H-M "P -1"
_symmetry_group_IT_number 2
_symmetry_cell_setting 'triclinic'
loop_
_space_group_symop_operation_xyz
x,y,z
-x,-y,-z
loop_
_atom_site_type_symbol
_atom_site_label
_atom_site_fract_x
_atom_site_fract_y
_atom_site_fract_z
Si Si1 0.959222 0.234313 0.287913
Si Si2 0.493006 0.864653 0.531241
Si Si3 0.728330 0.627735 0.224345
Si Si4 0.293574 0.931913 0.569389
Si Si5 0.213611 0.621717 0.275368
Si Si6 0.664442 0.790021 0.911378
Si Si7 0.810853 0.966856 0.002349
Si Si8 0.221558 0.541930 0.634452
O O1 0.901502 0.238731 0.472779
O O2 0.873959 0.435438 0.390474
O O3 0.066482 0.237918 0.260864
O O4 0.000000 0.000000 0.000000
O O5 0.611657 0.652510 0.327006
O O6 0.406855 0.795413 0.481230
O O7 0.500000 0.000000 0.500000
O O8 0.453659 0.017745 0.817483
O O9 0.786038 0.553597 0.283332
O O10 0.716772 0.868905 0.373736
O O11 0.799805 0.422101 0.914015
O O12 0.278728 0.753357 0.347819
O O13 0.201783 0.036076 0.823146
O O14 0.283908 0.368972 0.104682
O O15 0.731577 0.911481 0.924878
O O16 0.669236 0.641359 0.657174
O O17 0.784496 0.216960 0.158676
#
# Coordination Sequence:
#
# PCOD8040733 Si02
#       8
#     2   2   2   2   2   2   2   2
#     4   9  18  36  62  82 105 145 193 224 271 331
#     4   9  18  36  57  82 113 144 186 233 262 329
#     4  11  23  39  51  86 122 140 181 237 277 321
#     4  10  19  36  61  82 108 148 190 230 260 336
#     4  11  19  34  62  82 109 150 187 222 278 329
#     4  10  19  36  61  83 106 148 195 221 269 331
#     4  10  18  38  63  80 108 143 193 232 263 332
#     4  10  22  36  57  83 118 143 179 236 278 322
#
# _framework density 19.852315999999998
#
# number of rings (size 3 to 8) (size 9 to 14) (size 15 to 20)
#    0.000    2.000    7.500    0.000    0.000    4.000 
#    0.000    5.625    0.000    0.000    0.000    0.000 
#    0.000    0.000    0.000    0.000    0.000    0.000 
#
# Total GULP energy -198262.536642 kJ/mol
# GULP energy per Si atom -12391.408540 kJ/mol
# Density = 1.980713 g / cm^3
# Si number density = 19.852316 Si / 1000 Ang^3
#
#
#
# Elastic Constant Matrix: (Units=GPa)
#
#
# Indices 1 2 3 4 5 6 
#
# 1 64.5233 27.0985 32.5175 -5.4279 -12.2367 10.8563
# 2 27.0985 86.1360 28.9034 -9.0541 -0.5464 -3.4521
# 3 32.5175 28.9034 117.9413 -23.4859 -11.7940 -4.9984
# 4 -5.4279 -9.0541 -23.4859 28.8882 3.9048 8.0864
# 5 -12.2367 -0.5464 -11.7940 3.9048 28.7619 -6.1519
# 6 10.8563 -3.4521 -4.9984 8.0864 -6.1519 25.3242
#
#
#
# Elastic Compliance Matrix: (Units=1/GPa)
#
#
# Indices 1 2 3 4 5 6 
#
# 1 0.023315 -0.006066 -0.004659 0.000952 0.005472 -0.010716
# 2 -0.006066 0.014342 -0.001671 0.001456 -0.002517 0.003150
# 3 -0.004659 -0.001671 0.011977 0.007349 0.002407 0.002371
# 4 0.000952 0.001456 0.007349 0.046238 -0.006037 -0.014990
# 5 0.005472 -0.002517 0.002407 -0.006037 0.040920 0.009654
# 6 -0.010716 0.003150 0.002371 -0.014990 0.009654 0.052111
#
#
# Mechanical properties :
#
#
# Convention : Reuss Voigt Hill
#
# Bulk Modulus (GPa) = 40.25339 49.51548 44.88443
# Shear Modulus (GPa) = 22.52500 28.60029 25.56265
#
# Velocity S-wave (km/s) = 3.37208 3.79971 3.59226
# Velocity P-wave (km/s) = 5.95665 6.65180 6.31380
#
# Compressibility (1/GPa) = 0.02484263
#
# Stress axis : x y z
#
# Youngs Moduli (GPa) = 42.89131 69.72610 83.49063
#
# Poissons Ratio (x) = 0.42298 0.38897
# Poissons Ratio (y) = 0.26019 0.13948
# Poissons Ratio (z) = 0.19982 0.11648
#
# Static dielectric constant tensor:
#      x y z
#    x 4.010150 0.284350 -0.339460 
#    y 0.284350 3.390350 -0.032140 
#    z -0.339460 -0.032140 4.018730 
# 
# 
# High freq. dielectric constant tensor:
#      x y z
#    x 1.751790 0.020730 -0.001830 
#    y 0.020730 1.743560 -0.008240 
#    z -0.001830 -0.008240 1.790080 
# 
# From -- ./inp_files/294017.got.cif
#   From: 2010.06.25/outbox.cif.g09.slc.cpg/sg2_148_cif.got.tgz:294017.got - 2010.06.27 13:26:56.
