data_PCOD8040591
_publ_section_title
;
Structure prediction by ZEFSAII (Michael W. Deem and Ramdas Pophale) SiO2 
 PCOD8040591
Probable space group: P -1
;
_chemical_formula_sum "Si O2"
_cell_formula_units_Z 16
_cell_length_a 13.521067
_cell_length_b 9.036735
_cell_length_c 8.931942
_cell_angle_alpha 83.329177
_cell_angle_beta 73.536118
_cell_angle_gamma 47.552547
_cell_volume 767.929660
_symmetry_space_group_name_H-M "P -1"
_symmetry_group_IT_number 2
_symmetry_cell_setting 'triclinic'
loop_
_space_group_symop_operation_xyz
x,y,z
-x,-y,-z
loop_
_atom_site_type_symbol
_atom_site_label
_atom_site_fract_x
_atom_site_fract_y
_atom_site_fract_z
Si Si1 0.311149 0.797512 0.800785
Si Si2 0.562879 0.728375 0.827063
Si Si3 0.187262 0.381916 0.416815
Si Si4 0.589235 0.858657 0.260774
Si Si5 0.059461 0.226846 0.971728
Si Si6 0.345001 0.981854 0.519769
Si Si7 0.744293 0.475299 0.065408
Si Si8 0.989930 0.469751 0.252180
O O1 0.456820 0.702523 0.826268
O O2 0.302108 0.629453 0.819355
O O3 0.179552 0.987606 0.929161
O O4 0.307225 0.859108 0.622527
O O5 0.674631 0.651057 0.654255
O O6 0.480126 0.966098 0.857537
O O7 0.644776 0.593791 0.952194
O O8 0.219361 0.174034 0.454347
O O9 0.103801 0.463760 0.287103
O O10 0.102152 0.523298 0.581639
O O11 0.635893 0.920081 0.365463
O O12 0.720401 0.640166 0.164932
O O13 0.480464 0.841107 0.371993
O O14 0.097861 0.331047 0.838482
O O15 0.060070 0.275806 0.140151
O O16 0.908574 0.308278 0.978383
#
# Coordination Sequence:
#
# PCOD8040591 Si02
#       8
#     2   2   2   2   2   2   2   2
#     4  11  24  39  58  85 129 160 198 238 304 362
#     4  10  22  38  62  90 119 151 202 251 298 346
#     4  10  18  37  63  94 115 149 200 257 299 342
#     4   9  20  35  60  87 116 147 204 251 294 340
#     4  11  23  39  58  89 125 158 203 241 300 357
#     4   9  18  36  57  86 116 151 192 252 297 345
#     4  12  23  39  60  87 121 167 197 242 296 366
#     4  10  21  35  64  91 117 153 204 255 294 345
#
# _framework density 20.835242000000001
#
# number of rings (size 3 to 8) (size 9 to 14) (size 15 to 20)
#    0.000    1.750    2.500    2.625    5.250    2.500 
#    0.000    0.000    0.000    1.500    0.000    0.000 
#    0.000    0.000    0.000    0.000    0.000    0.000 
#
# Total GULP energy -198313.563830 kJ/mol
# GULP energy per Si atom -12394.597739 kJ/mol
# Density = 2.078782 g / cm^3
# Si number density = 20.835242 Si / 1000 Ang^3
#
#
#
# Elastic Constant Matrix: (Units=GPa)
#
#
# Indices 1 2 3 4 5 6 
#
# 1 83.6844 28.7663 22.3035 -0.5944 -16.9082 -4.4260
# 2 28.7663 51.9579 18.7914 -9.7379 -8.6215 -2.7682
# 3 22.3035 18.7914 61.5560 -16.8786 -3.0348 0.8286
# 4 -0.5944 -9.7379 -16.8786 27.2752 -0.4739 -11.2682
# 5 -16.9082 -8.6215 -3.0348 -0.4739 33.5072 -3.8907
# 6 -4.4260 -2.7682 0.8286 -11.2682 -3.8907 27.9529
#
#
#
# Elastic Compliance Matrix: (Units=1/GPa)
#
#
# Indices 1 2 3 4 5 6 
#
# 1 0.017147 -0.007501 -0.004946 -0.004819 0.006329 0.001057
# 2 -0.007501 0.027340 -0.002576 0.010746 0.003920 0.006474
# 3 -0.004946 -0.002576 0.022811 0.014819 -0.000395 0.004204
# 4 -0.004819 0.010746 0.014819 0.059886 0.005397 0.024754
# 5 0.006329 0.003920 -0.000395 0.005397 0.035070 0.008459
# 6 0.001057 0.006474 0.004204 0.024754 0.008459 0.047614
#
#
# Mechanical properties :
#
#
# Convention : Reuss Voigt Hill
#
# Bulk Modulus (GPa) = 26.84404 37.43564 32.13984
# Shear Modulus (GPa) = 19.81523 26.23621 23.02572
#
# Velocity S-wave (km/s) = 3.08725 3.55240 3.32796
# Velocity P-wave (km/s) = 5.06162 5.90191 5.49784
#
# Compressibility (1/GPa) = 0.03725222
#
# Stress axis : x y z
#
# Youngs Moduli (GPa) = 58.31963 36.57615 43.83827
#
# Poissons Ratio (x) = 0.27435 0.21684
# Poissons Ratio (y) = 0.43745 0.11291
# Poissons Ratio (z) = 0.28847 0.09421
#
# Static dielectric constant tensor:
#      x y z
#    x 3.639600 -0.347810 -0.171730 
#    y -0.347810 3.775450 -0.248750 
#    z -0.171730 -0.248750 4.061310 
# 
# 
# High freq. dielectric constant tensor:
#      x y z
#    x 1.804690 -0.034240 -0.017700 
#    y -0.034240 1.794180 -0.008410 
#    z -0.017700 -0.008410 1.822990 
# 
# From -- ./inp_files/215520.got.cif
#   From: 2010.06.25/outbox.cif.g09.slc.cpg/sg2_108_cif.got.tgz:215520.got - 2010.06.27 13:26:56.
