data_PCOD8040132
_publ_section_title
;
Structure prediction by ZEFSAII (Michael W. Deem and Ramdas Pophale) SiO2 
 PCOD8040132
Probable space group: P -1
;
_chemical_formula_sum "Si O2"
_cell_formula_units_Z 16
_cell_length_a 9.976843
_cell_length_b 9.285060
_cell_length_c 30.217901
_cell_angle_alpha 36.293454
_cell_angle_beta 33.372087
_cell_angle_gamma 61.911260
_cell_volume 714.253317
_symmetry_space_group_name_H-M "P -1"
_symmetry_group_IT_number 2
_symmetry_cell_setting 'triclinic'
loop_
_space_group_symop_operation_xyz
x,y,z
-x,-y,-z
loop_
_atom_site_type_symbol
_atom_site_label
_atom_site_fract_x
_atom_site_fract_y
_atom_site_fract_z
Si Si1 0.891124 0.371020 0.296739
Si Si2 0.296053 0.336180 0.785525
Si Si3 0.029325 0.265344 0.164533
Si Si4 0.274781 0.658845 0.849665
Si Si5 0.396527 0.264639 0.868526
Si Si6 0.527651 0.208764 0.016232
Si Si7 0.669670 0.319475 0.613527
Si Si8 0.375503 0.213196 0.532902
O O1 0.705252 0.395266 0.301787
O O2 0.742655 0.370248 0.384591
O O3 0.821333 0.043635 0.388334
O O4 0.262445 0.652885 0.121150
O O5 0.494949 0.444362 0.749538
O O6 0.424425 0.223180 0.743182
O O7 0.948416 0.047865 0.962862
O O8 0.228866 0.196702 0.097464
O O9 0.866402 0.354309 0.155338
O O10 0.252052 0.556364 0.063127
O O11 0.757601 0.947231 0.343237
O O12 0.420137 0.478849 0.848132
O O13 0.565193 0.005171 0.697355
O O14 0.000000 0.500000 0.000000
O O15 0.596134 0.143812 0.853881
O O16 0.673889 0.530010 0.522613
O O17 0.000000 0.500000 0.500000
#
# Coordination Sequence:
#
# PCOD8040132 Si02
#       8
#     2   2   2   2   2   2   2   2
#     4   8  15  31  56  92 116 163 211 253 305 384
#     4   9  17  34  63  91 120 162 210 256 315 387
#     4  10  21  37  62 101 128 166 211 271 323 380
#     4  12  25  42  64  95 133 168 218 273 324 375
#     4  10  18  35  65  93 124 166 209 264 320 380
#     4   9  19  34  66  99 128 160 218 265 318 384
#     4  11  25  40  63  91 128 171 216 260 321 386
#     4   9  18  35  61  84 125 165 208 252 318 392
#
# _framework density 22.401018000000001
#
# number of rings (size 3 to 8) (size 9 to 14) (size 15 to 20)
#    0.000    2.250    1.250    3.000    1.750    2.500 
#    0.000    1.250   11.000    0.000    0.000    0.000 
#    0.000    0.000    0.000    0.000    0.000    0.000 
#
# Total GULP energy -198295.107429 kJ/mol
# GULP energy per Si atom -12393.444214 kJ/mol
# Density = 2.235003 g / cm^3
# Si number density = 22.401018 Si / 1000 Ang^3
#
#
#
# Elastic Constant Matrix: (Units=GPa)
#
#
# Indices 1 2 3 4 5 6 
#
# 1 30.6937 11.9180 21.6315 -0.5999 6.3095 -1.0246
# 2 11.9180 122.8405 29.0513 -13.7182 4.8624 -21.4108
# 3 21.6315 29.0513 85.4086 7.4031 19.5852 -3.9848
# 4 -0.5999 -13.7182 7.4031 46.5508 3.0981 -0.1403
# 5 6.3095 4.8624 19.5852 3.0981 30.4215 2.1537
# 6 -1.0246 -21.4108 -3.9848 -0.1403 2.1537 25.4139
#
#
#
# Elastic Compliance Matrix: (Units=1/GPa)
#
#
# Indices 1 2 3 4 5 6 
#
# 1 0.040227 -0.001594 -0.009339 0.001676 -0.002177 -0.000992
# 2 -0.001594 0.011011 -0.003170 0.003781 -0.000395 0.008770
# 3 -0.009339 -0.003170 0.017389 -0.003257 -0.008446 0.000377
# 4 0.001676 0.003781 -0.003257 0.023240 -0.001434 0.002992
# 5 -0.002177 -0.000395 -0.008446 -0.001434 0.039330 -0.005085
# 6 -0.000992 0.008770 0.000377 0.002992 -0.005085 0.047204
#
#
# Mechanical properties :
#
#
# Convention : Reuss Voigt Hill
#
# Bulk Modulus (GPa) = 24.73864 40.46052 32.59958
# Shear Modulus (GPa) = 22.71901 32.23337 27.47619
#
# Velocity S-wave (km/s) = 3.18810 3.79743 3.50603
# Velocity P-wave (km/s) = 4.96180 6.10970 5.56542
#
# Compressibility (1/GPa) = 0.04042259
#
# Stress axis : x y z
#
# Youngs Moduli (GPa) = 24.85866 90.81484 57.50913
#
# Poissons Ratio (x) = 0.14474 0.53706
# Poissons Ratio (y) = 0.03962 0.18230
# Poissons Ratio (z) = 0.23215 0.28787
#
# Static dielectric constant tensor:
#      x y z
#    x 3.846140 -0.417360 0.423690 
#    y -0.417360 5.218180 0.344550 
#    z 0.423690 0.344550 4.214680 
# 
# 
# High freq. dielectric constant tensor:
#      x y z
#    x 1.840370 -0.015010 0.029090 
#    y -0.015010 1.896490 0.007320 
#    z 0.029090 0.007320 1.876030 
# 
# From -- ./inp_files/477021.got.cif
#   From: 2010.06.25/outbox.cif.g09.slc.cpg/sg2_239_cif.got.tgz:477021.got - 2010.06.27 13:26:56.
