data_PCOD8040522
_publ_section_title
;
Structure prediction by ZEFSAII (Michael W. Deem and Ramdas Pophale) SiO2 
 PCOD8040522
Probable space group: P -1
;
_chemical_formula_sum "Si O2"
_cell_formula_units_Z 16
_cell_length_a 9.382843
_cell_length_b 9.183519
_cell_length_c 18.246956
_cell_angle_alpha 108.364517
_cell_angle_beta 101.449418
_cell_angle_gamma 132.257874
_cell_volume 896.354257
_symmetry_space_group_name_H-M "P -1"
_symmetry_group_IT_number 2
_symmetry_cell_setting 'triclinic'
loop_
_space_group_symop_operation_xyz
x,y,z
-x,-y,-z
loop_
_atom_site_type_symbol
_atom_site_label
_atom_site_fract_x
_atom_site_fract_y
_atom_site_fract_z
Si Si1 0.000449 0.100358 0.743826
Si Si2 0.199788 0.841781 0.379077
Si Si3 0.798240 0.643915 0.732389
Si Si4 0.565419 0.711246 0.246597
Si Si5 0.830655 0.299408 0.200314
Si Si6 0.091711 0.467766 0.900079
Si Si7 0.568963 0.897861 0.412801
Si Si8 0.632646 0.227521 0.879081
O O1 0.229753 0.235615 0.744372
O O2 0.086270 0.287334 0.845321
O O3 0.825262 0.035665 0.658294
O O4 0.854551 0.842085 0.724546
O O5 0.442412 0.957307 0.399840
O O6 0.972210 0.541997 0.301377
O O7 0.219877 0.917208 0.477020
O O8 0.652803 0.561446 0.779538
O O9 0.631658 0.392070 0.626545
O O10 0.040394 0.758074 0.795966
O O11 0.668729 0.926387 0.348251
O O12 0.470871 0.713490 0.164673
O O13 0.802188 0.333989 0.120007
O O14 0.571346 0.065414 0.170928
O O15 0.824417 0.299452 0.861336
O O16 0.256455 0.613426 0.010421
#
# Coordination Sequence:
#
# PCOD8040522 Si02
#       8
#     2   2   2   2   2   2   2   2
#     4  11  21  35  57  84 112 146 183 230 275 327
#     4   9  18  35  61  83 110 143 189 233 262 321
#     4   9  19  36  56  78 117 148 181 217 282 328
#     4  10  20  36  57  78 117 150 175 228 281 325
#     4  10  18  37  61  80 109 149 185 226 277 327
#     4  10  23  37  57  88 109 135 198 234 264 330
#     4   8  18  38  59  77 114 151 179 226 275 320
#     4  11  20  38  63  78 108 153 182 228 285 324
#
# _framework density 17.850086000000001
#
# number of rings (size 3 to 8) (size 9 to 14) (size 15 to 20)
#    0.750    1.500    2.500    1.125    0.000    3.500 
#    0.000    1.250    5.500    0.000    0.000    0.000 
#    0.000    0.000    0.000    0.000    0.000    0.000 
#
# Total GULP energy -198349.306007 kJ/mol
# GULP energy per Si atom -12396.831625 kJ/mol
# Density = 1.780946 g / cm^3
# Si number density = 17.850086 Si / 1000 Ang^3
#
#
#
# Elastic Constant Matrix: (Units=GPa)
#
#
# Indices 1 2 3 4 5 6 
#
# 1 85.5160 38.5381 29.7168 -4.4751 -2.0644 -14.1094
# 2 38.5381 113.1180 25.3375 -6.6228 18.1342 -9.0804
# 3 29.7168 25.3375 90.3947 -14.2047 -3.0209 -13.3726
# 4 -4.4751 -6.6228 -14.2047 16.6005 -4.8922 7.4672
# 5 -2.0644 18.1342 -3.0209 -4.8922 15.3424 -4.9317
# 6 -14.1094 -9.0804 -13.3726 7.4672 -4.9317 27.9921
#
#
#
# Elastic Compliance Matrix: (Units=1/GPa)
#
#
# Indices 1 2 3 4 5 6 
#
# 1 0.016974 -0.006639 -0.002160 0.000332 0.012200 0.007431
# 2 -0.006639 0.014932 -0.003816 -0.004090 -0.021574 -0.003035
# 3 -0.002160 -0.003816 0.016007 0.013635 0.012996 0.003973
# 4 0.000332 -0.004090 0.013635 0.084759 0.030787 -0.011832
# 5 0.012200 -0.021574 0.012996 0.030787 0.110009 0.016528
# 6 0.007431 -0.003035 0.003973 -0.011832 0.016528 0.046452
#
#
# Mechanical properties :
#
#
# Convention : Reuss Voigt Hill
#
# Bulk Modulus (GPa) = 44.08423 52.91259 48.49841
# Shear Modulus (GPa) = 15.53162 25.01609 20.27386
#
# Velocity S-wave (km/s) = 2.95297 3.74766 3.37380
# Velocity P-wave (km/s) = 6.03136 6.95944 6.51195
#
# Compressibility (1/GPa) = 0.02268385
#
# Stress axis : x y z
#
# Youngs Moduli (GPa) = 58.91300 66.96902 62.47306
#
# Poissons Ratio (x) = 0.44460 0.13495
# Poissons Ratio (y) = 0.39112 0.23838
# Poissons Ratio (z) = 0.12726 0.25553
#
# Static dielectric constant tensor:
#      x y z
#    x 3.265030 0.025000 0.014060 
#    y 0.025000 3.144100 -0.064660 
#    z 0.014060 -0.064660 3.295000 
# 
# 
# High freq. dielectric constant tensor:
#      x y z
#    x 1.689040 -0.000900 0.004540 
#    y -0.000900 1.680350 -0.008640 
#    z 0.004540 -0.008640 1.690170 
# 
# From -- ./inp_files/325641.got.cif
#   From: 2010.06.25/outbox.cif.g09.slc.cpg/sg2_163_cif.got.tgz:325641.got - 2010.06.27 13:26:56.
