data_PCOD8040641
_publ_section_title
;
Structure prediction by ZEFSAII (Michael W. Deem and Ramdas Pophale) SiO2 
 PCOD8040641
Probable space group: P -1
;
_chemical_formula_sum "Si O2"
_cell_formula_units_Z 16
_cell_length_a 14.527905
_cell_length_b 8.110013
_cell_length_c 8.599971
_cell_angle_alpha 53.349205
_cell_angle_beta 88.340822
_cell_angle_gamma 105.446912
_cell_volume 760.068947
_symmetry_space_group_name_H-M "P -1"
_symmetry_group_IT_number 2
_symmetry_cell_setting 'triclinic'
loop_
_space_group_symop_operation_xyz
x,y,z
-x,-y,-z
loop_
_atom_site_type_symbol
_atom_site_label
_atom_site_fract_x
_atom_site_fract_y
_atom_site_fract_z
Si Si1 0.621249 0.879118 0.113908
Si Si2 0.254846 0.950516 0.686967
Si Si3 0.397492 0.821245 0.563929
Si Si4 0.403386 0.708394 0.271152
Si Si5 0.110826 0.510394 0.881201
Si Si6 0.714890 0.617087 0.053287
Si Si7 0.023633 0.258552 0.315754
Si Si8 0.770047 0.662299 0.668393
O O1 0.511656 0.695394 0.242010
O O2 0.688920 0.810087 0.028243
O O3 0.673216 0.924278 0.251024
O O4 0.609948 0.101676 0.936811
O O5 0.316418 0.927791 0.545853
O O6 0.179471 0.710823 0.876602
O O7 0.193780 0.095614 0.545376
O O8 0.389941 0.746572 0.429769
O O9 0.378263 0.608253 0.794859
O O10 0.500000 0.000000 0.500000
O O11 0.318663 0.486283 0.349369
O O12 0.187477 0.409580 0.854188
O O13 0.056343 0.626581 0.695596
O O14 0.034083 0.314152 0.097350
O O15 0.734134 0.668677 0.842335
O O16 0.130345 0.396028 0.308403
O O17 0.000000 0.000000 0.500000
#
# Coordination Sequence:
#
# PCOD8040641 Si02
#       8
#     2   2   2   2   2   2   2   2
#     4  11  23  39  61  87 128 169 212 256 310 372
#     4  11  21  39  63  92 126 167 209 259 313 371
#     4  11  22  38  60  86 121 163 208 262 303 368
#     4  11  24  39  59  91 125 168 215 260 307 373
#     4   9  20  37  64  95 126 158 210 260 319 376
#     4  10  23  39  58  91 128 165 210 258 310 379
#     4  10  18  37  66  97 120 164 209 261 318 382
#     4  11  23  38  64  92 125 165 208 260 319 372
#
# _framework density 21.050722
#
# number of rings (size 3 to 8) (size 9 to 14) (size 15 to 20)
#    0.000    1.500    2.500    3.750    3.500    1.500 
#    0.000    0.000    0.000   20.250    0.000    0.000 
#    0.000    0.000    0.000    0.000    0.000    0.000 
#
# Total GULP energy -198209.928125 kJ/mol
# GULP energy per Si atom -12388.120508 kJ/mol
# Density = 2.100281 g / cm^3
# Si number density = 21.050722 Si / 1000 Ang^3
#
#
#
# Elastic Constant Matrix: (Units=GPa)
#
#
# Indices 1 2 3 4 5 6 
#
# 1 110.9376 35.7416 24.6172 18.9173 11.9397 -0.5107
# 2 35.7416 64.5169 18.3826 24.6529 3.1390 -5.8778
# 3 24.6172 18.3826 101.4623 -2.8907 7.3161 1.4401
# 4 18.9173 24.6529 -2.8907 28.3536 0.0781 -3.2335
# 5 11.9397 3.1390 7.3161 0.0781 30.3201 -4.2346
# 6 -0.5107 -5.8778 1.4401 -3.2335 -4.2346 27.5929
#
#
#
# Elastic Compliance Matrix: (Units=1/GPa)
#
#
# Indices 1 2 3 4 5 6 
#
# 1 0.012064 -0.004284 -0.001967 -0.004714 -0.004067 -0.001763
# 2 -0.004284 0.027611 -0.004656 -0.021210 0.000515 0.003639
# 3 -0.001967 -0.004656 0.011497 0.006408 -0.001693 -0.001137
# 4 -0.004714 -0.021210 0.006408 0.057757 0.002670 0.002238
# 5 -0.004067 0.000515 -0.001693 0.002670 0.035758 0.005923
# 6 -0.001763 0.003639 -0.001137 0.002238 0.005923 0.038214
#
#
# Mechanical properties :
#
#
# Convention : Reuss Voigt Hill
#
# Bulk Modulus (GPa) = 34.06211 48.26662 41.16436
# Shear Modulus (GPa) = 23.30965 30.46503 26.88734
#
# Velocity S-wave (km/s) = 3.33123 3.80836 3.57776
# Velocity P-wave (km/s) = 5.56887 6.50513 6.05512
#
# Compressibility (1/GPa) = 0.02935813
#
# Stress axis : x y z
#
# Youngs Moduli (GPa) = 82.88876 36.21743 86.97584
#
# Poissons Ratio (x) = 0.15517 0.17107
# Poissons Ratio (y) = 0.35513 0.40496
# Poissons Ratio (z) = 0.16304 0.16863
#
# Static dielectric constant tensor:
#      x y z
#    x 3.804080 0.709180 -0.429060 
#    y 0.709180 2.703210 0.366730 
#    z -0.429060 0.366730 3.602490 
# 
# 
# High freq. dielectric constant tensor:
#      x y z
#    x 1.846020 0.004530 0.006770 
#    y 0.004530 1.789430 -0.025820 
#    z 0.006770 -0.025820 1.832710 
# 
# From -- ./inp_files/297504.got.cif
#   From: 2010.06.25/outbox.cif.g09.slc.cpg/sg2_149_cif.got.tgz:297504.got - 2010.06.27 13:26:56.
