data_PCOD8040130
_publ_section_title
;
Structure prediction by ZEFSAII (Michael W. Deem and Ramdas Pophale) SiO2 
 PCOD8040130
Probable space group: P -1
;
_chemical_formula_sum "Si O2"
_cell_formula_units_Z 16
_cell_length_a 9.977030
_cell_length_b 25.993964
_cell_length_c 16.726812
_cell_angle_alpha 154.911487
_cell_angle_beta 25.335477
_cell_angle_gamma 138.060605
_cell_volume 717.315360
_symmetry_space_group_name_H-M "P -1"
_symmetry_group_IT_number 2
_symmetry_cell_setting 'triclinic'
loop_
_space_group_symop_operation_xyz
x,y,z
-x,-y,-z
loop_
_atom_site_type_symbol
_atom_site_label
_atom_site_fract_x
_atom_site_fract_y
_atom_site_fract_z
Si Si1 0.260481 0.568941 0.298355
Si Si2 0.265781 0.271147 0.310005
Si Si3 0.257588 0.296338 0.761953
Si Si4 0.373911 0.993349 0.798522
Si Si5 0.185790 0.671494 0.808716
Si Si6 0.403699 0.101105 0.622008
Si Si7 0.652690 0.324182 0.831242
Si Si8 0.773409 0.436766 0.078665
O O1 0.415366 0.672006 0.392156
O O2 0.871222 0.650986 0.591247
O O3 0.500000 0.500000 0.000000
O O4 0.301896 0.455302 0.182031
O O5 0.588782 0.293894 0.198675
O O6 0.971310 0.329739 0.618416
O O7 0.382303 0.115240 0.015021
O O8 0.384055 0.137911 0.468743
O O9 0.101243 0.352159 0.014280
O O10 0.963801 0.356354 0.939856
O O11 0.513591 0.989519 0.628602
O O12 0.000000 0.000000 0.000000
O O13 0.407838 0.546765 0.459338
O O14 0.996153 0.793818 0.021074
O O15 0.630371 0.186765 0.628607
O O16 0.500000 0.000000 0.500000
O O17 0.709872 0.334222 0.908861
O O18 0.000000 0.500000 0.000000
#
# Coordination Sequence:
#
# PCOD8040130 Si02
#       8
#     2   2   2   2   2   2   2   2
#     4  10  18  35  65  92 124 170 216 263 316 389
#     4  11  21  39  69  98 128 174 224 265 320 392
#     4  11  23  40  65  97 134 170 215 276 324 378
#     4  11  21  42  70  95 125 177 230 258 315 401
#     4  11  25  43  65  98 136 168 216 277 332 380
#     4  11  27  47  66  96 138 169 216 280 328 385
#     4  11  23  42  65  96 131 175 223 261 332 394
#     4  12  23  41  66  99 137 169 217 275 326 385
#
# _framework density 22.305392000000001
#
# number of rings (size 3 to 8) (size 9 to 14) (size 15 to 20)
#    0.000    1.000    5.000    3.375    0.000    7.500 
#    0.000    1.250    0.000    0.000    0.000    0.000 
#    0.000    0.000    0.000    0.000    0.000    0.000 
#
# Total GULP energy -198374.756993 kJ/mol
# GULP energy per Si atom -12398.422312 kJ/mol
# Density = 2.225462 g / cm^3
# Si number density = 22.305392 Si / 1000 Ang^3
#
#
#
# Elastic Constant Matrix: (Units=GPa)
#
#
# Indices 1 2 3 4 5 6 
#
# 1 114.0825 19.1097 37.8811 11.3529 -12.5800 -13.8793
# 2 19.1097 70.3229 14.7182 12.4766 -11.1906 -14.6343
# 3 37.8811 14.7182 109.8914 8.8560 -7.7648 -20.5678
# 4 11.3529 12.4766 8.8560 28.6975 0.6787 -10.8895
# 5 -12.5800 -11.1906 -7.7648 0.6787 49.6312 12.0238
# 6 -13.8793 -14.6343 -20.5678 -10.8895 12.0238 42.7686
#
#
#
# Elastic Compliance Matrix: (Units=1/GPa)
#
#
# Indices 1 2 3 4 5 6 
#
# 1 0.010503 -0.001415 -0.003041 -0.002529 0.001828 0.000304
# 2 -0.001415 0.016725 -0.000589 -0.005528 0.002715 0.002810
# 3 -0.003041 -0.000589 0.011006 -0.000398 -0.000157 0.004047
# 4 -0.002529 -0.005528 -0.000398 0.041940 -0.004729 0.009104
# 5 0.001828 0.002715 -0.000157 -0.004729 0.022755 -0.006154
# 6 0.000304 0.002810 0.004047 0.009104 -0.006154 0.030436
#
#
# Mechanical properties :
#
#
# Convention : Reuss Voigt Hill
#
# Bulk Modulus (GPa) = 35.53179 48.63497 42.08338
# Shear Modulus (GPa) = 32.71487 39.05864 35.88676
#
# Velocity S-wave (km/s) = 3.83388 4.18914 4.01544
# Velocity P-wave (km/s) = 5.96343 6.72681 6.35659
#
# Compressibility (1/GPa) = 0.02814381
#
# Stress axis : x y z
#
# Youngs Moduli (GPa) = 95.21449 59.78916 90.86351
#
# Poissons Ratio (x) = 0.08458 0.27632
# Poissons Ratio (y) = 0.13469 0.05354
# Poissons Ratio (z) = 0.28955 0.03523
#
# Static dielectric constant tensor:
#      x y z
#    x 4.926670 1.178410 0.974080 
#    y 1.178410 6.845010 3.088590 
#    z 0.974080 3.088590 7.963220 
# 
# 
# High freq. dielectric constant tensor:
#      x y z
#    x 1.888300 0.007270 -0.010020 
#    y 0.007270 1.864900 0.011100 
#    z -0.010020 0.011100 1.878730 
# 
# From -- ./inp_files/508733.got.cif
#   From: 2010.06.25/outbox.cif.g09.slc.cpg/sg2_255_cif.got.tgz:508733.got - 2010.06.27 13:26:56.
