data_PCOD8040324
_publ_section_title
;
Structure prediction by ZEFSAII (Michael W. Deem and Ramdas Pophale) SiO2 
 PCOD8040324
Probable space group: P -1
;
_chemical_formula_sum "Si O2"
_cell_formula_units_Z 16
_cell_length_a 10.847489
_cell_length_b 11.107690
_cell_length_c 9.756900
_cell_angle_alpha 65.908212
_cell_angle_beta 66.632381
_cell_angle_gamma 110.504512
_cell_volume 779.759082
_symmetry_space_group_name_H-M "P -1"
_symmetry_group_IT_number 2
_symmetry_cell_setting 'triclinic'
loop_
_space_group_symop_operation_xyz
x,y,z
-x,-y,-z
loop_
_atom_site_type_symbol
_atom_site_label
_atom_site_fract_x
_atom_site_fract_y
_atom_site_fract_z
Si Si1 0.399452 0.246599 0.274725
Si Si2 0.333685 0.486743 0.592282
Si Si3 0.544592 0.181427 0.494150
Si Si4 0.746848 0.173980 0.186514
Si Si5 0.834885 0.664790 0.546663
Si Si6 0.904300 0.730887 0.954346
Si Si7 0.115025 0.020679 0.317344
Si Si8 0.766676 0.462169 0.917896
O O1 0.430049 0.173700 0.426322
O O2 0.294844 0.310427 0.339157
O O3 0.299568 0.106026 0.264059
O O4 0.576506 0.398903 0.060744
O O5 0.500000 0.500000 0.500000
O O6 0.388231 0.671633 0.496368
O O7 0.213596 0.399787 0.555697
O O8 0.235709 0.382631 0.818120
O O9 0.706029 0.205762 0.342437
O O10 0.420017 0.005173 0.709753
O O11 0.905882 0.170947 0.116973
O O12 0.785568 0.317356 0.999811
O O13 0.823750 0.526128 0.707594
O O14 0.027871 0.837218 0.378409
O O15 0.875277 0.862895 0.858515
O O16 0.889958 0.617594 0.890888
O O17 0.000000 0.000000 0.500000
#
# Coordination Sequence:
#
# PCOD8040324 Si02
#       8
#     2   2   2   2   2   2   2   2
#     4  10  18  36  61  91 118 157 209 258 307 352
#     4  12  25  40  61  95 133 165 196 252 327 379
#     4  10  21  40  66  93 122 162 204 265 306 361
#     4  10  22  40  64  93 119 161 222 256 293 353
#     4  11  22  38  56  91 130 159 198 251 324 366
#     4  12  22  39  65  93 126 161 213 257 299 369
#     4  10  21  35  61  93 124 156 202 266 306 355
#     4  11  21  36  63  90 114 165 213 257 293 359
#
# _framework density 20.519158999999998
#
# number of rings (size 3 to 8) (size 9 to 14) (size 15 to 20)
#    0.000    1.250    6.250    2.250    1.750    0.500 
#    0.000    1.250    0.000    0.000    0.000    0.000 
#    0.000    0.000    0.000    0.000    0.000    0.000 
#
# Total GULP energy -198394.275507 kJ/mol
# GULP energy per Si atom -12399.642219 kJ/mol
# Density = 2.047246 g / cm^3
# Si number density = 20.519159 Si / 1000 Ang^3
#
#
#
# Elastic Constant Matrix: (Units=GPa)
#
#
# Indices 1 2 3 4 5 6 
#
# 1 55.9908 14.4423 12.8026 -3.1439 1.9168 15.4068
# 2 14.4423 123.3798 21.9750 -15.3942 11.5178 16.2774
# 3 12.8026 21.9750 58.9087 -17.1729 19.4392 -0.0307
# 4 -3.1439 -15.3942 -17.1729 32.6080 -2.0782 2.5383
# 5 1.9168 11.5178 19.4392 -2.0782 38.8520 2.1187
# 6 15.4068 16.2774 -0.0307 2.5383 2.1187 24.7978
#
#
#
# Elastic Compliance Matrix: (Units=1/GPa)
#
#
# Indices 1 2 3 4 5 6 
#
# 1 0.023146 0.000088 -0.005748 0.000554 0.002540 -0.014719
# 2 0.000088 0.010022 -0.002144 0.004067 -0.001306 -0.006941
# 3 -0.005748 -0.002144 0.026166 0.011078 -0.011847 0.004889
# 4 0.000554 0.004067 0.011078 0.038711 -0.004346 -0.006592
# 5 0.002540 -0.001306 -0.011847 -0.004346 0.031860 -0.003013
# 6 -0.014719 -0.006941 0.004889 -0.006592 -0.003013 0.054965
#
#
# Mechanical properties :
#
#
# Convention : Reuss Voigt Hill
#
# Bulk Modulus (GPa) = 22.86981 37.41326 30.14154
# Shear Modulus (GPa) = 23.25017 31.85554 27.55285
#
# Velocity S-wave (km/s) = 3.36980 3.94442 3.66838
# Velocity P-wave (km/s) = 5.12938 6.24640 5.71525
#
# Compressibility (1/GPa) = 0.04372576
#
# Stress axis : x y z
#
# Youngs Moduli (GPa) = 43.20417 99.78266 38.21806
#
# Poissons Ratio (x) = -0.00880 0.21966
# Poissons Ratio (y) = -0.00381 0.08196
# Poissons Ratio (z) = 0.24832 0.21398
#
# Static dielectric constant tensor:
#      x y z
#    x 3.970140 0.266980 0.117850 
#    y 0.266980 3.974920 -0.373820 
#    z 0.117850 -0.373820 3.825250 
# 
# 
# High freq. dielectric constant tensor:
#      x y z
#    x 1.793860 0.013180 0.004320 
#    y 0.013180 1.787610 -0.031810 
#    z 0.004320 -0.031810 1.801460 
# 
# From -- ./inp_files/257497.got.cif
#   From: 2010.06.25/outbox.cif.g09.slc.cpg/sg2_129_cif.got.tgz:257497.got - 2010.06.27 13:26:56.
