data_PCOD8040356
_publ_section_title
;
Structure prediction by ZEFSAII (Michael W. Deem and Ramdas Pophale) SiO2 
 PCOD8040356
Probable space group: P -1
;
_chemical_formula_sum "Si O2"
_cell_formula_units_Z 16
_cell_length_a 8.959376
_cell_length_b 14.521824
_cell_length_c 12.056379
_cell_angle_alpha 41.362854
_cell_angle_beta 107.477777
_cell_angle_gamma 127.426001
_cell_volume 786.076604
_symmetry_space_group_name_H-M "P -1"
_symmetry_group_IT_number 2
_symmetry_cell_setting 'triclinic'
loop_
_space_group_symop_operation_xyz
x,y,z
-x,-y,-z
loop_
_atom_site_type_symbol
_atom_site_label
_atom_site_fract_x
_atom_site_fract_y
_atom_site_fract_z
Si Si1 0.197601 0.631342 0.487675
Si Si2 0.514892 0.008693 0.129214
Si Si3 0.591012 0.327395 0.186034
Si Si4 0.811194 0.979100 0.354540
Si Si5 0.485849 0.583919 0.678293
Si Si6 0.935627 0.355041 0.323358
Si Si7 0.630038 0.371819 0.908149
Si Si8 0.165420 0.992035 0.417412
O O1 0.336616 0.570837 0.567776
O O2 0.000000 0.500000 0.500000
O O3 0.127248 0.596443 0.627616
O O4 0.316752 0.831510 0.292291
O O5 0.706840 0.026724 0.200338
O O6 0.522222 0.169938 0.032819
O O7 0.500000 0.000000 0.000000
O O8 0.584711 0.431936 0.193933
O O9 0.764631 0.306448 0.243936
O O10 0.387000 0.135490 0.300423
O O11 0.629965 0.420317 0.992914
O O12 0.692743 0.773289 0.537511
O O13 0.031229 0.053430 0.298429
O O14 0.839068 0.062289 0.406214
O O15 0.509238 0.437990 0.772497
O O16 0.148893 0.519922 0.183733
O O17 0.928352 0.188961 0.503575
#
# Coordination Sequence:
#
# PCOD8040356 Si02
#       8
#     2   2   2   2   2   2   2   2
#     4  10  22  45  65  84 115 163 205 250 297 362
#     4  11  24  43  63  89 123 158 205 257 309 348
#     4  10  21  35  58  94 130 158 190 256 303 354
#     4   9  19  38  62  87 123 162 198 247 293 368
#     4   9  20  40  62  89 123 160 202 241 301 366
#     4  11  21  36  62  90 121 161 207 240 301 368
#     4  12  22  39  59  95 124 158 198 252 305 357
#     4  10  18  36  62  91 119 161 207 237 299 361
#
# _framework density 20.35425
#
# number of rings (size 3 to 8) (size 9 to 14) (size 15 to 20)
#    0.000    1.750    1.250    4.125    0.000    0.000 
#    9.000    2.500    0.000    0.000    0.000    0.000 
#    0.000    0.000    0.000    0.000    0.000    0.000 
#
# Total GULP energy -198228.102777 kJ/mol
# GULP energy per Si atom -12389.256424 kJ/mol
# Density = 2.030792 g / cm^3
# Si number density = 20.354250 Si / 1000 Ang^3
#
#
#
# Elastic Constant Matrix: (Units=GPa)
#
#
# Indices 1 2 3 4 5 6 
#
# 1 120.6241 46.8613 60.1793 -13.4845 11.4027 12.6800
# 2 46.8613 82.7052 36.4543 -7.8325 14.6194 19.2906
# 3 60.1793 36.4543 90.7789 -8.9541 5.7821 4.9397
# 4 -13.4845 -7.8325 -8.9541 36.9819 -0.3909 -1.4442
# 5 11.4027 14.6194 5.7821 -0.3909 37.1736 -7.1986
# 6 12.6800 19.2906 4.9397 -1.4442 -7.1986 28.9736
#
#
#
# Elastic Compliance Matrix: (Units=1/GPa)
#
#
# Indices 1 2 3 4 5 6 
#
# 1 0.014155 -0.003299 -0.007479 0.002500 -0.002477 -0.003214
# 2 -0.003299 0.021119 -0.004797 0.001463 -0.009248 -0.014024
# 3 -0.007479 -0.004797 0.017607 0.000702 0.002235 0.004056
# 4 0.002500 0.001463 0.000702 0.028374 -0.001369 -0.001114
# 5 -0.002477 -0.009248 0.002235 -0.001369 0.033881 0.015210
# 6 -0.003214 -0.014024 0.004056 -0.001114 0.015210 0.048290
#
#
# Mechanical properties :
#
#
# Convention : Reuss Voigt Hill
#
# Bulk Modulus (GPa) = 46.02181 64.56645 55.29413
# Shear Modulus (GPa) = 24.77449 30.66672 27.72060
#
# Velocity S-wave (km/s) = 3.49257 3.88577 3.69441
# Velocity P-wave (km/s) = 6.23888 7.20573 6.73966
#
# Compressibility (1/GPa) = 0.02172883
#
# Stress axis : x y z
#
# Youngs Moduli (GPa) = 70.64688 47.34976 56.79651
#
# Poissons Ratio (x) = 0.15622 0.42481
# Poissons Ratio (y) = 0.23309 0.27247
# Poissons Ratio (z) = 0.52840 0.22715
#
# Static dielectric constant tensor:
#      x y z
#    x 3.784540 0.055970 -0.097150 
#    y 0.055970 3.483680 0.010580 
#    z -0.097150 0.010580 3.547560 
# 
# 
# High freq. dielectric constant tensor:
#      x y z
#    x 1.810220 0.010140 0.002150 
#    y 0.010140 1.778850 -0.003750 
#    z 0.002150 -0.003750 1.786390 
# 
# From -- ./inp_files/181871.got.cif
#   From: 2010.06.25/outbox.cif.g09.slc.cpg/sg2_91_cif.got.tgz:181871.got - 2010.06.27 13:26:56.
