data_PCOD8040209
_publ_section_title
;
Structure prediction by ZEFSAII (Michael W. Deem and Ramdas Pophale) SiO2 
 PCOD8040209
Probable space group: P -1
;
_chemical_formula_sum "Si O2"
_cell_formula_units_Z 16
_cell_length_a 11.242278
_cell_length_b 20.994450
_cell_length_c 12.019012
_cell_angle_alpha 37.245590
_cell_angle_beta 57.388462
_cell_angle_gamma 32.392573
_cell_volume 838.531756
_symmetry_space_group_name_H-M "P -1"
_symmetry_group_IT_number 2
_symmetry_cell_setting 'triclinic'
loop_
_space_group_symop_operation_xyz
x,y,z
-x,-y,-z
loop_
_atom_site_type_symbol
_atom_site_label
_atom_site_fract_x
_atom_site_fract_y
_atom_site_fract_z
Si Si1 0.137958 0.672919 0.000048
Si Si2 0.748388 0.547976 0.135095
Si Si3 0.687009 0.787695 0.695361
Si Si4 0.630182 0.913172 0.937959
Si Si5 0.415781 0.514881 0.863240
Si Si6 0.431006 0.358279 0.433470
Si Si7 0.773140 0.589547 0.309564
Si Si8 0.669760 0.764123 0.487911
O O1 0.212350 0.602017 0.933273
O O2 0.850220 0.865806 0.885627
O O3 0.312213 0.662442 0.971497
O O4 0.183201 0.544967 0.235854
O O5 0.593406 0.550453 0.151094
O O6 0.702747 0.570821 0.258202
O O7 0.031592 0.348685 0.245077
O O8 0.649108 0.720958 0.900115
O O9 0.648693 0.753336 0.644017
O O10 0.500000 0.000000 0.500000
O O11 0.439973 0.054851 0.738323
O O12 0.729370 0.738468 0.104582
O O13 0.500000 0.000000 0.000000
O O14 0.373946 0.664215 0.644330
O O15 0.393941 0.355287 0.585560
O O16 0.499974 0.212029 0.532696
O O17 0.052852 0.403071 0.460764
#
# Coordination Sequence:
#
# PCOD8040209 Si02
#       8
#     2   2   2   2   2   2   2   2
#     4   9  20  36  61  84 117 149 194 242 279 342
#     4  10  22  37  61  80 115 163 185 239 299 334
#     4  10  22  37  57  87 119 146 198 241 289 350
#     4  12  22  35  62  91 120 148 189 249 301 333
#     4   9  20  38  62  83 115 161 195 232 287 350
#     4  10  18  36  58  80 118 148 193 237 278 342
#     4  11  21  37  57  89 117 148 197 239 289 354
#     4  11  21  34  60  89 113 153 190 247 293 332
#
# _framework density 19.080970000000001
#
# number of rings (size 3 to 8) (size 9 to 14) (size 15 to 20)
#    0.750    1.000    2.500    2.625    5.250    0.500 
#    0.000    1.875    0.000    0.750    0.000    0.000 
#    0.000    0.000    0.000    0.000    0.000    0.000 
#
# Total GULP energy -198230.002334 kJ/mol
# GULP energy per Si atom -12389.375146 kJ/mol
# Density = 1.903754 g / cm^3
# Si number density = 19.080970 Si / 1000 Ang^3
#
#
#
# Elastic Constant Matrix: (Units=GPa)
#
#
# Indices 1 2 3 4 5 6 
#
# 1 109.4057 45.5420 26.4895 5.2199 2.5956 15.4541
# 2 45.5420 84.2141 32.5386 6.2248 5.8265 5.8988
# 3 26.4895 32.5386 111.8513 -3.4659 5.0402 -1.8274
# 4 5.2199 6.2248 -3.4659 38.2831 3.7449 6.5647
# 5 2.5956 5.8265 5.0402 3.7449 18.2958 4.0885
# 6 15.4541 5.8988 -1.8274 6.5647 4.0885 20.7084
#
#
#
# Elastic Compliance Matrix: (Units=1/GPa)
#
#
# Indices 1 2 3 4 5 6 
#
# 1 0.013256 -0.006120 -0.001603 0.000327 0.002426 -0.008874
# 2 -0.006120 0.016797 -0.003337 -0.002007 -0.003325 0.000781
# 3 -0.001603 -0.003337 0.010503 0.001429 -0.002596 0.003133
# 4 0.000327 -0.002007 0.001429 0.028236 -0.003851 -0.007736
# 5 0.002426 -0.003325 -0.002596 -0.003851 0.059471 -0.011613
# 6 -0.008874 0.000781 0.003133 -0.007736 -0.011613 0.059711
#
#
# Mechanical properties :
#
#
# Convention : Reuss Voigt Hill
#
# Bulk Modulus (GPa) = 54.23887 57.17905 55.70896
# Shear Modulus (GPa) = 23.12256 28.85087 25.98672
#
# Velocity S-wave (km/s) = 3.48489 3.89269 3.69442
# Velocity P-wave (km/s) = 6.68430 7.08771 6.88896
#
# Compressibility (1/GPa) = 0.01843696
#
# Stress axis : x y z
#
# Youngs Moduli (GPa) = 75.43621 59.53452 95.20850
#
# Poissons Ratio (x) = 0.36434 0.15265
# Poissons Ratio (y) = 0.46165 0.31768
# Poissons Ratio (z) = 0.12095 0.19865
#
# Static dielectric constant tensor:
#      x y z
#    x 3.362130 0.114130 0.054960 
#    y 0.114130 3.274490 0.059300 
#    z 0.054960 0.059300 3.656280 
# 
# 
# High freq. dielectric constant tensor:
#      x y z
#    x 1.727410 0.013720 0.008310 
#    y 0.013720 1.726540 0.012540 
#    z 0.008310 0.012540 1.746110 
# 
# From -- ./inp_files/438631.got.cif
#   From: 2010.06.25/outbox.cif.g09.slc.cpg/sg2_220_cif.got.tgz:438631.got - 2010.06.27 13:26:56.
