data_PCOD8040616
_publ_section_title
;
Structure prediction by ZEFSAII (Michael W. Deem and Ramdas Pophale) SiO2 
 PCOD8040616
Probable space group: P -1
;
_chemical_formula_sum "Si O2"
_cell_formula_units_Z 14
_cell_length_a 8.802449
_cell_length_b 9.165442
_cell_length_c 12.806548
_cell_angle_alpha 65.574859
_cell_angle_beta 43.944953
_cell_angle_gamma 55.490221
_cell_volume 590.812717
_symmetry_space_group_name_H-M "P -1"
_symmetry_group_IT_number 2
_symmetry_cell_setting 'triclinic'
loop_
_space_group_symop_operation_xyz
x,y,z
-x,-y,-z
loop_
_atom_site_type_symbol
_atom_site_label
_atom_site_fract_x
_atom_site_fract_y
_atom_site_fract_z
Si Si1 0.601015 0.878919 0.360735
Si Si2 0.399169 0.856194 0.069494
Si Si3 0.268762 0.483496 0.665645
Si Si4 0.111214 0.588709 0.497906
Si Si5 0.102071 0.088154 0.619371
Si Si6 0.274198 0.856544 0.898757
Si Si7 0.622347 0.484453 0.182585
O O1 0.672858 0.723938 0.286946
O O2 0.806748 0.810874 0.369213
O O3 0.338217 0.908392 0.528583
O O4 0.580389 0.063028 0.268528
O O5 0.562179 0.670446 0.100087
O O6 0.117776 0.947979 0.216403
O O7 0.407218 0.810738 0.957032
O O8 0.500000 0.000000 0.000000
O O9 0.500000 0.500000 0.500000
O O10 0.064835 0.568134 0.650740
O O11 0.184831 0.557757 0.803053
O O12 0.391656 0.498231 0.356961
O O13 0.000000 0.500000 0.500000
O O14 0.990982 0.797770 0.473291
O O15 0.283053 0.676314 0.898188
O O16 0.000000 0.000000 0.000000
#
# Coordination Sequence:
#
# PCOD8040616 Si02
#       7
#     2   2   2   2   2   2   2
#     4  11  22  42  70 103 140 179 236 283 353 416
#     4  11  24  48  73 103 145 181 235 292 353 421
#     4  10  22  39  65  99 144 176 228 292 348 413
#     4  10  18  37  65 103 135 173 227 285 350 402
#     4  10  22  39  73 102 137 181 230 287 349 413
#     4  12  25  45  72  99 140 191 238 287 356 416
#     4  10  24  44  65  98 141 186 236 285 346 426
#
# _framework density 23.696172000000001
#
# number of rings (size 3 to 8) (size 9 to 14) (size 15 to 20)
#    0.000    1.429    2.857    2.143    6.000    0.000 
#    0.000   22.857    0.000    0.000    0.000    0.000 
#    0.000    0.000    0.000    0.000    0.000    0.000 
#
# Total GULP energy -173476.785253 kJ/mol
# GULP energy per Si atom -12391.198947 kJ/mol
# Density = 2.364224 g / cm^3
# Si number density = 23.696172 Si / 1000 Ang^3
#
#
#
# Elastic Constant Matrix: (Units=GPa)
#
#
# Indices 1 2 3 4 5 6 
#
# 1 156.5702 68.6740 66.0300 0.8463 45.5389 6.1148
# 2 68.6740 138.4638 56.9346 -5.0446 15.4915 19.5584
# 3 66.0300 56.9346 93.7734 -2.9606 21.1687 0.0161
# 4 0.8463 -5.0446 -2.9606 26.5469 -5.5509 7.2234
# 5 45.5389 15.4915 21.1687 -5.5509 60.6986 3.3547
# 6 6.1148 19.5584 0.0161 7.2234 3.3547 37.9016
#
#
#
# Elastic Compliance Matrix: (Units=1/GPa)
#
#
# Indices 1 2 3 4 5 6 
#
# 1 0.011852 -0.003390 -0.004882 -0.003249 -0.006679 0.001050
# 2 -0.003390 0.011855 -0.005143 0.003984 0.002036 -0.006508
# 3 -0.004882 -0.005143 0.017524 -0.000122 -0.001345 0.003577
# 4 -0.003249 0.003984 -0.000122 0.042517 0.005913 -0.010158
# 5 -0.006679 0.002036 -0.001345 0.005913 0.022145 -0.003059
# 6 0.001050 -0.006508 0.003577 -0.010158 -0.003059 0.031778
#
#
# Mechanical properties :
#
#
# Convention : Reuss Voigt Hill
#
# Bulk Modulus (GPa) = 69.44689 85.78718 77.61704
# Shear Modulus (GPa) = 29.53312 38.17399 33.85355
#
# Velocity S-wave (km/s) = 3.53416 4.01805 3.78385
# Velocity P-wave (km/s) = 6.78414 7.60315 7.20529
#
# Compressibility (1/GPa) = 0.01439949
#
# Stress axis : x y z
#
# Youngs Moduli (GPa) = 84.37346 84.35262 57.06588
#
# Poissons Ratio (x) = 0.28597 0.27861
# Poissons Ratio (y) = 0.28604 0.29350
# Poissons Ratio (z) = 0.41193 0.43385
#
# Static dielectric constant tensor:
#      x y z
#    x 4.474090 0.061710 0.107780 
#    y 0.061710 4.115980 -0.199700 
#    z 0.107780 -0.199700 4.221330 
# 
# 
# High freq. dielectric constant tensor:
#      x y z
#    x 1.954800 -0.000840 0.016840 
#    y -0.000840 1.931120 -0.015620 
#    z 0.016840 -0.015620 1.927700 
# 
# From -- ./inp_files/186193.got.cif
#   From: 2010.06.25/outbox.cif.g09.slc.cpg/sg2_94_cif.got.tgz:186193.got - 2010.06.27 13:26:56.
