data_PCOD8040027
_publ_section_title
;
Structure prediction by ZEFSAII (Michael W. Deem and Ramdas Pophale) SiO2 
 PCOD8040027
Probable space group: P -1
;
_chemical_formula_sum "Si O2"
_cell_formula_units_Z 16
_cell_length_a 12.296067
_cell_length_b 8.850069
_cell_length_c 11.909494
_cell_angle_alpha 124.808969
_cell_angle_beta 130.228055
_cell_angle_gamma 53.490991
_cell_volume 757.639726
_symmetry_space_group_name_H-M "P -1"
_symmetry_group_IT_number 2
_symmetry_cell_setting 'triclinic'
loop_
_space_group_symop_operation_xyz
x,y,z
-x,-y,-z
loop_
_atom_site_type_symbol
_atom_site_label
_atom_site_fract_x
_atom_site_fract_y
_atom_site_fract_z
Si Si1 0.077057 0.831324 0.644465
Si Si2 0.262749 0.097999 0.589930
Si Si3 0.254678 0.393542 0.521374
Si Si4 0.732196 0.856654 0.899519
Si Si5 0.200366 0.152867 0.808164
Si Si6 0.509347 0.703367 0.551026
Si Si7 0.993607 0.583141 0.816755
Si Si8 0.877599 0.136304 0.060114
O O1 0.204146 0.613538 0.628150
O O2 0.049331 0.899166 0.783058
O O3 0.918329 0.839243 0.491233
O O4 0.136245 0.977463 0.677043
O O5 0.299264 0.244896 0.592160
O O6 0.312614 0.129383 0.764819
O O7 0.341736 0.872863 0.503085
O O8 0.411477 0.339795 0.534934
O O9 0.121310 0.368879 0.345795
O O10 0.600558 0.792745 0.734424
O O11 0.899753 0.701044 0.911839
O O12 0.709830 0.863021 0.021749
O O13 0.727761 0.071693 0.938809
O O14 0.056083 0.356403 0.795014
O O15 0.500000 0.500000 0.500000
O O16 0.139449 0.645279 0.904151
O O17 0.000000 0.000000 0.000000
#
# Coordination Sequence:
#
# PCOD8040027 Si02
#       8
#     2   2   2   2   2   2   2   2
#     4  11  21  36  64  97 126 157 206 262 305 358
#     4  12  23  38  64  92 125 167 205 250 306 367
#     4  11  22  41  62  94 127 159 210 255 303 364
#     4   9  22  39  58  86 125 164 201 252 306 368
#     4  11  22  35  61  96 125 158 206 257 311 359
#     4  11  26  45  64  87 125 168 206 252 307 373
#     4  10  18  35  61  91 126 154 203 258 311 353
#     4   9  18  36  58  91 121 160 196 259 307 352
#
# _framework density 21.118214999999999
#
# number of rings (size 3 to 8) (size 9 to 14) (size 15 to 20)
#    0.000    1.500    2.500    3.000    3.500    0.500 
#    0.000    0.000    0.000    4.500    0.000    0.000 
#    0.000    0.000    0.000    0.000    0.000    0.000 
#
# Total GULP energy -198299.986456 kJ/mol
# GULP energy per Si atom -12393.749154 kJ/mol
# Density = 2.107015 g / cm^3
# Si number density = 21.118215 Si / 1000 Ang^3
#
#
#
# Elastic Constant Matrix: (Units=GPa)
#
#
# Indices 1 2 3 4 5 6 
#
# 1 110.3622 47.3073 41.5751 3.5708 -27.5164 16.0596
# 2 47.3073 130.4108 11.9084 19.6682 -8.2873 13.5822
# 3 41.5751 11.9084 70.7121 12.8782 -16.7233 16.7828
# 4 3.5708 19.6682 12.8782 25.5786 4.0713 1.1654
# 5 -27.5164 -8.2873 -16.7233 4.0713 39.1572 4.3980
# 6 16.0596 13.5822 16.7828 1.1654 4.3980 41.7878
#
#
#
# Elastic Compliance Matrix: (Units=1/GPa)
#
#
# Indices 1 2 3 4 5 6 
#
# 1 0.015789 -0.005027 -0.006984 0.004194 0.006890 -0.002471
# 2 -0.005027 0.011107 0.004190 -0.010122 0.002030 -0.003292
# 3 -0.006984 0.004190 0.024770 -0.015769 0.009225 -0.009157
# 4 0.004194 -0.010122 -0.015769 0.055885 -0.012614 0.007780
# 5 0.006890 0.002030 0.009225 -0.012614 0.037249 -0.010581
# 6 -0.002471 -0.003292 -0.009157 0.007780 -0.010581 0.030524
#
#
# Mechanical properties :
#
#
# Convention : Reuss Voigt Hill
#
# Bulk Modulus (GPa) = 27.76010 57.00742 42.38376
# Shear Modulus (GPa) = 24.63366 35.35102 29.99234
#
# Velocity S-wave (km/s) = 3.41906 4.09584 3.77266
# Velocity P-wave (km/s) = 5.36286 7.03000 6.25225
#
# Compressibility (1/GPa) = 0.03602292
#
# Stress axis : x y z
#
# Youngs Moduli (GPa) = 63.33666 90.02960 40.37221
#
# Poissons Ratio (x) = 0.45258 0.28197
# Poissons Ratio (y) = 0.31839 -0.16915
# Poissons Ratio (z) = 0.44236 -0.37721
#
# Static dielectric constant tensor:
#      x y z
#    x 4.064930 0.248790 -0.166010 
#    y 0.248790 3.918260 0.359340 
#    z -0.166010 0.359340 3.791020 
# 
# 
# High freq. dielectric constant tensor:
#      x y z
#    x 1.835420 0.018890 -0.028550 
#    y 0.018890 1.824240 0.026360 
#    z -0.028550 0.026360 1.814570 
# 
# From -- ./inp_files/304893.got.cif
#   From: 2010.06.25/outbox.cif.g09.slc.cpg/sg2_153_cif.got.tgz:304893.got - 2010.06.27 13:26:56.
