data_PCOD8040856
_publ_section_title
;
Structure prediction by ZEFSAII (Michael W. Deem and Ramdas Pophale) SiO2 
 PCOD8040856
Probable space group: P -1
;
_chemical_formula_sum "Si O2"
_cell_formula_units_Z 16
_cell_length_a 12.066167
_cell_length_b 9.522867
_cell_length_c 11.542192
_cell_angle_alpha 65.225254
_cell_angle_beta 51.859151
_cell_angle_gamma 48.921201
_cell_volume 786.091328
_symmetry_space_group_name_H-M "P -1"
_symmetry_group_IT_number 2
_symmetry_cell_setting 'triclinic'
loop_
_space_group_symop_operation_xyz
x,y,z
-x,-y,-z
loop_
_atom_site_type_symbol
_atom_site_label
_atom_site_fract_x
_atom_site_fract_y
_atom_site_fract_z
Si Si1 0.534406 0.043132 0.806318
Si Si2 0.358775 0.188557 0.642454
Si Si3 0.233039 0.820830 0.330530
Si Si4 0.884913 0.144634 0.352026
Si Si5 0.469009 0.516841 0.878130
Si Si6 0.636506 0.143873 0.326710
Si Si7 0.950180 0.450574 0.168608
Si Si8 0.301776 0.306080 0.048852
O O1 0.512825 0.071807 0.674030
O O2 0.681906 0.062731 0.754741
O O3 0.584548 0.834906 0.872448
O O4 0.355974 0.191351 0.932503
O O5 0.446157 0.225857 0.467489
O O6 0.214170 0.380829 0.723341
O O7 0.284581 0.066292 0.697058
O O8 0.203356 0.773042 0.495091
O O9 0.355405 0.627387 0.251612
O O10 0.058016 0.941514 0.329786
O O11 0.760453 0.131659 0.350105
O O12 0.923828 0.285547 0.220615
O O13 0.385653 0.724712 0.811423
O O14 0.500000 0.500000 0.000000
O O15 0.329516 0.470890 0.960309
O O16 0.107009 0.386749 0.175550
O O17 0.000000 0.500000 0.000000
#
# Coordination Sequence:
#
# PCOD8040856 Si02
#       8
#     2   2   2   2   2   2   2   2
#     4  10  18  39  63  87 123 162 211 250 304 377
#     4  11  24  41  64  90 128 168 210 263 313 375
#     4  10  22  40  67  94 120 167 209 266 311 366
#     4  11  23  41  66  96 128 159 215 262 314 374
#     4  11  24  42  63  92 130 168 212 257 319 379
#     4  11  25  43  63  93 127 172 211 260 318 373
#     4  12  23  37  60  95 127 162 207 258 312 371
#     4  10  21  36  61  90 121 166 206 254 308 369
#
# _framework density 20.353869
#
# number of rings (size 3 to 8) (size 9 to 14) (size 15 to 20)
#    0.000    1.250    3.750    2.250    1.750    3.000 
#    0.000    1.875    0.000    6.000    0.000    0.000 
#    0.000    0.000    0.000    0.000    0.000    0.000 
#
# Total GULP energy -198407.307925 kJ/mol
# GULP energy per Si atom -12400.456745 kJ/mol
# Density = 2.030754 g / cm^3
# Si number density = 20.353869 Si / 1000 Ang^3
#
#
#
# Elastic Constant Matrix: (Units=GPa)
#
#
# Indices 1 2 3 4 5 6 
#
# 1 112.1883 44.9235 29.5769 -8.5221 0.3425 -5.1935
# 2 44.9235 59.5289 14.8951 -17.3398 -4.4146 -0.5757
# 3 29.5769 14.8951 69.0861 -21.5051 0.6037 -5.9331
# 4 -8.5221 -17.3398 -21.5051 37.9152 0.1965 -6.0826
# 5 0.3425 -4.4146 0.6037 0.1965 35.2372 -0.8343
# 6 -5.1935 -0.5757 -5.9331 -6.0826 -0.8343 15.5965
#
#
#
# Elastic Compliance Matrix: (Units=1/GPa)
#
#
# Indices 1 2 3 4 5 6 
#
# 1 0.014349 -0.010985 -0.005159 -0.004633 -0.001389 0.000529
# 2 -0.010985 0.028377 0.002799 0.012652 0.003628 0.003583
# 3 -0.005159 0.002799 0.021581 0.014316 0.000240 0.012191
# 4 -0.004633 0.012652 0.014316 0.042612 0.001646 0.021077
# 5 -0.001389 0.003628 0.000240 0.001646 0.028880 0.001950
# 6 0.000529 0.003583 0.012191 0.021077 0.001950 0.077387
#
#
# Mechanical properties :
#
#
# Convention : Reuss Voigt Hill
#
# Bulk Modulus (GPa) = 26.58377 46.62161 36.60269
# Shear Modulus (GPa) = 19.80851 27.84362 23.82607
#
# Velocity S-wave (km/s) = 3.12301 3.70263 3.42510
# Velocity P-wave (km/s) = 5.10817 6.42141 5.80207
#
# Compressibility (1/GPa) = 0.03761694
#
# Stress axis : x y z
#
# Youngs Moduli (GPa) = 69.68947 35.23946 46.33705
#
# Poissons Ratio (x) = 0.38711 0.23907
# Poissons Ratio (y) = 0.76555 -0.12971
# Poissons Ratio (z) = 0.35955 -0.09864
#
# Static dielectric constant tensor:
#      x y z
#    x 3.748480 -0.137690 -0.097690 
#    y -0.137690 3.722230 -0.035210 
#    z -0.097690 -0.035210 3.868780 
# 
# 
# High freq. dielectric constant tensor:
#      x y z
#    x 1.790900 -0.006210 -0.004940 
#    y -0.006210 1.790360 -0.013270 
#    z -0.004940 -0.013270 1.806580 
# 
# From -- ./inp_files/223239.got.cif
#   From: 2010.06.25/outbox.cif.g09.slc.cpg/sg2_112_cif.got.tgz:223239.got - 2010.06.27 13:26:56.
