data_PCOD8040798
_publ_section_title
;
Structure prediction by ZEFSAII (Michael W. Deem and Ramdas Pophale) SiO2 
 PCOD8040798
Probable space group: P -1
;
_chemical_formula_sum "Si O2"
_cell_formula_units_Z 16
_cell_length_a 14.967295
_cell_length_b 18.254966
_cell_length_c 24.822016
_cell_angle_alpha 160.462839
_cell_angle_beta 160.759880
_cell_angle_gamma 28.283549
_cell_volume 744.789528
_symmetry_space_group_name_H-M "P -1"
_symmetry_group_IT_number 2
_symmetry_cell_setting 'triclinic'
loop_
_space_group_symop_operation_xyz
x,y,z
-x,-y,-z
loop_
_atom_site_type_symbol
_atom_site_label
_atom_site_fract_x
_atom_site_fract_y
_atom_site_fract_z
Si Si1 0.062881 0.138444 0.946029
Si Si2 0.759396 0.347678 0.824957
Si Si3 0.601322 0.377912 0.053455
Si Si4 0.831749 0.653252 0.473730
Si Si5 0.893013 0.395155 0.122848
Si Si6 0.013356 0.813882 0.262992
Si Si7 0.667906 0.219668 0.367941
Si Si8 0.700739 0.055571 0.383993
O O1 0.909613 0.298657 0.931491
O O2 0.382095 0.201517 0.161932
O O3 0.002946 0.883958 0.720699
O O4 0.962889 0.184123 0.981606
O O5 0.439613 0.296315 0.614512
O O6 0.860157 0.190848 0.727423
O O7 0.813729 0.601333 0.015592
O O8 0.767524 0.545248 0.304150
O O9 0.792575 0.317673 0.071057
O O10 0.332938 0.476580 0.947027
O O11 0.511206 0.158545 0.883351
O O12 0.000000 0.500000 0.500000
O O13 0.167709 0.552707 0.395434
O O14 0.270194 0.829868 0.461559
O O15 0.840604 0.022178 0.311244
O O16 0.602652 0.213530 0.390922
O O17 0.000000 0.000000 0.500000
#
# Coordination Sequence:
#
# PCOD8040798 Si02
#       8
#     2   2   2   2   2   2   2   2
#     4  12  26  42  70  96 139 177 220 280 335 399
#     4  11  24  42  65 100 135 172 229 272 336 393
#     4  11  23  41  70  99 132 173 228 272 337 390
#     4  12  26  47  67  94 139 180 218 270 346 407
#     4  11  24  41  68 103 133 169 228 285 324 396
#     4  10  22  40  68  98 130 179 221 278 322 406
#     4  11  23  44  69  97 136 179 228 267 346 393
#     4  10  18  38  68  90 124 177 221 265 328 397
#
# _framework density 21.482579999999999
#
# number of rings (size 3 to 8) (size 9 to 14) (size 15 to 20)
#    0.000    1.000    3.750    4.500    3.500    0.500 
#    6.750    1.250    0.000    0.000    0.000    0.000 
#    0.000    0.000    0.000    0.000    0.000    0.000 
#
# Total GULP energy -198459.838870 kJ/mol
# GULP energy per Si atom -12403.739929 kJ/mol
# Density = 2.143368 g / cm^3
# Si number density = 21.482580 Si / 1000 Ang^3
#
#
#
# Elastic Constant Matrix: (Units=GPa)
#
#
# Indices 1 2 3 4 5 6 
#
# 1 125.4017 22.7374 45.9821 -1.9845 -6.6305 -9.8314
# 2 22.7374 59.9388 21.9788 -19.7394 4.8769 -3.9154
# 3 45.9821 21.9788 133.2018 -12.9040 0.8635 -6.4297
# 4 -1.9845 -19.7394 -12.9040 34.3921 -3.8097 -2.4925
# 5 -6.6305 4.8769 0.8635 -3.8097 29.9107 13.4296
# 6 -9.8314 -3.9154 -6.4297 -2.4925 13.4296 20.8943
#
#
#
# Elastic Compliance Matrix: (Units=1/GPa)
#
#
# Indices 1 2 3 4 5 6 
#
# 1 0.009881 -0.003410 -0.002992 -0.002189 0.001805 0.001669
# 2 -0.003410 0.023688 -0.001038 0.012873 -0.006701 0.008358
# 3 -0.002992 -0.001038 0.009100 0.002657 -0.001544 0.002508
# 4 -0.002189 0.012873 0.002657 0.037744 -0.001213 0.007482
# 5 0.001805 -0.006701 -0.001544 -0.001213 0.049586 -0.032897
# 6 0.001669 0.008358 0.002508 0.007482 -0.032897 0.073020
#
#
# Mechanical properties :
#
#
# Convention : Reuss Voigt Hill
#
# Bulk Modulus (GPa) = 35.98252 55.54876 45.76564
# Shear Modulus (GPa) = 22.01079 32.22902 27.11990
#
# Velocity S-wave (km/s) = 3.20439 3.87749 3.55690
# Velocity P-wave (km/s) = 5.52058 6.77941 6.18212
#
# Compressibility (1/GPa) = 0.02779127
#
# Stress axis : x y z
#
# Youngs Moduli (GPa) = 101.20191 42.21462 109.89314
#
# Poissons Ratio (x) = 0.14395 0.32875
# Poissons Ratio (y) = 0.34510 0.11401
# Poissons Ratio (z) = 0.30275 0.04380
#
# Static dielectric constant tensor:
#      x y z
#    x 4.197060 0.077760 -0.180010 
#    y 0.077760 3.819380 -0.156200 
#    z -0.180010 -0.156200 4.141090 
# 
# 
# High freq. dielectric constant tensor:
#      x y z
#    x 1.847960 -0.000380 -0.003530 
#    y -0.000380 1.831090 -0.000540 
#    z -0.003530 -0.000540 1.856770 
# 
# From -- ./inp_files/318208.got.cif
#   From: 2010.06.25/outbox.cif.g09.slc.cpg/sg2_160_cif.got.tgz:318208.got - 2010.06.27 13:26:56.
