data_PCOD8040766
_publ_section_title
;
Structure prediction by ZEFSAII (Michael W. Deem and Ramdas Pophale) SiO2 
 PCOD8040766
Probable space group: P -1
;
_chemical_formula_sum "Si O2"
_cell_formula_units_Z 16
_cell_length_a 14.800617
_cell_length_b 12.511442
_cell_length_c 10.180172
_cell_angle_alpha 37.849154
_cell_angle_beta 112.362667
_cell_angle_gamma 135.047787
_cell_volume 744.855956
_symmetry_space_group_name_H-M "P -1"
_symmetry_group_IT_number 2
_symmetry_cell_setting 'triclinic'
loop_
_space_group_symop_operation_xyz
x,y,z
-x,-y,-z
loop_
_atom_site_type_symbol
_atom_site_label
_atom_site_fract_x
_atom_site_fract_y
_atom_site_fract_z
Si Si1 0.341885 0.242966 0.375662
Si Si2 0.160222 0.889893 0.270378
Si Si3 0.778099 0.682498 0.976366
Si Si4 0.433081 0.901469 0.918266
Si Si5 0.770133 0.087667 0.132405
Si Si6 0.577868 0.753601 0.107828
Si Si7 0.487574 0.824890 0.561820
Si Si8 0.033002 0.401675 0.800276
O O1 0.494719 0.468269 0.312293
O O2 0.376978 0.133231 0.395209
O O3 0.228092 0.040425 0.618270
O O4 0.282943 0.337653 0.178612
O O5 0.132870 0.695276 0.544432
O O6 0.043076 0.746366 0.232394
O O7 0.141729 0.049974 0.177646
O O8 0.315206 0.064563 0.127086
O O9 0.652880 0.463174 0.213615
O O10 0.881829 0.653279 0.043505
O O11 0.277632 0.783473 0.963720
O O12 0.520481 0.119934 0.646018
O O13 0.444700 0.715593 0.064584
O O14 0.500000 0.000000 0.000000
O O15 0.661203 0.865653 0.182153
O O16 0.922808 0.310243 0.941236
O O17 0.500000 0.000000 0.500000
#
# Coordination Sequence:
#
# PCOD8040766 Si02
#       8
#     2   2   2   2   2   2   2   2
#     4  11  23  38  61  96 129 160 208 267 325 384
#     4  10  22  42  66  92 122 164 218 269 308 380
#     4  12  24  38  64  95 129 164 216 258 321 381
#     4   9  19  36  61  92 121 161 210 257 323 371
#     4   9  21  41  60  88 128 168 212 253 314 386
#     4  10  18  38  65  93 123 157 208 271 324 370
#     4  11  23  38  64  94 132 167 205 269 333 381
#     4  10  23  43  64  87 126 172 215 258 314 371
#
# _framework density 21.480664000000001
#
# number of rings (size 3 to 8) (size 9 to 14) (size 15 to 20)
#    0.000    1.750    1.250    2.625    3.500    1.500 
#    2.250    0.625    0.000    0.000    0.000    0.000 
#    0.000    0.000    0.000    0.000    0.000    0.000 
#
# Total GULP energy -198299.324060 kJ/mol
# GULP energy per Si atom -12393.707754 kJ/mol
# Density = 2.143177 g / cm^3
# Si number density = 21.480664 Si / 1000 Ang^3
#
#
#
# Elastic Constant Matrix: (Units=GPa)
#
#
# Indices 1 2 3 4 5 6 
#
# 1 131.6894 28.8878 77.6828 12.1917 2.1800 1.5835
# 2 28.8878 54.8784 42.1744 -5.4352 -2.1306 -6.4375
# 3 77.6828 42.1744 130.4782 6.5762 -8.6414 -7.1770
# 4 12.1917 -5.4352 6.5762 31.6639 0.4947 4.3672
# 5 2.1800 -2.1306 -8.6414 0.4947 41.6067 0.9030
# 6 1.5835 -6.4375 -7.1770 4.3672 0.9030 21.0583
#
#
#
# Elastic Compliance Matrix: (Units=1/GPa)
#
#
# Indices 1 2 3 4 5 6 
#
# 1 0.012505 -0.002024 -0.006939 -0.003252 -0.002093 -0.003160
# 2 -0.002024 0.025997 -0.007286 0.006159 -0.000243 0.004350
# 3 -0.006939 -0.007286 0.014656 -0.002167 0.002982 0.003611
# 4 -0.003252 0.006159 -0.002167 0.035158 -0.000254 -0.005892
# 5 -0.002093 -0.000243 0.002982 -0.000254 0.024752 0.000091
# 6 -0.003160 0.004350 0.003611 -0.005892 0.000091 0.051503
#
#
# Mechanical properties :
#
#
# Convention : Reuss Voigt Hill
#
# Bulk Modulus (GPa) = 48.40093 68.28176 58.34135
# Shear Modulus (GPa) = 24.51526 30.08584 27.30055
#
# Velocity S-wave (km/s) = 3.38194 3.74652 3.56889
# Velocity P-wave (km/s) = 6.15071 7.11138 6.64842
#
# Compressibility (1/GPa) = 0.02066076
#
# Stress axis : x y z
#
# Youngs Moduli (GPa) = 79.96960 38.46598 68.23213
#
# Poissons Ratio (x) = 0.07784 0.47349
# Poissons Ratio (y) = 0.16182 0.49711
# Poissons Ratio (z) = 0.55494 0.28024
#
# Static dielectric constant tensor:
#      x y z
#    x 4.275210 -0.153090 0.141770 
#    y -0.153090 3.385160 0.010780 
#    z 0.141770 0.010780 3.968560 
# 
# 
# High freq. dielectric constant tensor:
#      x y z
#    x 1.846420 -0.016140 0.004180 
#    y -0.016140 1.830660 0.009090 
#    z 0.004180 0.009090 1.850800 
# 
# From -- ./inp_files/306312.got.cif
#   From: 2010.06.25/outbox.cif.g09.slc.cpg/sg2_154_cif.got.tgz:306312.got - 2010.06.27 13:26:56.
