data_PCOD8040858
_publ_section_title
;
Structure prediction by ZEFSAII (Michael W. Deem and Ramdas Pophale) SiO2 
 PCOD8040858
Probable space group: P -1
;
_chemical_formula_sum "Si O2"
_cell_formula_units_Z 16
_cell_length_a 13.794055
_cell_length_b 11.656191
_cell_length_c 9.928479
_cell_angle_alpha 65.897086
_cell_angle_beta 46.106970
_cell_angle_gamma 41.614488
_cell_volume 743.553671
_symmetry_space_group_name_H-M "P -1"
_symmetry_group_IT_number 2
_symmetry_cell_setting 'triclinic'
loop_
_space_group_symop_operation_xyz
x,y,z
-x,-y,-z
loop_
_atom_site_type_symbol
_atom_site_label
_atom_site_fract_x
_atom_site_fract_y
_atom_site_fract_z
Si Si1 0.870192 0.216896 0.153560
Si Si2 0.723448 0.130106 0.992512
Si Si3 0.803193 0.793400 0.414369
Si Si4 0.840041 0.317957 0.823937
Si Si5 0.776260 0.507742 0.268044
Si Si6 0.923443 0.551428 0.853657
Si Si7 0.646273 0.703004 0.813881
Si Si8 0.610652 0.170794 0.368095
O O1 0.762156 0.375944 0.288488
O O2 0.785755 0.131927 0.286596
O O3 0.846478 0.283185 0.993923
O O4 0.091028 0.071698 0.051747
O O5 0.584631 0.147469 0.012630
O O6 0.591338 0.229394 0.205224
O O7 0.780863 0.232501 0.838285
O O8 0.698701 0.748170 0.609948
O O9 0.952270 0.768370 0.380184
O O10 0.928779 0.654428 0.237176
O O11 0.647344 0.996847 0.418322
O O12 0.692772 0.525383 0.834820
O O13 0.581204 0.671555 0.447006
O O14 0.952183 0.406579 0.252268
O O15 0.809747 0.582519 0.078941
O O16 0.762884 0.687370 0.831901
#
# Coordination Sequence:
#
# PCOD8040858 Si02
#       8
#     2   2   2   2   2   2   2   2
#     4  11  20  41  65  87 126 159 207 253 299 362
#     4  11  21  38  66  95 120 160 201 262 303 355
#     4  11  20  40  63  90 128 151 203 263 298 350
#     4  10  18  39  63  89 123 157 201 253 307 355
#     4  11  22  38  64  86 124 165 202 246 303 373
#     4  10  22  40  58  87 123 166 195 245 312 363
#     4  11  23  36  64  96 123 156 203 260 305 357
#     4  11  22  37  64  98 117 157 212 254 300 358
#
# _framework density 21.518284999999999
#
# number of rings (size 3 to 8) (size 9 to 14) (size 15 to 20)
#    0.000    1.250    5.000    3.750    0.000    4.000 
#    0.000    2.500    0.000    1.500    0.000    0.000 
#    0.000    0.000    0.000    0.000    0.000    0.000 
#
# Total GULP energy -198302.925003 kJ/mol
# GULP energy per Si atom -12393.932813 kJ/mol
# Density = 2.146931 g / cm^3
# Si number density = 21.518285 Si / 1000 Ang^3
#
#
#
# Elastic Constant Matrix: (Units=GPa)
#
#
# Indices 1 2 3 4 5 6 
#
# 1 82.8450 15.8521 13.4805 5.5296 -26.5172 -5.5044
# 2 15.8521 80.5585 23.8826 -6.2401 -8.3030 -5.6543
# 3 13.4805 23.8826 79.2492 7.2990 -20.7705 -0.3642
# 4 5.5296 -6.2401 7.2990 33.7206 4.5014 -2.6490
# 5 -26.5172 -8.3030 -20.7705 4.5014 30.4848 4.3736
# 6 -5.5044 -5.6543 -0.3642 -2.6490 4.3736 22.2069
#
#
#
# Elastic Compliance Matrix: (Units=1/GPa)
#
#
# Indices 1 2 3 4 5 6 
#
# 1 0.018538 -0.003308 0.003362 -0.006922 0.018636 -0.000688
# 2 -0.003308 0.014997 -0.005459 0.005363 -0.003925 0.004322
# 3 0.003362 -0.005459 0.018583 -0.008050 0.015911 -0.004346
# 4 -0.006922 0.005363 -0.008050 0.036273 -0.016416 0.007078
# 5 0.018636 -0.003925 0.015911 -0.016416 0.062705 -0.010427
# 6 -0.000688 0.004322 -0.004346 0.007078 -0.010427 0.048787
#
#
# Mechanical properties :
#
#
# Convention : Reuss Voigt Hill
#
# Bulk Modulus (GPa) = 24.20885 38.78701 31.49793
# Shear Modulus (GPa) = 22.27529 29.91163 26.09346
#
# Velocity S-wave (km/s) = 3.22091 3.73239 3.48604
# Velocity P-wave (km/s) = 5.01070 6.05298 5.55634
#
# Compressibility (1/GPa) = 0.04130720
#
# Stress axis : x y z
#
# Youngs Moduli (GPa) = 53.94363 66.67951 53.81154
#
# Poissons Ratio (x) = 0.22060 -0.18093
# Poissons Ratio (y) = 0.17846 0.29378
# Poissons Ratio (z) = -0.18137 0.36404
#
# Static dielectric constant tensor:
#      x y z
#    x 4.198830 0.088870 -0.453900 
#    y 0.088870 3.700670 -0.092240 
#    z -0.453900 -0.092240 3.882670 
# 
# 
# High freq. dielectric constant tensor:
#      x y z
#    x 1.842230 -0.002010 -0.038770 
#    y -0.002010 1.833170 -0.004870 
#    z -0.038770 -0.004870 1.836210 
# 
# From -- ./inp_files/452179.got.cif
#   From: 2010.06.25/outbox.cif.g09.slc.cpg/sg2_227_cif.got.tgz:452179.got - 2010.06.27 13:26:56.
