data_PCOD8040799
_publ_section_title
;
Structure prediction by ZEFSAII (Michael W. Deem and Ramdas Pophale) SiO2 
 PCOD8040799
Probable space group: P -1
;
_chemical_formula_sum "Si O2"
_cell_formula_units_Z 14
_cell_length_a 20.214616
_cell_length_b 8.803088
_cell_length_c 8.803085
_cell_angle_alpha 123.028111
_cell_angle_beta 118.353959
_cell_angle_gamma 29.406262
_cell_volume 644.865223
_symmetry_space_group_name_H-M "P -1"
_symmetry_group_IT_number 2
_symmetry_cell_setting 'triclinic'
loop_
_space_group_symop_operation_xyz
x,y,z
-x,-y,-z
loop_
_atom_site_type_symbol
_atom_site_label
_atom_site_fract_x
_atom_site_fract_y
_atom_site_fract_z
Si Si1 0.434995 0.662465 0.678522
Si Si2 0.353742 0.557345 0.036917
Si Si3 0.750001 0.853402 0.853404
Si Si4 0.987291 0.831965 0.318231
Si Si5 0.512709 0.792814 0.306548
Si Si6 0.934995 0.951488 0.967545
Si Si7 0.853743 0.755596 0.235170
O O1 0.500000 0.500000 0.500000
O O2 0.510843 0.687892 0.847024
O O3 0.444889 0.464017 0.685826
O O4 0.274750 0.021681 0.673330
O O5 0.309647 0.848249 0.117626
O O6 0.383533 0.392483 0.821802
O O7 0.225251 0.722829 0.071181
O O8 0.867452 0.548228 0.706624
O O9 0.632548 0.941528 0.783133
O O10 0.809649 0.763065 0.032454
O O11 0.944889 0.924395 0.146204
O O12 0.883533 0.911131 0.340448
O O13 0.000000 0.000000 0.500000
O O14 0.500000 0.000000 0.500000
O O15 0.010842 0.631292 0.790420
O O16 0.000000 0.000000 0.000000
#
# Coordination Sequence:
#
# PCOD8040799 Si02
#       7
#     2   2   2   2   2   2   2
#     4  11  24  42  65  93 128 170 211 262 328 378
#     4  11  20  45  66  89 126 176 214 256 318 391
#     4  10  18  38  68  92 116 174 212 254 314 376
#     4  11  23  38  68  96 127 162 224 262 311 386
#     4  11  23  38  68  96 127 162 224 262 311 386
#     4  11  24  42  65  93 128 170 211 262 328 378
#     4  11  20  45  66  89 126 176 214 256 318 391
#
# _framework density 21.709963999999999
#
# number of rings (size 3 to 8) (size 9 to 14) (size 15 to 20)
#    0.000    1.143    5.714    1.714    4.000    2.286 
#    5.143    2.857    0.000    0.000    0.000    0.000 
#    0.000    0.000    0.000    0.000    0.000    0.000 
#
# Total GULP energy -173489.342487 kJ/mol
# GULP energy per Si atom -12392.095892 kJ/mol
# Density = 2.166055 g / cm^3
# Si number density = 21.709964 Si / 1000 Ang^3
#
#
#
# Elastic Constant Matrix: (Units=GPa)
#
#
# Indices 1 2 3 4 5 6 
#
# 1 139.5412 40.6514 46.4859 13.6393 1.6500 -38.9887
# 2 40.6514 68.3868 25.0412 14.3072 -2.6206 -36.6528
# 3 46.4859 25.0412 117.4262 25.2272 6.5343 -19.0606
# 4 13.6393 14.3072 25.2272 22.4319 -3.2789 -8.8478
# 5 1.6500 -2.6206 6.5343 -3.2789 40.9465 4.8406
# 6 -38.9887 -36.6528 -19.0606 -8.8478 4.8406 41.6057
#
#
#
# Elastic Compliance Matrix: (Units=1/GPa)
#
#
# Indices 1 2 3 4 5 6 
#
# 1 0.010569 -0.001243 -0.002666 0.000283 -0.000975 0.007761
# 2 -0.001243 0.029657 0.000000 -0.009244 -0.001532 0.023175
# 3 -0.002666 0.000000 0.012605 -0.012625 -0.003027 0.000944
# 4 0.000283 -0.009244 -0.012625 0.065259 0.006704 -0.000564
# 5 -0.000975 -0.001532 -0.003027 0.006704 0.026004 -0.005249
# 6 0.007761 0.023175 0.000944 -0.000564 -0.005249 0.052648
#
#
# Mechanical properties :
#
#
# Convention : Reuss Voigt Hill
#
# Bulk Modulus (GPa) = 22.21497 61.07902 41.64700
# Shear Modulus (GPa) = 22.77243 35.20853 28.99048
#
# Velocity S-wave (km/s) = 3.24225 4.03149 3.65821
# Velocity P-wave (km/s) = 4.92657 7.06156 6.08838
#
# Compressibility (1/GPa) = 0.04501469
#
# Stress axis : x y z
#
# Youngs Moduli (GPa) = 94.61664 33.71835 79.33204
#
# Poissons Ratio (x) = 0.04192 0.21147
# Poissons Ratio (y) = 0.11764 -0.00004
# Poissons Ratio (z) = 0.25221 -0.00002
#
# Static dielectric constant tensor:
#      x y z
#    x 4.009460 -0.742990 0.148320 
#    y -0.742990 5.210580 0.116960 
#    z 0.148320 0.116960 3.961040 
# 
# 
# High freq. dielectric constant tensor:
#      x y z
#    x 1.848480 -0.035320 0.006160 
#    y -0.035320 1.853990 0.014380 
#    z 0.006160 0.014380 1.842960 
# 
# From -- ./inp_files/174753.got.cif
#   From: 2010.06.25/outbox.cif.g09.slc.cpg/sg2_88_cif.got.tgz:174753.got - 2010.06.27 13:26:56.
