data_PCOD8040985
_publ_section_title
;
Structure prediction by ZEFSAII (Michael W. Deem and Ramdas Pophale) SiO2 
 PCOD8040985
Probable space group: P -1
;
_chemical_formula_sum "Si O2"
_cell_formula_units_Z 16
_cell_length_a 18.097039
_cell_length_b 8.943611
_cell_length_c 11.857084
_cell_angle_alpha 130.412763
_cell_angle_beta 36.108612
_cell_angle_gamma 104.607925
_cell_volume 685.510954
_symmetry_space_group_name_H-M "P -1"
_symmetry_group_IT_number 2
_symmetry_cell_setting 'triclinic'
loop_
_space_group_symop_operation_xyz
x,y,z
-x,-y,-z
loop_
_atom_site_type_symbol
_atom_site_label
_atom_site_fract_x
_atom_site_fract_y
_atom_site_fract_z
Si Si1 0.879786 0.401837 0.057482
Si Si2 0.618470 0.355590 0.381349
Si Si3 0.591127 0.934182 0.238923
Si Si4 0.847733 0.374418 0.672959
Si Si5 0.076649 0.000313 0.790798
Si Si6 0.064455 0.155661 0.493987
Si Si7 0.634457 0.233987 0.959997
Si Si8 0.335191 0.028176 0.427585
O O1 0.780451 0.297354 0.112435
O O2 0.773908 0.692485 0.344923
O O3 0.994657 0.330414 0.775568
O O4 0.978404 0.269064 0.984583
O O5 0.500000 0.500000 0.500000
O O6 0.650877 0.099065 0.239213
O O7 0.540367 0.542818 0.675228
O O8 0.477007 0.984126 0.301880
O O9 0.500000 0.000000 0.500000
O O10 0.748294 0.657871 0.899986
O O11 0.914533 0.200720 0.396331
O O12 0.731077 0.339315 0.865469
O O13 0.993179 0.313504 0.543111
O O14 0.246513 0.944747 0.571653
O O15 0.000000 0.000000 0.000000
O O16 0.256470 0.981428 0.184479
O O17 0.000000 0.000000 0.500000
O O18 0.601122 0.133867 0.843117
#
# Coordination Sequence:
#
# PCOD8040985 Si02
#       8
#     2   2   2   2   2   2   2   2
#     4  12  23  44  71 101 139 179 238 287 338 417
#     4  12  25  44  69 104 137 177 236 290 342 408
#     4  12  25  44  71 101 139 185 233 286 352 420
#     4  10  21  42  69 100 138 185 233 281 352 420
#     4  11  26  44  68 105 142 183 225 296 358 408
#     4  10  18  40  73  97 132 185 237 274 346 420
#     4  10  22  42  71 101 134 186 229 288 347 414
#     4  11  25  46  72  99 137 191 238 274 353 425
#
# _framework density 23.340253000000001
#
# number of rings (size 3 to 8) (size 9 to 14) (size 15 to 20)
#    0.000    1.000    6.250    2.625    1.750    3.500 
#    2.250    1.875    0.000    0.000    0.000    0.000 
#    0.000    0.000    0.000    0.000    0.000    0.000 
#
# Total GULP energy -198340.045177 kJ/mol
# GULP energy per Si atom -12396.252824 kJ/mol
# Density = 2.328713 g / cm^3
# Si number density = 23.340253 Si / 1000 Ang^3
#
#
#
# Elastic Constant Matrix: (Units=GPa)
#
#
# Indices 1 2 3 4 5 6 
#
# 1 110.9967 39.2819 49.0216 8.3955 4.5740 -3.6611
# 2 39.2819 94.2845 50.1701 17.2213 15.2735 1.7398
# 3 49.0216 50.1701 113.2007 29.0278 4.3102 -13.1665
# 4 8.3955 17.2213 29.0278 41.3056 0.7789 -3.7846
# 5 4.5740 15.2735 4.3102 0.7789 28.5842 -4.6565
# 6 -3.6611 1.7398 -13.1665 -3.7846 -4.6565 35.5049
#
#
#
# Elastic Compliance Matrix: (Units=1/GPa)
#
#
# Indices 1 2 3 4 5 6 
#
# 1 0.011813 -0.003057 -0.004245 0.001853 0.000339 0.000036
# 2 -0.003057 0.016815 -0.005662 -0.002676 -0.008321 -0.004615
# 3 -0.004245 -0.005662 0.015556 -0.007283 0.002396 0.005147
# 4 0.001853 -0.002676 -0.007283 0.030132 0.001580 0.001041
# 5 0.000339 -0.008321 0.002396 0.001580 0.040072 0.006755
# 6 0.000036 -0.004615 0.005147 0.001041 0.006755 0.031300
#
#
# Mechanical properties :
#
#
# Convention : Reuss Voigt Hill
#
# Bulk Modulus (GPa) = 54.77645 66.15879 60.46762
# Shear Modulus (GPa) = 28.13709 33.07948 30.60828
#
# Velocity S-wave (km/s) = 3.47582 3.76875 3.62525
# Velocity P-wave (km/s) = 6.29508 6.88076 6.59443
#
# Compressibility (1/GPa) = 0.01825602
#
# Stress axis : x y z
#
# Youngs Moduli (GPa) = 84.65343 59.47244 64.28259
#
# Poissons Ratio (x) = 0.18180 0.27286
# Poissons Ratio (y) = 0.25878 0.36398
# Poissons Ratio (z) = 0.35933 0.33674
#
# Static dielectric constant tensor:
#      x y z
#    x 5.279010 -0.588120 -0.411780 
#    y -0.588120 4.290890 0.302510 
#    z -0.411780 0.302510 4.030690 
# 
# 
# High freq. dielectric constant tensor:
#      x y z
#    x 1.930800 0.001510 0.004400 
#    y 0.001510 1.907750 0.010050 
#    z 0.004400 0.010050 1.933280 
# 
# From -- ./inp_files/462436.got.cif
#   From: 2010.06.25/outbox.cif.g09.slc.cpg/sg2_232_cif.got.tgz:462436.got - 2010.06.27 13:26:56.
