data_PCOD8040916
_publ_section_title
;
Structure prediction by ZEFSAII (Michael W. Deem and Ramdas Pophale) SiO2 
 PCOD8040916
Probable space group: P -1
;
_chemical_formula_sum "Si O2"
_cell_formula_units_Z 14
_cell_length_a 17.013590
_cell_length_b 14.036304
_cell_length_c 10.378285
_cell_angle_alpha 141.381388
_cell_angle_beta 132.373604
_cell_angle_gamma 24.037775
_cell_volume 622.407658
_symmetry_space_group_name_H-M "P -1"
_symmetry_group_IT_number 2
_symmetry_cell_setting 'triclinic'
loop_
_space_group_symop_operation_xyz
x,y,z
-x,-y,-z
loop_
_atom_site_type_symbol
_atom_site_label
_atom_site_fract_x
_atom_site_fract_y
_atom_site_fract_z
Si Si1 0.023789 0.134501 0.104102
Si Si2 0.637905 0.956968 0.230220
Si Si3 0.326096 0.821808 0.907896
Si Si4 0.775655 0.298233 0.801612
Si Si5 0.708878 0.817924 0.878641
Si Si6 0.038871 0.245792 0.501659
Si Si7 0.350935 0.559819 0.459149
O O1 0.987199 0.304866 0.354313
O O2 0.240853 0.901700 0.041415
O O3 0.000000 0.000000 0.000000
O O4 0.871362 0.322618 0.014793
O O5 0.521191 0.950023 0.148501
O O6 0.464870 0.283286 0.354241
O O7 0.789734 0.836314 0.375149
O O8 0.755413 0.777896 0.039840
O O9 0.559270 0.530302 0.863445
O O10 0.236608 0.790922 0.688500
O O11 0.252960 0.069763 0.032157
O O12 0.782540 0.336459 0.698167
O O13 0.894586 0.998330 0.631745
O O14 0.846447 0.522299 0.659536
O O15 0.500000 0.500000 0.500000
#
# Coordination Sequence:
#
# PCOD8040916 Si02
#       7
#     2   2   2   2   2   2   2
#     4  10  26  41  64  98 126 169 222 258 310 379
#     4  11  22  43  66  97 133 164 208 261 331 383
#     4  11  22  44  67  95 129 168 214 265 314 376
#     4  10  21  42  67  96 128 163 217 266 314 377
#     4  11  25  40  67 100 129 166 208 265 331 374
#     4  11  23  42  63  94 133 168 211 265 314 376
#     4  10  18  39  70  95 121 163 215 263 315 372
#
# _framework density 22.493296000000001
#
# number of rings (size 3 to 8) (size 9 to 14) (size 15 to 20)
#    0.000    1.429    5.714    0.429    4.000    5.714 
#    2.571    1.429    0.000    0.000    0.000    0.000 
#    0.000    0.000    0.000    0.000    0.000    0.000 
#
# Total GULP energy -173566.340201 kJ/mol
# GULP energy per Si atom -12397.595729 kJ/mol
# Density = 2.244210 g / cm^3
# Si number density = 22.493296 Si / 1000 Ang^3
#
#
#
# Elastic Constant Matrix: (Units=GPa)
#
#
# Indices 1 2 3 4 5 6 
#
# 1 83.8373 15.3082 43.1547 5.6654 -18.2432 -11.8460
# 2 15.3082 91.0577 69.4322 -15.7137 -14.1587 -1.5944
# 3 43.1547 69.4322 164.5178 -15.9418 -33.8339 -3.7479
# 4 5.6654 -15.7137 -15.9418 54.3404 -1.3869 -1.7743
# 5 -18.2432 -14.1587 -33.8339 -1.3869 27.6108 -3.7472
# 6 -11.8460 -1.5944 -3.7479 -1.7743 -3.7472 20.2458
#
#
#
# Elastic Compliance Matrix: (Units=1/GPa)
#
#
# Indices 1 2 3 4 5 6 
#
# 1 0.016978 0.000525 -0.002590 -0.001766 0.009737 0.011143
# 2 0.000525 0.016631 -0.006664 0.002851 0.000963 0.000811
# 3 -0.002590 -0.006664 0.011836 0.002135 0.009774 0.002147
# 4 -0.001766 0.002851 0.002135 0.020215 0.004217 0.002139
# 5 0.009737 0.000963 0.009774 0.004217 0.057866 0.018662
# 6 0.011143 0.000811 0.002147 0.002139 0.018662 0.060016
#
#
# Mechanical properties :
#
#
# Convention : Reuss Voigt Hill
#
# Bulk Modulus (GPa) = 35.73085 66.13366 50.93225
# Shear Modulus (GPa) = 23.77253 34.54058 29.15656
#
# Velocity S-wave (km/s) = 3.25448 3.92292 3.60423
# Velocity P-wave (km/s) = 5.48104 7.06996 6.32559
#
# Compressibility (1/GPa) = 0.02798702
#
# Stress axis : x y z
#
# Youngs Moduli (GPa) = 58.90098 60.12945 84.48909
#
# Poissons Ratio (x) = -0.03156 0.21880
# Poissons Ratio (y) = -0.03092 0.56302
# Poissons Ratio (z) = 0.15254 0.40069
#
# Static dielectric constant tensor:
#      x y z
#    x 4.246310 -0.053530 -0.040530 
#    y -0.053530 4.197820 -0.569220 
#    z -0.040530 -0.569220 4.795710 
# 
# 
# High freq. dielectric constant tensor:
#      x y z
#    x 1.875870 -0.011940 -0.001860 
#    y -0.011940 1.871650 -0.007990 
#    z -0.001860 -0.007990 1.900210 
# 
# From -- ./inp_files/472505.got.cif
#   From: 2010.06.25/outbox.cif.g09.slc.cpg/sg2_237_cif.got.tgz:472505.got - 2010.06.27 13:26:56.
