data_PCOD8040288
_publ_section_title
;
Structure prediction by ZEFSAII (Michael W. Deem and Ramdas Pophale) SiO2 
 PCOD8040288
Probable space group: P -1
;
_chemical_formula_sum "Si O2"
_cell_formula_units_Z 16
_cell_length_a 9.937751
_cell_length_b 14.248565
_cell_length_c 9.498758
_cell_angle_alpha 123.093006
_cell_angle_beta 81.190897
_cell_angle_gamma 132.813200
_cell_volume 772.900794
_symmetry_space_group_name_H-M "P -1"
_symmetry_group_IT_number 2
_symmetry_cell_setting 'triclinic'
loop_
_space_group_symop_operation_xyz
x,y,z
-x,-y,-z
loop_
_atom_site_type_symbol
_atom_site_label
_atom_site_fract_x
_atom_site_fract_y
_atom_site_fract_z
Si Si1 0.178796 0.235274 0.046990
Si Si2 0.749045 0.898539 0.859245
Si Si3 0.607465 0.964456 0.177519
Si Si4 0.402818 0.251973 0.798217
Si Si5 0.830682 0.526911 0.833289
Si Si6 0.317733 0.091133 0.420336
Si Si7 0.186642 0.784084 0.176363
Si Si8 0.727015 0.238049 0.542203
O O1 0.284686 0.239733 0.168405
O O2 0.151929 0.352457 0.168883
O O3 0.313372 0.301925 0.940980
O O4 0.976345 0.049090 0.906462
O O5 0.630903 0.823291 0.668976
O O6 0.674158 0.960997 0.011173
O O7 0.632141 0.880448 0.215486
O O8 0.382344 0.870256 0.127315
O O9 0.753951 0.153789 0.355710
O O10 0.630643 0.408134 0.858338
O O11 0.276358 0.164314 0.600987
O O12 0.836852 0.421548 0.641713
O O13 0.004590 0.618908 0.993256
O O14 0.495630 0.126337 0.491530
O O15 0.149074 0.896941 0.269318
O O16 0.199080 0.752483 0.308317
#
# Coordination Sequence:
#
# PCOD8040288 Si02
#       8
#     2   2   2   2   2   2   2   2
#     4  10  22  41  57  85 115 157 198 241 277 340
#     4  10  22  39  62  82 118 153 202 237 278 345
#     4  10  19  37  61  89 112 157 187 236 291 340
#     4  10  20  37  65  84 116 149 198 243 286 329
#     4  11  21  35  59  93 119 150 186 242 297 339
#     4  10  18  36  60  91 108 151 194 241 287 334
#     4  11  18  34  60  91 122 141 190 240 292 347
#     4  10  20  34  59  89 123 144 186 245 288 345
#
# _framework density 20.701232999999998
#
# number of rings (size 3 to 8) (size 9 to 14) (size 15 to 20)
#    0.000    1.750    5.000    1.500    0.000    2.500 
#    0.000    3.125    2.750    0.000    0.000    0.000 
#    0.000    0.000    0.000    0.000    0.000    0.000 
#
# Total GULP energy -198278.275429 kJ/mol
# GULP energy per Si atom -12392.392214 kJ/mol
# Density = 2.065412 g / cm^3
# Si number density = 20.701233 Si / 1000 Ang^3
#
#
#
# Elastic Constant Matrix: (Units=GPa)
#
#
# Indices 1 2 3 4 5 6 
#
# 1 65.4250 32.5286 35.0673 -2.0186 -4.6585 -14.4036
# 2 32.5286 66.3457 50.6219 -3.1882 -1.4568 -11.9824
# 3 35.0673 50.6219 102.3124 1.2509 1.4427 -10.3691
# 4 -2.0186 -3.1882 1.2509 34.9216 -2.6031 -0.1096
# 5 -4.6585 -1.4568 1.4427 -2.6031 12.9564 8.8885
# 6 -14.4036 -11.9824 -10.3691 -0.1096 8.8885 39.8330
#
#
#
# Elastic Compliance Matrix: (Units=1/GPa)
#
#
# Indices 1 2 3 4 5 6 
#
# 1 0.022055 -0.007110 -0.003756 0.001163 0.005251 0.003690
# 2 -0.007110 0.027542 -0.010943 0.002530 0.000350 0.002794
# 3 -0.003756 -0.010943 0.016673 -0.002221 -0.005510 0.000914
# 4 0.001163 0.002530 -0.002221 0.029575 0.007583 -0.001007
# 5 0.005251 0.000350 -0.005510 0.007583 0.095453 -0.020709
# 6 0.003690 0.002794 0.000914 -0.001007 -0.020709 0.032136
#
#
# Mechanical properties :
#
#
# Convention : Reuss Voigt Hill
#
# Bulk Modulus (GPa) = 44.14492 52.27985 48.21238
# Shear Modulus (GPa) = 18.20815 25.26656 21.73735
#
# Velocity S-wave (km/s) = 2.96897 3.49740 3.24396
# Velocity P-wave (km/s) = 5.75535 6.45123 6.11320
#
# Compressibility (1/GPa) = 0.02265267
#
# Stress axis : x y z
#
# Youngs Moduli (GPa) = 45.34147 36.30829 59.97742
#
# Poissons Ratio (x) = 0.25816 0.22525
# Poissons Ratio (y) = 0.32238 0.65632
# Poissons Ratio (z) = 0.17028 0.39732
#
# Static dielectric constant tensor:
#      x y z
#    x 3.875360 -0.210680 -0.199620 
#    y -0.210680 3.613450 0.056710 
#    z -0.199620 0.056710 4.026000 
# 
# 
# High freq. dielectric constant tensor:
#      x y z
#    x 1.806450 -0.020690 -0.001530 
#    y -0.020690 1.787800 0.003850 
#    z -0.001530 0.003850 1.807040 
# 
# From -- ./inp_files/205764.got.cif
#   From: 2010.06.25/outbox.cif.g09.slc.cpg/sg2_103_cif.got.tgz:205764.got - 2010.06.27 13:26:56.
