data_PCOD8040700
_publ_section_title
;
Structure prediction by ZEFSAII (Michael W. Deem and Ramdas Pophale) SiO2 
 PCOD8040700
Probable space group: P -1
;
_chemical_formula_sum "Si O2"
_cell_formula_units_Z 14
_cell_length_a 24.542660
_cell_length_b 14.788843
_cell_length_c 9.587444
_cell_angle_alpha 38.502697
_cell_angle_beta 144.608895
_cell_angle_gamma 161.057909
_cell_volume 652.984888
_symmetry_space_group_name_H-M "P -1"
_symmetry_group_IT_number 2
_symmetry_cell_setting 'triclinic'
loop_
_space_group_symop_operation_xyz
x,y,z
-x,-y,-z
loop_
_atom_site_type_symbol
_atom_site_label
_atom_site_fract_x
_atom_site_fract_y
_atom_site_fract_z
Si Si1 0.959351 0.467073 0.171456
Si Si2 0.172160 0.143050 0.637874
Si Si3 0.469636 0.789389 0.701828
Si Si4 0.103867 0.427776 0.342214
Si Si5 0.398792 0.153495 0.798352
Si Si6 0.565679 0.472830 0.502855
Si Si7 0.295740 0.089985 0.166976
O O1 0.095538 0.514804 0.358412
O O2 0.092093 0.758365 0.171926
O O3 0.785842 0.171049 0.247298
O O4 0.858081 0.409340 0.899707
O O5 0.286739 0.388985 0.469233
O O6 0.000000 0.000000 0.500000
O O7 0.098347 0.900636 0.700607
O O8 0.292051 0.241915 0.897437
O O9 0.251954 0.491609 0.579270
O O10 0.500000 0.000000 0.500000
O O11 0.581605 0.855708 0.736114
O O12 0.513842 0.793877 0.943183
O O13 0.540558 0.327137 0.754528
O O14 0.366583 0.282743 0.594746
O O15 0.376651 0.231888 0.315440
#
# Coordination Sequence:
#
# PCOD8040700 Si02
#       7
#     2   2   2   2   2   2   2
#     4  10  18  38  60  88 120 162 200 261 295 362
#     4  11  22  39  65  92 124 164 211 260 302 372
#     4  12  20  37  68  96 117 167 215 260 298 372
#     4  10  19  33  61  93 118 153 217 254 298 349
#     4  11  23  41  64  90 133 163 205 249 325 371
#     4  11  24  42  61  93 130 171 193 259 319 375
#     4  11  23  39  64  93 123 159 224 253 304 358
#
# _framework density 21.440007000000001
#
# number of rings (size 3 to 8) (size 9 to 14) (size 15 to 20)
#    0.000    1.143    5.714    2.143    2.000    0.571 
#    0.000    2.857    0.000    0.000    0.000    0.000 
#    0.000    0.000    0.000    0.000    0.000    0.000 
#
# Total GULP energy -173442.787239 kJ/mol
# GULP energy per Si atom -12388.770517 kJ/mol
# Density = 2.139121 g / cm^3
# Si number density = 21.440007 Si / 1000 Ang^3
#
#
#
# Elastic Constant Matrix: (Units=GPa)
#
#
# Indices 1 2 3 4 5 6 
#
# 1 48.7100 23.4659 26.8595 -7.3366 -6.4320 12.3307
# 2 23.4659 119.3536 32.5398 -11.9330 -20.3327 18.4702
# 3 26.8595 32.5398 70.9807 -8.4333 -6.3599 19.7581
# 4 -7.3366 -11.9330 -8.4333 34.0824 8.5480 -2.1645
# 5 -6.4320 -20.3327 -6.3599 8.5480 36.9319 3.2050
# 6 12.3307 18.4702 19.7581 -2.1645 3.2050 27.5192
#
#
#
# Elastic Compliance Matrix: (Units=1/GPa)
#
#
# Indices 1 2 3 4 5 6 
#
# 1 0.027741 -0.001825 -0.007498 0.002481 0.002474 -0.005915
# 2 -0.001825 0.011343 -0.002247 0.001213 0.005759 -0.005758
# 3 -0.007498 -0.002247 0.021207 0.001785 0.001599 -0.010405
# 4 0.002481 0.001213 0.001785 0.032264 -0.006064 0.000037
# 5 0.002474 0.005759 0.001599 -0.006064 0.033266 -0.010474
# 6 -0.005915 -0.005758 -0.010405 0.000037 -0.010474 0.051546
#
#
# Mechanical properties :
#
#
# Convention : Reuss Voigt Hill
#
# Bulk Modulus (GPa) = 26.91607 44.97495 35.94551
# Shear Modulus (GPa) = 23.48621 30.11862 26.80242
#
# Velocity S-wave (km/s) = 3.31333 3.75211 3.53953
# Velocity P-wave (km/s) = 5.21718 6.30823 5.78847
#
# Compressibility (1/GPa) = 0.03715253
#
# Stress axis : x y z
#
# Youngs Moduli (GPa) = 36.04767 88.15856 47.15419
#
# Poissons Ratio (x) = 0.16089 0.35355
# Poissons Ratio (y) = 0.06579 0.10594
# Poissons Ratio (z) = 0.27028 0.19806
#
# Static dielectric constant tensor:
#      x y z
#    x 3.742850 -0.125440 0.079560 
#    y -0.125440 5.416390 0.347770 
#    z 0.079560 0.347770 4.182790 
# 
# 
# High freq. dielectric constant tensor:
#      x y z
#    x 1.813950 -0.009440 0.009370 
#    y -0.009440 1.875000 -0.007100 
#    z 0.009370 -0.007100 1.815600 
# 
# From -- ./inp_files/243148.got.cif
#   From: 2010.06.25/outbox.cif.g09.slc.cpg/sg2_122_cif.got.tgz:243148.got - 2010.06.27 13:26:56.
