data_PCOD8040768
_publ_section_title
;
Structure prediction by ZEFSAII (Michael W. Deem and Ramdas Pophale) SiO2 
 PCOD8040768
Probable space group: P -1
;
_chemical_formula_sum "Si O2"
_cell_formula_units_Z 16
_cell_length_a 11.079473
_cell_length_b 11.640899
_cell_length_c 12.376199
_cell_angle_alpha 131.893310
_cell_angle_beta 100.734138
_cell_angle_gamma 115.170553
_cell_volume 770.070094
_symmetry_space_group_name_H-M "P -1"
_symmetry_group_IT_number 2
_symmetry_cell_setting 'triclinic'
loop_
_space_group_symop_operation_xyz
x,y,z
-x,-y,-z
loop_
_atom_site_type_symbol
_atom_site_label
_atom_site_fract_x
_atom_site_fract_y
_atom_site_fract_z
Si Si1 0.376932 0.544909 0.391559
Si Si2 0.627926 0.820144 0.803347
Si Si3 0.366551 0.272639 0.641231
Si Si4 0.991786 0.695109 0.908153
Si Si5 0.914571 0.559361 0.224459
Si Si6 0.526689 0.279477 0.056342
Si Si7 0.770688 0.966585 0.314258
Si Si8 0.967154 0.841914 0.219019
O O1 0.497014 0.734617 0.626018
O O2 0.339553 0.330909 0.274534
O O3 0.485500 0.670564 0.375849
O O4 0.182277 0.451054 0.293503
O O5 0.527915 0.796615 0.876427
O O6 0.826247 0.087016 0.991031
O O7 0.426743 0.500335 0.825970
O O8 0.348520 0.152686 0.670009
O O9 0.170582 0.100970 0.439201
O O10 0.006165 0.533482 0.849381
O O11 0.959019 0.775450 0.054275
O O12 0.706082 0.344418 0.101264
O O13 0.912526 0.655428 0.174913
O O14 0.042200 0.759212 0.462876
O O15 0.353631 0.066538 0.817797
O O16 0.820029 0.840587 0.205065
#
# Coordination Sequence:
#
# PCOD8040768 Si02
#       8
#     2   2   2   2   2   2   2   2
#     4  10  22  40  66  92 125 165 213 258 310 365
#     4  10  23  42  63  93 120 167 217 262 296 371
#     4  10  18  38  65  96 122 156 212 270 298 360
#     4  12  25  41  63  92 134 168 203 254 324 373
#     4  11  25  41  59  97 133 164 203 260 317 376
#     4  11  22  39  67  92 123 165 213 258 310 363
#     4  11  22  39  68  96 124 163 215 258 309 372
#     4  11  20  41  66  93 129 163 211 259 312 368
#
# _framework density 20.777329999999999
#
# number of rings (size 3 to 8) (size 9 to 14) (size 15 to 20)
#    0.000    1.250    3.750    3.375    1.750    2.500 
#    0.000    2.500    0.000    0.000    0.000    0.000 
#    0.000    0.000    0.000    0.000    0.000    0.000 
#
# Total GULP energy -198503.591831 kJ/mol
# GULP energy per Si atom -12406.474489 kJ/mol
# Density = 2.073004 g / cm^3
# Si number density = 20.777330 Si / 1000 Ang^3
#
#
#
# Elastic Constant Matrix: (Units=GPa)
#
#
# Indices 1 2 3 4 5 6 
#
# 1 79.2138 37.7778 45.2058 -0.3925 18.2489 3.8045
# 2 37.7778 60.0275 26.6255 2.8350 3.5774 15.6941
# 3 45.2058 26.6255 74.0707 -9.8581 23.6149 5.9133
# 4 -0.3925 2.8350 -9.8581 29.5648 2.5735 3.7705
# 5 18.2489 3.5774 23.6149 2.5735 31.9300 2.1254
# 6 3.8045 15.6941 5.9133 3.7705 2.1254 17.2812
#
#
#
# Elastic Compliance Matrix: (Units=1/GPa)
#
#
# Indices 1 2 3 4 5 6 
#
# 1 0.026320 -0.014927 -0.009909 -0.002540 -0.006671 0.012527
# 2 -0.014927 0.034886 -0.004842 -0.002549 0.010236 -0.027442
# 3 -0.009909 -0.004842 0.027917 0.011417 -0.015121 -0.003605
# 4 -0.002540 -0.002549 0.011417 0.039746 -0.009341 -0.008556
# 5 -0.006671 0.010236 -0.015121 -0.009341 0.046341 -0.006314
# 6 0.012527 -0.027442 -0.003605 -0.008556 -0.006314 0.083907
#
#
# Mechanical properties :
#
#
# Convention : Reuss Voigt Hill
#
# Bulk Modulus (GPa) = 33.59408 48.05892 40.82650
# Shear Modulus (GPa) = 15.22552 22.66873 18.94712
#
# Velocity S-wave (km/s) = 2.70995 3.30666 3.02307
# Velocity P-wave (km/s) = 5.09858 6.14486 5.64601
#
# Compressibility (1/GPa) = 0.02976715
#
# Stress axis : x y z
#
# Youngs Moduli (GPa) = 37.99325 28.66491 35.82042
#
# Poissons Ratio (x) = 0.42788 0.35495
# Poissons Ratio (y) = 0.56712 0.17344
# Poissons Ratio (z) = 0.37649 0.13879
#
# Static dielectric constant tensor:
#      x y z
#    x 3.635660 0.187060 0.162100 
#    y 0.187060 3.683940 -0.020560 
#    z 0.162100 -0.020560 3.888940 
# 
# 
# High freq. dielectric constant tensor:
#      x y z
#    x 1.801320 0.015610 0.014080 
#    y 0.015610 1.808330 -0.003560 
#    z 0.014080 -0.003560 1.822150 
# 
# From -- ./inp_files/280039.got.cif
#   From: 2010.06.25/outbox.cif.g09.slc.cpg/sg2_141_cif.got.tgz:280039.got - 2010.06.27 13:26:56.
