data_PCOD8040852
_publ_section_title
;
Structure prediction by ZEFSAII (Michael W. Deem and Ramdas Pophale) SiO2 
 PCOD8040852
Probable space group: P -1
;
_chemical_formula_sum "Si O2"
_cell_formula_units_Z 14
_cell_length_a 14.713250
_cell_length_b 9.222530
_cell_length_c 20.273330
_cell_angle_alpha 51.105354
_cell_angle_beta 159.327226
_cell_angle_gamma 127.710953
_cell_volume 752.922767
_symmetry_space_group_name_H-M "P -1"
_symmetry_group_IT_number 2
_symmetry_cell_setting 'triclinic'
loop_
_space_group_symop_operation_xyz
x,y,z
-x,-y,-z
loop_
_atom_site_type_symbol
_atom_site_label
_atom_site_fract_x
_atom_site_fract_y
_atom_site_fract_z
Si Si1 0.618842 0.849635 0.747966
Si Si2 0.512810 0.632331 0.407461
Si Si3 0.530915 0.545715 0.299260
Si Si4 0.308642 0.895779 0.015235
Si Si5 0.139452 0.036274 0.406868
Si Si6 0.867090 0.877110 0.387655
Si Si7 0.838370 0.053592 0.957468
O O1 0.511842 0.639422 0.719738
O O2 0.374568 0.971940 0.541062
O O3 0.740728 0.875074 0.896949
O O4 0.849155 0.918751 0.834425
O O5 0.500000 0.500000 0.500000
O O6 0.533883 0.507990 0.391021
O O7 0.772974 0.771306 0.550996
O O8 0.269564 0.758453 0.200203
O O9 0.295599 0.673045 0.086259
O O10 0.802583 0.661352 0.429022
O O11 0.593662 0.964785 0.161352
O O12 0.265474 0.999266 0.025489
O O13 0.095922 0.937139 0.807522
O O14 0.046760 0.883158 0.443149
O O15 0.000000 0.000000 0.500000
#
# Coordination Sequence:
#
# PCOD8040852 Si02
#       7
#     2   2   2   2   2   2   2
#     4  10  21  37  56  84 117 152 185 226 298 334
#     4  10  21  35  58  87 113 149 194 237 272 334
#     4   9  21  37  59  86 106 155 187 235 278 332
#     4   9  21  36  60  84 105 154 193 232 274 330
#     4  11  21  37  57  87 116 149 187 236 284 335
#     4  10  18  39  63  79 113 148 199 228 278 333
#     4   9  20  40  55  79 122 156 181 227 293 343
#
# _framework density 18.594204000000001
#
# number of rings (size 3 to 8) (size 9 to 14) (size 15 to 20)
#    0.857    1.429    1.429    1.286    4.000    2.286 
#    5.143    0.000    0.000    1.714    0.000    0.000 
#    0.000    0.000    0.000    0.000    0.000    0.000 
#
# Total GULP energy -173463.996430 kJ/mol
# GULP energy per Si atom -12390.285459 kJ/mol
# Density = 1.855188 g / cm^3
# Si number density = 18.594204 Si / 1000 Ang^3
#
#
#
# Elastic Constant Matrix: (Units=GPa)
#
#
# Indices 1 2 3 4 5 6 
#
# 1 91.0294 36.2154 28.2804 -1.8312 -1.7320 7.0795
# 2 36.2154 106.7036 25.2351 23.9369 -6.4810 -12.0796
# 3 28.2804 25.2351 112.8913 13.3767 1.6531 0.8032
# 4 -1.8312 23.9369 13.3767 21.1864 2.5774 -0.9492
# 5 -1.7320 -6.4810 1.6531 2.5774 30.2119 1.7947
# 6 7.0795 -12.0796 0.8032 -0.9492 1.7947 28.1381
#
#
#
# Elastic Compliance Matrix: (Units=1/GPa)
#
#
# Indices 1 2 3 4 5 6 
#
# 1 0.016310 -0.008520 -0.003675 0.013207 -0.001395 -0.007122
# 2 -0.008520 0.018388 0.000498 -0.022005 0.004773 0.008977
# 3 -0.003675 0.000498 0.010554 -0.007508 -0.000076 0.000589
# 4 0.013207 -0.022005 -0.007508 0.078709 -0.009716 -0.009280
# 5 -0.001395 0.004773 -0.000076 -0.009716 0.034885 -0.000151
# 6 -0.007122 0.008977 0.000589 -0.009280 -0.000151 0.040864
#
#
# Mechanical properties :
#
#
# Convention : Reuss Voigt Hill
#
# Bulk Modulus (GPa) = 45.75225 54.45401 50.10313
# Shear Modulus (GPa) = 21.70213 30.63352 26.16783
#
# Velocity S-wave (km/s) = 3.42006 4.06332 3.75548
# Velocity P-wave (km/s) = 6.34467 7.16681 6.76823
#
# Compressibility (1/GPa) = 0.02185685
#
# Stress axis : x y z
#
# Youngs Moduli (GPa) = 61.31239 54.38246 94.75050
#
# Poissons Ratio (x) = 0.46335 0.34821
# Poissons Ratio (y) = 0.52239 -0.04715
# Poissons Ratio (z) = 0.22533 -0.02706
#
# Static dielectric constant tensor:
#      x y z
#    x 3.504590 -0.085250 0.153970 
#    y -0.085250 3.199490 0.185180 
#    z 0.153970 0.185180 3.424190 
# 
# 
# High freq. dielectric constant tensor:
#      x y z
#    x 1.723950 -0.013580 0.004780 
#    y -0.013580 1.696870 0.023740 
#    z 0.004780 0.023740 1.719020 
# 
# From -- ./inp_files/237224.got.cif
#   From: 2010.06.25/outbox.cif.g09.slc.cpg/sg2_119_cif.got.tgz:237224.got - 2010.06.27 13:26:56.
