data_PCOD8040966
_publ_section_title
;
Structure prediction by ZEFSAII (Michael W. Deem and Ramdas Pophale) SiO2 
 PCOD8040966
Probable space group: P -1
;
_chemical_formula_sum "Si O2"
_cell_formula_units_Z 16
_cell_length_a 11.886211
_cell_length_b 9.567185
_cell_length_c 16.666402
_cell_angle_alpha 71.340547
_cell_angle_beta 40.270657
_cell_angle_gamma 103.096714
_cell_volume 742.526870
_symmetry_space_group_name_H-M "P -1"
_symmetry_group_IT_number 2
_symmetry_cell_setting 'triclinic'
loop_
_space_group_symop_operation_xyz
x,y,z
-x,-y,-z
loop_
_atom_site_type_symbol
_atom_site_label
_atom_site_fract_x
_atom_site_fract_y
_atom_site_fract_z
Si Si1 0.361332 0.519250 0.009882
Si Si2 0.308290 0.422783 0.725565
Si Si3 0.306263 0.974616 0.285064
Si Si4 0.190575 0.259582 0.986976
Si Si5 0.218898 0.947262 0.013578
Si Si6 0.434015 0.213499 0.606507
Si Si7 0.822968 0.205762 0.774187
Si Si8 0.900069 0.331554 0.406519
O O1 0.092835 0.415317 0.212694
O O2 0.500000 0.500000 0.000000
O O3 0.280502 0.379502 0.000702
O O4 0.569175 0.782496 0.823506
O O5 0.319832 0.443429 0.811936
O O6 0.444032 0.358264 0.635013
O O7 0.454395 0.660000 0.564048
O O8 0.990567 0.212772 0.914723
O O9 0.111208 0.834808 0.337972
O O10 0.145148 0.839952 0.480075
O O11 0.526638 0.989212 0.154019
O O12 0.316827 0.179146 0.922549
O O13 0.864936 0.045095 0.196783
O O14 0.061233 0.805887 0.209018
O O15 0.618505 0.205243 0.545195
O O16 0.953056 0.452148 0.657024
O O17 0.500000 0.000000 0.000000
#
# Coordination Sequence:
#
# PCOD8040966 Si02
#       8
#     2   2   2   2   2   2   2   2
#     4  12  28  48  62  90 137 176 208 267 321 385
#     4  10  19  38  62  98 134 160 211 264 325 370
#     4  11  23  41  70  96 123 171 222 262 318 382
#     4  11  24  39  67  95 133 174 209 254 325 384
#     4  10  18  40  68  95 129 163 212 270 315 373
#     4  10  21  39  66 101 128 165 209 276 314 372
#     4  10  19  37  67  96 124 166 208 270 319 364
#     4  12  23  43  67  95 132 164 222 268 317 378
#
# _framework density 21.548043
#
# number of rings (size 3 to 8) (size 9 to 14) (size 15 to 20)
#    0.000    1.250    3.750    4.125    1.750    2.000 
#    2.250    4.375    0.000    0.000    0.000    0.000 
#    0.000    0.000    0.000    0.000    0.000    0.000 
#
# Total GULP energy -198417.459444 kJ/mol
# GULP energy per Si atom -12401.091215 kJ/mol
# Density = 2.149900 g / cm^3
# Si number density = 21.548043 Si / 1000 Ang^3
#
#
#
# Elastic Constant Matrix: (Units=GPa)
#
#
# Indices 1 2 3 4 5 6 
#
# 1 113.3232 34.8805 33.3967 -12.4750 24.1821 12.4419
# 2 34.8805 58.5123 30.7273 -21.4935 2.3653 7.0055
# 3 33.3967 30.7273 70.6124 -20.8599 24.8383 3.7153
# 4 -12.4750 -21.4935 -20.8599 22.2578 -7.1319 7.3525
# 5 24.1821 2.3653 24.8383 -7.1319 48.6852 4.9294
# 6 12.4419 7.0055 3.7153 7.3525 4.9294 31.5756
#
#
#
# Elastic Compliance Matrix: (Units=1/GPa)
#
#
# Indices 1 2 3 4 5 6 
#
# 1 0.012527 -0.007072 -0.001630 -0.002414 -0.005218 -0.001798
# 2 -0.007072 0.039899 -0.006164 0.037890 0.011891 -0.016020
# 3 -0.001630 -0.006164 0.025527 0.015045 -0.009404 -0.003029
# 4 -0.002414 0.037890 0.015045 0.110062 0.011516 -0.036652
# 5 -0.005218 0.011891 -0.009404 0.011516 0.029727 -0.006798
# 6 -0.001798 -0.016020 -0.003029 -0.036652 -0.006798 0.045885
#
#
# Mechanical properties :
#
#
# Convention : Reuss Voigt Hill
#
# Bulk Modulus (GPa) = 20.73825 48.93965 34.83895
# Shear Modulus (GPa) = 16.15865 30.06661 23.11263
#
# Velocity S-wave (km/s) = 2.74138 3.73946 3.27862
# Velocity P-wave (km/s) = 4.43456 6.43475 5.52591
#
# Compressibility (1/GPa) = 0.04822007
#
# Stress axis : x y z
#
# Youngs Moduli (GPa) = 79.82971 25.06343 39.17464
#
# Poissons Ratio (x) = 0.17724 0.06386
# Poissons Ratio (y) = 0.56453 0.24148
# Poissons Ratio (z) = 0.13013 0.15449
#
# Static dielectric constant tensor:
#      x y z
#    x 5.977640 0.286860 -0.294140 
#    y 0.286860 3.675320 -0.083170 
#    z -0.294140 -0.083170 4.152030 
# 
# 
# High freq. dielectric constant tensor:
#      x y z
#    x 1.866730 0.002480 0.012020 
#    y 0.002480 1.813820 -0.005390 
#    z 0.012020 -0.005390 1.848930 
# 
# From -- ./inp_files/466441.got.cif
#   From: 2010.06.25/outbox.cif.g09.slc.cpg/sg2_234_cif.got.tgz:466441.got - 2010.06.27 13:26:56.
