data_PCOD8040338
_publ_section_title
;
Structure prediction by ZEFSAII (Michael W. Deem and Ramdas Pophale) SiO2 
 PCOD8040338
Probable space group: P -1
;
_chemical_formula_sum "Si O2"
_cell_formula_units_Z 16
_cell_length_a 16.797275
_cell_length_b 9.090284
_cell_length_c 20.327673
_cell_angle_alpha 36.870978
_cell_angle_beta 152.160395
_cell_angle_gamma 124.290072
_cell_volume 746.062455
_symmetry_space_group_name_H-M "P -1"
_symmetry_group_IT_number 2
_symmetry_cell_setting 'triclinic'
loop_
_space_group_symop_operation_xyz
x,y,z
-x,-y,-z
loop_
_atom_site_type_symbol
_atom_site_label
_atom_site_fract_x
_atom_site_fract_y
_atom_site_fract_z
Si Si1 0.686698 0.196387 0.728184
Si Si2 0.737844 0.120596 0.933276
Si Si3 0.143714 0.256677 0.643842
Si Si4 0.318740 0.626895 0.613279
Si Si5 0.056015 0.508703 0.711573
Si Si6 0.083773 0.850041 0.823531
Si Si7 0.702955 0.616745 0.944933
Si Si8 0.712693 0.450648 0.529181
O O1 0.500000 0.500000 0.500000
O O2 0.819491 0.121182 0.918767
O O3 0.785292 0.218634 0.724837
O O4 0.633724 0.948647 0.769338
O O5 0.500163 0.274553 0.706740
O O6 0.815884 0.262904 0.991257
O O7 0.840285 0.789148 0.147044
O O8 0.313937 0.332948 0.724121
O O9 0.000000 0.500000 0.500000
O O10 0.029737 0.254746 0.493516
O O11 0.213297 0.957773 0.838009
O O12 0.519749 0.578043 0.808221
O O13 0.300499 0.691006 0.498511
O O14 0.144679 0.901546 0.426231
O O15 0.872861 0.548359 0.607907
O O16 0.217908 0.508592 0.878812
O O17 0.116667 0.572694 0.907022
#
# Coordination Sequence:
#
# PCOD8040338 Si02
#       8
#     2   2   2   2   2   2   2   2
#     4   9  22  40  63  86 119 158 201 243 301 357
#     4  10  18  36  62  86 113 158 198 241 288 358
#     4   9  18  38  65  83 119 165 196 237 290 362
#     4  10  21  39  60  91 122 158 195 249 294 349
#     4  10  21  39  60  89 120 155 202 244 290 359
#     4  11  21  39  61  89 124 154 202 247 291 350
#     4  11  24  38  60  91 127 148 198 256 299 337
#     4  10  19  39  64  84 113 161 204 239 293 359
#
# _framework density 21.445926
#
# number of rings (size 3 to 8) (size 9 to 14) (size 15 to 20)
#    0.000    2.000    5.000    0.000    0.000    6.500 
#    0.000    4.375    0.000    0.000    0.000    0.000 
#    0.000    0.000    0.000    0.000    0.000    0.000 
#
# Total GULP energy -198209.884941 kJ/mol
# GULP energy per Si atom -12388.117809 kJ/mol
# Density = 2.139711 g / cm^3
# Si number density = 21.445926 Si / 1000 Ang^3
#
#
#
# Elastic Constant Matrix: (Units=GPa)
#
#
# Indices 1 2 3 4 5 6 
#
# 1 110.6203 38.1338 28.2220 14.3006 -10.9784 -9.6840
# 2 38.1338 78.4347 28.7287 14.8939 -8.1621 -22.5417
# 3 28.2220 28.7287 58.2695 9.7583 5.6816 0.0443
# 4 14.3006 14.8939 9.7583 38.8330 -19.0603 -4.2866
# 5 -10.9784 -8.1621 5.6816 -19.0603 34.5918 -1.6712
# 6 -9.6840 -22.5417 0.0443 -4.2866 -1.6712 28.3969
#
#
#
# Elastic Compliance Matrix: (Units=1/GPa)
#
#
# Indices 1 2 3 4 5 6 
#
# 1 0.011829 -0.003196 -0.004555 0.000122 0.003900 0.001752
# 2 -0.003196 0.024747 -0.011551 0.000622 0.007989 0.019137
# 3 -0.004555 -0.011551 0.028122 -0.009634 -0.014731 -0.013088
# 4 0.000122 0.000622 -0.009634 0.040921 0.024711 0.008182
# 5 0.003900 0.007989 -0.014731 0.024711 0.048757 0.014294
# 6 0.001752 0.019137 -0.013088 0.008182 0.014294 0.053100
#
#
# Mechanical properties :
#
#
# Convention : Reuss Voigt Hill
#
# Bulk Modulus (GPa) = 38.32330 48.61038 43.46684
# Shear Modulus (GPa) = 19.62487 30.51366 25.06926
#
# Velocity S-wave (km/s) = 3.02832 3.77612 3.42270
# Velocity P-wave (km/s) = 5.48964 6.45971 5.99433
#
# Compressibility (1/GPa) = 0.02609379
#
# Stress axis : x y z
#
# Youngs Moduli (GPa) = 84.54142 40.40851 35.55873
#
# Poissons Ratio (x) = 0.12916 0.16197
# Poissons Ratio (y) = 0.27023 0.41073
# Poissons Ratio (z) = 0.38509 0.46675
#
# Static dielectric constant tensor:
#      x y z
#    x 4.402950 -0.160080 -0.407070 
#    y -0.160080 3.781180 -0.148520 
#    z -0.407070 -0.148520 4.261920 
# 
# 
# High freq. dielectric constant tensor:
#      x y z
#    x 1.845800 -0.035160 -0.004250 
#    y -0.035160 1.810580 0.002510 
#    z -0.004250 0.002510 1.849080 
# 
# From -- ./inp_files/492963.got.cif
#   From: 2010.06.25/outbox.cif.g09.slc.cpg/sg2_247_cif.got.tgz:492963.got - 2010.06.27 13:26:56.
