data_PCOD8040934
_publ_section_title
;
Structure prediction by ZEFSAII (Michael W. Deem and Ramdas Pophale) SiO2 
 PCOD8040934
Probable space group: P -1
;
_chemical_formula_sum "Si O2"
_cell_formula_units_Z 14
_cell_length_a 15.248263
_cell_length_b 12.208850
_cell_length_c 9.122560
_cell_angle_alpha 58.004022
_cell_angle_beta 124.078357
_cell_angle_gamma 151.022788
_cell_volume 678.126233
_symmetry_space_group_name_H-M "P -1"
_symmetry_group_IT_number 2
_symmetry_cell_setting 'triclinic'
loop_
_space_group_symop_operation_xyz
x,y,z
-x,-y,-z
loop_
_atom_site_type_symbol
_atom_site_label
_atom_site_fract_x
_atom_site_fract_y
_atom_site_fract_z
Si Si1 0.111446 0.808284 0.713332
Si Si2 0.149887 0.850569 0.048329
Si Si3 0.970072 0.984110 0.153336
Si Si4 0.745214 0.569098 0.429132
Si Si5 0.120421 0.576884 0.695124
Si Si6 0.199934 0.173449 0.489959
Si Si7 0.532516 0.164955 0.331020
O O1 0.186555 0.769941 0.707628
O O2 0.896520 0.624281 0.603616
O O3 0.246750 0.069179 0.630752
O O4 0.123599 0.768936 0.918372
O O5 0.996125 0.635433 0.161761
O O6 0.353604 0.023135 0.172822
O O7 0.130947 0.984611 0.927080
O O8 0.838995 0.737097 0.261393
O O9 0.171845 0.178963 0.287595
O O10 0.000000 0.000000 0.000000
O O11 0.664930 0.590606 0.463344
O O12 0.573443 0.314798 0.386318
O O13 0.298353 0.676324 0.736899
O O14 0.000000 0.500000 0.500000
O O15 0.000000 0.000000 0.500000
O O16 0.500000 0.000000 0.500000
#
# Coordination Sequence:
#
# PCOD8040934 Si02
#       7
#     2   2   2   2   2   2   2
#     4  10  19  40  66  91 126 172 207 257 317 374
#     4  12  23  41  66  95 129 166 213 262 320 368
#     4  10  19  33  65 100 122 161 214 258 307 382
#     4  10  18  40  62  89 126 164 209 247 321 383
#     4  12  24  41  67  92 122 174 219 252 316 382
#     4   8  16  34  61  89 119 165 209 243 316 383
#     4  12  26  41  64  97 127 167 214 266 316 369
#
# _framework density 20.645125
#
# number of rings (size 3 to 8) (size 9 to 14) (size 15 to 20)
#    0.000    1.714    7.143    1.286    2.000    1.143 
#    0.000    0.000    0.000    1.714    0.000    1.000 
#    0.000    0.000    0.000    0.000    0.000    0.000 
#
# Total GULP energy -173566.431919 kJ/mol
# GULP energy per Si atom -12397.602280 kJ/mol
# Density = 2.059814 g / cm^3
# Si number density = 20.645125 Si / 1000 Ang^3
#
#
#
# Elastic Constant Matrix: (Units=GPa)
#
#
# Indices 1 2 3 4 5 6 
#
# 1 79.6528 51.4470 36.7334 11.3758 -19.5240 -20.7827
# 2 51.4470 104.0757 61.7371 0.7739 -2.9745 -17.8364
# 3 36.7334 61.7371 150.4176 1.4958 -23.0203 -2.4523
# 4 11.3758 0.7739 1.4958 18.7446 -2.8110 0.8390
# 5 -19.5240 -2.9745 -23.0203 -2.8110 43.5664 5.3380
# 6 -20.7827 -17.8364 -2.4523 0.8390 5.3380 31.2004
#
#
#
# Elastic Compliance Matrix: (Units=1/GPa)
#
#
# Indices 1 2 3 4 5 6 
#
# 1 0.026757 -0.010804 -0.000438 -0.014913 0.008772 0.010513
# 2 -0.010804 0.019193 -0.006300 0.005012 -0.007071 0.004356
# 3 -0.000438 -0.006300 0.010069 0.000687 0.005230 -0.004015
# 4 -0.014913 0.005012 0.000687 0.062384 -0.000907 -0.008537
# 5 0.008772 -0.007071 0.005230 -0.000907 0.029450 -0.002802
# 6 0.010513 0.004356 -0.004015 -0.008537 -0.002802 0.041937
#
#
# Mechanical properties :
#
#
# Convention : Reuss Voigt Hill
#
# Bulk Modulus (GPa) = 47.76461 70.44234 59.10347
# Shear Modulus (GPa) = 21.56537 30.98416 26.27477
#
# Velocity S-wave (km/s) = 3.23549 3.87822 3.57134
# Velocity P-wave (km/s) = 6.09460 7.36537 6.75991
#
# Compressibility (1/GPa) = 0.02093600
#
# Stress axis : x y z
#
# Youngs Moduli (GPa) = 37.37287 52.10161 99.31331
#
# Poissons Ratio (x) = 0.56289 0.04350
# Poissons Ratio (y) = 0.40376 0.62569
# Poissons Ratio (z) = 0.01637 0.32825
#
# Static dielectric constant tensor:
#      x y z
#    x 2.964910 -0.708080 0.593380 
#    y -0.708080 3.756330 0.232660 
#    z 0.593380 0.232660 3.392800 
# 
# 
# High freq. dielectric constant tensor:
#      x y z
#    x 1.806060 -0.035460 -0.012220 
#    y -0.035460 1.786670 -0.007070 
#    z -0.012220 -0.007070 1.821150 
# 
# From -- ./inp_files/306819.got.cif
#   From: 2010.06.25/outbox.cif.g09.slc.cpg/sg2_154_cif.got.tgz:306819.got - 2010.06.27 13:26:56.
