data_PCOD8040334
_publ_section_title
;
Structure prediction by ZEFSAII (Michael W. Deem and Ramdas Pophale) SiO2 
 PCOD8040334
Probable space group: P -1
;
_chemical_formula_sum "Si O2"
_cell_formula_units_Z 16
_cell_length_a 9.189650
_cell_length_b 15.769679
_cell_length_c 9.480051
_cell_angle_alpha 93.647227
_cell_angle_beta 42.752055
_cell_angle_gamma 108.157246
_cell_volume 856.592283
_symmetry_space_group_name_H-M "P -1"
_symmetry_group_IT_number 2
_symmetry_cell_setting 'triclinic'
loop_
_space_group_symop_operation_xyz
x,y,z
-x,-y,-z
loop_
_atom_site_type_symbol
_atom_site_label
_atom_site_fract_x
_atom_site_fract_y
_atom_site_fract_z
Si Si1 0.791094 0.797841 0.358303
Si Si2 0.844698 0.256096 0.806964
Si Si3 0.378997 0.274633 0.823987
Si Si4 0.586627 0.132926 0.738505
Si Si5 0.862152 0.392017 0.581281
Si Si6 0.687926 0.202402 0.224652
Si Si7 0.044698 0.742453 0.696338
Si Si8 0.160331 0.955848 0.961586
O O1 0.732303 0.733315 0.252596
O O2 0.585812 0.820947 0.574119
O O3 0.895242 0.744671 0.388096
O O4 0.000712 0.897276 0.195401
O O5 0.660565 0.165877 0.848956
O O6 0.842922 0.349043 0.747686
O O7 0.772771 0.251729 0.020577
O O8 0.450538 0.188387 0.768516
O O9 0.604519 0.369371 0.698038
O O10 0.202261 0.262595 0.076241
O O11 0.818369 0.160979 0.477105
O O12 0.407019 0.027535 0.853223
O O13 0.997874 0.344541 0.384262
O O14 0.000000 0.500000 0.500000
O O15 0.809786 0.270506 0.274171
O O16 0.759262 0.114443 0.193523
O O17 0.000000 0.000000 0.000000
#
# Coordination Sequence:
#
# PCOD8040334 Si02
#       8
#     2   2   2   2   2   2   2   2
#     4  11  20  36  56  85 115 161 193 239 282 339
#     4   9  22  38  58  81 120 147 190 237 303 341
#     4  10  18  37  61  80 115 154 193 230 286 350
#     4  10  21  36  53  88 120 156 196 247 276 330
#     4  10  23  42  63  90 115 140 186 246 295 356
#     4  11  20  35  59  84 115 162 193 237 286 336
#     4  10  18  36  62  81 112 157 191 230 292 345
#     4  11  20  34  56  88 121 154 211 240 271 329
#
# _framework density 18.678664999999999
#
# number of rings (size 3 to 8) (size 9 to 14) (size 15 to 20)
#    0.000    2.000    6.250    0.000    0.000    9.500 
#    0.000    2.500    0.000    0.000    0.000    0.000 
#    0.000    0.000    0.000    0.000    0.000    0.000 
#
# Total GULP energy -198225.546998 kJ/mol
# GULP energy per Si atom -12389.096687 kJ/mol
# Density = 1.863615 g / cm^3
# Si number density = 18.678665 Si / 1000 Ang^3
#
#
#
# Elastic Constant Matrix: (Units=GPa)
#
#
# Indices 1 2 3 4 5 6 
#
# 1 85.5251 37.0308 22.4815 -13.2742 5.7211 4.0959
# 2 37.0308 95.2408 40.2564 -23.1597 -2.4722 9.9543
# 3 22.4815 40.2564 101.5229 -2.2661 -10.5919 2.2749
# 4 -13.2742 -23.1597 -2.2661 24.0802 1.7414 -5.9997
# 5 5.7211 -2.4722 -10.5919 1.7414 41.5202 4.0204
# 6 4.0959 9.9543 2.2749 -5.9997 4.0204 20.0718
#
#
#
# Elastic Compliance Matrix: (Units=1/GPa)
#
#
# Indices 1 2 3 4 5 6 
#
# 1 0.014809 -0.004019 -0.001930 0.004636 -0.003082 0.001193
# 2 -0.004019 0.018377 -0.006023 0.014061 -0.000151 -0.003377
# 3 -0.001930 -0.006023 0.012910 -0.006043 0.003512 -0.000592
# 4 0.004636 0.014061 -0.006043 0.060344 -0.005018 0.011808
# 5 -0.003082 -0.000151 0.003512 -0.005018 0.026231 -0.006448
# 6 0.001193 -0.003377 -0.000592 0.011808 -0.006448 0.056141
#
#
# Mechanical properties :
#
#
# Convention : Reuss Voigt Hill
#
# Bulk Modulus (GPa) = 45.14549 53.53626 49.34087
# Shear Modulus (GPa) = 22.71282 29.30243 26.00762
#
# Velocity S-wave (km/s) = 3.49087 3.96506 3.73550
# Velocity P-wave (km/s) = 6.36162 7.04884 6.71403
#
# Compressibility (1/GPa) = 0.02215061
#
# Stress axis : x y z
#
# Youngs Moduli (GPa) = 67.52749 54.41714 77.45642
#
# Poissons Ratio (x) = 0.21871 0.14952
# Poissons Ratio (y) = 0.27141 0.46652
# Poissons Ratio (z) = 0.13035 0.32775
#
# Static dielectric constant tensor:
#      x y z
#    x 3.671320 0.104390 -0.215250 
#    y 0.104390 3.164690 0.044740 
#    z -0.215250 0.044740 3.576610 
# 
# 
# High freq. dielectric constant tensor:
#      x y z
#    x 1.736150 0.013040 -0.010610 
#    y 0.013040 1.685290 0.009250 
#    z -0.010610 0.009250 1.729670 
# 
# From -- ./inp_files/212145.got.cif
#   From: 2010.06.25/outbox.cif.g09.slc.cpg/sg2_107_cif.got.tgz:212145.got - 2010.06.27 13:26:56.
