data_PCOD8040646
_publ_section_title
;
Structure prediction by ZEFSAII (Michael W. Deem and Ramdas Pophale) SiO2 
 PCOD8040646
Probable space group: P -1
;
_chemical_formula_sum "Si O2"
_cell_formula_units_Z 14
_cell_length_a 9.364405
_cell_length_b 12.631116
_cell_length_c 7.150024
_cell_angle_alpha 135.289927
_cell_angle_beta 115.110379
_cell_angle_gamma 72.738750
_cell_volume 538.738012
_symmetry_space_group_name_H-M "P -1"
_symmetry_group_IT_number 2
_symmetry_cell_setting 'triclinic'
loop_
_space_group_symop_operation_xyz
x,y,z
-x,-y,-z
loop_
_atom_site_type_symbol
_atom_site_label
_atom_site_fract_x
_atom_site_fract_y
_atom_site_fract_z
Si Si1 0.175541 0.662177 0.133521
Si Si2 0.126193 0.899507 0.681470
Si Si3 0.017591 0.202041 0.108440
Si Si4 0.271635 0.170593 0.937515
Si Si5 0.187295 0.318854 0.697931
Si Si6 0.594090 0.112192 0.931130
Si Si7 0.501972 0.209426 0.597368
O O1 0.069376 0.755654 0.344192
O O2 0.360414 0.699124 0.319453
O O3 0.141153 0.488042 0.933151
O O4 0.123784 0.704564 0.946216
O O5 0.242518 0.990037 0.715436
O O6 0.229166 0.844305 0.849374
O O7 0.994516 0.021349 0.830649
O O8 0.044262 0.241597 0.394567
O O9 0.180928 0.256690 0.162890
O O10 0.199640 0.214938 0.754267
O O11 0.459737 0.204406 0.086663
O O12 0.355652 0.321407 0.689445
O O13 0.582101 0.147693 0.752333
O O14 0.568258 0.933765 0.733955
#
# Coordination Sequence:
#
# PCOD8040646 Si02
#       7
#     2   2   2   2   2   2   2
#     4  12  24  39  60  96 127 150 205 265 298 349
#     4  10  21  38  64  90 118 158 206 254 294 355
#     4  10  23  42  65  84 126 168 202 239 312 369
#     4   9  21  39  67  87 116 163 212 237 296 379
#     4  11  23  43  64  87 125 168 198 248 310 363
#     4  10  18  37  67  89 116 163 204 248 305 356
#     4  10  20  38  62  93 118 156 212 248 294 370
#
# _framework density 25.986657000000001
#
# number of rings (size 3 to 8) (size 9 to 14) (size 15 to 20)
#    0.857    0.857    2.857    1.714    2.000    0.571 
#    5.143    2.857    0.000    0.000    0.000    0.000 
#    0.000    0.000    0.000    0.000    0.000    0.000 
#
# Total GULP energy -173554.260789 kJ/mol
# GULP energy per Si atom -12396.732913 kJ/mol
# Density = 2.592751 g / cm^3
# Si number density = 25.986657 Si / 1000 Ang^3
#
#
#
# Elastic Constant Matrix: (Units=GPa)
#
#
# Indices 1 2 3 4 5 6 
#
# 1 41.4235 -8.1783 0.3126 9.3943 2.4740 -14.1446
# 2 -8.1783 100.6279 56.1187 -4.7555 -5.6467 -12.0498
# 3 0.3126 56.1187 121.5883 9.4735 1.7607 -2.0890
# 4 9.3943 -4.7555 9.4735 46.5934 2.4933 -4.1266
# 5 2.4740 -5.6467 1.7607 2.4933 38.9251 -11.2626
# 6 -14.1446 -12.0498 -2.0890 -4.1266 -11.2626 34.8213
#
#
#
# Elastic Compliance Matrix: (Units=1/GPa)
#
#
# Indices 1 2 3 4 5 6 
#
# 1 0.031118 0.005502 -0.002089 -0.004142 0.003542 0.015074
# 2 0.005502 0.016103 -0.007563 0.002631 0.004830 0.009227
# 3 -0.002089 -0.007563 0.011922 -0.002989 -0.002439 -0.003893
# 4 -0.004142 0.002631 -0.002989 0.023340 -0.000210 0.001746
# 5 0.003542 0.004830 -0.002439 -0.000210 0.029942 0.012623
# 6 0.015074 0.009227 -0.003893 0.001746 0.012623 0.042090
#
#
# Mechanical properties :
#
#
# Convention : Reuss Voigt Hill
#
# Bulk Modulus (GPa) = 19.66839 40.01619 29.84229
# Shear Modulus (GPa) = 27.81470 38.42705 33.12088
#
# Velocity S-wave (km/s) = 3.27516 3.84959 3.57393
# Velocity P-wave (km/s) = 4.67839 5.93222 5.34222
#
# Compressibility (1/GPa) = 0.05084299
#
# Stress axis : x y z
#
# Youngs Moduli (GPa) = 32.13582 62.10172 83.88093
#
# Poissons Ratio (x) = -0.34169 0.17523
# Poissons Ratio (y) = -0.17681 0.63436
# Poissons Ratio (z) = 0.06713 0.46965
#
# Static dielectric constant tensor:
#      x y z
#    x 4.951060 -0.047410 -0.018470 
#    y -0.047410 4.444460 -0.207970 
#    z -0.018470 -0.207970 4.278380 
# 
# 
# High freq. dielectric constant tensor:
#      x y z
#    x 2.073650 -0.001380 0.000960 
#    y -0.001380 2.030040 -0.030230 
#    z 0.000960 -0.030230 2.007420 
# 
# From -- ./inp_files/269347.got.cif
#   From: 2010.06.25/outbox.cif.g09.slc.cpg/sg2_135_cif.got.tgz:269347.got - 2010.06.27 13:26:56.
