data_PCOD8040818
_publ_section_title
;
Structure prediction by ZEFSAII (Michael W. Deem and Ramdas Pophale) SiO2 
 PCOD8040818
Probable space group: P -1
;
_chemical_formula_sum "Si O2"
_cell_formula_units_Z 16
_cell_length_a 9.241142
_cell_length_b 11.839763
_cell_length_c 14.024401
_cell_angle_alpha 60.775752
_cell_angle_beta 79.214573
_cell_angle_gamma 37.328807
_cell_volume 751.127348
_symmetry_space_group_name_H-M "P -1"
_symmetry_group_IT_number 2
_symmetry_cell_setting 'triclinic'
loop_
_space_group_symop_operation_xyz
x,y,z
-x,-y,-z
loop_
_atom_site_type_symbol
_atom_site_label
_atom_site_fract_x
_atom_site_fract_y
_atom_site_fract_z
Si Si1 0.487245 0.904711 0.314108
Si Si2 0.952365 0.430985 0.807640
Si Si3 0.186413 0.958251 0.606175
Si Si4 0.593862 0.717433 0.180399
Si Si5 0.952371 0.224420 0.343137
Si Si6 0.174189 0.997605 0.961485
Si Si7 0.564028 0.140967 0.198037
Si Si8 0.357784 0.236361 0.449453
O O1 0.545434 0.005071 0.225930
O O2 0.206223 0.103944 0.315241
O O3 0.512270 0.788828 0.271557
O O4 0.693822 0.723216 0.447571
O O5 0.208288 0.313869 0.866830
O O6 0.714265 0.609613 0.836002
O O7 0.901500 0.552855 0.666724
O O8 0.996364 0.248994 0.854437
O O9 0.106357 0.867505 0.664696
O O10 0.214292 0.001070 0.689917
O O11 0.462834 0.770255 0.597291
O O12 0.983082 0.181105 0.471732
O O13 0.713424 0.489986 0.244491
O O14 0.337289 0.913363 0.069462
O O15 0.358529 0.834789 0.915490
O O16 0.000000 0.000000 0.000000
O O17 0.500000 0.000000 0.500000
#
# Coordination Sequence:
#
# PCOD8040818 Si02
#       8
#     2   2   2   2   2   2   2   2
#     4  11  22  40  70 106 134 172 212 274 335 413
#     4  11  23  44  72  97 134 172 220 277 328 396
#     4   9  20  39  68 100 137 169 222 263 340 409
#     4  12  26  43  66  97 135 175 231 270 332 383
#     4  10  22  42  65 100 140 176 207 281 332 402
#     4  12  31  48  62  95 137 178 235 284 317 391
#     4  11  23  44  74  96 130 177 225 270 340 392
#     4  10  18  38  70 107 135 164 217 265 336 407
#
# _framework density 21.301316
#
# number of rings (size 3 to 8) (size 9 to 14) (size 15 to 20)
#    0.000    1.250    5.000    1.125    5.250    3.500 
#    0.000    5.625    0.000    0.000    0.000    0.000 
#    0.000    0.000    0.000    0.000    0.000    0.000 
#
# Total GULP energy -198402.951204 kJ/mol
# GULP energy per Si atom -12400.184450 kJ/mol
# Density = 2.125283 g / cm^3
# Si number density = 21.301316 Si / 1000 Ang^3
#
#
#
# Elastic Constant Matrix: (Units=GPa)
#
#
# Indices 1 2 3 4 5 6 
#
# 1 126.9148 26.9286 52.4699 3.5563 -3.9474 -3.7823
# 2 26.9286 86.2861 58.5575 12.7226 -2.5824 2.4068
# 3 52.4699 58.5575 108.6447 9.5840 0.8458 2.8185
# 4 3.5563 12.7226 9.5840 44.0433 2.7152 -5.6296
# 5 -3.9474 -2.5824 0.8458 2.7152 36.6211 -0.9250
# 6 -3.7823 2.4068 2.8185 -5.6296 -0.9250 24.4953
#
#
#
# Elastic Compliance Matrix: (Units=1/GPa)
#
#
# Indices 1 2 3 4 5 6 
#
# 1 0.010020 0.000219 -0.005064 0.000442 0.001237 0.002257
# 2 0.000219 0.018901 -0.009951 -0.003608 0.001817 -0.001439
# 3 -0.005064 -0.009951 0.017130 -0.000595 -0.001649 -0.001974
# 4 0.000442 -0.003608 -0.000595 0.024737 -0.001873 0.006106
# 5 0.001237 0.001817 -0.001649 -0.001873 0.027766 0.000820
# 6 0.002257 -0.001439 -0.001974 0.006106 0.000820 0.042975
#
#
# Mechanical properties :
#
#
# Convention : Reuss Voigt Hill
#
# Bulk Modulus (GPa) = 60.76349 66.41753 63.59051
# Shear Modulus (GPa) = 28.31118 33.29125 30.80121
#
# Velocity S-wave (km/s) = 3.64961 3.95761 3.80673
# Velocity P-wave (km/s) = 6.80788 7.22020 7.01707
#
# Compressibility (1/GPa) = 0.01645725
#
# Stress axis : x y z
#
# Youngs Moduli (GPa) = 99.80175 52.90673 58.37659
#
# Poissons Ratio (x) = -0.01156 0.29562
# Poissons Ratio (y) = -0.02181 0.58093
# Poissons Ratio (z) = 0.50540 0.52650
#
# Static dielectric constant tensor:
#      x y z
#    x 3.939120 -0.091720 0.076700 
#    y -0.091720 3.599470 0.033030 
#    z 0.076700 0.033030 3.981710 
# 
# 
# High freq. dielectric constant tensor:
#      x y z
#    x 1.843980 -0.002180 0.002260 
#    y -0.002180 1.815750 0.004520 
#    z 0.002260 0.004520 1.835610 
# 
# From -- ./inp_files/498945.got.cif
#   From: 2010.06.25/outbox.cif.g09.slc.cpg/sg2_250_cif.got.tgz:498945.got - 2010.06.27 13:26:56.
