data_PCOD8040087
_publ_section_title
;
Structure prediction by ZEFSAII (Michael W. Deem and Ramdas Pophale) SiO2 
 PCOD8040087
Probable space group: P -1
;
_chemical_formula_sum "Si O2"
_cell_formula_units_Z 14
_cell_length_a 11.223687
_cell_length_b 10.088917
_cell_length_c 10.394494
_cell_angle_alpha 52.191984
_cell_angle_beta 120.262711
_cell_angle_gamma 140.612843
_cell_volume 589.021519
_symmetry_space_group_name_H-M "P -1"
_symmetry_group_IT_number 2
_symmetry_cell_setting 'triclinic'
loop_
_space_group_symop_operation_xyz
x,y,z
-x,-y,-z
loop_
_atom_site_type_symbol
_atom_site_label
_atom_site_fract_x
_atom_site_fract_y
_atom_site_fract_z
Si Si1 0.000882 0.690813 0.542912
Si Si2 0.276705 0.283607 0.491041
Si Si3 0.663719 0.549589 0.844117
Si Si4 0.432630 0.127409 0.796160
Si Si5 0.839609 0.368183 0.094757
Si Si6 0.654450 0.901150 0.670211
Si Si7 0.357247 0.785103 0.382794
O O1 0.116767 0.685911 0.716753
O O2 0.869583 0.731936 0.497143
O O3 0.853367 0.434802 0.554858
O O4 0.138082 0.879257 0.398196
O O5 0.500000 0.500000 0.500000
O O6 0.224805 0.270755 0.321584
O O7 0.261554 0.077056 0.651179
O O8 0.485809 0.294291 0.844803
O O9 0.625808 0.683290 0.832648
O O10 0.792253 0.523961 0.006345
O O11 0.615189 0.245116 0.733834
O O12 0.340479 0.870362 0.933737
O O13 0.000000 0.500000 0.000000
O O14 0.505354 0.801487 0.535083
O O15 0.607514 0.986153 0.713433
#
# Coordination Sequence:
#
# PCOD8040087 Si02
#       7
#     2   2   2   2   2   2   2
#     4  12  22  41  65  94 131 165 205 259 315 370
#     4  10  18  35  63  91 119 150 203 255 309 344
#     4  11  21  40  58  95 126 159 209 255 309 369
#     4  11  21  41  66  89 127 166 202 267 316 359
#     4  12  24  36  59  97 130 164 205 254 318 381
#     4  11  25  40  69  95 123 164 216 261 308 367
#     4  11  21  44  67  93 124 166 214 258 311 371
#
# _framework density 23.768232999999999
#
# number of rings (size 3 to 8) (size 9 to 14) (size 15 to 20)
#    0.000    0.857    7.143    1.714    2.000    1.143 
#    0.000    1.429    0.000    0.000    0.000    0.000 
#    0.000    0.000    0.000    0.000    0.000    0.000 
#
# Total GULP energy -173449.209739 kJ/mol
# GULP energy per Si atom -12389.229267 kJ/mol
# Density = 2.371414 g / cm^3
# Si number density = 23.768233 Si / 1000 Ang^3
#
#
#
# Elastic Constant Matrix: (Units=GPa)
#
#
# Indices 1 2 3 4 5 6 
#
# 1 95.9670 35.3778 33.9513 -5.7807 44.3135 -11.5466
# 2 35.3778 120.6114 12.6912 -21.0785 14.4641 -2.6576
# 3 33.9513 12.6912 55.4178 -15.7420 29.9154 -2.9878
# 4 -5.7807 -21.0785 -15.7420 28.9245 -8.6858 7.7090
# 5 44.3135 14.4641 29.9154 -8.6858 41.0606 -14.7842
# 6 -11.5466 -2.6576 -2.9878 7.7090 -14.7842 43.0851
#
#
#
# Elastic Compliance Matrix: (Units=1/GPa)
#
#
# Indices 1 2 3 4 5 6 
#
# 1 0.023591 -0.005101 -0.002654 -0.007279 -0.023622 -0.000980
# 2 -0.005101 0.010947 0.002519 0.009134 0.001109 -0.001771
# 3 -0.002654 0.002519 0.036430 0.016269 -0.024488 -0.009343
# 4 -0.007279 0.009134 0.016269 0.051192 0.000255 -0.009331
# 5 -0.023622 0.001109 -0.024488 0.000255 0.073558 0.017235
# 6 -0.000980 -0.001771 -0.009343 -0.009331 0.017235 0.029774
#
#
# Mechanical properties :
#
#
# Convention : Reuss Voigt Hill
#
# Bulk Modulus (GPa) = 16.53002 48.44854 32.48928
# Shear Modulus (GPa) = 19.52144 35.27909 27.40026
#
# Velocity S-wave (km/s) = 2.86899 3.85684 3.39899
# Velocity P-wave (km/s) = 4.23610 6.34520 5.39472
#
# Compressibility (1/GPa) = 0.06049598
#
# Stress axis : x y z
#
# Youngs Moduli (GPa) = 42.38896 91.35226 27.44977
#
# Poissons Ratio (x) = 0.46603 0.07284
# Poissons Ratio (y) = 0.21624 -0.06915
# Poissons Ratio (z) = 0.11248 -0.23012
#
# Static dielectric constant tensor:
#      x y z
#    x 4.414510 -0.112450 0.695650 
#    y -0.112450 4.649630 -0.272760 
#    z 0.695650 -0.272760 4.752400 
# 
# 
# High freq. dielectric constant tensor:
#      x y z
#    x 1.939650 -0.005190 0.037260 
#    y -0.005190 1.949690 -0.019340 
#    z 0.037260 -0.019340 1.922210 
# 
# From -- ./inp_files/425305.got.cif
#   From: 2010.06.25/outbox.cif.g09.slc.cpg/sg2_213_cif.got.tgz:425305.got - 2010.06.27 13:26:56.
