data_PCOD8040046
_publ_section_title
;
Structure prediction by ZEFSAII (Michael W. Deem and Ramdas Pophale) SiO2 
 PCOD8040046
Probable space group: P -1
;
_chemical_formula_sum "Si O2"
_cell_formula_units_Z 16
_cell_length_a 9.652918
_cell_length_b 25.553165
_cell_length_c 13.959597
_cell_angle_alpha 22.502505
_cell_angle_beta 123.606465
_cell_angle_gamma 136.401264
_cell_volume 817.036055
_symmetry_space_group_name_H-M "P -1"
_symmetry_group_IT_number 2
_symmetry_cell_setting 'triclinic'
loop_
_space_group_symop_operation_xyz
x,y,z
-x,-y,-z
loop_
_atom_site_type_symbol
_atom_site_label
_atom_site_fract_x
_atom_site_fract_y
_atom_site_fract_z
Si Si1 0.509459 0.510978 0.704385
Si Si2 0.821722 0.875911 0.855546
Si Si3 0.215492 0.608480 0.963667
Si Si4 0.313132 0.509761 0.823164
Si Si5 0.659701 0.953649 0.491140
Si Si6 0.470635 0.333659 0.731885
Si Si7 0.160447 0.657997 0.075243
Si Si8 0.730851 0.810949 0.581034
O O1 0.702028 0.502400 0.802766
O O2 0.462029 0.549494 0.723101
O O3 0.590539 0.680829 0.379325
O O4 0.281787 0.319724 0.897982
O O5 0.744987 0.959715 0.618750
O O6 0.726574 0.847569 0.975181
O O7 0.092210 0.027375 0.700892
O O8 0.178187 0.656836 0.970012
O O9 0.393222 0.794890 0.657154
O O10 0.000000 0.500000 0.000000
O O11 0.478071 0.687204 0.654719
O O12 0.102746 0.489101 0.749395
O O13 0.218426 0.322021 0.157031
O O14 0.762312 0.909097 0.526147
O O15 0.729448 0.145423 0.172191
O O16 0.500000 0.500000 0.500000
O O17 0.709562 0.391627 0.737918
#
# Coordination Sequence:
#
# PCOD8040046 Si02
#       8
#     2   2   2   2   2   2   2   2
#     4  10  21  42  62  86 121 164 205 239 300 364
#     4  10  18  35  62  86 119 157 196 248 293 353
#     4  11  22  36  60  93 127 158 189 255 312 355
#     4  11  23  36  61  91 123 162 198 244 318 358
#     4  11  20  35  58  94 124 149 207 250 307 346
#     4  10  21  41  62  86 117 162 211 244 291 353
#     4  12  22  36  64  93 117 159 205 254 294 360
#     4  11  21  37  57  93 131 156 188 255 315 362
#
# _framework density 19.582981
#
# number of rings (size 3 to 8) (size 9 to 14) (size 15 to 20)
#    0.000    1.250    7.500    2.250    1.750    0.500 
#    0.000    0.625    0.000    3.750    0.000    0.000 
#    0.000    0.000    0.000    0.000    0.000    0.000 
#
# Total GULP energy -198339.173371 kJ/mol
# GULP energy per Si atom -12396.198336 kJ/mol
# Density = 1.953841 g / cm^3
# Si number density = 19.582981 Si / 1000 Ang^3
#
#
#
# Elastic Constant Matrix: (Units=GPa)
#
#
# Indices 1 2 3 4 5 6 
#
# 1 95.0859 45.1951 37.5458 -3.0960 -5.7615 12.5859
# 2 45.1951 104.5241 56.0251 0.6079 -4.3607 20.4462
# 3 37.5458 56.0251 80.9125 4.8395 -8.4619 11.3920
# 4 -3.0960 0.6079 4.8395 21.6488 1.0796 -4.8084
# 5 -5.7615 -4.3607 -8.4619 1.0796 33.0359 1.7515
# 6 12.5859 20.4462 11.3920 -4.8084 1.7515 34.2724
#
#
#
# Elastic Compliance Matrix: (Units=1/GPa)
#
#
# Indices 1 2 3 4 5 6 
#
# 1 0.014143 -0.003785 -0.003807 0.002631 0.000977 -0.001351
# 2 -0.003785 0.017439 -0.009537 -0.000173 -0.000485 -0.005843
# 3 -0.003807 -0.009537 0.021613 -0.005538 0.003851 -0.001071
# 4 0.002631 -0.000173 -0.005538 0.049765 -0.003039 0.008115
# 5 0.000977 -0.000485 0.003851 -0.003039 0.031642 -0.003393
# 6 -0.001351 -0.005843 -0.001071 0.008115 -0.003393 0.034828
#
#
# Mechanical properties :
#
#
# Convention : Reuss Voigt Hill
#
# Bulk Modulus (GPa) = 52.80159 62.00606 57.40382
# Shear Modulus (GPa) = 23.80953 27.24187 25.52570
#
# Velocity S-wave (km/s) = 3.49066 3.73379 3.61427
# Velocity P-wave (km/s) = 6.57782 7.09368 6.84061
#
# Compressibility (1/GPa) = 0.01893882
#
# Stress axis : x y z
#
# Youngs Moduli (GPa) = 70.70791 57.34230 46.26746
#
# Poissons Ratio (x) = 0.21704 0.17613
# Poissons Ratio (y) = 0.26762 0.44123
# Poissons Ratio (z) = 0.26917 0.54685
#
# Static dielectric constant tensor:
#      x y z
#    x 3.752510 0.040750 -0.233330 
#    y 0.040750 3.399800 -0.200530 
#    z -0.233330 -0.200530 3.260090 
# 
# 
# High freq. dielectric constant tensor:
#      x y z
#    x 1.770990 0.003080 -0.011760 
#    y 0.003080 1.747680 -0.004830 
#    z -0.011760 -0.004830 1.740810 
# 
# From -- ./inp_files/217052.got.cif
#   From: 2010.06.25/outbox.cif.g09.slc.cpg/sg2_109_cif.got.tgz:217052.got - 2010.06.27 13:26:56.
