data_PCOD8040957
_publ_section_title
;
Structure prediction by ZEFSAII (Michael W. Deem and Ramdas Pophale) SiO2 
 PCOD8040957
Probable space group: P -1
;
_chemical_formula_sum "Si O2"
_cell_formula_units_Z 16
_cell_length_a 11.013977
_cell_length_b 11.732592
_cell_length_c 8.870980
_cell_angle_alpha 126.466256
_cell_angle_beta 131.241665
_cell_angle_gamma 70.271307
_cell_volume 690.404460
_symmetry_space_group_name_H-M "P -1"
_symmetry_group_IT_number 2
_symmetry_cell_setting 'triclinic'
loop_
_space_group_symop_operation_xyz
x,y,z
-x,-y,-z
loop_
_atom_site_type_symbol
_atom_site_label
_atom_site_fract_x
_atom_site_fract_y
_atom_site_fract_z
Si Si1 0.675719 0.255563 0.348820
Si Si2 0.124408 0.322331 0.437722
Si Si3 0.822693 0.994455 0.416811
Si Si4 0.773638 0.483744 0.055617
Si Si5 0.326003 0.298731 0.062496
Si Si6 0.828768 0.979381 0.760497
Si Si7 0.121744 0.458369 0.236640
Si Si8 0.745311 0.236281 0.046116
O O1 0.493719 0.280138 0.271012
O O2 0.796639 0.384659 0.612610
O O3 0.666168 0.245056 0.151101
O O4 0.723607 0.110397 0.345175
O O5 0.146223 0.400716 0.673500
O O6 0.169574 0.432911 0.429049
O O7 0.937391 0.266133 0.233715
O O8 0.233267 0.187944 0.411907
O O9 0.839789 0.027291 0.633346
O O10 0.731210 0.839969 0.190325
O O11 0.000000 0.000000 0.500000
O O12 0.682002 0.349700 0.963346
O O13 0.925987 0.446935 0.044863
O O14 0.645695 0.561274 0.912120
O O15 0.188311 0.331123 0.095293
O O16 0.704942 0.076792 0.820492
O O17 0.000000 0.000000 0.000000
#
# Coordination Sequence:
#
# PCOD8040957 Si02
#       8
#     2   2   2   2   2   2   2   2
#     4  12  25  46  64  97 142 175 213 267 340 395
#     4  10  18  40  67  94 126 163 228 277 317 370
#     4  12  26  44  70  96 132 176 223 273 324 393
#     4  11  20  42  67  96 128 167 234 274 318 374
#     4  12  28  42  64  99 139 179 213 269 334 399
#     4  10  22  39  66 101 123 162 223 278 325 374
#     4  11  23  42  69  95 130 179 221 275 319 390
#     4  10  21  38  67  96 127 170 217 278 318 383
#
# _framework density 23.174821999999999
#
# number of rings (size 3 to 8) (size 9 to 14) (size 15 to 20)
#    0.000    1.000    3.750    4.125    8.750    0.500 
#    0.000    0.625    0.000    0.000    0.000    0.000 
#    0.000    0.000    0.000    0.000    0.000    0.000 
#
# Total GULP energy -198389.296611 kJ/mol
# GULP energy per Si atom -12399.331038 kJ/mol
# Density = 2.312208 g / cm^3
# Si number density = 23.174822 Si / 1000 Ang^3
#
#
#
# Elastic Constant Matrix: (Units=GPa)
#
#
# Indices 1 2 3 4 5 6 
#
# 1 59.1461 37.6664 30.1410 -4.0977 -11.7473 -13.6075
# 2 37.6664 164.4876 27.1267 -5.5169 6.7017 -21.1497
# 3 30.1410 27.1267 58.3971 -3.8655 -14.1690 -9.6668
# 4 -4.0977 -5.5169 -3.8655 41.5595 -9.3734 -1.3632
# 5 -11.7473 6.7017 -14.1690 -9.3734 21.9348 7.9765
# 6 -13.6075 -21.1497 -9.6668 -1.3632 7.9765 24.7342
#
#
#
# Elastic Compliance Matrix: (Units=1/GPa)
#
#
# Indices 1 2 3 4 5 6 
#
# 1 0.027663 -0.004635 -0.008494 0.003889 0.010697 0.004701
# 2 -0.004635 0.008994 -0.003315 -0.001759 -0.010747 0.007214
# 3 -0.008494 -0.003315 0.027129 0.004983 0.016870 -0.002071
# 4 0.003889 -0.001759 0.004983 0.028869 0.018870 -0.001911
# 5 0.010697 -0.010747 0.016870 0.018870 0.081553 -0.021971
# 6 0.004701 0.007214 -0.002071 -0.001911 -0.021971 0.055355
#
#
# Mechanical properties :
#
#
# Convention : Reuss Voigt Hill
#
# Bulk Modulus (GPa) = 32.36554 52.43321 42.39937
# Shear Modulus (GPa) = 18.33185 30.11881 24.22533
#
# Velocity S-wave (km/s) = 2.81557 3.60896 3.23666
# Velocity P-wave (km/s) = 4.95641 6.32774 5.68359
#
# Compressibility (1/GPa) = 0.03089706
#
# Stress axis : x y z
#
# Youngs Moduli (GPa) = 36.14956 111.18549 36.86151
#
# Poissons Ratio (x) = 0.51532 0.31310
# Poissons Ratio (y) = 0.16754 0.12221
# Poissons Ratio (z) = 0.30705 0.36863
#
# Static dielectric constant tensor:
#      x y z
#    x 4.107180 -0.040700 -0.394720 
#    y -0.040700 5.032000 0.144700 
#    z -0.394720 0.144700 4.041310 
# 
# 
# High freq. dielectric constant tensor:
#      x y z
#    x 1.892000 -0.007420 -0.031970 
#    y -0.007420 1.942010 0.002820 
#    z -0.031970 0.002820 1.906740 
# 
# From -- ./inp_files/263185.got.cif
#   From: 2010.06.25/outbox.cif.g09.slc.cpg/sg2_132_cif.got.tgz:263185.got - 2010.06.27 13:26:56.
