data_PCOD8040928
_publ_section_title
;
Structure prediction by ZEFSAII (Michael W. Deem and Ramdas Pophale) SiO2 
 PCOD8040928
Probable space group: P -1
;
_chemical_formula_sum "Si O2"
_cell_formula_units_Z 14
_cell_length_a 16.980632
_cell_length_b 5.133628
_cell_length_c 12.729712
_cell_angle_alpha 94.438414
_cell_angle_beta 47.743954
_cell_angle_gamma 118.289394
_cell_volume 671.835267
_symmetry_space_group_name_H-M "P -1"
_symmetry_group_IT_number 2
_symmetry_cell_setting 'triclinic'
loop_
_space_group_symop_operation_xyz
x,y,z
-x,-y,-z
loop_
_atom_site_type_symbol
_atom_site_label
_atom_site_fract_x
_atom_site_fract_y
_atom_site_fract_z
Si Si1 0.396530 0.509741 0.217733
Si Si2 0.703728 0.907901 0.524630
Si Si3 0.168254 0.434355 0.672398
Si Si4 0.653854 0.569751 0.967088
Si Si5 0.127065 0.995620 0.066739
Si Si6 0.473757 0.900154 0.751750
Si Si7 0.782367 0.393112 0.128616
O O1 0.305138 0.159777 0.342809
O O2 0.544221 0.636955 0.064413
O O3 0.410081 0.746560 0.304090
O O4 0.328542 0.511067 0.170881
O O5 0.747449 0.710162 0.418052
O O6 0.553060 0.768930 0.624328
O O7 0.797464 0.284186 0.430041
O O8 0.189142 0.577433 0.773611
O O9 0.019979 0.146768 0.775741
O O10 0.609553 0.278759 0.074949
O O11 0.788863 0.876294 0.897867
O O12 0.134400 0.716727 0.003532
O O13 0.178410 0.271554 0.942833
O O14 0.372231 0.874650 0.758173
#
# Coordination Sequence:
#
# PCOD8040928 Si02
#       7
#     2   2   2   2   2   2   2
#     4  10  18  40  60  92 118 152 192 253 295 348
#     4  11  24  40  59  87 124 163 195 234 290 366
#     4  12  24  41  60  84 125 166 193 234 295 352
#     4   9  20  34  67  91 113 152 194 253 306 328
#     4  11  22  42  61  92 117 149 205 250 285 354
#     4  10  20  38  63  89 126 142 204 247 295 350
#     4  11  23  39  65  90 114 154 201 253 295 334
#
# _framework density 20.838443000000002
#
# number of rings (size 3 to 8) (size 9 to 14) (size 15 to 20)
#    0.000    1.429    2.857    3.000    0.000    1.143 
#    0.000    1.429    0.000    0.000    0.000    0.000 
#    0.000    0.000    0.000    0.000    0.000    0.000 
#
# Total GULP energy -173520.859990 kJ/mol
# GULP energy per Si atom -12394.347142 kJ/mol
# Density = 2.079101 g / cm^3
# Si number density = 20.838443 Si / 1000 Ang^3
#
#
#
# Elastic Constant Matrix: (Units=GPa)
#
#
# Indices 1 2 3 4 5 6 
#
# 1 96.3573 45.9283 49.2614 -1.5962 -1.0989 15.6993
# 2 45.9283 92.3832 39.3167 -1.7779 -2.2755 6.1205
# 3 49.2614 39.3167 89.0827 -13.8541 -5.0287 16.8771
# 4 -1.5962 -1.7779 -13.8541 21.6942 -10.7902 0.1874
# 5 -1.0989 -2.2755 -5.0287 -10.7902 19.7908 4.4529
# 6 15.6993 6.1205 16.8771 0.1874 4.4529 40.5309
#
#
#
# Elastic Compliance Matrix: (Units=1/GPa)
#
#
# Indices 1 2 3 4 5 6 
#
# 1 0.017183 -0.005175 -0.008234 -0.006938 -0.005098 -0.001854
# 2 -0.005175 0.015214 -0.004831 -0.003207 -0.001953 0.001948
# 3 -0.008234 -0.004831 0.024703 0.025318 0.021047 -0.008797
# 4 -0.006938 -0.003207 0.025318 0.090592 0.058264 -0.014191
# 5 -0.005098 -0.001953 0.021047 0.058264 0.090904 -0.016751
# 6 -0.001854 0.001948 -0.008797 -0.014191 -0.016751 0.030665
#
#
# Mechanical properties :
#
#
# Convention : Reuss Voigt Hill
#
# Bulk Modulus (GPa) = 48.49424 60.75955 54.62690
# Shear Modulus (GPa) = 15.99410 25.95763 20.97587
#
# Velocity S-wave (km/s) = 2.77344 3.53322 3.17613
# Velocity P-wave (km/s) = 5.79465 6.77241 6.30252
#
# Compressibility (1/GPa) = 0.02062100
#
# Stress axis : x y z
#
# Youngs Moduli (GPa) = 58.19799 65.72744 40.48062
#
# Poissons Ratio (x) = 0.34012 0.33330
# Poissons Ratio (y) = 0.30115 0.19558
# Poissons Ratio (z) = 0.47918 0.31756
#
# Static dielectric constant tensor:
#      x y z
#    x 3.809750 -0.025680 -0.001110 
#    y -0.025680 3.758010 0.006460 
#    z -0.001110 0.006460 3.806780 
# 
# 
# High freq. dielectric constant tensor:
#      x y z
#    x 1.813100 -0.014520 -0.000070 
#    y -0.014520 1.806210 -0.002260 
#    z -0.000070 -0.002260 1.810190 
# 
# From -- ./inp_files/51284.got.cif
#   From: 2010.06.25/outbox.cif.g09.slc.cpg/sg2_26_cif.got.tgz:51284.got - 2010.06.27 13:26:56.
