data_PCOD8040579
_publ_section_title
;
Structure prediction by ZEFSAII (Michael W. Deem and Ramdas Pophale) SiO2 
 PCOD8040579
Probable space group: P -1
;
_chemical_formula_sum "Si O2"
_cell_formula_units_Z 14
_cell_length_a 11.538604
_cell_length_b 14.642803
_cell_length_c 9.344049
_cell_angle_alpha 67.144775
_cell_angle_beta 131.450279
_cell_angle_gamma 73.869730
_cell_volume 689.770564
_symmetry_space_group_name_H-M "P -1"
_symmetry_group_IT_number 2
_symmetry_cell_setting 'triclinic'
loop_
_space_group_symop_operation_xyz
x,y,z
-x,-y,-z
loop_
_atom_site_type_symbol
_atom_site_label
_atom_site_fract_x
_atom_site_fract_y
_atom_site_fract_z
Si Si1 0.470535 0.047564 0.613077
Si Si2 0.003517 0.773888 0.235471
Si Si3 0.565543 0.366850 0.718305
Si Si4 0.581767 0.548780 0.136809
Si Si5 0.708860 0.642837 0.685418
Si Si6 0.379775 0.762056 0.603005
Si Si7 0.910000 0.899046 0.785807
O O1 0.379615 0.201978 0.473000
O O2 0.261878 0.075317 0.483993
O O3 0.500000 0.000000 0.500000
O O4 0.728459 0.910047 0.991407
O O5 0.130918 0.609104 0.494505
O O6 0.164966 0.788125 0.403519
O O7 0.985097 0.784723 0.042102
O O8 0.500000 0.500000 0.500000
O O9 0.562247 0.385822 0.872715
O O10 0.383950 0.368501 0.524326
O O11 0.839783 0.189994 0.025557
O O12 0.500000 0.500000 0.000000
O O13 0.523027 0.679060 0.922749
O O14 0.585704 0.647197 0.717928
O O15 0.000000 0.500000 0.000000
O O16 0.245770 0.933738 0.376245
#
# Coordination Sequence:
#
# PCOD8040579 Si02
#       7
#     2   2   2   2   2   2   2
#     4  10  21  36  61  95 123 164 213 261 304 370
#     4  10  18  37  63  87 120 167 206 250 310 382
#     4  12  22  39  66  95 126 167 216 265 309 377
#     4  10  23  39  62  93 130 165 207 263 326 376
#     4  12  24  38  65  98 128 161 222 265 309 375
#     4  11  21  40  62  95 123 166 208 263 320 377
#     4  11  20  36  68  89 123 163 220 253 309 375
#
# _framework density 20.296602
#
# number of rings (size 3 to 8) (size 9 to 14) (size 15 to 20)
#    0.000    1.143    5.714    3.000    2.000    0.571 
#    0.000    2.857    0.000    5.143    0.000    0.000 
#    0.000    0.000    0.000    0.000    0.000    0.000 
#
# Total GULP energy -173445.993001 kJ/mol
# GULP energy per Si atom -12388.999500 kJ/mol
# Density = 2.025041 g / cm^3
# Si number density = 20.296602 Si / 1000 Ang^3
#
#
#
# Elastic Constant Matrix: (Units=GPa)
#
#
# Indices 1 2 3 4 5 6 
#
# 1 57.0025 27.6216 58.0753 11.7025 18.9661 -7.3459
# 2 27.6216 105.1979 43.4525 1.5838 12.0241 -4.8556
# 3 58.0753 43.4525 158.7682 -12.1564 28.2963 -6.5955
# 4 11.7025 1.5838 -12.1564 31.7330 -0.6156 4.6266
# 5 18.9661 12.0241 28.2963 -0.6156 46.3265 9.5581
# 6 -7.3459 -4.8556 -6.5955 4.6266 9.5581 33.3097
#
#
#
# Elastic Compliance Matrix: (Units=1/GPa)
#
#
# Indices 1 2 3 4 5 6 
#
# 1 0.044413 -0.003375 -0.014580 -0.023914 -0.011403 0.013009
# 2 -0.003375 0.011200 -0.001690 -0.000084 -0.000649 0.000752
# 3 -0.014580 -0.001690 0.012999 0.010729 -0.000955 -0.002104
# 4 -0.023914 -0.000084 0.010729 0.046224 0.006218 -0.011366
# 5 -0.011403 -0.000649 -0.000955 0.006218 0.029596 -0.012155
# 6 0.013009 0.000752 -0.002104 -0.011366 -0.012155 0.037650
#
#
# Mechanical properties :
#
#
# Convention : Reuss Voigt Hill
#
# Bulk Modulus (GPa) = 34.10565 64.36303 49.23434
# Shear Modulus (GPa) = 21.63122 35.06180 28.34651
#
# Velocity S-wave (km/s) = 3.26813 4.16080 3.74118
# Velocity P-wave (km/s) = 5.57504 7.40696 6.55531
#
# Compressibility (1/GPa) = 0.02932065
#
# Stress axis : x y z
#
# Youngs Moduli (GPa) = 22.51584 89.28215 76.93094
#
# Poissons Ratio (x) = 0.30134 1.12168
# Poissons Ratio (y) = 0.07600 0.13004
# Poissons Ratio (z) = 0.32829 0.15092
#
# Static dielectric constant tensor:
#      x y z
#    x 3.979380 0.058270 0.297360 
#    y 0.058270 3.705280 -0.078400 
#    z 0.297360 -0.078400 4.745060 
# 
# 
# High freq. dielectric constant tensor:
#      x y z
#    x 1.763230 0.008380 0.024730 
#    y 0.008380 1.791480 -0.011660 
#    z 0.024730 -0.011660 1.808280 
# 
# From -- ./inp_files/171288.got.cif
#   From: 2010.06.25/outbox.cif.g09.slc.cpg/sg2_86_cif.got.tgz:171288.got - 2010.06.27 13:26:56.
