data_PCOD8040920
_publ_section_title
;
Structure prediction by ZEFSAII (Michael W. Deem and Ramdas Pophale) SiO2 
 PCOD8040920
Probable space group: P -1
;
_chemical_formula_sum "Si O2"
_cell_formula_units_Z 14
_cell_length_a 16.049195
_cell_length_b 12.513870
_cell_length_c 9.096748
_cell_angle_alpha 131.474979
_cell_angle_beta 57.567274
_cell_angle_gamma 153.321530
_cell_volume 606.174563
_symmetry_space_group_name_H-M "P -1"
_symmetry_group_IT_number 2
_symmetry_cell_setting 'triclinic'
loop_
_space_group_symop_operation_xyz
x,y,z
-x,-y,-z
loop_
_atom_site_type_symbol
_atom_site_label
_atom_site_fract_x
_atom_site_fract_y
_atom_site_fract_z
Si Si1 0.138589 0.857985 0.765953
Si Si2 0.784031 0.561206 0.906465
Si Si3 0.338046 0.361215 0.128187
Si Si4 0.590539 0.046922 0.313240
Si Si5 0.658238 0.836186 0.452841
Si Si6 0.449260 0.806733 0.768614
Si Si7 0.177263 0.244168 0.657659
O O1 0.221544 0.810650 0.698949
O O2 0.911686 0.582861 0.750701
O O3 0.203026 0.969867 0.639972
O O4 0.199243 0.057432 0.004536
O O5 0.771810 0.645841 0.852171
O O6 0.575171 0.255026 0.875428
O O7 0.877875 0.765303 0.137266
O O8 0.439286 0.538400 0.342027
O O9 0.500000 0.500000 0.000000
O O10 0.649514 0.245624 0.329278
O O11 0.500000 0.000000 0.500000
O O12 0.641985 0.960449 0.679020
O O13 0.721907 0.784085 0.446070
O O14 0.307727 0.522997 0.716260
O O15 0.500000 0.000000 0.000000
O O16 0.000000 0.000000 0.500000
#
# Coordination Sequence:
#
# PCOD8040920 Si02
#       7
#     2   2   2   2   2   2   2
#     4  11  23  39  75 112 141 184 244 322 363 425
#     4  12  23  43  72 114 146 185 252 309 369 438
#     4  10  18  39  73 104 140 180 244 311 359 420
#     4  12  24  48  71 104 149 197 246 299 381 442
#     4  11  23  46  73 106 141 199 254 294 376 436
#     4  12  27  48  74 100 152 204 243 300 375 456
#     4  12  28  47  70 107 151 199 250 300 366 456
#
# _framework density 23.095659000000001
#
# number of rings (size 3 to 8) (size 9 to 14) (size 15 to 20)
#    0.000    0.571    8.571    0.857    2.000    2.857 
#    2.571    1.429    0.000    0.000    0.000    0.000 
#    0.000    0.000    0.000    0.000    0.000    0.000 
#
# Total GULP energy -173542.269626 kJ/mol
# GULP energy per Si atom -12395.876402 kJ/mol
# Density = 2.304309 g / cm^3
# Si number density = 23.095659 Si / 1000 Ang^3
#
#
#
# Elastic Constant Matrix: (Units=GPa)
#
#
# Indices 1 2 3 4 5 6 
#
# 1 231.1233 55.1077 58.6001 -13.9829 -14.8008 1.3723
# 2 55.1077 59.4613 18.9299 -10.3195 -9.5281 5.3963
# 3 58.6001 18.9299 125.6906 -9.0237 -3.5926 9.7758
# 4 -13.9829 -10.3195 -9.0237 23.8545 8.2962 -7.7472
# 5 -14.8008 -9.5281 -3.5926 8.2962 43.4746 -3.5934
# 6 1.3723 5.3963 9.7758 -7.7472 -3.5934 43.0495
#
#
#
# Elastic Compliance Matrix: (Units=1/GPa)
#
#
# Indices 1 2 3 4 5 6 
#
# 1 0.006107 -0.004821 -0.002128 0.000770 0.000790 0.001098
# 2 -0.004821 0.022938 -0.000632 0.005666 0.002138 -0.001380
# 3 -0.002128 -0.000632 0.009278 0.001623 -0.000548 -0.001713
# 4 0.000770 0.005666 0.001623 0.050387 -0.007370 0.007349
# 5 0.000790 0.002138 -0.000548 -0.007370 0.025151 0.000604
# 6 0.001098 -0.001380 -0.001713 0.007349 0.000604 0.025129
#
#
# Mechanical properties :
#
#
# Convention : Reuss Voigt Hill
#
# Bulk Modulus (GPa) = 43.17806 75.72785 59.45296
# Shear Modulus (GPa) = 30.88863 40.98488 35.93675
#
# Velocity S-wave (km/s) = 3.66104 4.21714 3.94889
# Velocity P-wave (km/s) = 6.05036 7.52145 6.82566
#
# Compressibility (1/GPa) = 0.02315991
#
# Stress axis : x y z
#
# Youngs Moduli (GPa) = 163.75831 43.59542 107.78640
#
# Poissons Ratio (x) = 0.21018 0.22941
# Poissons Ratio (y) = 0.78950 0.06809
# Poissons Ratio (z) = 0.34854 0.02754
#
# Static dielectric constant tensor:
#      x y z
#    x 4.157290 0.479620 0.294110 
#    y 0.479620 6.873250 1.695790 
#    z 0.294110 1.695790 5.587090 
# 
# 
# High freq. dielectric constant tensor:
#      x y z
#    x 1.922580 0.001670 -0.012420 
#    y 0.001670 1.893680 -0.003570 
#    z -0.012420 -0.003570 1.921490 
# 
# From -- ./inp_files/308488.got.cif
#   From: 2010.06.25/outbox.cif.g09.slc.cpg/sg2_155_cif.got.tgz:308488.got - 2010.06.27 13:26:56.
