data_PCOD8040035
_publ_section_title
;
Structure prediction by ZEFSAII (Michael W. Deem and Ramdas Pophale) SiO2 
 PCOD8040035
Probable space group: P -1
;
_chemical_formula_sum "Si O2"
_cell_formula_units_Z 14
_cell_length_a 15.022237
_cell_length_b 22.188467
_cell_length_c 11.233940
_cell_angle_alpha 30.497689
_cell_angle_beta 141.393139
_cell_angle_gamma 160.913535
_cell_volume 609.118204
_symmetry_space_group_name_H-M "P -1"
_symmetry_group_IT_number 2
_symmetry_cell_setting 'triclinic'
loop_
_space_group_symop_operation_xyz
x,y,z
-x,-y,-z
loop_
_atom_site_type_symbol
_atom_site_label
_atom_site_fract_x
_atom_site_fract_y
_atom_site_fract_z
Si Si1 0.488025 0.799274 0.332391
Si Si2 0.937685 0.306788 0.547729
Si Si3 0.370013 0.686602 0.793778
Si Si4 0.615462 0.532184 0.688430
Si Si5 0.903094 0.827041 0.105101
Si Si6 0.859731 0.244082 0.851681
Si Si7 0.807795 0.938556 0.634580
O O1 0.247289 0.572185 0.384249
O O2 0.373760 0.823466 0.255207
O O3 0.612827 0.788807 0.570032
O O4 0.730030 0.022367 0.120698
O O5 0.893426 0.142857 0.726725
O O6 0.707531 0.234342 0.380645
O O7 0.942882 0.310045 0.689762
O O8 0.654560 0.892182 0.665742
O O9 0.128367 0.458771 0.847143
O O10 0.397493 0.621704 0.050061
O O11 0.500000 0.500000 0.500000
O O12 0.411291 0.436993 0.740124
O O13 0.929859 0.796837 0.582731
O O14 0.902508 0.875832 0.885763
O O15 0.000000 0.000000 0.000000
#
# Coordination Sequence:
#
# PCOD8040035 Si02
#       7
#     2   2   2   2   2   2   2
#     4  10  19  34  64 100 133 160 195 253 324 384
#     4  11  22  40  63 100 132 158 211 262 312 382
#     4  10  20  37  69  98 123 165 204 259 323 377
#     4  11  23  43  67  84 123 178 216 257 312 373
#     4  11  26  45  64  82 126 179 217 261 315 363
#     4  10  18  35  62 101 137 159 190 256 329 382
#     4  11  20  40  66  89 127 168 206 252 320 378
#
# _framework density 22.984044000000001
#
# number of rings (size 3 to 8) (size 9 to 14) (size 15 to 20)
#    0.000    1.429    5.714    0.857    0.000    1.714 
#    0.000    5.000    0.000    0.000    0.000    0.000 
#    0.000    0.000    0.000    0.000    0.000    0.000 
#
# Total GULP energy -173525.429279 kJ/mol
# GULP energy per Si atom -12394.673520 kJ/mol
# Density = 2.293173 g / cm^3
# Si number density = 22.984044 Si / 1000 Ang^3
#
#
#
# Elastic Constant Matrix: (Units=GPa)
#
#
# Indices 1 2 3 4 5 6 
#
# 1 50.5564 12.0340 35.6571 5.7147 25.4773 13.1919
# 2 12.0340 68.4549 29.5486 6.1362 2.3287 25.2401
# 3 35.6571 29.5486 144.3650 19.6935 4.4867 20.9778
# 4 5.7147 6.1362 19.6935 58.9831 11.0388 -3.4727
# 5 25.4773 2.3287 4.4867 11.0388 35.3228 8.1171
# 6 13.1919 25.2401 20.9778 -3.4727 8.1171 27.6925
#
#
#
# Elastic Compliance Matrix: (Units=1/GPa)
#
#
# Indices 1 2 3 4 5 6 
#
# 1 0.041947 -0.002200 -0.009436 0.004869 -0.030113 -0.001392
# 2 -0.002200 0.023857 -0.000595 -0.004687 0.006799 -0.022826
# 3 -0.009436 -0.000595 0.010599 -0.004462 0.008266 -0.005974
# 4 0.004869 -0.004687 -0.004462 0.021377 -0.011964 0.011519
# 5 -0.030113 0.006799 0.008266 -0.011964 0.055951 -0.016014
# 6 -0.001392 -0.022826 -0.005974 0.011519 -0.016014 0.068243
#
#
# Mechanical properties :
#
#
# Convention : Reuss Voigt Hill
#
# Bulk Modulus (GPa) = 19.25260 46.42844 32.84052
# Shear Modulus (GPa) = 18.95743 36.80879 27.88311
#
# Velocity S-wave (km/s) = 2.87506 4.00621 3.48681
# Velocity P-wave (km/s) = 4.40636 6.45320 5.52538
#
# Compressibility (1/GPa) = 0.05194104
#
# Stress axis : x y z
#
# Youngs Moduli (GPa) = 23.83961 41.91697 94.34673
#
# Poissons Ratio (x) = 0.09220 0.89030
# Poissons Ratio (y) = 0.05244 0.05611
# Poissons Ratio (z) = 0.22496 0.02493
#
# Static dielectric constant tensor:
#      x y z
#    x 3.597810 0.421900 -0.049270 
#    y 0.421900 4.419580 0.001510 
#    z -0.049270 0.001510 4.712130 
# 
# 
# High freq. dielectric constant tensor:
#      x y z
#    x 1.851440 0.022020 -0.007820 
#    y 0.022020 1.921120 0.003500 
#    z -0.007820 0.003500 1.928470 
# 
# From -- ./inp_files/389667.got.cif
#   From: 2010.06.25/outbox.cif.g09.slc.cpg/sg2_195_cif.got.tgz:389667.got - 2010.06.27 13:26:56.
