data_PCOD8040782
_publ_section_title
;
Structure prediction by ZEFSAII (Michael W. Deem and Ramdas Pophale) SiO2 
 PCOD8040782
Probable space group: P -1
;
_chemical_formula_sum "Si O2"
_cell_formula_units_Z 16
_cell_length_a 9.046724
_cell_length_b 13.273823
_cell_length_c 11.481984
_cell_angle_alpha 86.829855
_cell_angle_beta 132.407880
_cell_angle_gamma 125.116523
_cell_volume 695.070991
_symmetry_space_group_name_H-M "P -1"
_symmetry_group_IT_number 2
_symmetry_cell_setting 'triclinic'
loop_
_space_group_symop_operation_xyz
x,y,z
-x,-y,-z
loop_
_atom_site_type_symbol
_atom_site_label
_atom_site_fract_x
_atom_site_fract_y
_atom_site_fract_z
Si Si1 0.271626 0.075329 0.907475
Si Si2 0.307309 0.874514 0.556735
Si Si3 0.994669 0.643881 0.031560
Si Si4 0.950841 0.148731 0.814866
Si Si5 0.116881 0.506110 0.245034
Si Si6 0.217436 0.217144 0.430415
Si Si7 0.341838 0.095375 0.677084
Si Si8 0.125617 0.720026 0.684026
O O1 0.993742 0.896827 0.780051
O O2 0.369425 0.130105 0.824357
O O3 0.190058 0.151360 0.918534
O O4 0.549077 0.125236 0.113066
O O5 0.138635 0.821074 0.349182
O O6 0.162130 0.727360 0.561881
O O7 0.655664 0.987763 0.717406
O O8 0.239167 0.945607 0.598032
O O9 0.891814 0.714742 0.021434
O O10 0.912906 0.520028 0.081681
O O11 0.341701 0.771673 0.216575
O O12 0.868754 0.579009 0.838805
O O13 0.447779 0.661585 0.440674
O O14 0.963098 0.416124 0.289825
O O15 0.145390 0.107759 0.502983
O O16 0.129440 0.295744 0.417627
#
# Coordination Sequence:
#
# PCOD8040782 Si02
#       8
#     2   2   2   2   2   2   2   2
#     4  12  22  37  66 103 128 157 218 272 323 369
#     4  10  21  39  64  96 130 165 211 269 320 378
#     4   9  20  42  71  90 123 172 216 266 306 388
#     4  10  22  40  68  95 126 167 217 264 328 376
#     4  10  22  42  66  95 128 171 221 253 319 386
#     4  11  22  36  67  97 127 166 214 268 311 377
#     4  10  18  38  66  97 118 164 221 264 307 372
#     4  12  24  39  62  97 137 166 211 270 316 374
#
# _framework density 23.019231999999999
#
# number of rings (size 3 to 8) (size 9 to 14) (size 15 to 20)
#    0.000    1.500    3.750    1.875    1.750    0.500 
#    0.000    1.250    2.750    0.000    0.000    0.000 
#    0.000    0.000    0.000    0.000    0.000    0.000 
#
# Total GULP energy -198339.653535 kJ/mol
# GULP energy per Si atom -12396.228346 kJ/mol
# Density = 2.296684 g / cm^3
# Si number density = 23.019232 Si / 1000 Ang^3
#
#
#
# Elastic Constant Matrix: (Units=GPa)
#
#
# Indices 1 2 3 4 5 6 
#
# 1 88.8222 16.9918 -0.1338 -5.8133 -7.8388 2.0968
# 2 16.9918 92.5631 7.9684 -9.4127 -16.3679 31.0921
# 3 -0.1338 7.9684 51.6244 6.1288 6.1276 14.3287
# 4 -5.8133 -9.4127 6.1288 28.5258 -2.1780 -9.7586
# 5 -7.8388 -16.3679 6.1276 -2.1780 24.2590 -0.3227
# 6 2.0968 31.0921 14.3287 -9.7586 -0.3227 36.4835
#
#
#
# Elastic Compliance Matrix: (Units=1/GPa)
#
#
# Indices 1 2 3 4 5 6 
#
# 1 0.012063 -0.002042 -0.001008 0.003015 0.003076 0.002276
# 2 -0.002042 0.018494 -0.000270 0.001505 0.011821 -0.015030
# 3 -0.001008 -0.000270 0.025059 -0.010542 -0.007950 -0.012444
# 4 0.003015 0.001505 -0.010542 0.044083 0.008804 0.014554
# 5 0.003076 0.011821 -0.007950 0.008804 0.052933 -0.004306
# 6 0.002276 -0.015030 -0.012444 0.014554 -0.004306 0.048830
#
#
# Mechanical properties :
#
#
# Convention : Reuss Voigt Hill
#
# Bulk Modulus (GPa) = 20.41867 31.40694 25.91280
# Shear Modulus (GPa) = 22.27910 31.73257 27.00583
#
# Velocity S-wave (km/s) = 3.11440 3.71688 3.42890
# Velocity P-wave (km/s) = 4.67142 5.66512 5.19210
#
# Compressibility (1/GPa) = 0.04897479
#
# Stress axis : x y z
#
# Youngs Moduli (GPa) = 82.90130 54.07298 39.90610
#
# Poissons Ratio (x) = 0.11040 0.04024
# Poissons Ratio (y) = 0.16925 0.01077
# Poissons Ratio (z) = 0.08360 0.01460
#
# Static dielectric constant tensor:
#      x y z
#    x 4.071570 0.073260 0.054890 
#    y 0.073260 4.243850 -0.057850 
#    z 0.054890 -0.057850 4.033910 
# 
# 
# High freq. dielectric constant tensor:
#      x y z
#    x 1.895700 0.013790 0.009090 
#    y 0.013790 1.904920 -0.007250 
#    z 0.009090 -0.007250 1.899850 
# 
# From -- ./inp_files/395968.got.cif
#   From: 2010.06.25/outbox.cif.g09.slc.cpg/sg2_198_cif.got.tgz:395968.got - 2010.06.27 13:26:56.
