data_PCOD8040076
_publ_section_title
;
Structure prediction by ZEFSAII (Michael W. Deem and Ramdas Pophale) SiO2 
 PCOD8040076
Probable space group: P -1
;
_chemical_formula_sum "Si O2"
_cell_formula_units_Z 16
_cell_length_a 22.436527
_cell_length_b 11.763893
_cell_length_c 7.645706
_cell_angle_alpha 93.476505
_cell_angle_beta 60.441181
_cell_angle_gamma 143.728989
_cell_volume 784.677814
_symmetry_space_group_name_H-M "P -1"
_symmetry_group_IT_number 2
_symmetry_cell_setting 'triclinic'
loop_
_space_group_symop_operation_xyz
x,y,z
-x,-y,-z
loop_
_atom_site_type_symbol
_atom_site_label
_atom_site_fract_x
_atom_site_fract_y
_atom_site_fract_z
Si Si1 0.524185 0.263544 0.797742
Si Si2 0.896924 0.076106 0.059746
Si Si3 0.650484 0.228150 0.985303
Si Si4 0.467230 0.184465 0.257784
Si Si5 0.783328 0.489129 0.461546
Si Si6 0.581987 0.503957 0.421604
Si Si7 0.854170 0.490018 0.014480
Si Si8 0.164249 0.768295 0.863627
O O1 0.703980 0.495216 0.567029
O O2 0.495323 0.311012 0.688556
O O3 0.429847 0.008788 0.869189
O O4 0.477134 0.247938 0.050961
O O5 0.031812 0.221911 0.758669
O O6 0.969254 0.214659 0.161378
O O7 0.831267 0.094377 0.064726
O O8 0.758215 0.782198 0.249528
O O9 0.525172 0.140830 0.171495
O O10 0.793974 0.466220 0.928782
O O11 0.715890 0.316402 0.703603
O O12 0.577373 0.421021 0.246716
O O13 0.293064 0.938735 0.547074
O O14 0.748776 0.367897 0.322414
O O15 0.500000 0.500000 0.500000
O O16 0.824013 0.309488 0.007674
O O17 0.000000 0.500000 0.000000
#
# Coordination Sequence:
#
# PCOD8040076 Si02
#       8
#     2   2   2   2   2   2   2   2
#     4  11  24  39  66  97 125 160 205 263 316 364
#     4   9  22  41  59  85 130 166 208 252 298 372
#     4  11  21  38  66 104 118 153 210 261 327 365
#     4  11  23  41  67  93 127 160 207 267 307 366
#     4   9  20  40  60  92 129 150 201 267 310 360
#     4  12  25  45  62  89 127 175 215 241 300 381
#     4   9  19  36  62  89 122 164 198 259 314 355
#     4  10  18  35  63  86 121 168 199 250 313 353
#
# _framework density 20.390533999999999
#
# number of rings (size 3 to 8) (size 9 to 14) (size 15 to 20)
#    0.750    1.000    1.250    4.500    0.000    2.500 
#    2.250    3.125    0.000    0.000    0.000    0.000 
#    0.000    0.000    0.000    0.000    0.000    0.000 
#
# Total GULP energy -198232.298027 kJ/mol
# GULP energy per Si atom -12389.518627 kJ/mol
# Density = 2.034412 g / cm^3
# Si number density = 20.390534 Si / 1000 Ang^3
#
#
#
# Elastic Constant Matrix: (Units=GPa)
#
#
# Indices 1 2 3 4 5 6 
#
# 1 101.7899 30.1869 47.5875 4.2337 10.8721 11.5124
# 2 30.1869 102.1259 39.8008 -3.5423 10.0370 10.0002
# 3 47.5875 39.8008 65.6560 -11.0543 -6.5925 0.9788
# 4 4.2337 -3.5423 -11.0543 30.0729 3.0984 4.7631
# 5 10.8721 10.0370 -6.5925 3.0984 29.4133 -5.0557
# 6 11.5124 10.0002 0.9788 4.7631 -5.0557 21.9963
#
#
#
# Elastic Compliance Matrix: (Units=1/GPa)
#
#
# Indices 1 2 3 4 5 6 
#
# 1 0.022223 0.004698 -0.021460 -0.006340 -0.016581 -0.015250
# 2 0.004698 0.016495 -0.014643 -0.000899 -0.012617 -0.012012
# 3 -0.021460 -0.014643 0.043861 0.011844 0.024790 0.019070
# 4 -0.006340 -0.000899 0.011844 0.039192 0.000279 -0.005223
# 5 -0.016581 -0.012617 0.024790 0.000279 0.054386 0.025751
# 6 -0.015250 -0.012012 0.019070 -0.005223 0.025751 0.065106
#
#
# Mechanical properties :
#
#
# Convention : Reuss Voigt Hill
#
# Bulk Modulus (GPa) = 50.58722 56.08026 53.33374
# Shear Modulus (GPa) = 16.09460 26.42960 21.26210
#
# Velocity S-wave (km/s) = 2.81253 3.60414 3.23266
# Velocity P-wave (km/s) = 5.95064 6.69945 6.33611
#
# Compressibility (1/GPa) = 0.01976784
#
# Stress axis : x y z
#
# Youngs Moduli (GPa) = 44.99805 60.62377 22.79933
#
# Poissons Ratio (x) = -0.28478 0.48927
# Poissons Ratio (y) = -0.21138 0.33386
# Poissons Ratio (z) = 0.96566 0.88773
#
# Static dielectric constant tensor:
#      x y z
#    x 4.175510 -0.150410 -0.122920 
#    y -0.150410 3.748660 -0.080760 
#    z -0.122920 -0.080760 3.632200 
# 
# 
# High freq. dielectric constant tensor:
#      x y z
#    x 1.800250 0.004930 -0.015230 
#    y 0.004930 1.780950 -0.010610 
#    z -0.015230 -0.010610 1.783390 
# 
# From -- ./inp_files/345268.got.cif
#   From: 2010.06.25/outbox.cif.g09.slc.cpg/sg2_173_cif.got.tgz:345268.got - 2010.06.27 13:26:56.
