data_PCOD8040217
_publ_section_title
;
Structure prediction by ZEFSAII (Michael W. Deem and Ramdas Pophale) SiO2 
 PCOD8040217
Probable space group: P -1
;
_chemical_formula_sum "Si O2"
_cell_formula_units_Z 16
_cell_length_a 14.118376
_cell_length_b 8.233763
_cell_length_c 23.467847
_cell_angle_alpha 103.030058
_cell_angle_beta 159.141464
_cell_angle_gamma 67.210299
_cell_volume 814.435578
_symmetry_space_group_name_H-M "P -1"
_symmetry_group_IT_number 2
_symmetry_cell_setting 'triclinic'
loop_
_space_group_symop_operation_xyz
x,y,z
-x,-y,-z
loop_
_atom_site_type_symbol
_atom_site_label
_atom_site_fract_x
_atom_site_fract_y
_atom_site_fract_z
Si Si1 0.803326 0.323080 0.836786
Si Si2 0.858903 0.348085 0.256625
Si Si3 0.226438 0.964876 0.288044
Si Si4 0.241653 0.352939 0.578210
Si Si5 0.727600 0.646303 0.734123
Si Si6 0.251921 0.063432 0.150120
Si Si7 0.157487 0.603893 0.878808
Si Si8 0.760382 0.061660 0.584346
O O1 0.790622 0.154731 0.782769
O O2 0.510802 0.405756 0.722468
O O3 0.774210 0.493339 0.795217
O O4 0.142663 0.222892 0.049987
O O5 0.902040 0.417511 0.223332
O O6 0.063913 0.378007 0.420937
O O7 0.926101 0.126242 0.275927
O O8 0.504266 0.471414 0.084344
O O9 0.537742 0.970952 0.457987
O O10 0.218983 0.862960 0.335376
O O11 0.927281 0.178295 0.138434
O O12 0.000000 0.500000 0.500000
O O13 0.405471 0.129017 0.676234
O O14 0.779423 0.817188 0.800898
O O15 0.950673 0.547340 0.797464
O O16 0.372644 0.758771 0.520257
O O17 0.000000 0.000000 0.000000
#
# Coordination Sequence:
#
# PCOD8040217 Si02
#       8
#     2   2   2   2   2   2   2   2
#     4  11  23  37  56  86 117 145 185 237 279 333
#     4  10  18  36  58  85 111 139 199 228 269 327
#     4   9  17  33  56  83 107 146 191 225 266 327
#     4  11  23  37  60  83 108 148 193 233 272 328
#     4  11  21  37  58  86 114 147 181 233 292 328
#     4  10  21  40  59  79 109 151 198 229 264 333
#     4   9  20  33  62  83 110 148 182 234 275 335
#     4   9  16  33  58  80 109 145 187 230 269 326
#
# _framework density 19.645506000000001
#
# number of rings (size 3 to 8) (size 9 to 14) (size 15 to 20)
#    0.000    2.000    2.500    3.375    5.250    0.500 
#    0.000    1.875    0.000    2.250    0.000    0.000 
#    0.000    0.000    0.000    0.000    0.000    0.000 
#
# Total GULP energy -198212.936474 kJ/mol
# GULP energy per Si atom -12388.308530 kJ/mol
# Density = 1.960079 g / cm^3
# Si number density = 19.645506 Si / 1000 Ang^3
#
#
#
# Elastic Constant Matrix: (Units=GPa)
#
#
# Indices 1 2 3 4 5 6 
#
# 1 107.1512 40.1089 44.5675 -20.9382 -9.9518 -1.0429
# 2 40.1089 42.3742 28.0197 -23.1288 9.8768 -3.3374
# 3 44.5675 28.0197 112.6954 -34.3826 -12.1453 -2.0453
# 4 -20.9382 -23.1288 -34.3826 33.5513 1.4448 -8.6327
# 5 -9.9518 9.8768 -12.1453 1.4448 29.0170 -7.7639
# 6 -1.0429 -3.3374 -2.0453 -8.6327 -7.7639 37.2328
#
#
#
# Elastic Compliance Matrix: (Units=1/GPa)
#
#
# Indices 1 2 3 4 5 6 
#
# 1 0.019139 -0.024168 -0.002551 -0.008123 0.013926 -0.000750
# 2 -0.024168 0.079067 -0.000813 0.042383 -0.035289 0.008834
# 3 -0.002551 -0.000813 0.015395 0.014754 0.006581 0.005494
# 4 -0.008123 0.042383 0.014754 0.074546 -0.009481 0.019689
# 5 0.013926 -0.035289 0.006581 -0.009481 0.056390 0.007149
# 6 -0.000750 0.008834 0.005494 0.019689 0.007149 0.033986
#
#
# Mechanical properties :
#
#
# Convention : Reuss Voigt Hill
#
# Bulk Modulus (GPa) = 17.08327 54.17922 35.63125
# Shear Modulus (GPa) = 14.16028 29.92855 22.04441
#
# Velocity S-wave (km/s) = 2.68767 3.90735 3.35342
# Velocity P-wave (km/s) = 4.28323 6.92783 5.75938
#
# Compressibility (1/GPa) = 0.05853681
#
# Stress axis : x y z
#
# Youngs Moduli (GPa) = 52.24924 12.64743 64.95694
#
# Poissons Ratio (x) = 0.30566 0.16571
# Poissons Ratio (y) = 1.26276 0.05282
# Poissons Ratio (z) = 0.13329 0.01028
#
# Static dielectric constant tensor:
#      x y z
#    x 3.748630 -0.205810 -0.469890 
#    y -0.205810 3.511230 -0.443850 
#    z -0.469890 -0.443850 3.994990 
# 
# 
# High freq. dielectric constant tensor:
#      x y z
#    x 1.756650 -0.023110 -0.037550 
#    y -0.023110 1.743200 -0.029220 
#    z -0.037550 -0.029220 1.770670 
# 
# From -- ./inp_files/224930.got.cif
#   From: 2010.06.25/outbox.cif.g09.slc.cpg/sg2_113_cif.got.tgz:224930.got - 2010.06.27 13:26:56.
