data_PCOD8040895
_publ_section_title
;
Structure prediction by ZEFSAII (Michael W. Deem and Ramdas Pophale) SiO2 
 PCOD8040895
Probable space group: P -1
;
_chemical_formula_sum "Si O2"
_cell_formula_units_Z 16
_cell_length_a 21.584560
_cell_length_b 9.846254
_cell_length_c 12.513498
_cell_angle_alpha 117.189291
_cell_angle_beta 145.900357
_cell_angle_gamma 38.376414
_cell_volume 771.659640
_symmetry_space_group_name_H-M "P -1"
_symmetry_group_IT_number 2
_symmetry_cell_setting 'triclinic'
loop_
_space_group_symop_operation_xyz
x,y,z
-x,-y,-z
loop_
_atom_site_type_symbol
_atom_site_label
_atom_site_fract_x
_atom_site_fract_y
_atom_site_fract_z
Si Si1 0.804015 0.632871 0.558969
Si Si2 0.950433 0.006211 0.548748
Si Si3 0.702251 0.075762 0.654646
Si Si4 0.475392 0.786271 0.063954
Si Si5 0.978499 0.214986 0.828744
Si Si6 0.478867 0.514823 0.827012
Si Si7 0.345196 0.594813 0.441955
Si Si8 0.937386 0.679952 0.383231
O O1 0.886240 0.457584 0.718058
O O2 0.969071 0.467175 0.648642
O O3 0.722510 0.889945 0.561841
O O4 0.633744 0.728828 0.299474
O O5 0.059529 0.990661 0.785033
O O6 0.729998 0.284117 0.352657
O O7 0.000000 0.000000 0.500000
O O8 0.001696 0.772703 0.552095
O O9 0.483661 0.338879 0.473717
O O10 0.749632 0.158393 0.668894
O O11 0.844014 0.922212 0.901756
O O12 0.554149 0.591645 0.008253
O O13 0.407113 0.756364 0.056203
O O14 0.288367 0.084556 0.866492
O O15 0.820797 0.327019 0.724656
O O16 0.475170 0.518707 0.695416
O O17 0.000000 0.500000 0.500000
#
# Coordination Sequence:
#
# PCOD8040895 Si02
#       8
#     2   2   2   2   2   2   2   2
#     4  12  25  43  64 100 130 167 219 258 323 384
#     4  10  18  39  67  98 126 158 217 259 311 393
#     4  11  27  42  66  92 132 172 215 272 315 374
#     4  10  21  41  67  96 128 166 203 268 322 380
#     4  11  23  43  70  93 126 173 219 266 308 381
#     4   9  19  37  71  92 122 167 210 265 310 383
#     4  10  23  47  64  94 124 170 224 259 322 375
#     4  11  26  41  63 101 136 164 203 262 333 384
#
# _framework density 20.734528999999998
#
# number of rings (size 3 to 8) (size 9 to 14) (size 15 to 20)
#    0.000    1.500    3.750    0.750    7.000    4.000 
#    4.500    0.000    0.000    0.000    0.000    0.000 
#    0.000    0.000    0.000    0.000    0.000    0.000 
#
# Total GULP energy -198413.077152 kJ/mol
# GULP energy per Si atom -12400.817322 kJ/mol
# Density = 2.068734 g / cm^3
# Si number density = 20.734529 Si / 1000 Ang^3
#
#
#
# Elastic Constant Matrix: (Units=GPa)
#
#
# Indices 1 2 3 4 5 6 
#
# 1 93.4584 26.2831 0.5973 -17.1962 -11.5051 10.3725
# 2 26.2831 126.3717 20.9060 -5.2155 -3.9871 10.2233
# 3 0.5973 20.9060 78.9366 -2.1674 -11.2333 16.6721
# 4 -17.1962 -5.2155 -2.1674 33.2016 11.1313 -9.8088
# 5 -11.5051 -3.9871 -11.2333 11.1313 25.9252 -1.1413
# 6 10.3725 10.2233 16.6721 -9.8088 -1.1413 30.8889
#
#
#
# Elastic Compliance Matrix: (Units=1/GPa)
#
#
# Indices 1 2 3 4 5 6 
#
# 1 0.013020 -0.002470 0.001951 0.004096 0.004346 -0.003146
# 2 -0.002470 0.008846 -0.002227 -0.000077 -0.000709 -0.000947
# 3 0.001951 -0.002227 0.016487 -0.004191 0.009035 -0.009814
# 4 0.004096 -0.000077 -0.004191 0.041770 -0.017349 0.013535
# 5 0.004346 -0.000709 0.009035 -0.017349 0.051328 -0.009714
# 6 -0.003146 -0.000947 -0.009814 0.013535 -0.009714 0.042980
#
#
# Mechanical properties :
#
#
# Convention : Reuss Voigt Hill
#
# Bulk Modulus (GPa) = 30.43106 43.81550 37.12328
# Shear Modulus (GPa) = 26.19477 34.73516 30.46497
#
# Velocity S-wave (km/s) = 3.55821 4.09740 3.83729
# Velocity P-wave (km/s) = 5.62045 6.60019 6.12992
#
# Compressibility (1/GPa) = 0.03286116
#
# Stress axis : x y z
#
# Youngs Moduli (GPa) = 76.80459 113.04035 60.65423
#
# Poissons Ratio (x) = 0.27921 -0.11835
# Poissons Ratio (y) = 0.18971 0.13509
# Poissons Ratio (z) = -0.14986 0.25177
#
# Static dielectric constant tensor:
#      x y z
#    x 3.771760 -0.098970 -0.135310 
#    y -0.098970 3.947590 0.046070 
#    z -0.135310 0.046070 3.812890 
# 
# 
# High freq. dielectric constant tensor:
#      x y z
#    x 1.810210 -0.003410 -0.006290 
#    y -0.003410 1.812140 -0.002400 
#    z -0.006290 -0.002400 1.817320 
# 
# From -- ./inp_files/470066.got.cif
#   From: 2010.06.25/outbox.cif.g09.slc.cpg/sg2_236_cif.got.tgz:470066.got - 2010.06.27 13:26:56.
