data_PCOD8040826
_publ_section_title
;
Structure prediction by ZEFSAII (Michael W. Deem and Ramdas Pophale) SiO2 
 PCOD8040826
Probable space group: P -1
;
_chemical_formula_sum "Si O2"
_cell_formula_units_Z 12
_cell_length_a 9.583701
_cell_length_b 7.751468
_cell_length_c 6.749175
_cell_angle_alpha 110.451283
_cell_angle_beta 115.020200
_cell_angle_gamma 68.276575
_cell_volume 410.837608
_symmetry_space_group_name_H-M "P -1"
_symmetry_group_IT_number 2
_symmetry_cell_setting 'triclinic'
loop_
_space_group_symop_operation_xyz
x,y,z
-x,-y,-z
loop_
_atom_site_type_symbol
_atom_site_label
_atom_site_fract_x
_atom_site_fract_y
_atom_site_fract_z
Si Si1 0.083541 0.930698 0.806631
Si Si2 0.516681 0.166843 0.718112
Si Si3 0.071851 0.553997 0.795078
Si Si4 0.302179 0.189849 0.944592
Si Si5 0.285913 0.428215 0.417389
Si Si6 0.810150 0.229074 0.733159
O O1 0.128126 0.699353 0.731765
O O2 0.235481 0.007509 0.876288
O O3 0.926530 0.042068 0.623039
O O4 0.000000 0.000000 0.000000
O O5 0.468991 0.122456 0.894297
O O6 0.402796 0.365322 0.647667
O O7 0.700151 0.179693 0.824593
O O8 0.500000 0.000000 0.500000
O O9 0.186275 0.341335 0.787576
O O10 0.895189 0.557738 0.617046
O O11 0.075972 0.643134 0.055604
O O12 0.336781 0.278820 0.208012
O O13 0.300531 0.638723 0.444913
#
# Coordination Sequence:
#
# PCOD8040826 Si02
#       6
#     2   2   2   2   2   2
#     4  10  18  38  75 101 125 176 225 273 329 402
#     4  12  29  44  62 103 144 175 228 280 333 408
#     4  10  20  40  77 101 129 174 230 279 329 401
#     4  11  23  46  72  97 136 182 223 275 346 392
#     4  11  21  45  73  96 136 180 221 285 334 396
#     4  10  20  43  68  98 140 174 220 283 332 394
#
# _framework density 29.20862
#
# number of rings (size 3 to 8) (size 9 to 14) (size 15 to 20)
#    0.000    1.333    5.000    2.500    2.333    4.000 
#    6.000    1.667    0.000    0.000    0.000    0.000 
#    0.000    0.000    0.000    0.000    0.000    0.000 
#
# Total GULP energy -148762.134954 kJ/mol
# GULP energy per Si atom -12396.844580 kJ/mol
# Density = 2.914214 g / cm^3
# Si number density = 29.208620 Si / 1000 Ang^3
#
#
#
# Elastic Constant Matrix: (Units=GPa)
#
#
# Indices 1 2 3 4 5 6 
#
# 1 212.0651 33.1416 22.7801 1.0386 -14.0288 19.7375
# 2 33.1416 123.7170 4.5555 -16.3850 -11.9123 44.1672
# 3 22.7801 4.5555 49.7753 -4.5981 -2.3347 2.9147
# 4 1.0386 -16.3850 -4.5981 33.5206 1.0352 -1.3874
# 5 -14.0288 -11.9123 -2.3347 1.0352 39.5400 -3.5269
# 6 19.7375 44.1672 2.9147 -1.3874 -3.5269 40.2385
#
#
#
# Elastic Compliance Matrix: (Units=1/GPa)
#
#
# Indices 1 2 3 4 5 6 
#
# 1 0.005324 -0.000815 -0.002301 -0.000983 0.001403 -0.001461
# 2 -0.000815 0.015021 0.000664 0.006727 0.002702 -0.015667
# 3 -0.002301 0.000664 0.021467 0.003284 0.000476 -0.001000
# 4 -0.000983 0.006727 0.003284 0.033341 0.000468 -0.005949
# 5 0.001403 0.002702 0.000476 0.000468 0.026498 -0.001350
# 6 -0.001461 -0.015667 -0.001000 -0.005949 -0.001350 0.042515
#
#
# Mechanical properties :
#
#
# Convention : Reuss Voigt Hill
#
# Bulk Modulus (GPa) = 27.09509 56.27909 41.68709
# Shear Modulus (GPa) = 30.98427 44.33185 37.65806
#
# Velocity S-wave (km/s) = 3.26051 3.90008 3.59455
# Velocity P-wave (km/s) = 4.84470 6.29211 5.61524
#
# Compressibility (1/GPa) = 0.03690706
#
# Stress axis : x y z
#
# Youngs Moduli (GPa) = 187.83964 66.57302 46.58314
#
# Poissons Ratio (x) = 0.05424 0.10720
# Poissons Ratio (y) = 0.15305 -0.03092
# Poissons Ratio (z) = 0.43227 -0.04418
#
# Static dielectric constant tensor:
#      x y z
#    x 5.497900 -0.141630 0.019270 
#    y -0.141630 6.713860 -0.959460 
#    z 0.019270 -0.959460 5.274640 
# 
# 
# High freq. dielectric constant tensor:
#      x y z
#    x 2.191010 0.002690 -0.014340 
#    y 0.002690 2.219370 -0.036670 
#    z -0.014340 -0.036670 2.177170 
# 
# From -- ./inp_files/159325.got.cif
#   From: 2010.06.25/outbox.cif.g09.slc.cpg/sg2_80_cif.got.tgz:159325.got - 2010.06.27 13:26:56.
