data_PCOD8040247
_publ_section_title
;
Structure prediction by ZEFSAII (Michael W. Deem and Ramdas Pophale) SiO2 
 PCOD8040247
Probable space group: P -1
;
_chemical_formula_sum "Si O2"
_cell_formula_units_Z 16
_cell_length_a 12.821419
_cell_length_b 11.424250
_cell_length_c 9.409928
_cell_angle_alpha 106.091266
_cell_angle_beta 43.891736
_cell_angle_gamma 123.350825
_cell_volume 781.181377
_symmetry_space_group_name_H-M "P -1"
_symmetry_group_IT_number 2
_symmetry_cell_setting 'triclinic'
loop_
_space_group_symop_operation_xyz
x,y,z
-x,-y,-z
loop_
_atom_site_type_symbol
_atom_site_label
_atom_site_fract_x
_atom_site_fract_y
_atom_site_fract_z
Si Si1 0.447800 0.780440 0.916968
Si Si2 0.129354 0.070262 0.695178
Si Si3 0.736222 0.878816 0.120042
Si Si4 0.748045 0.710597 0.564725
Si Si5 0.368745 0.985569 0.956292
Si Si6 0.899728 0.137008 0.574086
Si Si7 0.452639 0.575752 0.197674
Si Si8 0.186170 0.636403 0.333002
O O1 0.589438 0.738524 0.741902
O O2 0.484564 0.875754 0.056113
O O3 0.432226 0.871420 0.834008
O O4 0.255885 0.641842 0.103141
O O5 0.264819 0.106284 0.703740
O O6 0.157138 0.220916 0.657751
O O7 0.175488 0.006758 0.492232
O O8 0.935146 0.950851 0.893999
O O9 0.633612 0.711232 0.123813
O O10 0.655407 0.965934 0.158457
O O11 0.654307 0.539022 0.609596
O O12 0.888630 0.782189 0.580131
O O13 0.188105 0.909511 0.199701
O O14 0.846386 0.233326 0.569631
O O15 0.330451 0.636952 0.294437
O O16 0.500000 0.500000 0.000000
O O17 0.000000 0.500000 0.500000
#
# Coordination Sequence:
#
# PCOD8040247 Si02
#       8
#     2   2   2   2   2   2   2   2
#     4  10  20  32  58  89 117 147 202 253 299 350
#     4  11  24  39  62  94 124 163 201 258 306 366
#     4  11  24  41  60  91 130 159 204 252 315 359
#     4  12  21  37  63  91 121 163 206 250 307 360
#     4  10  18  36  59  86 118 152 195 261 293 352
#     4  11  21  36  65  93 119 153 212 251 304 356
#     4  12  23  39  63  92 122 162 204 251 303 363
#     4  11  22  35  56  96 123 153 197 259 305 354
#
# _framework density 20.481798000000001
#
# number of rings (size 3 to 8) (size 9 to 14) (size 15 to 20)
#    0.000    1.000    6.250    1.875    0.000    0.500 
#    0.000    2.500    0.000    0.000    0.000    7.000 
#    0.000    0.000    0.000    0.000    0.000    0.000 
#
# Total GULP energy -198217.006431 kJ/mol
# GULP energy per Si atom -12388.562902 kJ/mol
# Density = 2.043518 g / cm^3
# Si number density = 20.481798 Si / 1000 Ang^3
#
#
#
# Elastic Constant Matrix: (Units=GPa)
#
#
# Indices 1 2 3 4 5 6 
#
# 1 150.6192 62.7695 35.3185 -1.5254 12.4654 -17.0119
# 2 62.7695 104.9143 37.3630 -32.4182 11.5465 -10.5642
# 3 35.3185 37.3630 54.9269 -17.8880 0.4518 1.1497
# 4 -1.5254 -32.4182 -17.8880 33.1934 -7.0811 -0.7174
# 5 12.4654 11.5465 0.4518 -7.0811 32.9451 -6.1816
# 6 -17.0119 -10.5642 1.1497 -0.7174 -6.1816 35.2822
#
#
#
# Elastic Compliance Matrix: (Units=1/GPa)
#
#
# Indices 1 2 3 4 5 6 
#
# 1 0.011625 -0.007493 -0.005867 -0.010625 -0.003464 0.002730
# 2 -0.007493 0.021453 -0.003772 0.018646 -0.000003 0.003312
# 3 -0.005867 -0.003772 0.028652 0.012502 0.005135 -0.003738
# 4 -0.010625 0.018646 0.012502 0.056801 0.010080 0.002974
# 5 -0.003464 -0.000003 0.005135 0.010080 0.034592 0.004427
# 6 0.002730 0.003312 -0.003738 0.002974 0.004427 0.031609
#
#
# Mechanical properties :
#
#
# Convention : Reuss Voigt Hill
#
# Bulk Modulus (GPa) = 36.40840 64.59582 50.50211
# Shear Modulus (GPa) = 21.91527 31.95141 26.93334
#
# Velocity S-wave (km/s) = 3.27462 3.95396 3.63021
# Velocity P-wave (km/s) = 5.66675 7.24235 6.50245
#
# Compressibility (1/GPa) = 0.02746619
#
# Stress axis : x y z
#
# Youngs Moduli (GPa) = 86.02159 46.61298 34.90162
#
# Poissons Ratio (x) = 0.34926 0.20477
# Poissons Ratio (y) = 0.64454 0.13165
# Poissons Ratio (z) = 0.50470 0.17583
#
# Static dielectric constant tensor:
#      x y z
#    x 4.142470 -0.389730 0.021200 
#    y -0.389730 3.909970 -0.578920 
#    z 0.021200 -0.578920 3.772260 
# 
# 
# High freq. dielectric constant tensor:
#      x y z
#    x 1.807400 -0.030980 -0.020220 
#    y -0.030980 1.785860 -0.052870 
#    z -0.020220 -0.052870 1.785040 
# 
# From -- ./inp_files/262780.got.cif
#   From: 2010.06.25/outbox.cif.g09.slc.cpg/sg2_132_cif.got.tgz:262780.got - 2010.06.27 13:26:56.
