data_PCOD8040237
_publ_section_title
;
Structure prediction by ZEFSAII (Michael W. Deem and Ramdas Pophale) SiO2 
 PCOD8040237
Probable space group: P -1
;
_chemical_formula_sum "Si O2"
_cell_formula_units_Z 16
_cell_length_a 9.145398
_cell_length_b 9.033269
_cell_length_c 18.924561
_cell_angle_alpha 88.721547
_cell_angle_beta 122.755442
_cell_angle_gamma 131.748217
_cell_volume 826.497804
_symmetry_space_group_name_H-M "P -1"
_symmetry_group_IT_number 2
_symmetry_cell_setting 'triclinic'
loop_
_space_group_symop_operation_xyz
x,y,z
-x,-y,-z
loop_
_atom_site_type_symbol
_atom_site_label
_atom_site_fract_x
_atom_site_fract_y
_atom_site_fract_z
Si Si1 0.012314 0.631010 0.713897
Si Si2 0.104803 0.174597 0.086626
Si Si3 0.400681 0.990265 0.702875
Si Si4 0.367292 0.652062 0.730738
Si Si5 0.843789 0.774321 0.365971
Si Si6 0.698384 0.019930 0.093312
Si Si7 0.615590 0.809913 0.426291
Si Si8 0.457507 0.683243 0.162067
O O1 0.688764 0.396383 0.618729
O O2 0.118951 0.813667 0.678537
O O3 0.185939 0.591591 0.750801
O O4 0.075233 0.735219 0.806846
O O5 0.373609 0.275857 0.185500
O O6 0.193635 0.400237 0.084094
O O7 0.860940 0.023072 0.081496
O O8 0.000000 0.000000 0.000000
O O9 0.486214 0.874588 0.717513
O O10 0.347924 0.016092 0.611265
O O11 0.620397 0.237075 0.802425
O O12 0.165992 0.411276 0.636087
O O13 0.668522 0.706144 0.389838
O O14 0.717489 0.763795 0.261943
O O15 0.162100 0.037685 0.453955
O O16 0.526175 0.799765 0.102913
O O17 0.500000 0.000000 0.000000
#
# Coordination Sequence:
#
# PCOD8040237 Si02
#       8
#     2   2   2   2   2   2   2   2
#     4   9  19  36  56  81 115 146 194 234 275 340
#     4  11  23  40  59  88 117 146 190 244 288 337
#     4   8  18  35  56  81 111 152 190 232 281 338
#     4   9  19  38  54  80 121 144 185 252 276 324
#     4   9  19  35  59  83 118 151 190 242 284 331
#     4  11  22  39  63  87 110 154 196 232 289 354
#     4  10  18  36  59  82 113 161 194 223 289 347
#     4   9  20  41  59  81 118 153 189 236 289 342
#
# _framework density 19.358794
#
# number of rings (size 3 to 8) (size 9 to 14) (size 15 to 20)
#    0.750    1.750    0.000    3.000    0.000    2.000 
#    6.750   12.500    0.000    0.000    0.000    0.000 
#    0.000    0.000    0.000    0.000    0.000    0.000 
#
# Total GULP energy -198216.827031 kJ/mol
# GULP energy per Si atom -12388.551689 kJ/mol
# Density = 1.931473 g / cm^3
# Si number density = 19.358794 Si / 1000 Ang^3
#
#
#
# Elastic Constant Matrix: (Units=GPa)
#
#
# Indices 1 2 3 4 5 6 
#
# 1 69.0654 11.8783 2.6650 12.4615 -3.2023 -15.1302
# 2 11.8783 98.1313 29.4119 4.7245 -7.2047 -19.7915
# 3 2.6650 29.4119 63.6713 11.1062 -5.6094 -0.9801
# 4 12.4615 4.7245 11.1062 23.7014 1.7095 -3.9371
# 5 -3.2023 -7.2047 -5.6094 1.7095 25.8532 9.7736
# 6 -15.1302 -19.7915 -0.9801 -3.9371 9.7736 38.6083
#
#
#
# Elastic Compliance Matrix: (Units=1/GPa)
#
#
# Indices 1 2 3 4 5 6 
#
# 1 0.017363 -0.000987 0.001410 -0.008778 0.000780 0.005241
# 2 -0.000987 0.013463 -0.006461 0.002000 -0.000423 0.006661
# 3 0.001410 -0.006461 0.020839 -0.010374 0.005335 -0.004639
# 4 -0.008778 0.002000 -0.010374 0.052635 -0.008048 0.004727
# 5 0.000780 -0.000423 0.005335 -0.008048 0.044868 -0.011954
# 6 0.005241 0.006661 -0.004639 0.004727 -0.011954 0.034760
#
#
# Mechanical properties :
#
#
# Convention : Reuss Voigt Hill
#
# Bulk Modulus (GPa) = 25.26025 35.41981 30.34003
# Shear Modulus (GPa) = 23.90051 30.09343 26.99697
#
# Velocity S-wave (km/s) = 3.51751 3.94700 3.73843
# Velocity P-wave (km/s) = 5.43819 6.25364 5.86012
#
# Compressibility (1/GPa) = 0.03958789
#
# Stress axis : x y z
#
# Youngs Moduli (GPa) = 57.59481 74.27986 47.98604
#
# Poissons Ratio (x) = 0.07333 -0.06766
# Poissons Ratio (y) = 0.05686 0.31004
# Poissons Ratio (z) = -0.08121 0.47993
#
# Static dielectric constant tensor:
#      x y z
#    x 3.488560 -0.288660 -0.063240 
#    y -0.288660 3.621040 0.104910 
#    z -0.063240 0.104910 3.243190 
# 
# 
# High freq. dielectric constant tensor:
#      x y z
#    x 1.743990 -0.017320 -0.003610 
#    y -0.017320 1.751110 0.012260 
#    z -0.003610 0.012260 1.741770 
# 
# From -- ./inp_files/557273.got.cif
#   From: 2010.06.25/outbox.cif.g09.slc.cpg/sg2_279_cif.got.tgz:557273.got - 2010.06.27 13:26:56.
