data_PCOD8040236
_publ_section_title
;
Structure prediction by ZEFSAII (Michael W. Deem and Ramdas Pophale) SiO2 
 PCOD8040236
Probable space group: P -1
;
_chemical_formula_sum "Si O2"
_cell_formula_units_Z 14
_cell_length_a 6.919509
_cell_length_b 14.386280
_cell_length_c 8.661950
_cell_angle_alpha 101.782833
_cell_angle_beta 83.996296
_cell_angle_gamma 63.796402
_cell_volume 738.492670
_symmetry_space_group_name_H-M "P -1"
_symmetry_group_IT_number 2
_symmetry_cell_setting 'triclinic'
loop_
_space_group_symop_operation_xyz
x,y,z
-x,-y,-z
loop_
_atom_site_type_symbol
_atom_site_label
_atom_site_fract_x
_atom_site_fract_y
_atom_site_fract_z
Si Si1 0.805031 0.225582 0.072456
Si Si2 0.522264 0.462510 0.159530
Si Si3 0.270627 0.040062 0.447751
Si Si4 0.051825 0.236176 0.321295
Si Si5 0.396253 0.669066 0.432258
Si Si6 0.627927 0.674755 0.713624
Si Si7 0.166004 0.866135 0.292896
O O1 0.753853 0.351373 0.108752
O O2 0.588163 0.222823 0.159135
O O3 0.007593 0.175199 0.159708
O O4 0.868240 0.164396 0.886161
O O5 0.518956 0.553540 0.301386
O O6 0.333294 0.432520 0.228491
O O7 0.500000 0.500000 0.000000
O O8 0.226463 0.143252 0.384711
O O9 0.079501 0.072287 0.600096
O O10 0.500000 0.000000 0.500000
O O11 0.274713 0.945195 0.308403
O O12 0.157383 0.310434 0.282353
O O13 0.822147 0.313675 0.452354
O O14 0.576265 0.668429 0.535308
O O15 0.329981 0.761642 0.341272
#
# Coordination Sequence:
#
# PCOD8040236 Si02
#       7
#     2   2   2   2   2   2   2
#     4   9  21  37  57  81 117 142 184 225 275 329
#     4  10  19  37  58  82 114 150 182 223 271 328
#     4  10  22  38  60  83 107 144 191 229 276 330
#     4  10  21  37  56  84 115 144 183 231 274 327
#     4  10  18  36  59  81 114 148 184 225 267 329
#     4   9  20  34  56  81 114 147 180 222 273 322
#     4  10  20  38  60  81 110 147 184 229 278 322
#
# _framework density 18.957533000000002
#
# number of rings (size 3 to 8) (size 9 to 14) (size 15 to 20)
#    0.857    1.429    1.429    1.286    0.000    3.429 
#    0.000    3.571    0.000    0.000    0.000    0.000 
#    0.000    0.000    0.000    0.000    0.000    0.000 
#
# Total GULP energy -173484.513125 kJ/mol
# GULP energy per Si atom -12391.750938 kJ/mol
# Density = 1.891439 g / cm^3
# Si number density = 18.957533 Si / 1000 Ang^3
#
#
#
# Elastic Constant Matrix: (Units=GPa)
#
#
# Indices 1 2 3 4 5 6 
#
# 1 79.5153 21.9343 31.0320 1.2271 11.8663 4.4763
# 2 21.9343 53.6177 28.3471 10.6357 4.8748 0.5204
# 3 31.0320 28.3471 138.1006 5.7132 18.9276 1.2846
# 4 1.2271 10.6357 5.7132 32.5723 0.5036 3.1097
# 5 11.8663 4.8748 18.9276 0.5036 14.8926 -5.0912
# 6 4.4763 0.5204 1.2846 3.1097 -5.0912 26.4215
#
#
#
# Elastic Compliance Matrix: (Units=1/GPa)
#
#
# Indices 1 2 3 4 5 6 
#
# 1 0.016523 -0.005506 -0.000979 0.002027 -0.011960 -0.005186
# 2 -0.005506 0.024089 -0.003717 -0.007220 0.002119 0.001897
# 3 -0.000979 -0.003717 0.009793 -0.000064 -0.011269 -0.002401
# 4 0.002027 -0.007220 -0.000064 0.033450 -0.001837 -0.004489
# 5 -0.011960 0.002119 -0.011269 -0.001837 0.097746 0.021584
# 6 -0.005186 0.001897 -0.002401 -0.004489 0.021584 0.043493
#
#
# Mechanical properties :
#
#
# Convention : Reuss Voigt Hill
#
# Bulk Modulus (GPa) = 33.33119 48.20670 40.76895
# Shear Modulus (GPa) = 19.56952 27.43865 23.50409
#
# Velocity S-wave (km/s) = 3.21640 3.80857 3.52494
# Velocity P-wave (km/s) = 5.60481 6.69509 6.17406
#
# Compressibility (1/GPa) = 0.03000193
#
# Stress axis : x y z
#
# Youngs Moduli (GPa) = 60.52307 41.51238 102.10932
#
# Poissons Ratio (x) = 0.22857 0.09996
# Poissons Ratio (y) = 0.33324 0.37951
# Poissons Ratio (z) = 0.05925 0.15429
#
# Static dielectric constant tensor:
#      x y z
#    x 3.190160 0.008600 0.044320 
#    y 0.008600 3.576030 -0.097820 
#    z 0.044320 -0.097820 3.511480 
# 
# 
# High freq. dielectric constant tensor:
#      x y z
#    x 1.713810 0.002870 0.007740 
#    y 0.002870 1.736390 -0.006830 
#    z 0.007740 -0.006830 1.742620 
# 
# From -- ./inp_files/47471.got.cif
#   From: 2010.06.25/outbox.cif.g09.slc.cpg/sg2_24_cif.got.tgz:47471.got - 2010.06.27 13:26:56.
