data_PCOD8040853
_publ_section_title
;
Structure prediction by ZEFSAII (Michael W. Deem and Ramdas Pophale) SiO2 
 PCOD8040853
Probable space group: P -1
;
_chemical_formula_sum "Si O2"
_cell_formula_units_Z 14
_cell_length_a 12.434261
_cell_length_b 13.516673
_cell_length_c 16.397713
_cell_angle_alpha 154.014921
_cell_angle_beta 135.213730
_cell_angle_gamma 36.159822
_cell_volume 711.097632
_symmetry_space_group_name_H-M "P -1"
_symmetry_group_IT_number 2
_symmetry_cell_setting 'triclinic'
loop_
_space_group_symop_operation_xyz
x,y,z
-x,-y,-z
loop_
_atom_site_type_symbol
_atom_site_label
_atom_site_fract_x
_atom_site_fract_y
_atom_site_fract_z
Si Si1 0.992659 0.239783 0.786295
Si Si2 0.318775 0.099958 0.428502
Si Si3 0.005784 0.901363 0.686031
Si Si4 0.718000 0.291950 0.545219
Si Si5 0.743581 0.991057 0.844233
Si Si6 0.133003 0.708073 0.780384
Si Si7 0.339516 0.387687 0.403359
O O1 0.815756 0.311383 0.692071
O O2 0.168836 0.000163 0.655349
O O3 0.979770 0.146068 0.800111
O O4 0.000000 0.500000 0.000000
O O5 0.184788 0.079225 0.402661
O O6 0.356694 0.934007 0.242102
O O7 0.229732 0.405326 0.576031
O O8 0.500000 0.000000 0.500000
O O9 0.058169 0.917489 0.819300
O O10 0.164954 0.619272 0.527671
O O11 0.524770 0.345099 0.507947
O O12 0.681498 0.534171 0.645386
O O13 0.655035 0.885745 0.782024
O O14 0.961932 0.773387 0.792629
O O15 0.719301 0.262053 0.068711
#
# Coordination Sequence:
#
# PCOD8040853 Si02
#       7
#     2   2   2   2   2   2   2
#     4  10  22  41  59  87 121 148 187 242 290 340
#     4  11  22  38  58  88 120 149 187 240 289 350
#     4  10  20  38  63  81 115 160 188 235 292 332
#     4   9  22  39  58  87 114 150 199 234 285 343
#     4  10  20  36  61  83 116 150 191 237 283 338
#     4  10  20  38  59  88 110 152 201 227 280 353
#     4  10  18  39  63  80 114 157 193 240 282 334
#
# _framework density 19.687873
#
# number of rings (size 3 to 8) (size 9 to 14) (size 15 to 20)
#    0.000    2.000    2.857    0.857    4.000    0.571 
#    5.143    2.143    0.000    0.000    0.000    0.000 
#    0.000    0.000    0.000    0.000    0.000    0.000 
#
# Total GULP energy -173562.424847 kJ/mol
# GULP energy per Si atom -12397.316061 kJ/mol
# Density = 1.964306 g / cm^3
# Si number density = 19.687873 Si / 1000 Ang^3
#
#
#
# Elastic Constant Matrix: (Units=GPa)
#
#
# Indices 1 2 3 4 5 6 
#
# 1 109.7563 40.6871 34.4545 -5.6807 25.0521 6.6818
# 2 40.6871 97.8545 34.5187 -19.2464 16.2605 2.8932
# 3 34.4545 34.5187 92.0903 -18.4698 19.7790 10.9573
# 4 -5.6807 -19.2464 -18.4698 28.7350 1.1562 5.5421
# 5 25.0521 16.2605 19.7790 1.1562 25.4541 1.0863
# 6 6.6818 2.8932 10.9573 5.5421 1.0863 32.0922
#
#
#
# Elastic Compliance Matrix: (Units=1/GPa)
#
#
# Indices 1 2 3 4 5 6 
#
# 1 0.013061 -0.003249 -0.001336 0.000262 -0.009681 -0.001688
# 2 -0.003249 0.014735 -0.001049 0.009106 -0.005742 -0.001672
# 3 -0.001336 -0.001049 0.017672 0.012298 -0.011990 -0.007379
# 4 0.000262 0.009106 0.012298 0.052160 -0.017424 -0.013492
# 5 -0.009681 -0.005742 -0.011990 -0.017424 0.062270 0.007528
# 6 -0.001688 -0.001672 -0.007379 -0.013492 0.007528 0.036257
#
#
# Mechanical properties :
#
#
# Convention : Reuss Voigt Hill
#
# Bulk Modulus (GPa) = 29.24052 57.66907 43.45479
# Shear Modulus (GPa) = 22.84961 29.92563 26.38762
#
# Velocity S-wave (km/s) = 3.41044 3.90295 3.66498
# Velocity P-wave (km/s) = 5.51294 7.04741 6.32686
#
# Compressibility (1/GPa) = 0.03419912
#
# Stress axis : x y z
#
# Youngs Moduli (GPa) = 76.56385 67.86574 56.58798
#
# Poissons Ratio (x) = 0.22051 0.07561
# Poissons Ratio (y) = 0.24878 0.05935
# Poissons Ratio (z) = 0.10230 0.07118
#
# Static dielectric constant tensor:
#      x y z
#    x 3.770800 0.112900 0.141150 
#    y 0.112900 3.597180 -0.048860 
#    z 0.141150 -0.048860 3.482010 
# 
# 
# High freq. dielectric constant tensor:
#      x y z
#    x 1.772440 0.005670 0.011260 
#    y 0.005670 1.764880 -0.012210 
#    z 0.011260 -0.012210 1.751900 
# 
# From -- ./inp_files/251336.got.cif
#   From: 2010.06.25/outbox.cif.g09.slc.cpg/sg2_126_cif.got.tgz:251336.got - 2010.06.27 13:26:56.
