data_PCOD8040848
_publ_section_title
;
Structure prediction by ZEFSAII (Michael W. Deem and Ramdas Pophale) SiO2 
 PCOD8040848
Probable space group: P -1
;
_chemical_formula_sum "Si O2"
_cell_formula_units_Z 16
_cell_length_a 24.560909
_cell_length_b 18.796212
_cell_length_c 6.609853
_cell_angle_alpha 75.820961
_cell_angle_beta 66.128815
_cell_angle_gamma 18.055367
_cell_volume 752.319273
_symmetry_space_group_name_H-M "P -1"
_symmetry_group_IT_number 2
_symmetry_cell_setting 'triclinic'
loop_
_space_group_symop_operation_xyz
x,y,z
-x,-y,-z
loop_
_atom_site_type_symbol
_atom_site_label
_atom_site_fract_x
_atom_site_fract_y
_atom_site_fract_z
Si Si1 0.007353 0.648488 0.936578
Si Si2 0.588739 0.630502 0.188118
Si Si3 0.831177 0.610296 0.512279
Si Si4 0.735879 0.227365 0.740617
Si Si5 0.777734 0.014056 0.705519
Si Si6 0.898699 0.152237 0.248257
Si Si7 0.158335 0.537514 0.173556
Si Si8 0.774348 0.838088 0.489062
O O1 0.164904 0.419659 0.706104
O O2 0.837351 0.899215 0.897173
O O3 0.896830 0.716436 0.187369
O O4 0.137036 0.550356 0.955973
O O5 0.466589 0.716833 0.170170
O O6 0.746080 0.401575 0.260117
O O7 0.432494 0.866423 0.388894
O O8 0.721241 0.529124 0.915202
O O9 0.718013 0.678826 0.763196
O O10 0.700744 0.840409 0.571954
O O11 0.075205 0.333144 0.419848
O O12 0.803812 0.068966 0.661187
O O13 0.751406 0.266904 0.505582
O O14 0.500000 0.500000 0.000000
O O15 0.901770 0.055651 0.779709
O O16 0.924075 0.817328 0.433011
O O17 0.000000 0.000000 0.000000
#
# Coordination Sequence:
#
# PCOD8040848 Si02
#       8
#     2   2   2   2   2   2   2   2
#     4  10  18  39  62  89 126 167 214 261 317 375
#     4  12  23  41  66  93 128 169 212 262 319 375
#     4   9  19  39  62  88 130 168 213 264 318 374
#     4  11  26  45  71  98 128 172 216 263 328 395
#     4  11  23  42  63  93 127 169 209 259 320 379
#     4  11  26  47  67 101 136 167 212 273 324 388
#     4  10  22  40  61  92 129 167 213 268 313 375
#     4  10  20  37  62  95 124 168 215 263 318 376
#
# _framework density 21.267567
#
# number of rings (size 3 to 8) (size 9 to 14) (size 15 to 20)
#    0.000    1.500    3.750    2.625    1.750    4.500 
#    4.500    0.625    0.000    0.000    0.000    0.000 
#    0.000    0.000    0.000    0.000    0.000    0.000 
#
# Total GULP energy -198392.891251 kJ/mol
# GULP energy per Si atom -12399.555703 kJ/mol
# Density = 2.121916 g / cm^3
# Si number density = 21.267567 Si / 1000 Ang^3
#
#
#
# Elastic Constant Matrix: (Units=GPa)
#
#
# Indices 1 2 3 4 5 6 
#
# 1 137.2227 41.2411 57.5110 -10.9425 -11.4753 16.1339
# 2 41.2411 75.0898 42.0672 -2.3780 0.5380 21.2274
# 3 57.5110 42.0672 110.3032 -15.3284 -0.8302 -4.9271
# 4 -10.9425 -2.3780 -15.3284 27.4913 2.2963 -1.7429
# 5 -11.4753 0.5380 -0.8302 2.2963 46.5578 -0.5599
# 6 16.1339 21.2274 -4.9271 -1.7429 -0.5599 39.5010
#
#
#
# Elastic Compliance Matrix: (Units=1/GPa)
#
#
# Indices 1 2 3 4 5 6 
#
# 1 0.010636 -0.002112 -0.004755 0.000957 0.002469 -0.003725
# 2 -0.002112 0.022896 -0.008836 -0.004523 -0.000873 -0.012756
# 3 -0.004755 -0.008836 0.016295 0.007086 -0.001020 0.009021
# 4 0.000957 -0.004523 0.007086 0.040742 -0.001538 0.004699
# 5 0.002469 -0.000873 -0.001020 -0.001538 0.022150 -0.000420
# 6 -0.003725 -0.012756 0.009021 0.004699 -0.000420 0.035018
#
#
# Mechanical properties :
#
#
# Convention : Reuss Voigt Hill
#
# Bulk Modulus (GPa) = 54.28364 67.13936 60.71150
# Shear Modulus (GPa) = 26.98578 34.82977 30.90777
#
# Velocity S-wave (km/s) = 3.56598 4.05123 3.81633
# Velocity P-wave (km/s) = 6.52185 7.31579 6.93020
#
# Compressibility (1/GPa) = 0.01842176
#
# Stress axis : x y z
#
# Youngs Moduli (GPa) = 94.02356 43.67507 61.36991
#
# Poissons Ratio (x) = 0.09225 0.29179
# Poissons Ratio (y) = 0.19859 0.54225
# Poissons Ratio (z) = 0.44704 0.38590
#
# Static dielectric constant tensor:
#      x y z
#    x 4.157740 0.210800 -0.129340 
#    y 0.210800 3.819420 -0.150110 
#    z -0.129340 -0.150110 3.785640 
# 
# 
# High freq. dielectric constant tensor:
#      x y z
#    x 1.853560 0.015970 -0.001540 
#    y 0.015970 1.824170 -0.010680 
#    z -0.001540 -0.010680 1.830000 
# 
# From -- ./inp_files/122846.got.cif
#   From: 2010.06.25/outbox.cif.g09.slc.cpg/sg2_62_cif.got.tgz:122846.got - 2010.06.27 13:26:56.
