data_PCOD8040169
_publ_section_title
;
Structure prediction by ZEFSAII (Michael W. Deem and Ramdas Pophale) SiO2 
 PCOD8040169
Probable space group: P -1
;
_chemical_formula_sum "Si O2"
_cell_formula_units_Z 16
_cell_length_a 9.096426
_cell_length_b 9.224363
_cell_length_c 12.045792
_cell_angle_alpha 73.468639
_cell_angle_beta 62.188110
_cell_angle_gamma 59.750895
_cell_volume 770.644814
_symmetry_space_group_name_H-M "P -1"
_symmetry_group_IT_number 2
_symmetry_cell_setting 'triclinic'
loop_
_space_group_symop_operation_xyz
x,y,z
-x,-y,-z
loop_
_atom_site_type_symbol
_atom_site_label
_atom_site_fract_x
_atom_site_fract_y
_atom_site_fract_z
Si Si1 0.803658 0.558040 0.112104
Si Si2 0.222745 0.741920 0.696491
Si Si3 0.484538 0.828933 0.021877
Si Si4 0.282493 0.688916 0.437070
Si Si5 0.370917 0.327203 0.418676
Si Si6 0.611825 0.868672 0.748719
Si Si7 0.372079 0.236749 0.674350
Si Si8 0.154367 0.973624 0.255632
O O1 0.777779 0.393795 0.187082
O O2 0.642987 0.670431 0.060363
O O3 0.794316 0.667959 0.201292
O O4 0.000000 0.500000 0.000000
O O5 0.205793 0.689069 0.587263
O O6 0.406193 0.767848 0.642093
O O7 0.049416 0.920364 0.744277
O O8 0.286456 0.857612 0.135592
O O9 0.504990 0.799685 0.888131
O O10 0.500000 0.000000 0.000000
O O11 0.295774 0.527315 0.400934
O O12 0.486310 0.680142 0.374277
O O13 0.144955 0.854095 0.383362
O O14 0.294933 0.270370 0.349760
O O15 0.299726 0.268229 0.566712
O O16 0.466028 0.040039 0.707902
O O17 0.772263 0.895935 0.749813
#
# Coordination Sequence:
#
# PCOD8040169 Si02
#       8
#     2   2   2   2   2   2   2   2
#     4  12  20  33  62  89 109 144 209 239 263 336
#     4  11  21  35  61  89 109 151 201 236 277 342
#     4  10  18  36  55  78 113 155 190 224 278 344
#     4  10  18  37  60  82 115 153 192 233 284 348
#     4  11  20  37  61  88 118 146 191 244 293 328
#     4  10  21  35  59  86 116 158 186 233 293 343
#     4  10  18  36  59  86 111 155 194 232 280 344
#     4  10  20  37  61  82 115 155 198 228 281 350
#
# _framework density 20.761835000000001
#
# number of rings (size 3 to 8) (size 9 to 14) (size 15 to 20)
#    0.000    1.500    6.250    3.000    0.000    0.000 
#    0.000    3.750    5.500    0.000    0.000    0.000 
#    0.000    0.000    0.000    0.000    0.000    0.000 
#
# Total GULP energy -198400.310114 kJ/mol
# GULP energy per Si atom -12400.019382 kJ/mol
# Density = 2.071458 g / cm^3
# Si number density = 20.761835 Si / 1000 Ang^3
#
#
#
# Elastic Constant Matrix: (Units=GPa)
#
#
# Indices 1 2 3 4 5 6 
#
# 1 26.2638 22.3916 17.6917 3.5835 2.0273 -4.8112
# 2 22.3916 93.6810 50.0052 -2.0837 2.0638 -18.6675
# 3 17.6917 50.0052 140.0672 -2.4841 13.0856 0.0146
# 4 3.5835 -2.0837 -2.4841 40.7692 -5.0591 4.9726
# 5 2.0273 2.0638 13.0856 -5.0591 28.5283 10.0176
# 6 -4.8112 -18.6675 0.0146 4.9726 10.0176 29.9728
#
#
#
# Elastic Compliance Matrix: (Units=1/GPa)
#
#
# Indices 1 2 3 4 5 6 
#
# 1 0.050106 -0.009780 -0.002542 -0.006134 -0.004326 0.004416
# 2 -0.009780 0.017675 -0.004901 0.000005 -0.001869 0.010065
# 3 -0.002542 -0.004901 0.009482 0.000522 -0.002803 -0.002615
# 4 -0.006134 0.000005 0.000522 0.027059 0.007835 -0.008090
# 5 -0.004326 -0.001869 -0.002803 0.007835 0.044502 -0.018030
# 6 0.004416 0.010065 -0.002615 -0.008090 -0.018030 0.047710
#
#
# Mechanical properties :
#
#
# Convention : Reuss Voigt Hill
#
# Bulk Modulus (GPa) = 23.35625 48.90989 36.13307
# Shear Modulus (GPa) = 20.38705 31.18227 25.78466
#
# Velocity S-wave (km/s) = 3.13701 3.87964 3.52792
# Velocity P-wave (km/s) = 4.93914 6.60890 5.83407
#
# Compressibility (1/GPa) = 0.04281509
#
# Stress axis : x y z
#
# Youngs Moduli (GPa) = 19.95769 56.57621 105.46588
#
# Poissons Ratio (x) = 0.55334 0.26812
# Poissons Ratio (y) = 0.19520 0.51691
# Poissons Ratio (z) = 0.05074 0.27729
#
# Static dielectric constant tensor:
#      x y z
#    x 3.226740 -0.153130 0.084700 
#    y -0.153130 3.732890 -0.004600 
#    z 0.084700 -0.004600 4.435180 
# 
# 
# High freq. dielectric constant tensor:
#      x y z
#    x 1.750530 -0.018660 0.005510 
#    y -0.018660 1.817450 -0.005650 
#    z 0.005510 -0.005650 1.835440 
# 
# From -- ./inp_files/307177.got.cif
#   From: 2010.06.25/outbox.cif.g09.slc.cpg/sg2_154_cif.got.tgz:307177.got - 2010.06.27 13:26:56.
