data_PCOD8040388
_publ_section_title
;
Structure prediction by ZEFSAII (Michael W. Deem and Ramdas Pophale) SiO2 
 PCOD8040388
Probable space group: P -1
;
_chemical_formula_sum "Si O2"
_cell_formula_units_Z 14
_cell_length_a 11.275942
_cell_length_b 7.156458
_cell_length_c 19.822657
_cell_angle_alpha 138.577586
_cell_angle_beta 29.724178
_cell_angle_gamma 138.426996
_cell_volume 501.308895
_symmetry_space_group_name_H-M "P -1"
_symmetry_group_IT_number 2
_symmetry_cell_setting 'triclinic'
loop_
_space_group_symop_operation_xyz
x,y,z
-x,-y,-z
loop_
_atom_site_type_symbol
_atom_site_label
_atom_site_fract_x
_atom_site_fract_y
_atom_site_fract_z
Si Si1 0.951025 0.272570 0.559038
Si Si2 0.086327 0.958966 0.295086
Si Si3 0.180060 0.250672 0.851337
Si Si4 0.222476 0.610327 0.627578
Si Si5 0.352293 0.235835 0.626504
Si Si6 0.520820 0.609580 0.131275
Si Si7 0.632628 0.944097 0.029220
O O1 0.658560 0.242330 0.699364
O O2 0.115982 0.577519 0.593648
O O3 0.000000 0.000000 0.500000
O O4 0.027278 0.239834 0.435102
O O5 0.384926 0.041904 0.164341
O O6 0.973044 0.650294 0.306622
O O7 0.943713 0.912440 0.281840
O O8 0.346668 0.413017 0.747794
O O9 0.270935 0.407912 0.920793
O O10 0.208587 0.916942 0.748799
O O11 0.883693 0.227032 0.979683
O O12 0.507911 0.582771 0.461041
O O13 0.500000 0.000000 0.500000
O O14 0.644655 0.805088 0.059179
O O15 0.364290 0.287060 0.094304
#
# Coordination Sequence:
#
# PCOD8040388 Si02
#       7
#     2   2   2   2   2   2   2
#     4  10  18  36  63  98 122 156 219 269 310 362
#     4  11  22  41  68  97 129 166 219 275 314 373
#     4  11  23  42  65  96 134 174 208 258 333 388
#     4  10  19  40  67  95 129 163 220 271 306 375
#     4  10  23  41  61  96 133 170 213 263 326 388
#     4  11  21  41  66  95 130 170 217 265 320 381
#     4  11  22  41  66  95 130 167 219 266 318 385
#
# _framework density 27.926894999999998
#
# number of rings (size 3 to 8) (size 9 to 14) (size 15 to 20)
#    0.000    1.429    4.286    3.429    0.000    1.714 
#    5.143    2.857    0.000    0.000    0.000    0.000 
#    0.000    0.000    0.000    0.000    0.000    0.000 
#
# Total GULP energy -173441.085386 kJ/mol
# GULP energy per Si atom -12388.648956 kJ/mol
# Density = 2.786333 g / cm^3
# Si number density = 27.926895 Si / 1000 Ang^3
#
#
#
# Elastic Constant Matrix: (Units=GPa)
#
#
# Indices 1 2 3 4 5 6 
#
# 1 131.7149 18.6882 47.6672 -8.7353 3.7317 40.2196
# 2 18.6882 71.3169 7.6876 -25.9620 -4.2740 9.9748
# 3 47.6672 7.6876 148.9713 -22.3239 -13.0399 8.6696
# 4 -8.7353 -25.9620 -22.3239 37.5502 11.3900 -5.3240
# 5 3.7317 -4.2740 -13.0399 11.3900 46.2307 -2.7090
# 6 40.2196 9.9748 8.6696 -5.3240 -2.7090 38.9728
#
#
#
# Elastic Compliance Matrix: (Units=1/GPa)
#
#
# Indices 1 2 3 4 5 6 
#
# 1 0.013042 -0.001991 -0.003811 -0.001575 -0.002656 -0.012502
# 2 -0.001991 0.019720 0.001757 0.014349 -0.001144 -0.001503
# 3 -0.003811 0.001757 0.008646 0.005278 0.001749 0.002403
# 4 -0.001575 0.014349 0.005278 0.041801 -0.007240 0.001986
# 5 -0.002656 -0.001144 0.001749 -0.007240 0.024212 0.003339
# 6 -0.012502 -0.001503 0.002403 0.001986 0.003339 0.038914
#
#
# Mechanical properties :
#
#
# Convention : Reuss Voigt Hill
#
# Bulk Modulus (GPa) = 30.01463 55.56545 42.79004
# Shear Modulus (GPa) = 30.20573 43.08143 36.64358
#
# Velocity S-wave (km/s) = 3.29234 3.93192 3.62626
# Velocity P-wave (km/s) = 5.02230 6.36814 5.73484
#
# Compressibility (1/GPa) = 0.03331709
#
# Stress axis : x y z
#
# Youngs Moduli (GPa) = 76.67367 50.71112 115.66255
#
# Poissons Ratio (x) = 0.10096 0.44085
# Poissons Ratio (y) = 0.15264 -0.20322
# Poissons Ratio (z) = 0.29224 -0.08910
#
# Static dielectric constant tensor:
#      x y z
#    x 5.511750 0.438120 0.290750 
#    y 0.438120 5.442940 -0.300270 
#    z 0.290750 -0.300270 5.623930 
# 
# 
# High freq. dielectric constant tensor:
#      x y z
#    x 2.140620 0.009740 0.002610 
#    y 0.009740 2.122500 -0.005860 
#    z 0.002610 -0.005860 2.140460 
# 
# From -- ./inp_files/593808.got.cif
#   From: 2010.06.25/outbox.cif.g09.slc.cpg/sg2_297_cif.got.tgz:593808.got - 2010.06.27 13:26:56.
