data_PCOD8040574
_publ_section_title
;
Structure prediction by ZEFSAII (Michael W. Deem and Ramdas Pophale) SiO2 
 PCOD8040574
Probable space group: P -1
;
_chemical_formula_sum "Si O2"
_cell_formula_units_Z 16
_cell_length_a 11.608108
_cell_length_b 9.804743
_cell_length_c 10.857684
_cell_angle_alpha 101.377182
_cell_angle_beta 129.878967
_cell_angle_gamma 55.529462
_cell_volume 754.549503
_symmetry_space_group_name_H-M "P -1"
_symmetry_group_IT_number 2
_symmetry_cell_setting 'triclinic'
loop_
_space_group_symop_operation_xyz
x,y,z
-x,-y,-z
loop_
_atom_site_type_symbol
_atom_site_label
_atom_site_fract_x
_atom_site_fract_y
_atom_site_fract_z
Si Si1 0.586783 0.305368 0.505489
Si Si2 0.194280 0.798882 0.722582
Si Si3 0.520615 0.758523 0.834080
Si Si4 0.954826 0.192162 0.628504
Si Si5 0.385344 0.948301 0.340890
Si Si6 0.135852 0.380331 0.800210
Si Si7 0.934756 0.770537 0.690914
Si Si8 0.358452 0.120518 0.700864
O O1 0.500000 0.500000 0.500000
O O2 0.483695 0.287162 0.318504
O O3 0.804635 0.204487 0.616257
O O4 0.564933 0.228701 0.600943
O O5 0.414953 0.705297 0.842930
O O6 0.128031 0.740281 0.552373
O O7 0.122341 0.757448 0.787747
O O8 0.121861 0.994939 0.700233
O O9 0.425831 0.962003 0.809693
O O10 0.732397 0.650505 0.001674
O O11 0.022400 0.303891 0.744989
O O12 0.459202 0.910067 0.243958
O O13 0.500000 0.000000 0.500000
O O14 0.167381 0.107139 0.236915
O O15 0.258154 0.291691 0.745118
O O16 0.987056 0.582655 0.715201
O O17 0.788524 0.862698 0.494622
#
# Coordination Sequence:
#
# PCOD8040574 Si02
#       8
#     2   2   2   2   2   2   2   2
#     4  11  23  41  69  95 123 170 222 257 312 387
#     4  10  18  37  63  83 129 163 214 253 314 369
#     4  11  23  42  64  96 130 166 205 274 327 367
#     4  10  20  36  62  94 117 169 213 260 296 384
#     4  10  21  39  65  92 126 168 215 259 310 374
#     4  12  25  37  68 101 129 159 219 269 321 368
#     4  11  21  39  63  97 127 171 214 263 310 381
#     4  11  21  39  66  93 127 170 214 253 313 386
#
# _framework density 21.204706999999999
#
# number of rings (size 3 to 8) (size 9 to 14) (size 15 to 20)
#    0.000    1.250    6.250    1.500    3.500    1.500 
#    0.000    2.500    0.000    2.250    0.000    0.000 
#    0.000    0.000    0.000    0.000    0.000    0.000 
#
# Total GULP energy -198353.533637 kJ/mol
# GULP energy per Si atom -12397.095852 kJ/mol
# Density = 2.115644 g / cm^3
# Si number density = 21.204707 Si / 1000 Ang^3
#
#
#
# Elastic Constant Matrix: (Units=GPa)
#
#
# Indices 1 2 3 4 5 6 
#
# 1 119.9243 21.3286 16.7339 9.6889 0.1950 13.8212
# 2 21.3286 95.1353 11.6586 -1.2304 1.9567 7.8975
# 3 16.7339 11.6586 61.0396 3.2804 15.5003 9.1185
# 4 9.6889 -1.2304 3.2804 18.7871 0.8256 2.0441
# 5 0.1950 1.9567 15.5003 0.8256 18.5922 9.5000
# 6 13.8212 7.8975 9.1185 2.0441 9.5000 34.8462
#
#
#
# Elastic Compliance Matrix: (Units=1/GPa)
#
#
# Indices 1 2 3 4 5 6 
#
# 1 0.009804 -0.001707 -0.002686 -0.004486 0.004427 -0.003743
# 2 -0.001707 0.011274 -0.001828 0.002086 0.001209 -0.001852
# 3 -0.002686 -0.001828 0.022168 -0.001881 -0.018619 0.000865
# 4 -0.004486 0.002086 -0.001881 0.056175 -0.000388 -0.001391
# 5 0.004427 0.001209 -0.018619 -0.000388 0.078644 -0.018575
# 6 -0.003743 -0.001852 0.000865 -0.001391 -0.018575 0.035521
#
#
# Mechanical properties :
#
#
# Convention : Reuss Voigt Hill
#
# Bulk Modulus (GPa) = 32.46273 41.72684 37.09478
# Shear Modulus (GPa) = 21.16000 29.53697 25.34849
#
# Velocity S-wave (km/s) = 3.16237 3.73627 3.46123
# Velocity P-wave (km/s) = 5.35505 6.19142 5.78836
#
# Compressibility (1/GPa) = 0.03080456
#
# Stress axis : x y z
#
# Youngs Moduli (GPa) = 102.00400 88.70054 45.10957
#
# Poissons Ratio (x) = 0.15143 0.12115
# Poissons Ratio (y) = 0.17414 0.08245
# Poissons Ratio (z) = 0.27395 0.16212
#
# Static dielectric constant tensor:
#      x y z
#    x -103.274140 4.778110 -3.423430 
#    y 4.778110 3.628850 0.252500 
#    z -3.423430 0.252500 3.326770 
# 
# 
# High freq. dielectric constant tensor:
#      x y z
#    x 1.849520 0.002180 0.015230 
#    y 0.002180 1.828640 -0.000360 
#    z 0.015230 -0.000360 1.781380 
# 
# From -- ./inp_files/258916.got.cif
#   From: 2010.06.25/outbox.cif.g09.slc.cpg/sg2_130_cif.got.tgz:258916.got - 2010.06.27 13:26:56.
