data_PCOD8040398
_publ_section_title
;
Structure prediction by ZEFSAII (Michael W. Deem and Ramdas Pophale) SiO2 
 PCOD8040398
Probable space group: P -1
;
_chemical_formula_sum "Si O2"
_cell_formula_units_Z 14
_cell_length_a 13.697293
_cell_length_b 17.731839
_cell_length_c 7.705987
_cell_angle_alpha 116.870158
_cell_angle_beta 72.591502
_cell_angle_gamma 159.925891
_cell_volume 522.837207
_symmetry_space_group_name_H-M "P -1"
_symmetry_group_IT_number 2
_symmetry_cell_setting 'triclinic'
loop_
_space_group_symop_operation_xyz
x,y,z
-x,-y,-z
loop_
_atom_site_type_symbol
_atom_site_label
_atom_site_fract_x
_atom_site_fract_y
_atom_site_fract_z
Si Si1 0.137555 0.780099 0.671937
Si Si2 0.160454 0.593799 0.734851
Si Si3 0.088617 0.994346 0.132899
Si Si4 0.865304 0.993813 0.259031
Si Si5 0.215113 0.414014 0.647092
Si Si6 0.845751 0.132153 0.880629
Si Si7 0.682751 0.325538 0.894325
O O1 0.082155 0.636522 0.515414
O O2 0.880545 0.619875 0.518056
O O3 0.481817 0.080869 0.751488
O O4 0.050748 0.735865 0.867646
O O5 0.003373 0.554630 0.861736
O O6 0.483947 0.870426 0.756310
O O7 0.257718 0.606128 0.859510
O O8 0.415220 0.297156 0.237309
O O9 0.855310 0.886841 0.210432
O O10 0.102531 0.928569 0.192112
O O11 0.982280 0.876110 0.879022
O O12 0.076628 0.210338 0.508053
O O13 0.512963 0.755810 0.188010
O O14 0.059485 0.335667 0.822817
#
# Coordination Sequence:
#
# PCOD8040398 Si02
#       7
#     2   2   2   2   2   2   2
#     4  10  19  39  60  93 131 161 206 261 309 375
#     4  10  18  36  64  91 129 165 202 263 314 363
#     4  11  21  42  65  89 131 164 204 270 308 368
#     4  10  21  40  64  92 126 164 213 259 312 373
#     4  11  22  40  66  93 128 166 209 258 317 371
#     4  11  23  39  64 101 124 162 218 250 312 390
#     4   9  18  34  64  94 119 170 211 247 321 374
#
# _framework density 26.776976000000001
#
# number of rings (size 3 to 8) (size 9 to 14) (size 15 to 20)
#    0.000    1.714    5.714    0.857    0.000    1.714 
#    0.000    5.714    0.000   24.000    0.000    0.000 
#    0.000    0.000    0.000    0.000    0.000    0.000 
#
# Total GULP energy -173586.338347 kJ/mol
# GULP energy per Si atom -12399.024168 kJ/mol
# Density = 2.671603 g / cm^3
# Si number density = 26.776976 Si / 1000 Ang^3
#
#
#
# Elastic Constant Matrix: (Units=GPa)
#
#
# Indices 1 2 3 4 5 6 
#
# 1 81.6949 52.4643 13.4230 4.4580 1.8676 12.2619
# 2 52.4643 106.6351 31.2397 7.9209 7.8291 6.4738
# 3 13.4230 31.2397 160.2812 3.5447 -8.5306 3.3897
# 4 4.4580 7.9209 3.5447 32.3258 2.0019 -3.8437
# 5 1.8676 7.8291 -8.5306 2.0019 21.5370 2.3035
# 6 12.2619 6.4738 3.3897 -3.8437 2.3035 35.7062
#
#
#
# Elastic Compliance Matrix: (Units=1/GPa)
#
#
# Indices 1 2 3 4 5 6 
#
# 1 0.018849 -0.009206 0.000487 -0.001167 0.002563 -0.005141
# 2 -0.009206 0.015114 -0.002452 -0.001720 -0.005596 0.000830
# 3 0.000487 -0.002452 0.006899 -0.000532 0.003704 -0.000674
# 4 -0.001167 -0.001720 -0.000532 0.032286 -0.002959 0.004430
# 5 0.002563 -0.005596 0.003704 -0.002959 0.050391 -0.003787
# 6 -0.005141 0.000830 -0.000674 0.004430 -0.003787 0.030407
#
#
# Mechanical properties :
#
#
# Convention : Reuss Voigt Hill
#
# Bulk Modulus (GPa) = 53.99632 60.31836 57.15734
# Shear Modulus (GPa) = 27.40309 34.67941 31.04125
#
# Velocity S-wave (km/s) = 3.20251 3.60268 3.40847
# Velocity P-wave (km/s) = 5.82097 6.31513 6.07308
#
# Compressibility (1/GPa) = 0.01851978
#
# Stress axis : x y z
#
# Youngs Moduli (GPa) = 53.05203 66.16551 144.94132
#
# Poissons Ratio (x) = 0.60911 -0.07054
# Poissons Ratio (y) = 0.48839 0.35541
# Poissons Ratio (z) = -0.02582 0.16225
#
# Static dielectric constant tensor:
#      x y z
#    x 4.856540 0.081790 -0.413740 
#    y 0.081790 4.361660 0.123460 
#    z -0.413740 0.123460 5.566090 
# 
# 
# High freq. dielectric constant tensor:
#      x y z
#    x 2.084540 0.000530 -0.013770 
#    y 0.000530 2.044390 0.008260 
#    z -0.013770 0.008260 2.098390 
# 
# From -- ./inp_files/318426.got.cif
#   From: 2010.06.25/outbox.cif.g09.slc.cpg/sg2_160_cif.got.tgz:318426.got - 2010.06.27 13:26:56.
