data_PCOD8040673
_publ_section_title
;
Structure prediction by ZEFSAII (Michael W. Deem and Ramdas Pophale) SiO2 
 PCOD8040673
Probable space group: P -1
;
_chemical_formula_sum "Si O2"
_cell_formula_units_Z 16
_cell_length_a 15.584489
_cell_length_b 9.522786
_cell_length_c 12.619840
_cell_angle_alpha 135.469011
_cell_angle_beta 57.376549
_cell_angle_gamma 144.290165
_cell_volume 763.012465
_symmetry_space_group_name_H-M "P -1"
_symmetry_group_IT_number 2
_symmetry_cell_setting 'triclinic'
loop_
_space_group_symop_operation_xyz
x,y,z
-x,-y,-z
loop_
_atom_site_type_symbol
_atom_site_label
_atom_site_fract_x
_atom_site_fract_y
_atom_site_fract_z
Si Si1 0.093167 0.733199 0.399325
Si Si2 0.239183 0.797000 0.037551
Si Si3 0.979992 0.902739 0.704252
Si Si4 0.969988 0.649080 0.223343
Si Si5 0.229544 0.523987 0.225554
Si Si6 0.752319 0.592690 0.072669
Si Si7 0.500630 0.599648 0.731273
Si Si8 0.420514 0.144311 0.400719
O O1 0.975100 0.646137 0.344967
O O2 0.094296 0.491989 0.278358
O O3 0.038449 0.766429 0.559495
O O4 0.264152 0.039886 0.425977
O O5 0.088260 0.653974 0.112149
O O6 0.361825 0.146764 0.147123
O O7 0.301804 0.707063 0.020345
O O8 0.193507 0.648955 0.871165
O O9 0.815085 0.653560 0.731717
O O10 0.983214 0.062395 0.690551
O O11 0.081654 0.135423 0.854522
O O12 0.384203 0.867792 0.317694
O O13 0.248460 0.392893 0.046619
O O14 0.643635 0.593785 0.203037
O O15 0.511405 0.388700 0.564115
O O16 0.491952 0.730964 0.702706
#
# Coordination Sequence:
#
# PCOD8040673 Si02
#       8
#     2   2   2   2   2   2   2   2
#     4  10  18  38  52  83 112 139 182 226 270 318
#     4  10  19  32  54  81 111 141 173 231 272 308
#     4  11  22  33  57  82 113 146 179 222 277 325
#     4  10  20  35  53  81 115 141 183 220 271 330
#     4  10  20  36  53  85 113 140 180 229 274 315
#     4  11  19  33  55  87 108 138 187 226 272 317
#     4  11  18  34  57  87 106 140 182 239 262 315
#     4   9  20  32  56  84 111 135 179 228 279 308
#
# _framework density 20.969514
#
# number of rings (size 3 to 8) (size 9 to 14) (size 15 to 20)
#    0.750    1.000    5.000    1.500    0.000    0.000 
#    0.000    0.000    0.000    1.500    0.000    0.000 
#    0.000    0.000    0.000    0.000    0.000    0.000 
#
# Total GULP energy -198217.098146 kJ/mol
# GULP energy per Si atom -12388.568634 kJ/mol
# Density = 2.092179 g / cm^3
# Si number density = 20.969514 Si / 1000 Ang^3
#
#
#
# Elastic Constant Matrix: (Units=GPa)
#
#
# Indices 1 2 3 4 5 6 
#
# 1 23.8919 -3.1166 10.6260 2.0204 3.7780 -2.6810
# 2 -3.1166 65.7248 26.6520 0.8030 5.7105 -10.2324
# 3 10.6260 26.6520 92.6920 -1.0849 -6.0345 -6.3211
# 4 2.0204 0.8030 -1.0849 38.2574 6.4716 -2.6221
# 5 3.7780 5.7105 -6.0345 6.4716 17.6150 1.4539
# 6 -2.6810 -10.2324 -6.3211 -2.6221 1.4539 14.7857
#
#
#
# Elastic Compliance Matrix: (Units=1/GPa)
#
#
# Indices 1 2 3 4 5 6 
#
# 1 0.051734 0.010018 -0.009049 0.001010 -0.019011 0.014494
# 2 0.010018 0.022356 -0.007381 0.002263 -0.014070 0.015917
# 3 -0.009049 -0.007381 0.014458 -0.000708 0.009682 -0.001645
# 4 0.001010 0.002263 -0.000708 0.028638 -0.012353 0.007740
# 5 -0.019011 -0.014070 0.009682 -0.012353 0.074798 -0.018590
# 6 0.014494 0.015917 -0.001645 0.007740 -0.018590 0.083774
#
#
# Mechanical properties :
#
#
# Convention : Reuss Voigt Hill
#
# Bulk Modulus (GPa) = 13.20559 27.84796 20.52677
# Shear Modulus (GPa) = 15.93266 24.00810 19.97038
#
# Velocity S-wave (km/s) = 2.75944 3.38731 3.08937
# Velocity P-wave (km/s) = 4.05757 5.34861 4.74718
#
# Compressibility (1/GPa) = 0.07572552
#
# Stress axis : x y z
#
# Youngs Moduli (GPa) = 19.32976 44.73117 69.16708
#
# Poissons Ratio (x) = -0.44813 0.62587
# Poissons Ratio (y) = -0.19365 0.51049
# Poissons Ratio (z) = 0.17491 0.33014
#
# Static dielectric constant tensor:
#      x y z
#    x 3.296540 -0.018720 -0.006910 
#    y -0.018720 3.637230 0.217690 
#    z -0.006910 0.217690 4.037850 
# 
# 
# High freq. dielectric constant tensor:
#      x y z
#    x 1.755260 -0.005260 -0.010270 
#    y -0.005260 1.802830 0.008320 
#    z -0.010270 0.008320 1.840140 
# 
# From -- ./inp_files/464008.got.cif
#   From: 2010.06.25/outbox.cif.g09.slc.cpg/sg2_233_cif.got.tgz:464008.got - 2010.06.27 13:26:56.
