data_PCOD8040769
_publ_section_title
;
Structure prediction by ZEFSAII (Michael W. Deem and Ramdas Pophale) SiO2 
 PCOD8040769
Probable space group: P -1
;
_chemical_formula_sum "Si O2"
_cell_formula_units_Z 16
_cell_length_a 15.142497
_cell_length_b 8.525920
_cell_length_c 14.919168
_cell_angle_alpha 37.462585
_cell_angle_beta 44.258415
_cell_angle_gamma 44.573026
_cell_volume 769.225562
_symmetry_space_group_name_H-M "P -1"
_symmetry_group_IT_number 2
_symmetry_cell_setting 'triclinic'
loop_
_space_group_symop_operation_xyz
x,y,z
-x,-y,-z
loop_
_atom_site_type_symbol
_atom_site_label
_atom_site_fract_x
_atom_site_fract_y
_atom_site_fract_z
Si Si1 0.424753 0.935778 0.809583
Si Si2 0.501540 0.571435 0.744956
Si Si3 0.873581 0.131274 0.473366
Si Si4 0.695204 0.680910 0.422980
Si Si5 0.726070 0.233284 0.845058
Si Si6 0.752335 0.105794 0.303301
Si Si7 0.288431 0.171560 0.363185
Si Si8 0.012514 0.779356 0.831470
O O1 0.461817 0.712275 0.805681
O O2 0.568783 0.923733 0.750486
O O3 0.349050 0.230668 0.687165
O O4 0.330662 0.870122 0.980184
O O5 0.569343 0.734028 0.556786
O O6 0.615631 0.279439 0.822354
O O7 0.359762 0.603386 0.782958
O O8 0.775642 0.360479 0.504761
O O9 0.909114 0.271738 0.296044
O O10 0.816399 0.887934 0.601103
O O11 0.000000 0.000000 0.500000
O O12 0.777710 0.867586 0.317744
O O13 0.758142 0.510643 0.717736
O O14 0.867207 0.008960 0.817975
O O15 0.897168 0.136476 0.198221
O O16 0.696994 0.017275 0.474477
O O17 0.000000 0.500000 0.000000
#
# Coordination Sequence:
#
# PCOD8040769 Si02
#       8
#     2   2   2   2   2   2   2   2
#     4  10  19  37  63  96 122 154 208 256 303 370
#     4  10  18  38  65  99 118 150 213 260 297 363
#     4  11  26  40  60  92 131 155 209 264 294 363
#     4  11  19  38  66  93 120 159 204 256 312 357
#     4  11  22  38  69  88 127 167 203 251 311 367
#     4  10  20  39  72  89 121 164 209 251 304 375
#     4  10  20  39  64  95 119 161 207 254 309 362
#     4  11  26  48  59  88 130 170 204 249 311 375
#
# _framework density 20.800139999999999
#
# number of rings (size 3 to 8) (size 9 to 14) (size 15 to 20)
#    0.000    1.500    3.750    3.750    1.750    1.500 
#    9.000    3.750    0.000    0.000    0.000    0.000 
#    0.000    0.000    0.000    0.000    0.000    0.000 
#
# Total GULP energy -198239.832087 kJ/mol
# GULP energy per Si atom -12389.989505 kJ/mol
# Density = 2.075280 g / cm^3
# Si number density = 20.800140 Si / 1000 Ang^3
#
#
#
# Elastic Constant Matrix: (Units=GPa)
#
#
# Indices 1 2 3 4 5 6 
#
# 1 104.5502 21.0889 8.1642 -1.5618 0.9896 -23.8543
# 2 21.0889 73.5625 -18.9001 4.3564 -4.3851 -22.6549
# 3 8.1642 -18.9001 59.4059 13.8469 1.7797 -3.8438
# 4 -1.5618 4.3564 13.8469 26.8148 -2.6235 4.7234
# 5 0.9896 -4.3851 1.7797 -2.6235 24.5579 -2.2150
# 6 -23.8543 -22.6549 -3.8438 4.7234 -2.2150 34.9664
#
#
#
# Elastic Compliance Matrix: (Units=1/GPa)
#
#
# Indices 1 2 3 4 5 6 
#
# 1 0.011563 -0.001959 -0.002024 0.000932 -0.000004 0.006270
# 2 -0.001959 0.023316 0.011597 -0.012527 0.003594 0.016965
# 3 -0.002024 0.011597 0.025561 -0.017232 -0.000527 0.011238
# 4 0.000932 -0.012527 -0.017232 0.051417 0.003012 -0.016130
# 5 -0.000004 0.003594 -0.000527 0.003012 0.042130 0.004530
# 6 0.006270 0.016965 0.011238 -0.016130 0.004530 0.047569
#
#
# Mechanical properties :
#
#
# Convention : Reuss Voigt Hill
#
# Bulk Modulus (GPa) = 13.21564 28.69161 20.95363
# Shear Modulus (GPa) = 23.63512 32.41221 28.02366
#
# Velocity S-wave (km/s) = 3.37456 3.95177 3.67452
# Velocity P-wave (km/s) = 4.64230 5.88608 5.30079
#
# Compressibility (1/GPa) = 0.07566790
#
# Stress axis : x y z
#
# Youngs Moduli (GPa) = 86.48617 42.88928 39.12242
#
# Poissons Ratio (x) = 0.08403 0.07918
# Poissons Ratio (y) = 0.16944 -0.45371
# Poissons Ratio (z) = 0.17503 -0.49740
#
# Static dielectric constant tensor:
#      x y z
#    x 4.241650 -0.121490 0.253730 
#    y -0.121490 4.027150 0.178710 
#    z 0.253730 0.178710 3.968840 
# 
# 
# High freq. dielectric constant tensor:
#      x y z
#    x 1.814470 -0.022430 0.011390 
#    y -0.022430 1.805020 0.005660 
#    z 0.011390 0.005660 1.808170 
# 
# From -- ./inp_files/224261.got.cif
#   From: 2010.06.25/outbox.cif.g09.slc.cpg/sg2_113_cif.got.tgz:224261.got - 2010.06.27 13:26:56.
