data_PCOD8040881
_publ_section_title
;
Structure prediction by ZEFSAII (Michael W. Deem and Ramdas Pophale) SiO2 
 PCOD8040881
Probable space group: P -1
;
_chemical_formula_sum "Si O2"
_cell_formula_units_Z 16
_cell_length_a 9.475094
_cell_length_b 11.363944
_cell_length_c 8.899911
_cell_angle_alpha 97.847892
_cell_angle_beta 126.930257
_cell_angle_gamma 79.583934
_cell_volume 752.929622
_symmetry_space_group_name_H-M "P -1"
_symmetry_group_IT_number 2
_symmetry_cell_setting 'triclinic'
loop_
_space_group_symop_operation_xyz
x,y,z
-x,-y,-z
loop_
_atom_site_type_symbol
_atom_site_label
_atom_site_fract_x
_atom_site_fract_y
_atom_site_fract_z
Si Si1 0.639369 0.255455 0.207700
Si Si2 0.696566 0.853291 0.554936
Si Si3 0.355687 0.886667 0.528931
Si Si4 0.097291 0.430204 0.808757
Si Si5 0.442320 0.491592 0.205263
Si Si6 0.208455 0.677319 0.230632
Si Si7 0.941829 0.304092 0.192275
Si Si8 0.616742 0.695047 0.207267
O O1 0.659152 0.141286 0.309218
O O2 0.586454 0.374187 0.301112
O O3 0.826542 0.263922 0.249100
O O4 0.487213 0.236324 0.986182
O O5 0.562659 0.874835 0.612884
O O6 0.603023 0.779006 0.357452
O O7 0.877083 0.783651 0.720789
O O8 0.736935 0.978784 0.532926
O O9 0.249036 0.799709 0.349282
O O10 0.010614 0.561551 0.722169
O O11 0.174154 0.345109 0.704719
O O12 0.956670 0.366030 0.798488
O O13 0.265040 0.443882 0.023291
O O14 0.380140 0.572318 0.327305
O O15 0.524326 0.575183 0.150768
O O16 0.166314 0.702072 0.032425
#
# Coordination Sequence:
#
# PCOD8040881 Si02
#       8
#     2   2   2   2   2   2   2   2
#     4  11  22  39  69  94 125 162 205 253 314 374
#     4  11  27  45  63  87 125 167 217 259 302 360
#     4  11  27  46  60  90 124 167 219 257 297 370
#     4  10  21  36  66 102 126 157 203 251 311 386
#     4  10  18  39  66  94 129 161 194 249 321 380
#     4  11  23  41  65  94 132 163 200 254 315 368
#     4  11  22  41  66  95 126 163 202 256 315 367
#     4  11  20  43  66  92 129 167 194 254 320 368
#
# _framework density 21.250326999999999
#
# number of rings (size 3 to 8) (size 9 to 14) (size 15 to 20)
#    0.000    1.250    5.000    2.250    7.000    3.500 
#    0.000    0.000    0.000    0.000    0.000    0.000 
#    0.000    0.000    0.000    0.000    0.000    0.000 
#
# Total GULP energy -198398.443845 kJ/mol
# GULP energy per Si atom -12399.902740 kJ/mol
# Density = 2.120196 g / cm^3
# Si number density = 21.250327 Si / 1000 Ang^3
#
#
#
# Elastic Constant Matrix: (Units=GPa)
#
#
# Indices 1 2 3 4 5 6 
#
# 1 124.1923 30.0457 3.6724 -11.0920 8.8587 16.5619
# 2 30.0457 89.7399 13.8250 -9.1212 13.2250 12.4935
# 3 3.6724 13.8250 28.3228 -1.2088 8.5637 6.2614
# 4 -11.0920 -9.1212 -1.2088 24.6934 -2.7693 -1.6923
# 5 8.8587 13.2250 8.5637 -2.7693 21.9565 -5.2205
# 6 16.5619 12.4935 6.2614 -1.6923 -5.2205 39.3258
#
#
#
# Elastic Compliance Matrix: (Units=1/GPa)
#
#
# Indices 1 2 3 4 5 6 
#
# 1 0.009586 -0.002058 0.002011 0.002911 -0.004023 -0.004112
# 2 -0.002058 0.014259 -0.003630 0.003130 -0.006866 -0.003862
# 3 0.002011 -0.003630 0.044324 -0.000942 -0.018222 -0.009211
# 4 0.002911 0.003130 -0.000942 0.043239 0.002800 0.000162
# 5 -0.004023 -0.006866 -0.018222 0.002800 0.062372 0.015177
# 6 -0.004112 -0.003862 -0.009211 0.000162 0.015177 0.031876
#
#
# Mechanical properties :
#
#
# Convention : Reuss Voigt Hill
#
# Bulk Modulus (GPa) = 16.44312 37.48234 26.96273
# Shear Modulus (GPa) = 21.43337 30.17595 25.80466
#
# Velocity S-wave (km/s) = 3.17931 3.77241 3.48849
# Velocity P-wave (km/s) = 4.60782 6.05405 5.37975
#
# Compressibility (1/GPa) = 0.06081571
#
# Stress axis : x y z
#
# Youngs Moduli (GPa) = 104.32092 70.12981 22.56124
#
# Poissons Ratio (x) = 0.14433 -0.04538
# Poissons Ratio (y) = 0.21469 0.08190
# Poissons Ratio (z) = -0.20983 0.25457
#
# Static dielectric constant tensor:
#      x y z
#    x 4.140020 -0.214400 -0.048630 
#    y -0.214400 3.900450 0.024350 
#    z -0.048630 0.024350 3.498510 
# 
# 
# High freq. dielectric constant tensor:
#      x y z
#    x 1.853640 -0.005320 -0.000460 
#    y -0.005320 1.822070 0.000480 
#    z -0.000460 0.000480 1.813760 
# 
# From -- ./inp_files/188870.got.cif
#   From: 2010.06.25/outbox.cif.g09.slc.cpg/sg2_95_cif.got.tgz:188870.got - 2010.06.27 13:26:56.
