data_PCOD8040086
_publ_section_title
;
Structure prediction by ZEFSAII (Michael W. Deem and Ramdas Pophale) SiO2 
 PCOD8040086
Probable space group: P -1
;
_chemical_formula_sum "Si O2"
_cell_formula_units_Z 16
_cell_length_a 27.434177
_cell_length_b 19.483876
_cell_length_c 15.179209
_cell_angle_alpha 153.268887
_cell_angle_beta 162.652888
_cell_angle_gamma 17.631621
_cell_volume 720.347906
_symmetry_space_group_name_H-M "P -1"
_symmetry_group_IT_number 2
_symmetry_cell_setting 'triclinic'
loop_
_space_group_symop_operation_xyz
x,y,z
-x,-y,-z
loop_
_atom_site_type_symbol
_atom_site_label
_atom_site_fract_x
_atom_site_fract_y
_atom_site_fract_z
Si Si1 0.093129 0.039088 0.807271
Si Si2 0.497449 0.329323 0.388381
Si Si3 0.240949 0.281486 0.614185
Si Si4 0.988333 0.586848 0.174799
Si Si5 0.609569 0.254640 0.303650
Si Si6 0.225050 0.640955 0.532699
Si Si7 0.527874 0.165986 0.428227
Si Si8 0.918751 0.661761 0.785479
O O1 0.879728 0.085813 0.536631
O O2 0.977564 0.222014 0.738369
O O3 0.296253 0.771315 0.818229
O O4 0.208216 0.083003 0.122465
O O5 0.624002 0.187834 0.353572
O O6 0.537052 0.482072 0.648043
O O7 0.633848 0.145520 0.492927
O O8 0.208053 0.490446 0.072390
O O9 0.205289 0.326284 0.499655
O O10 0.000000 0.500000 0.500000
O O11 0.277273 0.075081 0.460453
O O12 0.469257 0.227750 0.972483
O O13 0.106573 0.669298 0.454179
O O14 0.137151 0.406057 0.304643
O O15 0.700828 0.787837 0.934172
O O16 0.000000 0.500000 0.000000
O O17 0.452789 0.371726 0.589589
#
# Coordination Sequence:
#
# PCOD8040086 Si02
#       8
#     2   2   2   2   2   2   2   2
#     4  10  19  35  67  89 115 151 206 240 294 352
#     4   9  18  38  66  84 115 156 210 245 284 349
#     4  12  25  39  57  87 130 161 190 243 316 352
#     4   9  16  35  64  89 116 149 205 247 288 343
#     4  10  19  37  62  91 118 154 201 246 295 357
#     4  10  18  35  63  91 110 151 203 252 283 339
#     4  10  20  38  59  89 121 155 197 250 290 352
#     4  10  19  39  59  90 123 156 192 250 302 353
#
# _framework density 22.211487999999999
#
# number of rings (size 3 to 8) (size 9 to 14) (size 15 to 20)
#    0.000    2.000    6.250    0.750    0.000    0.500 
#    2.250    5.000    0.000    0.000    0.000    0.000 
#    0.000    0.000    0.000    0.000    0.000    0.000 
#
# Total GULP energy -198233.283481 kJ/mol
# GULP energy per Si atom -12389.580218 kJ/mol
# Density = 2.216093 g / cm^3
# Si number density = 22.211488 Si / 1000 Ang^3
#
#
#
# Elastic Constant Matrix: (Units=GPa)
#
#
# Indices 1 2 3 4 5 6 
#
# 1 167.2809 51.4421 37.4251 11.8225 -12.9361 31.6037
# 2 51.4421 128.9517 27.4231 15.0251 -13.5618 8.2858
# 3 37.4251 27.4231 50.1720 20.1390 -16.5230 1.1198
# 4 11.8225 15.0251 20.1390 18.2928 -5.3655 -3.3601
# 5 -12.9361 -13.5618 -16.5230 -5.3655 33.7777 4.9962
# 6 31.6037 8.2858 1.1198 -3.3601 4.9962 28.5229
#
#
#
# Elastic Compliance Matrix: (Units=1/GPa)
#
#
# Indices 1 2 3 4 5 6 
#
# 1 0.009947 -0.001899 -0.005367 -0.000346 0.001941 -0.010640
# 2 -0.001899 0.009669 -0.001041 -0.005268 0.002052 -0.001644
# 3 -0.005367 -0.001041 0.046597 -0.043482 0.013877 -0.003134
# 4 -0.000346 -0.005268 -0.043482 0.107719 -0.009054 0.017896
# 5 0.001941 0.002052 0.013877 -0.009054 0.038156 -0.011042
# 6 -0.010640 -0.001644 -0.003134 0.017896 -0.011042 0.051492
#
#
# Mechanical properties :
#
#
# Convention : Reuss Voigt Hill
#
# Bulk Modulus (GPa) = 20.16127 64.33168 42.24648
# Shear Modulus (GPa) = 16.85050 31.45965 24.15508
#
# Velocity S-wave (km/s) = 2.75733 3.76755 3.30131
# Velocity P-wave (km/s) = 4.38564 6.92474 5.79594
#
# Compressibility (1/GPa) = 0.04960004
#
# Stress axis : x y z
#
# Youngs Moduli (GPa) = 100.52989 103.42255 21.46044
#
# Poissons Ratio (x) = 0.19638 0.11517
# Poissons Ratio (y) = 0.19089 0.02235
# Poissons Ratio (z) = 0.53950 0.10771
#
# Static dielectric constant tensor:
#      x y z
#    x 4.561630 0.283720 0.185010 
#    y 0.283720 4.047720 0.491810 
#    z 0.185010 0.491810 3.742490 
# 
# 
# High freq. dielectric constant tensor:
#      x y z
#    x 1.894380 0.008310 0.002680 
#    y 0.008310 1.864830 0.037480 
#    z 0.002680 0.037480 1.825640 
# 
# From -- ./inp_files/544298.got.cif
#   From: 2010.06.25/outbox.cif.g09.slc.cpg/sg2_273_cif.got.tgz:544298.got - 2010.06.27 13:26:56.
