data_PCOD8040025
_publ_section_title
;
Structure prediction by ZEFSAII (Michael W. Deem and Ramdas Pophale) SiO2 
 PCOD8040025
Probable space group: P -1
;
_chemical_formula_sum "Si O2"
_cell_formula_units_Z 14
_cell_length_a 10.551270
_cell_length_b 11.395512
_cell_length_c 11.294394
_cell_angle_alpha 98.987491
_cell_angle_beta 123.654970
_cell_angle_gamma 125.728908
_cell_volume 646.100971
_symmetry_space_group_name_H-M "P -1"
_symmetry_group_IT_number 2
_symmetry_cell_setting 'triclinic'
loop_
_space_group_symop_operation_xyz
x,y,z
-x,-y,-z
loop_
_atom_site_type_symbol
_atom_site_label
_atom_site_fract_x
_atom_site_fract_y
_atom_site_fract_z
Si Si1 0.966018 0.562909 0.604392
Si Si2 0.239088 0.572128 0.905238
Si Si3 0.561295 0.631537 0.656611
Si Si4 0.443282 0.576901 0.215726
Si Si5 0.849667 0.913603 0.656137
Si Si6 0.882711 0.747967 0.314187
Si Si7 0.786716 0.046574 0.256989
O O1 0.685916 0.449853 0.439501
O O2 0.000000 0.500000 0.500000
O O3 0.999397 0.507259 0.734348
O O4 0.197695 0.808148 0.757029
O O5 0.231789 0.455449 0.794649
O O6 0.219512 0.513265 0.022574
O O7 0.499691 0.812844 0.052617
O O8 0.500000 0.500000 0.500000
O O9 0.664956 0.617982 0.819099
O O10 0.779118 0.862341 0.752354
O O11 0.575322 0.739066 0.412723
O O12 0.655413 0.688034 0.238276
O O13 0.001381 0.890002 0.699805
O O14 0.020921 0.137785 0.744761
O O15 0.131916 0.906898 0.555510
#
# Coordination Sequence:
#
# PCOD8040025 Si02
#       7
#     2   2   2   2   2   2   2
#     4  12  23  41  64  95 133 167 208 264 323 377
#     4  12  23  34  65  96 127 160 216 267 314 367
#     4  10  20  40  67  90 127 174 212 254 319 382
#     4  10  18  35  61  91 122 162 215 256 300 376
#     4  10  19  37  67  90 127 165 214 260 314 370
#     4  11  19  37  64  95 125 163 216 263 308 372
#     4  11  20  39  63  96 123 166 214 261 314 375
#
# _framework density 21.668441000000001
#
# number of rings (size 3 to 8) (size 9 to 14) (size 15 to 20)
#    0.000    1.143    8.571    1.714    0.000    0.000 
#    0.000    4.286    0.000    0.000    0.000    0.000 
#    0.000    0.000    0.000    0.000    0.000    0.000 
#
# Total GULP energy -173489.938564 kJ/mol
# GULP energy per Si atom -12392.138469 kJ/mol
# Density = 2.161912 g / cm^3
# Si number density = 21.668441 Si / 1000 Ang^3
#
#
#
# Elastic Constant Matrix: (Units=GPa)
#
#
# Indices 1 2 3 4 5 6 
#
# 1 66.6604 35.9799 20.5428 -1.5601 -3.2418 -7.2615
# 2 35.9799 192.0821 42.5094 -20.8480 7.4748 1.4916
# 3 20.5428 42.5094 52.1766 -14.8394 3.4847 -10.4313
# 4 -1.5601 -20.8480 -14.8394 48.0660 -15.8903 2.1761
# 5 -3.2418 7.4748 3.4847 -15.8903 12.4322 0.9702
# 6 -7.2615 1.4916 -10.4313 2.1761 0.9702 38.1317
#
#
#
# Elastic Compliance Matrix: (Units=1/GPa)
#
#
# Indices 1 2 3 4 5 6 
#
# 1 0.018669 -0.002625 -0.005219 0.000571 0.008485 0.001982
# 2 -0.002625 0.006914 -0.004619 0.000794 -0.002374 -0.002019
# 3 -0.005219 -0.004619 0.028082 0.006763 0.001686 0.006440
# 4 0.000571 0.000794 0.006763 0.039188 0.047984 -0.001529
# 5 0.008485 -0.002374 0.001686 0.047984 0.145268 -0.004264
# 6 0.001982 -0.002019 0.006440 -0.001529 -0.004264 0.028639
#
#
# Mechanical properties :
#
#
# Convention : Reuss Voigt Hill
#
# Bulk Modulus (GPa) = 34.79700 56.55372 45.67536
# Shear Modulus (GPa) = 16.59665 33.85178 25.22422
#
# Velocity S-wave (km/s) = 2.77056 3.95683 3.41559
# Velocity P-wave (km/s) = 5.13112 6.85796 6.05640
#
# Compressibility (1/GPa) = 0.02873811
#
# Stress axis : x y z
#
# Youngs Moduli (GPa) = 53.56535 144.62688 35.61018
#
# Poissons Ratio (x) = 0.37971 0.18586
# Poissons Ratio (y) = 0.14063 0.16447
# Poissons Ratio (z) = 0.27957 0.66799
#
# Static dielectric constant tensor:
#      x y z
#    x 3.547150 -0.055910 -0.038840 
#    y -0.055910 4.618080 -0.288600 
#    z -0.038840 -0.288600 3.889300 
# 
# 
# High freq. dielectric constant tensor:
#      x y z
#    x 1.803850 -0.015110 -0.010200 
#    y -0.015110 1.878490 -0.015530 
#    z -0.010200 -0.015530 1.833670 
# 
# From -- ./inp_files/279995.got.cif
#   From: 2010.06.25/outbox.cif.g09.slc.cpg/sg2_140_cif.got.tgz:279995.got - 2010.06.27 13:26:56.
