data_PCOD8040736
_publ_section_title
;
Structure prediction by ZEFSAII (Michael W. Deem and Ramdas Pophale) SiO2 
 PCOD8040736
Probable space group: P -1
;
_chemical_formula_sum "Si O2"
_cell_formula_units_Z 14
_cell_length_a 8.086792
_cell_length_b 14.529653
_cell_length_c 7.655987
_cell_angle_alpha 104.509241
_cell_angle_beta 99.495115
_cell_angle_gamma 39.951315
_cell_volume 558.689617
_symmetry_space_group_name_H-M "P -1"
_symmetry_group_IT_number 2
_symmetry_cell_setting 'triclinic'
loop_
_space_group_symop_operation_xyz
x,y,z
-x,-y,-z
loop_
_atom_site_type_symbol
_atom_site_label
_atom_site_fract_x
_atom_site_fract_y
_atom_site_fract_z
Si Si1 0.643187 0.984077 0.858571
Si Si2 0.868091 0.280350 0.683867
Si Si3 0.764574 0.449720 0.438907
Si Si4 0.289861 0.854071 0.930232
Si Si5 0.305173 0.172243 0.509510
Si Si6 0.406329 0.776777 0.518668
Si Si7 0.216392 0.687720 0.923008
O O1 0.573230 0.971119 0.647477
O O2 0.946172 0.837749 0.866280
O O3 0.500000 0.000000 0.000000
O O4 0.554656 0.132350 0.927378
O O5 0.686569 0.412418 0.570908
O O6 0.823776 0.185655 0.596770
O O7 0.164643 0.187978 0.665404
O O8 0.792059 0.343284 0.894940
O O9 0.652224 0.602947 0.511179
O O10 0.669816 0.447668 0.234848
O O11 0.077346 0.319495 0.424914
O O12 0.317765 0.855763 0.727287
O O13 0.391896 0.707040 0.941329
O O14 0.000000 0.000000 0.000000
O O15 0.516028 0.166241 0.563964
#
# Coordination Sequence:
#
# PCOD8040736 Si02
#       7
#     2   2   2   2   2   2   2
#     4  10  18  38  63  85 116 161 200 249 300 358
#     4  10  22  39  60  90 127 156 200 252 302 359
#     4   9  21  39  62  90 124 161 198 251 303 358
#     4  10  20  36  62  87 115 159 206 242 301 361
#     4   9  21  38  62  87 126 152 206 252 296 354
#     4  12  19  39  65  88 122 166 202 242 312 359
#     4  10  21  40  61  88 124 157 198 256 302 353
#
# _framework density 25.058634999999999
#
# number of rings (size 3 to 8) (size 9 to 14) (size 15 to 20)
#    0.857    1.143    2.857    1.714    0.000    0.571 
#    2.571    7.857    0.000    0.000    0.000    0.000 
#    0.000    0.000    0.000    0.000    0.000    0.000 
#
# Total GULP energy -173479.033791 kJ/mol
# GULP energy per Si atom -12391.359556 kJ/mol
# Density = 2.500160 g / cm^3
# Si number density = 25.058635 Si / 1000 Ang^3
#
#
#
# Elastic Constant Matrix: (Units=GPa)
#
#
# Indices 1 2 3 4 5 6 
#
# 1 159.7946 21.6920 52.0583 3.2225 -6.1981 37.0558
# 2 21.6920 50.0878 12.7094 2.2872 8.3047 2.5736
# 3 52.0583 12.7094 187.0199 -7.7083 -5.8308 12.1640
# 4 3.2225 2.2872 -7.7083 40.3557 7.5445 0.6911
# 5 -6.1981 8.3047 -5.8308 7.5445 35.3587 6.5171
# 6 37.0558 2.5736 12.1640 0.6911 6.5171 34.9101
#
#
#
# Elastic Compliance Matrix: (Units=1/GPa)
#
#
# Indices 1 2 3 4 5 6 
#
# 1 0.010061 -0.004079 -0.001751 -0.001610 0.004734 -0.010620
# 2 -0.004079 0.022909 -0.000916 0.000098 -0.007055 0.004275
# 3 -0.001751 -0.000916 0.005989 0.001211 0.000695 -0.000314
# 4 -0.001610 0.000098 0.001211 0.026233 -0.006051 0.001890
# 5 0.004734 -0.007055 0.000695 -0.006051 0.034204 -0.011012
# 6 -0.010620 0.004275 -0.000314 0.001890 -0.011012 0.041731
#
#
# Mechanical properties :
#
#
# Convention : Reuss Voigt Hill
#
# Bulk Modulus (GPa) = 39.26454 63.31350 51.28902
# Shear Modulus (GPa) = 30.65466 42.82107 36.73787
#
# Velocity S-wave (km/s) = 3.50139 4.13829 3.83309
# Velocity P-wave (km/s) = 5.66122 6.93937 6.33263
#
# Compressibility (1/GPa) = 0.02546827
#
# Stress axis : x y z
#
# Youngs Moduli (GPa) = 99.39165 43.65047 166.97939
#
# Poissons Ratio (x) = 0.17803 0.29245
# Poissons Ratio (y) = 0.40537 0.15287
# Poissons Ratio (z) = 0.17408 0.03996
#
# Static dielectric constant tensor:
#      x y z
#    x 5.043020 0.198560 0.371460 
#    y 0.198560 4.400750 0.368330 
#    z 0.371460 0.368330 4.701990 
# 
# 
# High freq. dielectric constant tensor:
#      x y z
#    x 2.009760 -0.002100 -0.006140 
#    y -0.002100 1.994070 0.010810 
#    z -0.006140 0.010810 2.005530 
# 
# From -- ./inp_files/203089.got.cif
#   From: 2010.06.25/outbox.cif.g09.slc.cpg/sg2_102_cif.got.tgz:203089.got - 2010.06.27 13:26:56.
