data_PCOD8040672
_publ_section_title
;
Structure prediction by ZEFSAII (Michael W. Deem and Ramdas Pophale) SiO2 
 PCOD8040672
Probable space group: P -1
;
_chemical_formula_sum "Si O2"
_cell_formula_units_Z 14
_cell_length_a 9.264861
_cell_length_b 12.375177
_cell_length_c 8.730415
_cell_angle_alpha 114.373090
_cell_angle_beta 120.277565
_cell_angle_gamma 46.905258
_cell_volume 627.531431
_symmetry_space_group_name_H-M "P -1"
_symmetry_group_IT_number 2
_symmetry_cell_setting 'triclinic'
loop_
_space_group_symop_operation_xyz
x,y,z
-x,-y,-z
loop_
_atom_site_type_symbol
_atom_site_label
_atom_site_fract_x
_atom_site_fract_y
_atom_site_fract_z
Si Si1 0.180326 0.911538 0.223970
Si Si2 0.920621 0.652285 0.833579
Si Si3 0.930278 0.399914 0.791294
Si Si4 0.529619 0.388174 0.323880
Si Si5 0.546008 0.153347 0.385937
Si Si6 0.937677 0.902109 0.333600
Si Si7 0.142854 0.762524 0.851052
O O1 0.382367 0.848448 0.402354
O O2 0.008244 0.891269 0.189180
O O3 0.252635 0.814135 0.050539
O O4 0.068660 0.086346 0.239655
O O5 0.980593 0.485896 0.749386
O O6 0.696551 0.777447 0.708934
O O7 0.090697 0.661965 0.849413
O O8 0.906817 0.679493 0.026025
O O9 0.704034 0.524988 0.820178
O O10 0.943071 0.266337 0.633584
O O11 0.500000 0.500000 0.500000
O O12 0.603953 0.239734 0.362599
O O13 0.693621 0.347206 0.254976
O O14 0.690588 0.988272 0.289065
O O15 0.000000 0.000000 0.500000
#
# Coordination Sequence:
#
# PCOD8040672 Si02
#       7
#     2   2   2   2   2   2   2
#     4  10  21  40  69 102 130 169 229 287 316 390
#     4  10  23  43  64  97 142 175 210 279 344 401
#     4  10  22  42  65  96 139 176 223 265 340 402
#     4  11  23  40  71  97 125 181 228 272 323 406
#     4  10  22  41  69  94 131 179 224 261 341 399
#     4  10  18  37  71  96 121 176 230 274 303 399
#     4  11  23  41  69 100 136 167 227 285 333 380
#
# _framework density 22.309639000000001
#
# number of rings (size 3 to 8) (size 9 to 14) (size 15 to 20)
#    0.000    1.714    2.857    1.714    2.000    1.714 
#    0.000    4.286    6.286    0.000    0.000    0.000 
#    0.000    0.000    0.000    0.000    0.000    0.000 
#
# Total GULP energy -173457.792826 kJ/mol
# GULP energy per Si atom -12389.842345 kJ/mol
# Density = 2.225886 g / cm^3
# Si number density = 22.309639 Si / 1000 Ang^3
#
#
#
# Elastic Constant Matrix: (Units=GPa)
#
#
# Indices 1 2 3 4 5 6 
#
# 1 95.1165 57.9155 35.5519 10.6830 -6.6941 11.0664
# 2 57.9155 154.0421 42.1160 8.0087 -3.3682 10.6035
# 3 35.5519 42.1160 102.7820 -13.5874 -1.9032 -20.0251
# 4 10.6830 8.0087 -13.5874 43.9548 -4.8655 0.8712
# 5 -6.6941 -3.3682 -1.9032 -4.8655 26.2523 3.8064
# 6 11.0664 10.6035 -20.0251 0.8712 3.8064 34.9219
#
#
#
# Elastic Compliance Matrix: (Units=1/GPa)
#
#
# Indices 1 2 3 4 5 6 
#
# 1 0.016989 -0.003684 -0.006568 -0.004916 0.003677 -0.008309
# 2 -0.003684 0.009137 -0.003381 -0.001725 0.000179 -0.003522
# 3 -0.006568 -0.003381 0.016757 0.006981 -0.001441 0.012699
# 4 -0.004916 -0.001725 0.006981 0.026676 0.003241 0.005066
# 5 0.003677 0.000179 -0.001441 0.003241 0.040497 -0.006541
# 6 -0.008309 -0.003522 0.012699 0.005066 -0.006541 0.040207
#
#
# Mechanical properties :
#
#
# Convention : Reuss Voigt Hill
#
# Bulk Modulus (GPa) = 64.02709 69.23416 66.63062
# Shear Modulus (GPa) = 27.36232 35.44961 31.40597
#
# Velocity S-wave (km/s) = 3.50591 3.99053 3.75604
# Velocity P-wave (km/s) = 6.71939 7.23416 6.98152
#
# Compressibility (1/GPa) = 0.01561839
#
# Stress axis : x y z
#
# Youngs Moduli (GPa) = 58.86168 109.44444 59.67738
#
# Poissons Ratio (x) = 0.40317 0.39194
# Poissons Ratio (y) = 0.21683 0.20175
# Poissons Ratio (z) = 0.38659 0.37000
#
# Static dielectric constant tensor:
#      x y z
#    x 4.076540 -0.126560 0.013540 
#    y -0.126560 4.514540 -0.079930 
#    z 0.013540 -0.079930 4.040800 
# 
# 
# High freq. dielectric constant tensor:
#      x y z
#    x 1.850650 0.010010 0.005140 
#    y 0.010010 1.895350 -0.006870 
#    z 0.005140 -0.006870 1.872200 
# 
# From -- ./inp_files/189512.got.cif
#   From: 2010.06.25/outbox.cif.g09.slc.cpg/sg2_95_cif.got.tgz:189512.got - 2010.06.27 13:26:56.
