data_PCOD8040002
_publ_section_title
;
Structure prediction by ZEFSAII (Michael W. Deem and Ramdas Pophale) SiO2 
 PCOD8040002
Probable space group: P -1
;
_chemical_formula_sum "Si O2"
_cell_formula_units_Z 14
_cell_length_a 19.805655
_cell_length_b 9.278980
_cell_length_c 10.843063
_cell_angle_alpha 89.253886
_cell_angle_beta 32.375779
_cell_angle_gamma 111.822351
_cell_volume 746.128641
_symmetry_space_group_name_H-M "P -1"
_symmetry_group_IT_number 2
_symmetry_cell_setting 'triclinic'
loop_
_space_group_symop_operation_xyz
x,y,z
-x,-y,-z
loop_
_atom_site_type_symbol
_atom_site_label
_atom_site_fract_x
_atom_site_fract_y
_atom_site_fract_z
Si Si1 0.774332 0.923942 0.744538
Si Si2 0.368656 0.314344 0.610962
Si Si3 0.300196 0.895053 0.334228
Si Si4 0.521212 0.751699 0.783156
Si Si5 0.940645 0.080787 0.749285
Si Si6 0.612439 0.521664 0.656888
Si Si7 0.185277 0.505519 0.465894
O O1 0.883885 0.877682 0.522871
O O2 0.781214 0.067450 0.644355
O O3 0.859547 0.040971 0.740952
O O4 0.568906 0.714404 0.084793
O O5 0.500000 0.500000 0.500000
O O6 0.477378 0.278353 0.366104
O O7 0.299528 0.374820 0.615714
O O8 0.202425 0.108316 0.938149
O O9 0.162670 0.647146 0.558201
O O10 0.324326 0.004651 0.423236
O O11 0.500000 0.000000 0.000000
O O12 0.569681 0.642699 0.784368
O O13 0.323218 0.634763 0.136418
O O14 0.998367 0.286017 0.707886
O O15 0.749592 0.544944 0.525647
#
# Coordination Sequence:
#
# PCOD8040002 Si02
#       7
#     2   2   2   2   2   2   2
#     4  11  20  36  61  86 112 144 192 236 284 322
#     4  10  21  35  57  84 115 146 186 236 288 331
#     4  10  20  35  60  84 111 150 194 227 267 342
#     4   9  18  33  58  81 109 144 191 232 262 337
#     4  11  22  35  58  87 116 144 183 248 280 322
#     4  10  18  35  61  81 110 145 190 233 270 341
#     4  11  20  35  60  86 109 150 192 229 276 328
#
# _framework density 18.763518999999999
#
# number of rings (size 3 to 8) (size 9 to 14) (size 15 to 20)
#    0.857    0.857    5.714    1.286    2.000    1.143 
#    0.000    0.714    0.000    4.286    0.000    0.000 
#    0.000    0.000    0.000    0.000    0.000    0.000 
#
# Total GULP energy -173461.760645 kJ/mol
# GULP energy per Si atom -12390.125760 kJ/mol
# Density = 1.872081 g / cm^3
# Si number density = 18.763519 Si / 1000 Ang^3
#
#
#
# Elastic Constant Matrix: (Units=GPa)
#
#
# Indices 1 2 3 4 5 6 
#
# 1 52.5581 30.9025 17.3273 0.6793 1.9202 23.2234
# 2 30.9025 149.5979 21.4751 -32.3767 -0.4638 27.0063
# 3 17.3273 21.4751 48.1062 -22.9516 13.1465 19.0243
# 4 0.6793 -32.3767 -22.9516 30.5247 1.1096 -4.6078
# 5 1.9202 -0.4638 13.1465 1.1096 23.7364 1.6010
# 6 23.2234 27.0063 19.0243 -4.6078 1.6010 27.2061
#
#
#
# Elastic Compliance Matrix: (Units=1/GPa)
#
#
# Indices 1 2 3 4 5 6 
#
# 1 0.036211 -0.007359 -0.017589 -0.024574 0.008896 -0.015991
# 2 -0.007359 0.013921 0.016699 0.025630 -0.008610 -0.014366
# 3 -0.017589 0.016699 0.090843 0.080871 -0.049074 -0.048500
# 4 -0.024574 0.025630 0.080871 0.117127 -0.045179 -0.038519
# 5 0.008896 -0.008610 -0.049074 -0.045179 0.068944 0.023560
# 6 -0.015991 -0.014366 -0.048500 -0.038519 0.023560 0.090672
#
#
# Mechanical properties :
#
#
# Convention : Reuss Voigt Hill
#
# Bulk Modulus (GPa) = 8.03371 43.29688 25.66530
# Shear Modulus (GPa) = 10.51063 28.33060 19.42062
#
# Velocity S-wave (km/s) = 2.36934 3.88993 3.22066
# Velocity P-wave (km/s) = 3.43160 6.58031 5.24769
#
# Compressibility (1/GPa) = 0.12447548
#
# Stress axis : x y z
#
# Youngs Moduli (GPa) = 27.61624 71.83183 11.00799
#
# Poissons Ratio (x) = 0.52862 0.19362
# Poissons Ratio (y) = 0.20323 -0.18382
# Poissons Ratio (z) = 0.48575 -1.19948
#
# Static dielectric constant tensor:
#      x y z
#    x 3.425110 0.095390 0.061710 
#    y 0.095390 4.018480 -0.191580 
#    z 0.061710 -0.191580 3.143960 
# 
# 
# High freq. dielectric constant tensor:
#      x y z
#    x 1.721910 0.014870 0.004910 
#    y 0.014870 1.741820 -0.020340 
#    z 0.004910 -0.020340 1.691800 
# 
# From -- ./inp_files/167728.got.cif
#   From: 2010.06.25/outbox.cif.g09.slc.cpg/sg2_84_cif.got.tgz:167728.got - 2010.06.27 13:26:56.
