data_PCOD8040253
_publ_section_title
;
Structure prediction by ZEFSAII (Michael W. Deem and Ramdas Pophale) SiO2 
 PCOD8040253
Probable space group: P -1
;
_chemical_formula_sum "Si O2"
_cell_formula_units_Z 16
_cell_length_a 14.523068
_cell_length_b 8.664495
_cell_length_c 11.499291
_cell_angle_alpha 114.400753
_cell_angle_beta 94.715875
_cell_angle_gamma 42.773341
_cell_volume 835.786451
_symmetry_space_group_name_H-M "P -1"
_symmetry_group_IT_number 2
_symmetry_cell_setting 'triclinic'
loop_
_space_group_symop_operation_xyz
x,y,z
-x,-y,-z
loop_
_atom_site_type_symbol
_atom_site_label
_atom_site_fract_x
_atom_site_fract_y
_atom_site_fract_z
Si Si1 0.550264 0.440187 0.855570
Si Si2 0.359482 0.943488 0.540722
Si Si3 0.370249 0.236048 0.780125
Si Si4 0.182726 0.871117 0.566837
Si Si5 0.147681 0.583839 0.331189
Si Si6 0.358459 0.312166 0.061943
Si Si7 0.309944 0.097069 0.336818
Si Si8 0.347741 0.545859 0.697933
O O1 0.609817 0.538232 0.860409
O O2 0.415002 0.595482 0.803670
O O3 0.679006 0.120343 0.753695
O O4 0.500000 0.500000 0.000000
O O5 0.336489 0.089022 0.698566
O O6 0.288299 0.146148 0.488303
O O7 0.293709 0.850880 0.520883
O O8 0.530629 0.686236 0.453633
O O9 0.295088 0.466340 0.749869
O O10 0.543018 0.023356 0.732072
O O11 0.304643 0.364477 0.940292
O O12 0.202825 0.671124 0.433097
O O13 0.213445 0.798969 0.684982
O O14 0.021790 0.170596 0.634529
O O15 0.229737 0.439883 0.173472
O O16 0.175099 0.377126 0.347303
O O17 0.500000 0.000000 0.000000
#
# Coordination Sequence:
#
# PCOD8040253 Si02
#       8
#     2   2   2   2   2   2   2   2
#     4  10  18  36  59  92 114 146 194 239 294 339
#     4  10  20  35  59  89 112 150 199 243 298 332
#     4  10  19  35  58  89 117 148 191 245 292 349
#     4  11  24  39  59  86 121 156 197 249 282 351
#     4  11  23  41  58  85 121 159 198 235 299 341
#     4  12  22  36  63  91 119 154 192 242 296 347
#     4  10  19  37  61  86 118 150 197 246 288 349
#     4  10  20  35  62  85 119 150 191 249 287 346
#
# _framework density 19.143647000000001
#
# number of rings (size 3 to 8) (size 9 to 14) (size 15 to 20)
#    0.000    1.750    3.750    4.875    1.750    0.500 
#    0.000    2.500    0.000    0.000    0.000    0.000 
#    0.000    0.000    0.000    0.000    0.000    0.000 
#
# Total GULP energy -198385.117865 kJ/mol
# GULP energy per Si atom -12399.069867 kJ/mol
# Density = 1.910007 g / cm^3
# Si number density = 19.143647 Si / 1000 Ang^3
#
#
#
# Elastic Constant Matrix: (Units=GPa)
#
#
# Indices 1 2 3 4 5 6 
#
# 1 54.7161 30.8349 22.8688 3.3256 18.5122 16.8694
# 2 30.8349 146.9394 41.1494 -5.9006 4.3913 9.2737
# 3 22.8688 41.1494 104.7266 -8.8782 16.1536 1.1242
# 4 3.3256 -5.9006 -8.8782 29.5122 3.1528 4.6320
# 5 18.5122 4.3913 16.1536 3.1528 33.8134 -0.0922
# 6 16.8694 9.2737 1.1242 4.6320 -0.0922 20.3471
#
#
#
# Elastic Compliance Matrix: (Units=1/GPa)
#
#
# Indices 1 2 3 4 5 6 
#
# 1 0.037244 -0.004544 -0.003162 0.000432 -0.018409 -0.028815
# 2 -0.004544 0.008480 -0.002628 0.001179 0.002531 -0.000209
# 3 -0.003162 -0.002628 0.012177 0.003565 -0.004071 0.002316
# 4 0.000432 0.001179 0.003565 0.037248 -0.005592 -0.009598
# 5 -0.018409 0.002531 -0.004071 -0.005592 0.041833 0.015796
# 6 -0.028815 -0.000209 0.002316 -0.009598 0.015796 0.075261
#
#
# Mechanical properties :
#
#
# Convention : Reuss Voigt Hill
#
# Bulk Modulus (GPa) = 26.85772 55.12092 40.98932
# Shear Modulus (GPa) = 20.38140 30.83648 25.60894
#
# Velocity S-wave (km/s) = 3.26645 4.01782 3.66146
# Velocity P-wave (km/s) = 5.31848 7.09787 6.27160
#
# Compressibility (1/GPa) = 0.03723325
#
# Stress axis : x y z
#
# Youngs Moduli (GPa) = 26.84984 117.92542 82.12167
#
# Poissons Ratio (x) = 0.53586 0.25967
# Poissons Ratio (y) = 0.12201 0.21581
# Poissons Ratio (z) = 0.08490 0.30990
#
# Static dielectric constant tensor:
#      x y z
#    x 3.393600 0.265530 0.212980 
#    y 0.265530 3.557840 -0.185900 
#    z 0.212980 -0.185900 3.631230 
# 
# 
# High freq. dielectric constant tensor:
#      x y z
#    x 1.725630 0.028460 0.015590 
#    y 0.028460 1.740050 -0.019030 
#    z 0.015590 -0.019030 1.746760 
# 
# From -- ./inp_files/252225.got.cif
#   From: 2010.06.25/outbox.cif.g09.slc.cpg/sg2_127_cif.got.tgz:252225.got - 2010.06.27 13:26:56.
