data_PCOD8040336
_publ_section_title
;
Structure prediction by ZEFSAII (Michael W. Deem and Ramdas Pophale) SiO2 
 PCOD8040336
Probable space group: P -1
;
_chemical_formula_sum "Si O2"
_cell_formula_units_Z 16
_cell_length_a 19.911897
_cell_length_b 10.581017
_cell_length_c 9.288434
_cell_angle_alpha 92.691475
_cell_angle_beta 72.830308
_cell_angle_gamma 32.126370
_cell_volume 806.805876
_symmetry_space_group_name_H-M "P -1"
_symmetry_group_IT_number 2
_symmetry_cell_setting 'triclinic'
loop_
_space_group_symop_operation_xyz
x,y,z
-x,-y,-z
loop_
_atom_site_type_symbol
_atom_site_label
_atom_site_fract_x
_atom_site_fract_y
_atom_site_fract_z
Si Si1 0.751981 0.582528 0.577003
Si Si2 0.847894 0.351140 0.816558
Si Si3 0.395635 0.377635 0.532960
Si Si4 0.394281 0.617297 0.947588
Si Si5 0.052349 0.082549 0.182146
Si Si6 0.460028 0.227314 0.799485
Si Si7 0.110315 0.036489 0.812643
Si Si8 0.624021 0.215633 0.319021
O O1 0.836289 0.390453 0.655937
O O2 0.640067 0.658825 0.576711
O O3 0.890964 0.405860 0.369685
O O4 0.638831 0.885120 0.705076
O O5 0.947283 0.063383 0.775637
O O6 0.667422 0.638453 0.011375
O O7 0.955954 0.288007 0.816478
O O8 0.411686 0.276774 0.667653
O O9 0.250293 0.714244 0.653458
O O10 0.572723 0.153696 0.375317
O O11 0.462035 0.374600 0.831255
O O12 0.398666 0.717235 0.830170
O O13 0.500000 0.500000 0.000000
O O14 0.210422 0.896503 0.135177
O O15 0.049398 0.093490 0.012010
O O16 0.190468 0.047822 0.766452
O O17 0.500000 0.500000 0.500000
#
# Coordination Sequence:
#
# PCOD8040336 Si02
#       8
#     2   2   2   2   2   2   2   2
#     4  12  25  35  59  93 122 152 195 245 298 349
#     4  11  21  37  59  85 119 155 198 248 288 337
#     4  11  20  37  62  89 119 154 197 245 285 355
#     4  10  21  38  66  84 115 155 196 248 288 347
#     4  10  20  37  59  88 113 154 205 236 290 345
#     4  11  23  42  56  87 123 158 190 238 310 350
#     4  10  18  36  62  84 116 151 202 246 283 340
#     4   9  18  34  59  92 107 147 203 242 280 334
#
# _framework density 19.831287
#
# number of rings (size 3 to 8) (size 9 to 14) (size 15 to 20)
#    0.000    1.500    6.250    2.250    3.500    1.000 
#    0.000    0.625    0.000    2.250    0.000    0.000 
#    0.000    0.000    0.000    0.000    0.000    0.000 
#
# Total GULP energy -198366.475191 kJ/mol
# GULP energy per Si atom -12397.904699 kJ/mol
# Density = 1.978615 g / cm^3
# Si number density = 19.831287 Si / 1000 Ang^3
#
#
#
# Elastic Constant Matrix: (Units=GPa)
#
#
# Indices 1 2 3 4 5 6 
#
# 1 85.7180 34.4441 37.7750 -10.3934 -9.9843 -33.1199
# 2 34.4441 57.2877 32.0858 -3.4562 4.4571 -23.2844
# 3 37.7750 32.0858 89.5459 4.3418 -11.8470 -6.8680
# 4 -10.3934 -3.4562 4.3418 38.0317 -4.9735 8.5666
# 5 -9.9843 4.4571 -11.8470 -4.9735 23.9830 -4.3321
# 6 -33.1199 -23.2844 -6.8680 8.5666 -4.3321 34.3407
#
#
#
# Elastic Compliance Matrix: (Units=1/GPa)
#
#
# Indices 1 2 3 4 5 6 
#
# 1 0.027201 -0.004266 -0.006590 0.004513 0.013888 0.022650
# 2 -0.004266 0.032378 -0.009935 -0.001824 -0.010370 0.015000
# 3 -0.006590 -0.009935 0.017762 -0.002091 0.005950 -0.008268
# 4 0.004513 -0.001824 -0.002091 0.029313 0.006580 -0.003785
# 5 0.013888 -0.010370 0.005950 0.006580 0.056054 0.012983
# 6 0.022650 0.015000 -0.008268 -0.003785 0.012983 0.062064
#
#
# Mechanical properties :
#
#
# Convention : Reuss Voigt Hill
#
# Bulk Modulus (GPa) = 27.96533 49.01795 38.49164
# Shear Modulus (GPa) = 17.96789 27.82086 22.89438
#
# Velocity S-wave (km/s) = 3.01331 3.74956 3.40142
# Velocity P-wave (km/s) = 5.12240 6.59673 5.90575
#
# Compressibility (1/GPa) = 0.03575856
#
# Stress axis : x y z
#
# Youngs Moduli (GPa) = 36.76342 30.88477 56.29989
#
# Poissons Ratio (x) = 0.13174 0.37104
# Poissons Ratio (y) = 0.15682 0.55936
# Poissons Ratio (z) = 0.24229 0.30685
#
# Static dielectric constant tensor:
#      x y z
#    x 3.731070 -0.253810 -0.321660 
#    y -0.253810 3.425970 -0.031650 
#    z -0.321660 -0.031650 3.792630 
# 
# 
# High freq. dielectric constant tensor:
#      x y z
#    x 1.761970 -0.024170 -0.016720 
#    y -0.024170 1.753500 -0.009340 
#    z -0.016720 -0.009340 1.780700 
# 
# From -- ./inp_files/181672.got.cif
#   From: 2010.06.25/outbox.cif.g09.slc.cpg/sg2_91_cif.got.tgz:181672.got - 2010.06.27 13:26:56.
