data_PCOD8040999
_publ_section_title
;
Structure prediction by ZEFSAII (Michael W. Deem and Ramdas Pophale) SiO2 
 PCOD8040999
Probable space group: P -1
;
_chemical_formula_sum "Si O2"
_cell_formula_units_Z 16
_cell_length_a 13.534014
_cell_length_b 8.967107
_cell_length_c 9.204127
_cell_angle_alpha 119.949022
_cell_angle_beta 119.345836
_cell_angle_gamma 61.413143
_cell_volume 802.217346
_symmetry_space_group_name_H-M "P -1"
_symmetry_group_IT_number 2
_symmetry_cell_setting 'triclinic'
loop_
_space_group_symop_operation_xyz
x,y,z
-x,-y,-z
loop_
_atom_site_type_symbol
_atom_site_label
_atom_site_fract_x
_atom_site_fract_y
_atom_site_fract_z
Si Si1 0.059294 0.831523 0.858742
Si Si2 0.704846 0.662938 0.499168
Si Si3 0.972766 0.522350 0.660741
Si Si4 0.328755 0.056656 0.637630
Si Si5 0.443643 0.307730 0.013382
Si Si6 0.941712 0.873250 0.481487
Si Si7 0.322733 0.632247 0.888654
Si Si8 0.479213 0.310266 0.374241
O O1 0.200256 0.792647 0.911942
O O2 0.045244 0.651439 0.839479
O O3 0.983999 0.865276 0.673546
O O4 0.000000 0.000000 0.000000
O O5 0.834777 0.613742 0.637245
O O6 0.679473 0.843394 0.473351
O O7 0.692937 0.493401 0.316220
O O8 0.619054 0.709597 0.595798
O O9 0.000000 0.500000 0.500000
O O10 0.017015 0.322478 0.663840
O O11 0.200107 0.056639 0.599652
O O12 0.400958 0.846536 0.574278
O O13 0.393397 0.151746 0.843721
O O14 0.579549 0.271073 0.038209
O O15 0.435941 0.294969 0.173478
O O16 0.364821 0.507287 0.000394
O O17 0.000000 0.000000 0.500000
O O18 0.500000 0.500000 0.500000
#
# Coordination Sequence:
#
# PCOD8040999 Si02
#       8
#     2   2   2   2   2   2   2   2
#     4  11  23  42  68 100 129 167 216 270 324 395
#     4  11  20  42  70  92 129 175 217 264 321 397
#     4  10  18  41  67  91 125 172 215 252 324 394
#     4  11  24  44  66  93 133 175 219 259 332 395
#     4  10  23  43  65  97 126 176 213 268 321 385
#     4  11  24  43  71  97 126 175 219 269 326 393
#     4  10  20  41  71  90 130 174 214 255 332 391
#     4  12  26  39  63 100 133 167 219 277 321 371
#
# _framework density 19.944718999999999
#
# number of rings (size 3 to 8) (size 9 to 14) (size 15 to 20)
#    0.000    1.250    6.250    1.500    3.500    2.000 
#    2.250    0.625    0.000    0.000    0.000    0.000 
#    0.000    0.000    0.000    0.000    0.000    0.000 
#
# Total GULP energy -198401.284704 kJ/mol
# GULP energy per Si atom -12400.080294 kJ/mol
# Density = 1.989932 g / cm^3
# Si number density = 19.944719 Si / 1000 Ang^3
#
#
#
# Elastic Constant Matrix: (Units=GPa)
#
#
# Indices 1 2 3 4 5 6 
#
# 1 171.4855 82.7074 73.4685 3.2657 12.8836 -6.7976
# 2 82.7074 127.9942 51.4475 24.9915 -7.8776 -11.0985
# 3 73.4685 51.4475 63.7503 14.2704 -2.9399 -11.0317
# 4 3.2657 24.9915 14.2704 27.4135 3.3591 7.3709
# 5 12.8836 -7.8776 -2.9399 3.3591 30.2939 -1.1316
# 6 -6.7976 -11.0985 -11.0317 7.3709 -1.1316 42.8769
#
#
#
# Elastic Compliance Matrix: (Units=1/GPa)
#
#
# Indices 1 2 3 4 5 6 
#
# 1 0.023111 -0.011931 -0.025829 0.026886 -0.018837 -0.011189
# 2 -0.011931 0.019500 0.005371 -0.023204 0.013571 0.008885
# 3 -0.025829 0.005371 0.053650 -0.037363 0.022407 0.018113
# 4 0.026886 -0.023204 -0.037363 0.084943 -0.031513 -0.026791
# 5 -0.018837 0.013571 0.022407 -0.031513 0.050706 0.013047
# 6 -0.011189 0.008885 0.018113 -0.026791 0.013047 0.033459
#
#
# Mechanical properties :
#
#
# Convention : Reuss Voigt Hill
#
# Bulk Modulus (GPa) = 31.76449 86.49743 59.13096
# Shear Modulus (GPa) = 14.67815 30.49064 22.58440
#
# Velocity S-wave (km/s) = 2.71577 3.91417 3.36869
# Velocity P-wave (km/s) = 5.07885 7.99315 6.69646
#
# Compressibility (1/GPa) = 0.03148170
#
# Stress axis : x y z
#
# Youngs Moduli (GPa) = 43.26899 51.28146 18.63950
#
# Poissons Ratio (x) = 0.61186 0.48144
# Poissons Ratio (y) = 0.51626 -0.10010
# Poissons Ratio (z) = 1.11759 -0.27541
#
# Static dielectric constant tensor:
#      x y z
#    x 4.020430 -0.001000 -0.082460 
#    y -0.001000 4.661270 0.966700 
#    z -0.082460 0.966700 4.632390 
# 
# 
# High freq. dielectric constant tensor:
#      x y z
#    x 1.791750 -0.002370 0.014460 
#    y -0.002370 1.786940 0.004560 
#    z 0.014460 0.004560 1.757900 
# 
# From -- ./inp_files/225182.got.cif
#   From: 2010.06.25/outbox.cif.g09.slc.cpg/sg2_113_cif.got.tgz:225182.got - 2010.06.27 13:26:56.
