data_PCOD8040021
_publ_section_title
;
Structure prediction by ZEFSAII (Michael W. Deem and Ramdas Pophale) SiO2 
 PCOD8040021
Probable space group: P -1
;
_chemical_formula_sum "Si O2"
_cell_formula_units_Z 14
_cell_length_a 7.681556
_cell_length_b 12.252983
_cell_length_c 7.475013
_cell_angle_alpha 130.642427
_cell_angle_beta 81.777713
_cell_angle_gamma 98.589824
_cell_volume 526.886250
_symmetry_space_group_name_H-M "P -1"
_symmetry_group_IT_number 2
_symmetry_cell_setting 'triclinic'
loop_
_space_group_symop_operation_xyz
x,y,z
-x,-y,-z
loop_
_atom_site_type_symbol
_atom_site_label
_atom_site_fract_x
_atom_site_fract_y
_atom_site_fract_z
Si Si1 0.041219 0.100385 0.434153
Si Si2 0.435699 0.471909 0.178022
Si Si3 0.804524 0.423639 0.153741
Si Si4 0.734699 0.115182 0.987590
Si Si5 0.872413 0.372173 0.676407
Si Si6 0.673553 0.811810 0.266671
Si Si7 0.410714 0.943220 0.677839
O O1 0.889737 0.197592 0.478823
O O2 0.187675 0.217906 0.627334
O O3 0.000000 0.000000 0.500000
O O4 0.122493 0.006101 0.165803
O O5 0.608386 0.475377 0.284198
O O6 0.292941 0.585149 0.377859
O O7 0.500000 0.500000 0.000000
O O8 0.335334 0.312102 0.014083
O O9 0.951972 0.540824 0.335087
O O10 0.826026 0.267230 0.069763
O O11 0.832267 0.416599 0.930588
O O12 0.572353 0.061436 0.826924
O O13 0.671293 0.133856 0.218435
O O14 0.483536 0.822995 0.406344
O O15 0.726940 0.962981 0.312052
#
# Coordination Sequence:
#
# PCOD8040021 Si02
#       7
#     2   2   2   2   2   2   2
#     4  11  21  35  60  89 120 163 201 250 303 360
#     4  10  20  33  61  90 117 158 206 248 300 358
#     4  10  18  35  61  90 119 162 201 251 303 354
#     4  10  19  36  61  89 123 160 200 250 314 349
#     4  10  21  35  58  92 125 157 206 247 293 372
#     4  10  19  35  59  90 115 154 212 252 296 370
#     4   9  20  35  59  90 122 150 207 260 296 364
#
# _framework density 26.571200999999999
#
# number of rings (size 3 to 8) (size 9 to 14) (size 15 to 20)
#    0.000    2.000    2.857    2.571    0.000    0.000 
#    0.000    0.714    3.143    6.857    3.714    1.000 
#    0.000    0.000    0.000    0.000    0.000    0.000 
#
# Total GULP energy -173558.215812 kJ/mol
# GULP energy per Si atom -12397.015415 kJ/mol
# Density = 2.651072 g / cm^3
# Si number density = 26.571201 Si / 1000 Ang^3
#
#
#
# Elastic Constant Matrix: (Units=GPa)
#
#
# Indices 1 2 3 4 5 6 
#
# 1 116.1429 55.3712 44.4825 31.4938 -28.2579 -25.7021
# 2 55.3712 105.9872 43.2596 29.0895 -11.4670 6.0676
# 3 44.4825 43.2596 78.4371 25.9980 -23.7310 -6.2480
# 4 31.4938 29.0895 25.9980 46.7203 -8.9490 -4.7291
# 5 -28.2579 -11.4670 -23.7310 -8.9490 38.5393 15.5482
# 6 -25.7021 6.0676 -6.2480 -4.7291 15.5482 41.7628
#
#
#
# Elastic Compliance Matrix: (Units=1/GPa)
#
#
# Indices 1 2 3 4 5 6 
#
# 1 0.016919 -0.006742 -0.002512 -0.004081 0.004292 0.008957
# 2 -0.006742 0.016267 -0.004743 -0.003871 -0.000979 -0.007296
# 3 -0.002512 -0.004743 0.021318 -0.005617 0.009279 -0.001758
# 4 -0.004081 -0.003871 -0.005617 0.029573 -0.001131 0.000980
# 5 0.004292 -0.000979 0.009279 -0.001131 0.038389 -0.010248
# 6 0.008957 -0.007296 -0.001758 0.000980 -0.010248 0.034180
#
#
# Mechanical properties :
#
#
# Convention : Reuss Voigt Hill
#
# Bulk Modulus (GPa) = 37.72012 65.19932 51.45972
# Shear Modulus (GPa) = 25.84264 35.90141 30.87203
#
# Velocity S-wave (km/s) = 3.12201 3.67977 3.41231
# Velocity P-wave (km/s) = 5.21753 6.53033 5.91049
#
# Compressibility (1/GPa) = 0.02651105
#
# Stress axis : x y z
#
# Youngs Moduli (GPa) = 59.10346 61.47281 46.90764
#
# Poissons Ratio (x) = 0.41447 0.11784
# Poissons Ratio (y) = 0.39849 0.22246
# Poissons Ratio (z) = 0.14848 0.29154
#
# Static dielectric constant tensor:
#      x y z
#    x 4.096610 -1.770430 -3.034570 
#    y -1.770430 2.792740 -2.613180 
#    z -3.034570 -2.613180 -0.374770 
# 
# 
# High freq. dielectric constant tensor:
#      x y z
#    x 2.088910 0.005400 -0.001060 
#    y 0.005400 2.062000 0.027600 
#    z -0.001060 0.027600 2.034310 
# 
# From -- ./inp_files/183026.got.cif
#   From: 2010.06.25/outbox.cif.g09.slc.cpg/sg2_92_cif.got.tgz:183026.got - 2010.06.27 13:26:56.
