data_PCOD8040216
_publ_section_title
;
Structure prediction by ZEFSAII (Michael W. Deem and Ramdas Pophale) SiO2 
 PCOD8040216
Probable space group: P -1
;
_chemical_formula_sum "Si O2"
_cell_formula_units_Z 16
_cell_length_a 15.398214
_cell_length_b 9.750386
_cell_length_c 14.866156
_cell_angle_alpha 79.780755
_cell_angle_beta 143.123398
_cell_angle_gamma 127.910711
_cell_volume 790.729865
_symmetry_space_group_name_H-M "P -1"
_symmetry_group_IT_number 2
_symmetry_cell_setting 'triclinic'
loop_
_space_group_symop_operation_xyz
x,y,z
-x,-y,-z
loop_
_atom_site_type_symbol
_atom_site_label
_atom_site_fract_x
_atom_site_fract_y
_atom_site_fract_z
Si Si1 0.748055 0.704618 0.236974
Si Si2 0.584746 0.920651 0.539125
Si Si3 0.543067 0.236211 0.741768
Si Si4 0.792120 0.776192 0.470554
Si Si5 0.039201 0.426263 0.822882
Si Si6 0.354964 0.796320 0.690636
Si Si7 0.169131 0.522698 0.728070
Si Si8 0.330170 0.617309 0.519859
O O1 0.691200 0.680438 0.297423
O O2 0.893342 0.674113 0.344892
O O3 0.500000 0.500000 0.000000
O O4 0.923491 0.965050 0.320530
O O5 0.427253 0.760337 0.340401
O O6 0.538465 0.771766 0.596952
O O7 0.500000 0.000000 0.500000
O O8 0.861587 0.154330 0.709000
O O9 0.365909 0.227983 0.612398
O O10 0.450784 0.025489 0.738545
O O11 0.809619 0.467361 0.973229
O O12 0.768333 0.613583 0.522759
O O13 0.226009 0.553841 0.878226
O O14 0.888879 0.454120 0.688859
O O15 0.390573 0.762577 0.825813
O O16 0.456826 0.776043 0.697499
O O17 0.068472 0.566082 0.463111
#
# Coordination Sequence:
#
# PCOD8040216 Si02
#       8
#     2   2   2   2   2   2   2   2
#     4  11  22  37  59  86 125 163 192 238 303 360
#     4  10  20  41  63  85 120 158 198 254 299 345
#     4  12  22  39  63  90 117 158 203 250 297 355
#     4  11  24  39  59  90 125 155 197 247 302 353
#     4  10  22  37  64  92 114 157 210 242 295 358
#     4  10  19  35  63  82 115 159 192 242 297 346
#     4  10  18  36  58  84 119 153 193 239 294 352
#     4  10  21  42  60  88 122 157 200 250 298 351
#
# _framework density 20.234470000000002
#
# number of rings (size 3 to 8) (size 9 to 14) (size 15 to 20)
#    0.000    1.500    6.250    0.750    0.000    4.000 
#    0.000    0.625    0.000    0.000    0.000    0.000 
#    0.000    0.000    0.000    0.000    0.000    0.000 
#
# Total GULP energy -198287.391748 kJ/mol
# GULP energy per Si atom -12392.961984 kJ/mol
# Density = 2.018842 g / cm^3
# Si number density = 20.234470 Si / 1000 Ang^3
#
#
#
# Elastic Constant Matrix: (Units=GPa)
#
#
# Indices 1 2 3 4 5 6 
#
# 1 121.5019 46.7480 34.5919 -4.6813 -28.2558 17.6789
# 2 46.7480 145.5384 24.0942 10.2350 -3.7679 20.2068
# 3 34.5919 24.0942 97.3062 5.9732 -17.9286 11.9875
# 4 -4.6813 10.2350 5.9732 12.9252 -2.5023 -2.6029
# 5 -28.2558 -3.7679 -17.9286 -2.5023 25.2837 -2.1984
# 6 17.6789 20.2068 11.9875 -2.6029 -2.1984 40.4020
#
#
#
# Elastic Compliance Matrix: (Units=1/GPa)
#
#
# Indices 1 2 3 4 5 6 
#
# 1 0.015046 -0.004743 -0.001772 0.012706 0.015935 -0.002000
# 2 -0.004743 0.009609 -0.000641 -0.010850 -0.005705 -0.003550
# 3 -0.001772 -0.000641 0.012895 -0.005426 0.006293 -0.002737
# 4 0.012706 -0.010850 -0.005426 0.098586 0.019264 0.008876
# 5 0.015935 -0.005705 0.006293 0.019264 0.062762 -0.001330
# 6 -0.002000 -0.003550 -0.002737 0.008876 -0.001330 0.028713
#
#
# Mechanical properties :
#
#
# Convention : Reuss Voigt Hill
#
# Bulk Modulus (GPa) = 43.03242 63.91274 53.47258
# Shear Modulus (GPa) = 20.02650 32.98303 26.50476
#
# Velocity S-wave (km/s) = 3.14940 4.04176 3.62316
# Velocity P-wave (km/s) = 5.87690 7.30997 6.63226
#
# Compressibility (1/GPa) = 0.02323829
#
# Stress axis : x y z
#
# Youngs Moduli (GPa) = 66.46328 104.07229 77.54749
#
# Poissons Ratio (x) = 0.49359 0.13741
# Poissons Ratio (y) = 0.31522 0.04972
# Poissons Ratio (z) = 0.11777 0.06672
#
# Static dielectric constant tensor:
#      x y z
#    x 4.159460 0.420550 -0.134430 
#    y 0.420550 3.958980 0.099810 
#    z -0.134430 0.099810 3.354760 
# 
# 
# High freq. dielectric constant tensor:
#      x y z
#    x 1.801760 0.010990 -0.017900 
#    y 0.010990 1.788780 0.008060 
#    z -0.017900 0.008060 1.755470 
# 
# From -- ./inp_files/382314.got.cif
#   From: 2010.06.25/outbox.cif.g09.slc.cpg/sg2_192_cif.got.tgz:382314.got - 2010.06.27 13:26:56.
