data_PCOD8040897
_publ_section_title
;
Structure prediction by ZEFSAII (Michael W. Deem and Ramdas Pophale) SiO2 
 PCOD8040897
Probable space group: P -1
;
_chemical_formula_sum "Si O2"
_cell_formula_units_Z 16
_cell_length_a 10.940404
_cell_length_b 9.334103
_cell_length_c 17.345768
_cell_angle_alpha 67.436430
_cell_angle_beta 41.419313
_cell_angle_gamma 100.657420
_cell_volume 685.593603
_symmetry_space_group_name_H-M "P -1"
_symmetry_group_IT_number 2
_symmetry_cell_setting 'triclinic'
loop_
_space_group_symop_operation_xyz
x,y,z
-x,-y,-z
loop_
_atom_site_type_symbol
_atom_site_label
_atom_site_fract_x
_atom_site_fract_y
_atom_site_fract_z
Si Si1 0.313902 0.363361 0.192080
Si Si2 0.419183 0.487551 0.660747
Si Si3 0.322225 0.014460 0.251351
Si Si4 0.334581 0.299698 0.897640
Si Si5 0.174944 0.862468 0.043744
Si Si6 0.342661 0.155558 0.654442
Si Si7 0.839058 0.220243 0.774113
Si Si8 0.817240 0.255265 0.476654
O O1 0.276261 0.158239 0.271726
O O2 0.473801 0.550761 0.148365
O O3 0.000553 0.238833 0.350566
O O4 0.500000 0.500000 0.000000
O O5 0.480108 0.501223 0.720132
O O6 0.450930 0.346945 0.628630
O O7 0.610879 0.746459 0.474975
O O8 0.079261 0.315243 0.861086
O O9 0.096866 0.830424 0.325548
O O10 0.304903 0.889511 0.356683
O O11 0.645633 0.182328 0.032559
O O12 0.368719 0.143704 0.884096
O O13 0.993232 0.112132 0.117134
O O14 0.013067 0.770852 0.224066
O O15 0.553820 0.143030 0.569574
O O16 0.956449 0.468131 0.660863
O O17 0.500000 0.000000 0.000000
#
# Coordination Sequence:
#
# PCOD8040897 Si02
#       8
#     2   2   2   2   2   2   2   2
#     4  12  27  48  66  91 140 186 225 277 344 405
#     4  10  20  39  68 102 142 169 221 282 345 402
#     4  11  23  39  66  99 134 180 225 278 330 407
#     4  11  23  44  71 103 136 181 224 277 343 409
#     4  10  18  39  67  98 134 172 218 274 346 397
#     4  10  22  41  71 108 134 175 222 287 339 404
#     4  10  20  36  65  97 130 173 212 268 340 399
#     4  12  23  44  67 101 135 170 228 285 339 399
#
# _framework density 23.337444999999999
#
# number of rings (size 3 to 8) (size 9 to 14) (size 15 to 20)
#    0.000    1.250    1.250    7.500    0.000    1.000 
#    4.500    3.125    0.000    0.000    0.000    0.000 
#    0.000    0.000    0.000    0.000    0.000    0.000 
#
# Total GULP energy -198280.506144 kJ/mol
# GULP energy per Si atom -12392.531634 kJ/mol
# Density = 2.328433 g / cm^3
# Si number density = 23.337445 Si / 1000 Ang^3
#
#
#
# Elastic Constant Matrix: (Units=GPa)
#
#
# Indices 1 2 3 4 5 6 
#
# 1 103.9593 15.6331 44.7942 13.6096 19.9102 -11.9297
# 2 15.6331 53.8587 26.3825 2.6860 -13.1769 -18.3460
# 3 44.7942 26.3825 91.3331 10.1514 11.4768 -15.3926
# 4 13.6096 2.6860 10.1514 31.5275 -9.7589 3.8760
# 5 19.9102 -13.1769 11.4768 -9.7589 51.2916 13.3284
# 6 -11.9297 -18.3460 -15.3926 3.8760 13.3284 36.8424
#
#
#
# Elastic Compliance Matrix: (Units=1/GPa)
#
#
# Indices 1 2 3 4 5 6 
#
# 1 0.015095 -0.002178 -0.003586 -0.008744 -0.008961 0.006466
# 2 -0.002178 0.026578 -0.006789 0.002525 0.007973 0.006543
# 3 -0.003586 -0.006789 0.017211 -0.006266 -0.006904 0.005806
# 4 -0.008744 0.002525 -0.006266 0.044747 0.017960 -0.015397
# 5 -0.008961 0.007973 -0.006904 0.017960 0.034159 -0.016063
# 6 0.006466 0.006543 0.005806 -0.015397 -0.016063 0.042351
#
#
# Mechanical properties :
#
#
# Convention : Reuss Voigt Hill
#
# Bulk Modulus (GPa) = 29.60539 46.97451 38.28995
# Shear Modulus (GPa) = 23.09380 34.75506 28.92443
#
# Velocity S-wave (km/s) = 3.14914 3.86325 3.52433
# Velocity P-wave (km/s) = 5.09275 6.33022 5.74490
#
# Compressibility (1/GPa) = 0.03377764
#
# Stress axis : x y z
#
# Youngs Moduli (GPa) = 66.24737 37.62461 58.10118
#
# Poissons Ratio (x) = 0.08196 0.20837
# Poissons Ratio (y) = 0.14430 0.39444
# Poissons Ratio (z) = 0.23759 0.25543
#
# Static dielectric constant tensor:
#      x y z
#    x 5.090950 -0.084490 0.205930 
#    y -0.084490 4.384230 0.246650 
#    z 0.205930 0.246650 4.435470 
# 
# 
# High freq. dielectric constant tensor:
#      x y z
#    x 1.944680 -0.011940 0.006400 
#    y -0.011940 1.875770 0.012200 
#    z 0.006400 0.012200 1.938690 
# 
# From -- ./inp_files/565878.got.cif
#   From: 2010.06.25/outbox.cif.g09.slc.cpg/sg2_283_cif.got.tgz:565878.got - 2010.06.27 13:26:56.
