data_PCOD8040731
_publ_section_title
;
Structure prediction by ZEFSAII (Michael W. Deem and Ramdas Pophale) SiO2 
 PCOD8040731
Probable space group: P -1
;
_chemical_formula_sum "Si O2"
_cell_formula_units_Z 16
_cell_length_a 10.609793
_cell_length_b 14.050358
_cell_length_c 19.146498
_cell_angle_alpha 148.818173
_cell_angle_beta 145.296482
_cell_angle_gamma 55.002572
_cell_volume 755.386704
_symmetry_space_group_name_H-M "P -1"
_symmetry_group_IT_number 2
_symmetry_cell_setting 'triclinic'
loop_
_space_group_symop_operation_xyz
x,y,z
-x,-y,-z
loop_
_atom_site_type_symbol
_atom_site_label
_atom_site_fract_x
_atom_site_fract_y
_atom_site_fract_z
Si Si1 0.495734 0.248660 0.214232
Si Si2 0.967356 0.586582 0.612528
Si Si3 0.254739 0.035794 0.837100
Si Si4 0.171182 0.044927 0.502930
Si Si5 0.849403 0.664969 0.205686
Si Si6 0.295094 0.785855 0.114085
Si Si7 0.417804 0.698451 0.970188
Si Si8 0.946052 0.972276 0.040119
O O1 0.683973 0.488844 0.448650
O O2 0.692924 0.154684 0.238263
O O3 0.315071 0.186212 0.025493
O O4 0.334298 0.198634 0.179987
O O5 0.000000 0.500000 0.500000
O O6 0.147054 0.545720 0.723218
O O7 0.044830 0.826846 0.792818
O O8 0.434615 0.141406 0.921197
O O9 0.971569 0.968506 0.643160
O O10 0.134504 0.212269 0.638930
O O11 0.460981 0.115192 0.663707
O O12 0.057460 0.818976 0.345010
O O13 0.875570 0.457249 0.102161
O O14 0.574828 0.580689 0.993669
O O15 0.129752 0.905428 0.123702
O O16 0.390519 0.825767 0.102935
O O17 0.000000 0.000000 0.000000
#
# Coordination Sequence:
#
# PCOD8040731 Si02
#       8
#     2   2   2   2   2   2   2   2
#     4  11  23  38  62  93 125 167 211 256 316 383
#     4  12  23  41  69  96 122 169 213 266 319 371
#     4  10  19  38  62  92 126 155 212 270 314 359
#     4   9  19  35  62  91 124 163 209 270 307 361
#     4   9  20  34  59  96 120 163 213 261 311 368
#     4  11  22  39  60  89 133 166 210 252 320 384
#     4  10  18  38  62  93 126 155 209 272 303 363
#     4  12  26  46  61  92 138 168 206 264 316 384
#
# _framework density 21.181204999999999
#
# number of rings (size 3 to 8) (size 9 to 14) (size 15 to 20)
#    0.000    1.500    3.750    3.000    3.500    1.500 
#    0.000    0.625    0.000    2.250    0.000    0.000 
#    0.000    0.000    0.000    0.000    0.000    0.000 
#
# Total GULP energy -198332.438514 kJ/mol
# GULP energy per Si atom -12395.777407 kJ/mol
# Density = 2.113300 g / cm^3
# Si number density = 21.181205 Si / 1000 Ang^3
#
#
#
# Elastic Constant Matrix: (Units=GPa)
#
#
# Indices 1 2 3 4 5 6 
#
# 1 69.4034 22.6163 35.7242 4.1920 11.7743 2.4675
# 2 22.6163 95.7818 49.1787 -8.8989 -2.8546 -2.5419
# 3 35.7242 49.1787 126.7286 -23.3493 13.5288 1.5922
# 4 4.1920 -8.8989 -23.3493 36.5317 4.7640 -0.1102
# 5 11.7743 -2.8546 13.5288 4.7640 32.8881 -2.8924
# 6 2.4675 -2.5419 1.5922 -0.1102 -2.8924 27.2183
#
#
#
# Elastic Compliance Matrix: (Units=1/GPa)
#
#
# Indices 1 2 3 4 5 6 
#
# 1 0.018887 -0.002707 -0.004742 -0.005280 -0.004473 -0.002184
# 2 -0.002707 0.013924 -0.005193 -0.000202 0.004548 0.002332
# 3 -0.004742 -0.005193 0.013450 0.008610 -0.005657 -0.001408
# 4 -0.005280 -0.000202 0.008610 0.034304 -0.006692 -0.000616
# 5 -0.004473 0.004548 -0.005657 -0.006692 0.036136 0.004974
# 6 -0.002184 0.002332 -0.001408 -0.000616 0.004974 0.037764
#
#
# Mechanical properties :
#
#
# Convention : Reuss Voigt Hill
#
# Bulk Modulus (GPa) = 47.66584 56.32804 51.99694
# Shear Modulus (GPa) = 26.77505 31.62061 29.19783
#
# Velocity S-wave (km/s) = 3.55927 3.86795 3.71681
# Velocity P-wave (km/s) = 6.28044 6.82636 6.55908
#
# Compressibility (1/GPa) = 0.02097939
#
# Stress axis : x y z
#
# Youngs Moduli (GPa) = 52.94716 71.81694 74.34709
#
# Poissons Ratio (x) = 0.19441 0.35252
# Poissons Ratio (y) = 0.14333 0.38605
# Poissons Ratio (z) = 0.25105 0.37291
#
# Static dielectric constant tensor:
#      x y z
#    x 3.490380 0.160540 0.172720 
#    y 0.160540 3.982440 -0.273200 
#    z 0.172720 -0.273200 4.099800 
# 
# 
# High freq. dielectric constant tensor:
#      x y z
#    x 1.800150 0.020260 0.018920 
#    y 0.020260 1.826740 -0.011750 
#    z 0.018920 -0.011750 1.835830 
# 
# From -- ./inp_files/595670.got.cif
#   From: 2010.06.25/outbox.cif.g09.slc.cpg/sg2_298_cif.got.tgz:595670.got - 2010.06.27 13:26:56.
