data_PCOD8040972
_publ_section_title
;
Structure prediction by ZEFSAII (Michael W. Deem and Ramdas Pophale) SiO2 
 PCOD8040972
Probable space group: P -1
;
_chemical_formula_sum "Si O2"
_cell_formula_units_Z 16
_cell_length_a 9.328336
_cell_length_b 9.322697
_cell_length_c 13.691366
_cell_angle_alpha 109.215138
_cell_angle_beta 66.201224
_cell_angle_gamma 135.665263
_cell_volume 759.818128
_symmetry_space_group_name_H-M "P -1"
_symmetry_group_IT_number 2
_symmetry_cell_setting 'triclinic'
loop_
_space_group_symop_operation_xyz
x,y,z
-x,-y,-z
loop_
_atom_site_type_symbol
_atom_site_label
_atom_site_fract_x
_atom_site_fract_y
_atom_site_fract_z
Si Si1 0.693884 0.705719 0.047265
Si Si2 0.707806 0.988361 0.339937
Si Si3 0.280181 0.274386 0.321162
Si Si4 0.108667 0.282857 0.180881
Si Si5 0.413314 0.766159 0.207145
Si Si6 0.859822 0.150451 0.708389
Si Si7 0.257673 0.332870 0.753235
Si Si8 0.951848 0.298174 0.499122
O O1 0.625565 0.837365 0.112698
O O2 0.738580 0.656130 0.127827
O O3 0.500000 0.500000 0.000000
O O4 0.894188 0.809545 0.943217
O O5 0.870472 0.160566 0.252382
O O6 0.737648 0.103842 0.456967
O O7 0.474256 0.841716 0.321927
O O8 0.770627 0.857111 0.319292
O O9 0.225581 0.244484 0.214808
O O10 0.531080 0.461138 0.307411
O O11 0.151132 0.322145 0.421876
O O12 0.221749 0.072699 0.336004
O O13 0.229224 0.521212 0.199438
O O14 0.330397 0.866292 0.201282
O O15 0.056382 0.293981 0.760343
O O16 0.922023 0.267859 0.615513
O O17 0.000000 0.500000 0.500000
#
# Coordination Sequence:
#
# PCOD8040972 Si02
#       8
#     2   2   2   2   2   2   2   2
#     4   9  18  38  70  91 119 169 215 248 301 374
#     4  10  21  40  66  90 118 165 217 251 304 372
#     4  11  22  41  63  91 128 162 203 264 307 366
#     4  10  18  40  69  90 123 162 215 258 297 366
#     4  10  22  39  63  92 125 161 207 262 296 371
#     4  12  25  42  59  94 134 159 204 264 316 363
#     4  11  22  39  66  91 130 166 205 250 322 358
#     4  11  25  43  67  92 123 164 212 258 306 374
#
# _framework density 21.057672
#
# number of rings (size 3 to 8) (size 9 to 14) (size 15 to 20)
#    0.000    1.500    6.250    1.875    0.000    5.000 
#    0.000    3.125    0.000    0.000    0.000    0.000 
#    0.000    0.000    0.000    0.000    0.000    0.000 
#
# Total GULP energy -198316.919335 kJ/mol
# GULP energy per Si atom -12394.807458 kJ/mol
# Density = 2.100974 g / cm^3
# Si number density = 21.057672 Si / 1000 Ang^3
#
#
#
# Elastic Constant Matrix: (Units=GPa)
#
#
# Indices 1 2 3 4 5 6 
#
# 1 134.7867 29.0812 36.1927 14.7727 -1.7143 -11.3394
# 2 29.0812 81.5234 24.0303 7.3210 0.4919 -16.3955
# 3 36.1927 24.0303 93.9477 11.0972 11.5185 -7.1081
# 4 14.7727 7.3210 11.0972 33.3185 6.5732 3.1478
# 5 -1.7143 0.4919 11.5185 6.5732 26.1768 4.4704
# 6 -11.3394 -16.3955 -7.1081 3.1478 4.4704 35.0272
#
#
#
# Elastic Compliance Matrix: (Units=1/GPa)
#
#
# Indices 1 2 3 4 5 6 
#
# 1 0.009094 -0.001825 -0.002832 -0.003313 0.002452 0.001500
# 2 -0.001825 0.015081 -0.002440 -0.002313 0.000200 0.006156
# 3 -0.002832 -0.002440 0.013394 -0.001656 -0.005884 0.001559
# 4 -0.003313 -0.002313 -0.001656 0.034421 -0.007294 -0.004654
# 5 0.002452 0.000200 -0.005884 -0.007294 0.043671 -0.005225
# 6 0.001500 0.006156 0.001559 -0.004654 -0.005225 0.033317
#
#
# Mechanical properties :
#
#
# Convention : Reuss Voigt Hill
#
# Bulk Modulus (GPa) = 42.78104 54.31847 48.54976
# Shear Modulus (GPa) = 29.24575 33.63473 31.44024
#
# Velocity S-wave (km/s) = 3.73076 4.00092 3.86820
# Velocity P-wave (km/s) = 6.23845 6.86981 6.56173
#
# Compressibility (1/GPa) = 0.02337484
#
# Stress axis : x y z
#
# Youngs Moduli (GPa) = 109.96428 66.30822 74.65770
#
# Poissons Ratio (x) = 0.12099 0.21146
# Poissons Ratio (y) = 0.20065 0.18218
# Poissons Ratio (z) = 0.31146 0.16180
#
# Static dielectric constant tensor:
#      x y z
#    x 3.815650 0.197090 -0.093640 
#    y 0.197090 3.971610 0.033170 
#    z -0.093640 0.033170 4.225790 
# 
# 
# High freq. dielectric constant tensor:
#      x y z
#    x 1.816020 0.016180 -0.002790 
#    y 0.016180 1.827650 0.012160 
#    z -0.002790 0.012160 1.820880 
# 
# From -- ./inp_files/201091.got.cif
#   From: 2010.06.25/outbox.cif.g09.slc.cpg/sg2_101_cif.got.tgz:201091.got - 2010.06.27 13:26:56.
