data_PCOD8040587
_publ_section_title
;
Structure prediction by ZEFSAII (Michael W. Deem and Ramdas Pophale) SiO2 
 PCOD8040587
Probable space group: P -1
;
_chemical_formula_sum "Si O2"
_cell_formula_units_Z 16
_cell_length_a 8.648035
_cell_length_b 11.684706
_cell_length_c 12.132397
_cell_angle_alpha 131.886716
_cell_angle_beta 116.274382
_cell_angle_gamma 86.217881
_cell_volume 768.475498
_symmetry_space_group_name_H-M "P -1"
_symmetry_group_IT_number 2
_symmetry_cell_setting 'triclinic'
loop_
_space_group_symop_operation_xyz
x,y,z
-x,-y,-z
loop_
_atom_site_type_symbol
_atom_site_label
_atom_site_fract_x
_atom_site_fract_y
_atom_site_fract_z
Si Si1 0.109016 0.375159 0.125042
Si Si2 0.430713 0.490247 0.136280
Si Si3 0.708589 0.983267 0.943083
Si Si4 0.892904 0.770872 0.744999
Si Si5 0.428841 0.153422 0.956966
Si Si6 0.888346 0.608000 0.187223
Si Si7 0.797943 0.738527 0.454827
Si Si8 0.031025 0.105127 0.762101
O O1 0.298229 0.472530 0.187636
O O2 0.132434 0.367301 0.258751
O O3 0.971249 0.466382 0.107050
O O4 0.032352 0.186372 0.935791
O O5 0.519359 0.346761 0.082451
O O6 0.584181 0.668633 0.308104
O O7 0.321390 0.468488 0.971971
O O8 0.762753 0.876775 0.798788
O O9 0.600775 0.869055 0.935385
O O10 0.569395 0.067144 0.901096
O O11 0.894109 0.119899 0.133595
O O12 0.827169 0.681876 0.550444
O O13 0.228129 0.081664 0.788571
O O14 0.904188 0.661497 0.353736
O O15 0.999043 0.769613 0.255987
O O16 0.865884 0.934743 0.592762
#
# Coordination Sequence:
#
# PCOD8040587 Si02
#       8
#     2   2   2   2   2   2   2   2
#     4  10  21  44  66  90 120 177 202 246 316 378
#     4  10  22  43  63  89 126 164 210 256 313 364
#     4  10  18  37  63  91 121 170 204 245 304 385
#     4  11  21  37  62  94 134 154 201 255 314 370
#     4   9  18  37  65  88 118 168 211 240 305 375
#     4  10  23  43  69  83 123 173 213 246 310 372
#     4  12  24  39  61  98 128 161 201 269 308 357
#     4  10  19  43  69  89 122 160 216 260 303 359
#
# _framework density 20.820442
#
# number of rings (size 3 to 8) (size 9 to 14) (size 15 to 20)
#    0.000    2.000    3.750    3.000    1.750    1.000 
#    2.250    2.500    2.750    0.000    0.000    0.000 
#    0.000    0.000    0.000    0.000    0.000    0.000 
#
# Total GULP energy -198361.408603 kJ/mol
# GULP energy per Si atom -12397.588038 kJ/mol
# Density = 2.077305 g / cm^3
# Si number density = 20.820442 Si / 1000 Ang^3
#
#
#
# Elastic Constant Matrix: (Units=GPa)
#
#
# Indices 1 2 3 4 5 6 
#
# 1 78.3171 57.4513 36.5415 7.7084 0.3565 -17.1804
# 2 57.4513 99.8174 54.0172 -2.7428 3.1411 -28.4433
# 3 36.5415 54.0172 114.4551 1.2175 7.7532 11.4659
# 4 7.7084 -2.7428 1.2175 35.2083 20.1159 -1.0552
# 5 0.3565 3.1411 7.7532 20.1159 24.7494 -3.1014
# 6 -17.1804 -28.4433 11.4659 -1.0552 -3.1014 33.5759
#
#
#
# Elastic Compliance Matrix: (Units=1/GPa)
#
#
# Indices 1 2 3 4 5 6 
#
# 1 0.026311 -0.012417 -0.003955 -0.015312 0.015539 0.005249
# 2 -0.012417 0.032125 -0.013625 0.008253 -0.003145 0.025483
# 3 -0.003955 -0.013625 0.019195 0.004533 -0.010537 -0.020952
# 4 -0.015312 0.008253 0.004533 0.063010 -0.054139 -0.005412
# 5 0.015539 -0.003145 -0.010537 -0.054139 0.089824 0.015481
# 6 0.005249 0.025483 -0.020952 -0.005412 0.015481 0.062471
#
#
# Mechanical properties :
#
#
# Convention : Reuss Voigt Hill
#
# Bulk Modulus (GPa) = 56.70200 65.40106 61.05153
# Shear Modulus (GPa) = 13.93497 28.34535 21.14016
#
# Velocity S-wave (km/s) = 2.58988 3.69374 3.18992
# Velocity P-wave (km/s) = 6.01965 7.04782 6.55393
#
# Compressibility (1/GPa) = 0.01763606
#
# Stress axis : x y z
#
# Youngs Moduli (GPa) = 38.00733 31.12802 52.09812
#
# Poissons Ratio (x) = 0.38652 0.20607
# Poissons Ratio (y) = 0.47194 0.70983
# Poissons Ratio (z) = 0.15033 0.42411
#
# Static dielectric constant tensor:
#      x y z
#    x 3.804250 0.032220 -0.070000 
#    y 0.032220 3.849890 -0.062660 
#    z -0.070000 -0.062660 3.524850 
# 
# 
# High freq. dielectric constant tensor:
#      x y z
#    x 1.814920 0.009990 -0.005910 
#    y 0.009990 1.823310 -0.005380 
#    z -0.005910 -0.005380 1.784720 
# 
# From -- ./inp_files/189412.got.cif
#   From: 2010.06.25/outbox.cif.g09.slc.cpg/sg2_95_cif.got.tgz:189412.got - 2010.06.27 13:26:56.
