data_PCOD8040387
_publ_section_title
;
Structure prediction by ZEFSAII (Michael W. Deem and Ramdas Pophale) SiO2 
 PCOD8040387
Probable space group: P -1
;
_chemical_formula_sum "Si O2"
_cell_formula_units_Z 14
_cell_length_a 8.691325
_cell_length_b 8.727859
_cell_length_c 11.539379
_cell_angle_alpha 95.728982
_cell_angle_beta 116.412254
_cell_angle_gamma 62.862725
_cell_volume 691.807232
_symmetry_space_group_name_H-M "P -1"
_symmetry_group_IT_number 2
_symmetry_cell_setting 'triclinic'
loop_
_space_group_symop_operation_xyz
x,y,z
-x,-y,-z
loop_
_atom_site_type_symbol
_atom_site_label
_atom_site_fract_x
_atom_site_fract_y
_atom_site_fract_z
Si Si1 0.314814 0.473950 0.411013
Si Si2 0.639558 0.323307 0.970139
Si Si3 0.075100 0.183091 0.681015
Si Si4 0.156026 0.803849 0.745321
Si Si5 0.597577 0.593577 0.820565
Si Si6 0.124132 0.310706 0.478556
Si Si7 0.372345 0.196669 0.944766
O O1 0.500000 0.500000 0.500000
O O2 0.318861 0.406016 0.277109
O O3 0.302333 0.322965 0.473648
O O4 0.140845 0.664266 0.390687
O O5 0.693397 0.387049 0.873397
O O6 0.503283 0.232678 0.896639
O O7 0.500000 0.500000 0.000000
O O8 0.819689 0.207085 0.106683
O O9 0.188450 0.174415 0.597270
O O10 0.170700 0.233684 0.823577
O O11 0.075923 0.000638 0.689327
O O12 0.363044 0.684370 0.745444
O O13 0.002567 0.735882 0.657832
O O14 0.668976 0.693490 0.942431
O O15 0.000000 0.500000 0.500000
O O16 0.500000 0.000000 0.000000
#
# Coordination Sequence:
#
# PCOD8040387 Si02
#       7
#     2   2   2   2   2   2   2
#     4  11  26  43  57  88 126 162 204 252 306 352
#     4   8  18  31  61  87 119 148 194 240 295 357
#     4  11  22  39  65  89 121 160 203 253 293 369
#     4  10  19  41  62  92 114 157 210 247 295 360
#     4  10  21  38  64  88 128 156 196 255 300 357
#     4  10  23  37  64  84 114 165 210 243 293 366
#     4  10  18  36  63  97 117 151 203 250 302 354
#
# _framework density 20.236848999999999
#
# number of rings (size 3 to 8) (size 9 to 14) (size 15 to 20)
#    0.000    2.286    2.857    2.143   14.000    0.571 
#    0.000    5.000    0.000    0.000    0.000    0.000 
#    0.000    0.000    0.000    0.000    0.000    0.000 
#
# Total GULP energy -173446.801512 kJ/mol
# GULP energy per Si atom -12389.057251 kJ/mol
# Density = 2.019079 g / cm^3
# Si number density = 20.236849 Si / 1000 Ang^3
#
#
#
# Elastic Constant Matrix: (Units=GPa)
#
#
# Indices 1 2 3 4 5 6 
#
# 1 115.7856 43.6443 58.4863 2.5911 -1.2523 24.0249
# 2 43.6443 93.1120 33.0092 -13.6754 -2.0364 29.3716
# 3 58.4863 33.0092 99.0367 -0.3625 4.9004 11.8907
# 4 2.5911 -13.6754 -0.3625 32.7724 4.9133 3.7430
# 5 -1.2523 -2.0364 4.9004 4.9133 43.8247 6.2802
# 6 24.0249 29.3716 11.8907 3.7430 6.2802 28.1157
#
#
#
# Elastic Compliance Matrix: (Units=1/GPa)
#
#
# Indices 1 2 3 4 5 6 
#
# 1 0.014716 -0.002126 -0.007190 -0.001618 0.002401 -0.007634
# 2 -0.002126 0.021294 -0.003418 0.010964 0.003111 -0.021137
# 3 -0.007190 -0.003418 0.015127 -0.000765 -0.002541 0.003987
# 4 -0.001618 0.010964 -0.000765 0.037078 -0.001554 -0.014336
# 5 0.002401 0.003111 -0.002541 -0.001554 0.024862 -0.009573
# 6 -0.007634 -0.021137 0.003987 -0.014336 -0.009573 0.066533
#
#
# Mechanical properties :
#
#
# Convention : Reuss Voigt Hill
#
# Bulk Modulus (GPa) = 38.95744 64.24600 51.60172
# Shear Modulus (GPa) = 23.40448 32.46217 27.93333
#
# Velocity S-wave (km/s) = 3.40447 4.00948 3.71930
# Velocity P-wave (km/s) = 5.89461 7.29730 6.63313
#
# Compressibility (1/GPa) = 0.02566904
#
# Stress axis : x y z
#
# Youngs Moduli (GPa) = 67.95226 46.96208 66.10713
#
# Poissons Ratio (x) = 0.09984 0.47533
# Poissons Ratio (y) = 0.14446 0.22594
# Poissons Ratio (z) = 0.48859 0.16051
#
# Static dielectric constant tensor:
#      x y z
#    x 4.357150 0.784600 -1.080330 
#    y 0.784600 3.880820 -0.719750 
#    z -1.080330 -0.719750 4.922260 
# 
# 
# High freq. dielectric constant tensor:
#      x y z
#    x 1.772970 0.037470 -0.001420 
#    y 0.037470 1.778080 -0.007090 
#    z -0.001420 -0.007090 1.801030 
# 
# From -- ./inp_files/347512.got.cif
#   From: 2010.06.25/outbox.cif.g09.slc.cpg/sg2_174_cif.got.tgz:347512.got - 2010.06.27 13:26:56.
