data_PCOD8040725
_publ_section_title
;
Structure prediction by ZEFSAII (Michael W. Deem and Ramdas Pophale) SiO2 
 PCOD8040725
Probable space group: P -1
;
_chemical_formula_sum "Si O2"
_cell_formula_units_Z 16
_cell_length_a 11.141344
_cell_length_b 8.886197
_cell_length_c 9.332924
_cell_angle_alpha 104.747190
_cell_angle_beta 80.396164
_cell_angle_gamma 124.123257
_cell_volume 739.385119
_symmetry_space_group_name_H-M "P -1"
_symmetry_group_IT_number 2
_symmetry_cell_setting 'triclinic'
loop_
_space_group_symop_operation_xyz
x,y,z
-x,-y,-z
loop_
_atom_site_type_symbol
_atom_site_label
_atom_site_fract_x
_atom_site_fract_y
_atom_site_fract_z
Si Si1 0.899901 0.505679 0.852147
Si Si2 0.848705 0.819104 0.442717
Si Si3 0.189346 0.783534 0.975447
Si Si4 0.770910 0.654656 0.131767
Si Si5 0.564121 0.255044 0.178023
Si Si6 0.533946 0.699418 0.501827
Si Si7 0.262168 0.446337 0.342991
Si Si8 0.702978 0.819930 0.938675
O O1 0.837748 0.497577 0.705501
O O2 0.074358 0.627058 0.848644
O O3 0.835415 0.300561 0.878708
O O4 0.861521 0.617760 0.994554
O O5 0.878911 0.789898 0.266056
O O6 0.706338 0.835292 0.466453
O O7 0.813797 0.649429 0.513993
O O8 0.000000 0.000000 0.500000
O O9 0.343610 0.834612 0.894888
O O10 0.172911 0.959586 0.028443
O O11 0.650502 0.475579 0.197434
O O12 0.692181 0.737133 0.078129
O O13 0.501216 0.205012 0.339600
O O14 0.438761 0.177060 0.065600
O O15 0.500000 0.500000 0.500000
O O16 0.418536 0.642717 0.380144
O O17 0.273728 0.292371 0.216294
#
# Coordination Sequence:
#
# PCOD8040725 Si02
#       8
#     2   2   2   2   2   2   2   2
#     4   9  22  41  61  86 120 161 207 242 298 361
#     4  11  22  34  58  98 124 145 188 265 312 337
#     4  10  23  38  58  86 129 160 194 248 305 358
#     4  10  21  35  63  93 115 154 206 253 292 352
#     4  11  19  39  61  88 120 167 197 241 301 366
#     4  10  18  38  62  87 121 155 202 246 297 356
#     4  10  20  39  69  88 115 161 206 251 296 352
#     4  11  21  35  63  92 119 149 205 256 295 344
#
# _framework density 21.639603999999999
#
# number of rings (size 3 to 8) (size 9 to 14) (size 15 to 20)
#    0.000    1.750    5.000    0.750    3.500    3.000 
#    0.000    0.625    2.750    1.500    0.000    0.000 
#    0.000    0.000    0.000    0.000    0.000    0.000 
#
# Total GULP energy -198260.976708 kJ/mol
# GULP energy per Si atom -12391.311044 kJ/mol
# Density = 2.159035 g / cm^3
# Si number density = 21.639604 Si / 1000 Ang^3
#
#
#
# Elastic Constant Matrix: (Units=GPa)
#
#
# Indices 1 2 3 4 5 6 
#
# 1 76.2080 23.7314 27.3309 -7.3951 23.2346 4.2683
# 2 23.7314 72.0527 24.3342 10.5336 4.3766 5.8969
# 3 27.3309 24.3342 101.4990 0.6599 26.6850 -3.3675
# 4 -7.3951 10.5336 0.6599 19.4412 3.3335 3.5537
# 5 23.2346 4.3766 26.6850 3.3335 37.6057 0.2544
# 6 4.2683 5.8969 -3.3675 3.5537 0.2544 34.2527
#
#
#
# Elastic Compliance Matrix: (Units=1/GPa)
#
#
# Indices 1 2 3 4 5 6 
#
# 1 0.021580 -0.008138 -0.000545 0.015445 -0.013349 -0.002845
# 2 -0.008138 0.019871 -0.004403 -0.014688 0.007151 -0.001369
# 3 -0.000545 -0.004403 0.013458 0.002910 -0.008971 0.001914
# 4 0.015445 -0.014688 0.002910 0.069036 -0.015976 -0.006154
# 5 -0.013349 0.007151 -0.008971 -0.015976 0.041783 0.000898
# 6 -0.002845 -0.001369 0.001914 -0.006154 0.000898 0.030605
#
#
# Mechanical properties :
#
#
# Convention : Reuss Voigt Hill
#
# Bulk Modulus (GPa) = 34.79772 44.50587 39.65179
# Shear Modulus (GPa) = 21.54408 29.88413 25.71410
#
# Velocity S-wave (km/s) = 3.15871 3.72020 3.45090
# Velocity P-wave (km/s) = 5.42391 6.25018 5.85164
#
# Compressibility (1/GPa) = 0.02873751
#
# Stress axis : x y z
#
# Youngs Moduli (GPa) = 46.34027 50.32493 74.30597
#
# Poissons Ratio (x) = 0.40953 0.04050
# Poissons Ratio (y) = 0.37710 0.32714
# Poissons Ratio (z) = 0.02526 0.22156
#
# Static dielectric constant tensor:
#      x y z
#    x 4.370370 0.287700 0.447090 
#    y 0.287700 3.857760 0.131670 
#    z 0.447090 0.131670 4.018750 
# 
# 
# High freq. dielectric constant tensor:
#      x y z
#    x 1.853090 0.018160 0.016050 
#    y 0.018160 1.824520 0.007570 
#    z 0.016050 0.007570 1.841790 
# 
# From -- ./inp_files/244521.got.cif
#   From: 2010.06.25/outbox.cif.g09.slc.cpg/sg2_123_cif.got.tgz:244521.got - 2010.06.27 13:26:56.
