data_PCOD8040369
_publ_section_title
;
Structure prediction by ZEFSAII (Michael W. Deem and Ramdas Pophale) SiO2 
 PCOD8040369
Probable space group: P -1
;
_chemical_formula_sum "Si O2"
_cell_formula_units_Z 16
_cell_length_a 11.086803
_cell_length_b 14.237319
_cell_length_c 11.156398
_cell_angle_alpha 39.485648
_cell_angle_beta 57.117570
_cell_angle_gamma 42.981828
_cell_volume 762.479294
_symmetry_space_group_name_H-M "P -1"
_symmetry_group_IT_number 2
_symmetry_cell_setting 'triclinic'
loop_
_space_group_symop_operation_xyz
x,y,z
-x,-y,-z
loop_
_atom_site_type_symbol
_atom_site_label
_atom_site_fract_x
_atom_site_fract_y
_atom_site_fract_z
Si Si1 0.000165 0.414862 0.457427
Si Si2 0.693144 0.890059 0.557888
Si Si3 0.635891 0.001447 0.747971
Si Si4 0.313495 0.237870 0.841639
Si Si5 0.931507 0.005197 0.344552
Si Si6 0.119386 0.845654 0.182422
Si Si7 0.216249 0.759134 0.608480
Si Si8 0.507422 0.608231 0.278545
O O1 0.862984 0.574026 0.285962
O O2 0.936057 0.290026 0.644816
O O3 0.000000 0.500000 0.500000
O O4 0.184144 0.302990 0.390959
O O5 0.776680 0.999450 0.375903
O O6 0.500000 0.000000 0.500000
O O7 0.676297 0.886005 0.716615
O O8 0.425162 0.122289 0.776733
O O9 0.693772 0.137321 0.573057
O O10 0.737809 0.866190 0.939480
O O11 0.441778 0.263187 0.827767
O O12 0.074055 0.965307 0.208584
O O13 0.038508 0.841368 0.545816
O O14 0.845482 0.201077 0.258653
O O15 0.331292 0.726146 0.175151
O O16 0.000000 0.000000 0.000000
O O17 0.344533 0.543580 0.741093
O O18 0.500000 0.500000 0.500000
#
# Coordination Sequence:
#
# PCOD8040369 Si02
#       8
#     2   2   2   2   2   2   2   2
#     4  11  23  40  59  84 117 156 196 242 299 348
#     4  10  21  37  57  80 119 158 191 235 297 354
#     4  10  21  36  59  89 117 149 193 239 288 348
#     4  11  22  37  61  90 118 151 199 245 288 348
#     4   9  19  35  59  84 111 151 196 237 287 349
#     4  11  23  39  60  87 118 154 195 241 292 350
#     4  10  18  36  63  86 111 151 196 239 288 343
#     4  12  19  37  63  88 116 151 198 238 289 340
#
# _framework density 20.984175
#
# number of rings (size 3 to 8) (size 9 to 14) (size 15 to 20)
#    0.000    1.500    3.750    1.500    0.000    6.500 
#    0.000    1.875    0.000    0.000    0.000    0.000 
#    0.000    0.000    0.000    0.000    0.000    0.000 
#
# Total GULP energy -198214.325238 kJ/mol
# GULP energy per Si atom -12388.395327 kJ/mol
# Density = 2.093641 g / cm^3
# Si number density = 20.984175 Si / 1000 Ang^3
#
#
#
# Elastic Constant Matrix: (Units=GPa)
#
#
# Indices 1 2 3 4 5 6 
#
# 1 94.5155 44.4654 13.3343 -9.3951 20.0432 -6.4696
# 2 44.4654 186.4070 21.3195 -10.1231 16.3315 13.9572
# 3 13.3343 21.3195 61.8086 -15.7790 13.9617 0.8448
# 4 -9.3951 -10.1231 -15.7790 27.8244 -9.0412 13.0711
# 5 20.0432 16.3315 13.9617 -9.0412 24.8776 -5.7027
# 6 -6.4696 13.9572 0.8448 13.0711 -5.7027 39.3291
#
#
#
# Elastic Compliance Matrix: (Units=1/GPa)
#
#
# Indices 1 2 3 4 5 6 
#
# 1 0.013873 -0.002670 -0.000128 -0.000216 -0.008971 0.002003
# 2 -0.002670 0.006655 -0.000642 0.002347 -0.001885 -0.003841
# 3 -0.000128 -0.000642 0.021377 0.011597 -0.008481 -0.005337
# 4 -0.000216 0.002347 0.011597 0.054279 0.007716 -0.018039
# 5 -0.008971 -0.001885 -0.008481 0.007716 0.057403 0.005134
# 6 0.002003 -0.003841 -0.005337 -0.018039 0.005134 0.033973
#
#
# Mechanical properties :
#
#
# Convention : Reuss Voigt Hill
#
# Bulk Modulus (GPa) = 28.55096 55.66327 42.10711
# Shear Modulus (GPa) = 24.25823 35.98034 30.11929
#
# Velocity S-wave (km/s) = 3.40373 4.14532 3.79269
# Velocity P-wave (km/s) = 5.39283 7.03530 6.26809
#
# Compressibility (1/GPa) = 0.03502509
#
# Stress axis : x y z
#
# Youngs Moduli (GPa) = 72.08381 150.25921 46.77837
#
# Poissons Ratio (x) = 0.40124 0.00598
# Poissons Ratio (y) = 0.19249 0.03003
# Poissons Ratio (z) = 0.00921 0.09647
#
# Static dielectric constant tensor:
#      x y z
#    x 3.718870 0.200710 0.098610 
#    y 0.200710 4.776660 0.354930 
#    z 0.098610 0.354930 3.825210 
# 
# 
# High freq. dielectric constant tensor:
#      x y z
#    x 1.820270 0.003610 0.002970 
#    y 0.003610 1.851930 -0.000680 
#    z 0.002970 -0.000680 1.782540 
# 
# From -- ./inp_files/433714.got.cif
#   From: 2010.06.25/outbox.cif.g09.slc.cpg/sg2_217_cif.got.tgz:433714.got - 2010.06.27 13:26:56.
