data_PCOD8040521
_publ_section_title
;
Structure prediction by ZEFSAII (Michael W. Deem and Ramdas Pophale) SiO2 
 PCOD8040521
Probable space group: P -1
;
_chemical_formula_sum "Si O2"
_cell_formula_units_Z 16
_cell_length_a 11.408155
_cell_length_b 16.987484
_cell_length_c 8.716871
_cell_angle_alpha 131.267290
_cell_angle_beta 104.352677
_cell_angle_gamma 113.439679
_cell_volume 783.669586
_symmetry_space_group_name_H-M "P -1"
_symmetry_group_IT_number 2
_symmetry_cell_setting 'triclinic'
loop_
_space_group_symop_operation_xyz
x,y,z
-x,-y,-z
loop_
_atom_site_type_symbol
_atom_site_label
_atom_site_fract_x
_atom_site_fract_y
_atom_site_fract_z
Si Si1 0.675377 0.300888 0.828967
Si Si2 0.561195 0.155299 0.273985
Si Si3 0.939530 0.503202 0.818905
Si Si4 0.415503 0.251987 0.881229
Si Si5 0.299035 0.159455 0.059277
Si Si6 0.119508 0.166356 0.460390
Si Si7 0.216738 0.429267 0.968386
Si Si8 0.398761 0.409952 0.604261
O O1 0.586699 0.178803 0.497840
O O2 0.520432 0.218342 0.804570
O O3 0.757210 0.468166 0.023081
O O4 0.863117 0.366680 0.046876
O O5 0.762991 0.315182 0.459660
O O6 0.408169 0.141140 0.162656
O O7 0.500000 0.000000 0.000000
O O8 0.859224 0.568247 0.895814
O O9 0.000000 0.500000 0.000000
O O10 0.257279 0.181153 0.617519
O O11 0.310053 0.145387 0.864028
O O12 0.570227 0.445223 0.224077
O O13 0.383876 0.332060 0.343061
O O14 0.083333 0.021867 0.872655
O O15 0.070683 0.240907 0.632698
O O16 0.212364 0.260959 0.451360
O O17 0.418798 0.508614 0.141853
#
# Coordination Sequence:
#
# PCOD8040521 Si02
#       8
#     2   2   2   2   2   2   2   2
#     4  10  18  37  61  80 108 151 200 229 272 346
#     4  10  21  36  58  84 115 146 192 241 284 330
#     4   8  17  31  58  81 104 135 203 234 268 319
#     4  11  22  39  57  85 121 154 190 230 288 350
#     4  12  24  35  55  91 124 147 180 249 302 323
#     4  11  21  34  61  82 117 152 198 224 284 346
#     4   9  15  33  58  82  98 145 202 233 254 334
#     4  11  19  38  60  83 112 154 195 239 272 340
#
# _framework density 20.416767
#
# number of rings (size 3 to 8) (size 9 to 14) (size 15 to 20)
#    0.000    2.000    5.000    1.875    5.250    0.000 
#    0.000    1.250    0.000    0.000    0.000    0.000 
#    0.000    0.000    0.000    0.000    0.000    0.000 
#
# Total GULP energy -198221.907369 kJ/mol
# GULP energy per Si atom -12388.869211 kJ/mol
# Density = 2.037030 g / cm^3
# Si number density = 20.416767 Si / 1000 Ang^3
#
#
#
# Elastic Constant Matrix: (Units=GPa)
#
#
# Indices 1 2 3 4 5 6 
#
# 1 112.4134 14.9984 47.1000 5.8031 -4.7246 22.0556
# 2 14.9984 41.6752 7.2421 0.5104 7.7586 18.3847
# 3 47.1000 7.2421 98.1295 5.2258 -2.7962 4.8222
# 4 5.8031 0.5104 5.2258 13.5945 2.6530 -2.0024
# 5 -4.7246 7.7586 -2.7962 2.6530 37.5208 6.7986
# 6 22.0556 18.3847 4.8222 -2.0024 6.7986 21.2074
#
#
#
# Elastic Compliance Matrix: (Units=1/GPa)
#
#
# Indices 1 2 3 4 5 6 
#
# 1 0.015665 0.003614 -0.006187 -0.008443 0.005064 -0.020438
# 2 0.003614 0.040433 -0.002412 -0.007756 -0.000500 -0.038834
# 3 -0.006187 -0.002412 0.013144 -0.001481 -0.000185 0.005456
# 4 -0.008443 -0.007756 -0.001481 0.084053 -0.010427 0.027120
# 5 0.005064 -0.000500 -0.000185 -0.010427 0.030962 -0.015701
# 6 -0.020438 -0.038834 0.005456 0.027120 -0.015701 0.108428
#
#
# Mechanical properties :
#
#
# Convention : Reuss Voigt Hill
#
# Bulk Modulus (GPa) = 16.87131 43.43323 30.15227
# Shear Modulus (GPa) = 15.50823 26.65638 21.08231
#
# Velocity S-wave (km/s) = 2.75904 3.61725 3.21689
# Velocity P-wave (km/s) = 4.29315 6.22619 5.34774
#
# Compressibility (1/GPa) = 0.05927221
#
# Stress axis : x y z
#
# Youngs Moduli (GPa) = 63.83855 24.73252 76.08163
#
# Poissons Ratio (x) = -0.08939 0.47072
# Poissons Ratio (y) = -0.23074 0.18349
# Poissons Ratio (z) = 0.39498 0.05965
#
# Static dielectric constant tensor:
#      x y z
#    x 4.969940 0.371910 -0.011320 
#    y 0.371910 3.219880 0.079510 
#    z -0.011320 0.079510 3.840310 
# 
# 
# High freq. dielectric constant tensor:
#      x y z
#    x 1.813940 0.016070 0.000810 
#    y 0.016070 1.742570 0.005530 
#    z 0.000810 0.005530 1.798210 
# 
# From -- ./inp_files/278418.got.cif
#   From: 2010.06.25/outbox.cif.g09.slc.cpg/sg2_140_cif.got.tgz:278418.got - 2010.06.27 13:26:56.
