data_PCOD8040711
_publ_section_title
;
Structure prediction by ZEFSAII (Michael W. Deem and Ramdas Pophale) SiO2 
 PCOD8040711
Probable space group: P -1
;
_chemical_formula_sum "Si O2"
_cell_formula_units_Z 16
_cell_length_a 16.874050
_cell_length_b 19.082846
_cell_length_c 11.782275
_cell_angle_alpha 34.520368
_cell_angle_beta 131.348279
_cell_angle_gamma 157.537428
_cell_volume 727.078276
_symmetry_space_group_name_H-M "P -1"
_symmetry_group_IT_number 2
_symmetry_cell_setting 'triclinic'
loop_
_space_group_symop_operation_xyz
x,y,z
-x,-y,-z
loop_
_atom_site_type_symbol
_atom_site_label
_atom_site_fract_x
_atom_site_fract_y
_atom_site_fract_z
Si Si1 0.447744 0.114338 0.879797
Si Si2 0.395538 0.315165 0.480470
Si Si3 0.889133 0.198059 0.836917
Si Si4 0.139420 0.097930 0.754031
Si Si5 0.693476 0.066227 0.365214
Si Si6 0.313882 0.232035 0.256180
Si Si7 0.154456 0.637522 0.100764
Si Si8 0.688733 0.202882 0.508280
O O1 0.434821 0.208468 0.648356
O O2 0.714545 0.350159 0.832742
O O3 0.354273 0.072348 0.964191
O O4 0.281607 0.822572 0.085431
O O5 0.190428 0.131910 0.621914
O O6 0.631849 0.625869 0.329941
O O7 0.336978 0.298157 0.321072
O O8 0.812419 0.199320 0.653473
O O9 0.097675 0.478319 0.734573
O O10 0.961843 0.132093 0.972043
O O11 0.947075 0.003255 0.714494
O O12 0.886950 0.320120 0.300854
O O13 0.648430 0.873811 0.590269
O O14 0.453135 0.891666 0.389825
O O15 0.817933 0.227115 0.148912
O O16 0.500000 0.500000 0.000000
O O17 0.500000 0.000000 0.500000
#
# Coordination Sequence:
#
# PCOD8040711 Si02
#       8
#     2   2   2   2   2   2   2   2
#     4  10  18  38  61  91 117 158 203 260 313 359
#     4  10  22  42  66  91 123 168 219 263 310 371
#     4  10  22  39  62  87 121 161 209 250 303 370
#     4  10  23  43  64  92 123 170 218 261 308 368
#     4  11  22  39  58  95 121 158 204 251 311 374
#     4  12  25  42  63  93 134 170 210 259 317 383
#     4  10  20  34  63  90 122 149 197 260 316 358
#     4  11  23  41  61  90 127 162 201 252 314 377
#
# _framework density 22.005882
#
# number of rings (size 3 to 8) (size 9 to 14) (size 15 to 20)
#    0.000    1.500    2.500    2.625    0.000    2.500 
#    0.000    0.000    0.000    0.000    0.000    0.000 
#    0.000    0.000    0.000    0.000    0.000    0.000 
#
# Total GULP energy -198305.825801 kJ/mol
# GULP energy per Si atom -12394.114113 kJ/mol
# Density = 2.195580 g / cm^3
# Si number density = 22.005882 Si / 1000 Ang^3
#
#
#
# Elastic Constant Matrix: (Units=GPa)
#
#
# Indices 1 2 3 4 5 6 
#
# 1 47.7431 17.4253 27.0361 1.3888 15.0869 6.3597
# 2 17.4253 98.0837 28.9027 0.6303 7.2206 2.4175
# 3 27.0361 28.9027 102.4581 -5.7914 6.3842 1.9417
# 4 1.3888 0.6303 -5.7914 29.8435 -0.3692 -0.5225
# 5 15.0869 7.2206 6.3842 -0.3692 23.7849 -0.3731
# 6 6.3597 2.4175 1.9417 -0.5225 -0.3731 37.9926
#
#
#
# Elastic Compliance Matrix: (Units=1/GPa)
#
#
# Indices 1 2 3 4 5 6 
#
# 1 0.032042 -0.002226 -0.006786 -0.003072 -0.017955 -0.005094
# 2 -0.002226 0.011468 -0.002594 -0.000663 -0.001387 -0.000247
# 3 -0.006786 -0.002594 0.012312 0.002795 0.001842 0.000728
# 4 -0.003072 -0.000663 0.002795 0.034247 0.001946 0.000904
# 5 -0.017955 -0.001387 0.001842 0.001946 0.053445 0.003551
# 6 -0.005094 -0.000247 0.000728 0.000904 0.003551 0.027199
#
#
# Mechanical properties :
#
#
# Convention : Reuss Voigt Hill
#
# Bulk Modulus (GPa) = 30.66465 43.89033 37.27749
# Shear Modulus (GPa) = 24.41467 29.98559 27.20013
#
# Velocity S-wave (km/s) = 3.33447 3.69537 3.51955
# Velocity P-wave (km/s) = 5.36563 6.18027 5.78730
#
# Compressibility (1/GPa) = 0.03261084
#
# Stress axis : x y z
#
# Youngs Moduli (GPa) = 31.20889 87.20153 81.22289
#
# Poissons Ratio (x) = 0.19410 0.55114
# Poissons Ratio (y) = 0.06947 0.21069
# Poissons Ratio (z) = 0.21177 0.22620
#
# Static dielectric constant tensor:
#      x y z
#    x 3.955870 0.189430 0.150140 
#    y 0.189430 3.971980 -0.044280 
#    z 0.150140 -0.044280 3.944520 
# 
# 
# High freq. dielectric constant tensor:
#      x y z
#    x 1.853030 0.012300 0.009590 
#    y 0.012300 1.869590 -0.005660 
#    z 0.009590 -0.005660 1.865680 
# 
# From -- ./inp_files/348354.got.cif
#   From: 2010.06.25/outbox.cif.g09.slc.cpg/sg2_175_cif.got.tgz:348354.got - 2010.06.27 13:26:56.
