data_PCOD8040816
_publ_section_title
;
Structure prediction by ZEFSAII (Michael W. Deem and Ramdas Pophale) SiO2 
 PCOD8040816
Probable space group: P -1
;
_chemical_formula_sum "Si O2"
_cell_formula_units_Z 16
_cell_length_a 9.942058
_cell_length_b 20.834570
_cell_length_c 18.248008
_cell_angle_alpha 159.023946
_cell_angle_beta 36.826123
_cell_angle_gamma 144.140377
_cell_volume 775.240504
_symmetry_space_group_name_H-M "P -1"
_symmetry_group_IT_number 2
_symmetry_cell_setting 'triclinic'
loop_
_space_group_symop_operation_xyz
x,y,z
-x,-y,-z
loop_
_atom_site_type_symbol
_atom_site_label
_atom_site_fract_x
_atom_site_fract_y
_atom_site_fract_z
Si Si1 0.919716 0.629736 0.873995
Si Si2 0.006360 0.995946 0.313996
Si Si3 0.195273 0.611109 0.589162
Si Si4 0.762998 0.883381 0.442275
Si Si5 0.419675 0.545936 0.936540
Si Si6 0.975508 0.391747 0.734208
Si Si7 0.452443 0.615918 0.832252
Si Si8 0.520902 0.980839 0.780307
O O1 0.650060 0.544791 0.879258
O O2 0.972352 0.506496 0.784866
O O3 0.090613 0.618518 0.722095
O O4 0.971940 0.846000 0.104463
O O5 0.783004 0.931130 0.397966
O O6 0.014672 0.193866 0.485097
O O7 0.247586 0.015499 0.271739
O O8 0.394876 0.507894 0.400029
O O9 0.299976 0.822359 0.739465
O O10 0.000000 0.500000 0.500000
O O11 0.737424 0.666084 0.233855
O O12 0.552418 0.936073 0.632573
O O13 0.000000 0.000000 0.500000
O O14 0.492168 0.645634 0.933456
O O15 0.268302 0.651735 0.161577
O O16 0.180507 0.512987 0.826254
O O17 0.531313 0.820276 0.978050
#
# Coordination Sequence:
#
# PCOD8040816 Si02
#       8
#     2   2   2   2   2   2   2   2
#     4  12  27  46  66 100 145 180 223 283 343 399
#     4  11  23  43  67 105 138 173 226 280 343 409
#     4  12  26  49  69  95 140 182 232 281 333 405
#     4  10  18  38  69  98 136 172 217 280 332 398
#     4  12  23  45  71 101 146 175 219 292 342 402
#     4  12  24  44  73 104 134 179 227 277 351 403
#     4  12  23  45  75 102 129 184 233 273 339 408
#     4  11  22  43  71 102 134 177 230 283 331 401
#
# _framework density 20.638755
#
# number of rings (size 3 to 8) (size 9 to 14) (size 15 to 20)
#    0.000    0.500    6.250    3.000    0.000    3.000 
#    4.500    0.000    0.000    0.000    0.000    0.000 
#    0.000    0.000    0.000    0.000    0.000    0.000 
#
# Total GULP energy -198466.742699 kJ/mol
# GULP energy per Si atom -12404.171419 kJ/mol
# Density = 2.059178 g / cm^3
# Si number density = 20.638755 Si / 1000 Ang^3
#
#
#
# Elastic Constant Matrix: (Units=GPa)
#
#
# Indices 1 2 3 4 5 6 
#
# 1 81.3809 29.6821 38.4147 -0.8091 3.2133 -0.0233
# 2 29.6821 96.8616 55.6256 -1.1458 1.7000 3.1603
# 3 38.4147 55.6256 135.8309 15.1561 -2.4490 -19.0991
# 4 -0.8091 -1.1458 15.1561 49.2041 -12.9905 2.6075
# 5 3.2133 1.7000 -2.4490 -12.9905 35.0034 -2.4491
# 6 -0.0233 3.1603 -19.0991 2.6075 -2.4491 19.5859
#
#
#
# Elastic Compliance Matrix: (Units=1/GPa)
#
#
# Indices 1 2 3 4 5 6 
#
# 1 0.015069 -0.002053 -0.004166 0.001339 -0.001362 -0.004062
# 2 -0.002053 0.015787 -0.007731 0.003088 -0.000714 -0.010589
# 3 -0.004166 -0.007731 0.014618 -0.005371 0.000930 0.016329
# 4 0.001339 0.003088 -0.005371 0.024586 0.007915 -0.008018
# 5 -0.001362 -0.000714 0.000930 0.007915 0.032009 0.003969
# 6 -0.004062 -0.010589 0.016329 -0.008018 0.003969 0.070248
#
#
# Mechanical properties :
#
#
# Convention : Reuss Voigt Hill
#
# Bulk Modulus (GPa) = 56.89966 62.39093 59.64530
# Shear Modulus (GPa) = 24.26285 33.44876 28.85580
#
# Velocity S-wave (km/s) = 3.43242 4.03013 3.74322
# Velocity P-wave (km/s) = 6.58315 7.20774 6.90251
#
# Compressibility (1/GPa) = 0.01757480
#
# Stress axis : x y z
#
# Youngs Moduli (GPa) = 66.36058 63.34148 68.40669
#
# Poissons Ratio (x) = 0.13004 0.28499
# Poissons Ratio (y) = 0.13624 0.52885
# Poissons Ratio (z) = 0.27647 0.48970
#
# Static dielectric constant tensor:
#      x y z
#    x 3.703900 -0.082750 0.033960 
#    y -0.082750 3.939310 -0.035390 
#    z 0.033960 -0.035390 4.038880 
# 
# 
# High freq. dielectric constant tensor:
#      x y z
#    x 1.798850 -0.002510 0.001910 
#    y -0.002510 1.810380 0.006430 
#    z 0.001910 0.006430 1.819430 
# 
# From -- ./inp_files/226201.got.cif
#   From: 2010.06.25/outbox.cif.g09.slc.cpg/sg2_114_cif.got.tgz:226201.got - 2010.06.27 13:26:56.
