data_PCOD8040645
_publ_section_title
;
Structure prediction by ZEFSAII (Michael W. Deem and Ramdas Pophale) SiO2 
 PCOD8040645
Probable space group: P -1
;
_chemical_formula_sum "Si O2"
_cell_formula_units_Z 16
_cell_length_a 7.377906
_cell_length_b 15.001827
_cell_length_c 7.632582
_cell_angle_alpha 90.332235
_cell_angle_beta 93.485322
_cell_angle_gamma 120.330580
_cell_volume 727.158252
_symmetry_space_group_name_H-M "P -1"
_symmetry_group_IT_number 2
_symmetry_cell_setting 'triclinic'
loop_
_space_group_symop_operation_xyz
x,y,z
-x,-y,-z
loop_
_atom_site_type_symbol
_atom_site_label
_atom_site_fract_x
_atom_site_fract_y
_atom_site_fract_z
Si Si1 0.502338 0.181223 0.240183
Si Si2 0.205970 0.317446 0.367629
Si Si3 0.231490 0.016902 0.493886
Si Si4 0.997704 0.193423 0.671121
Si Si5 0.862938 0.822668 0.956440
Si Si6 0.667832 0.402151 0.380343
Si Si7 0.988213 0.383691 0.601938
Si Si8 0.311807 0.947717 0.852332
O O1 0.392314 0.125528 0.415545
O O2 0.312944 0.144725 0.086813
O O3 0.617321 0.304595 0.255594
O O4 0.683579 0.155228 0.205702
O O5 0.171682 0.273605 0.167988
O O6 0.452410 0.398293 0.416522
O O7 0.078656 0.375363 0.413102
O O8 0.336091 0.016749 0.685438
O O9 0.204233 0.921691 0.367353
O O10 0.132293 0.220975 0.498448
O O11 0.000000 0.000000 0.500000
O O12 0.927599 0.279260 0.705165
O O13 0.148126 0.203210 0.839976
O O14 0.093989 0.918861 0.931839
O O15 0.825678 0.511677 0.294631
O O16 0.784321 0.394541 0.562522
O O17 0.500000 0.000000 0.000000
#
# Coordination Sequence:
#
# PCOD8040645 Si02
#       8
#     2   2   2   2   2   2   2   2
#     4  11  24  39  64  90 127 165 217 250 318 374
#     4   9  19  39  61  88 120 160 205 245 317 365
#     4  12  22  42  65  89 131 167 208 258 315 372
#     4  10  22  39  65  88 125 166 205 254 313 367
#     4  11  22  43  60  91 129 165 202 270 304 370
#     4  10  18  37  67  88 118 166 204 258 316 366
#     4   9  20  37  64  92 120 157 212 256 311 373
#     4  12  25  40  61  94 126 171 212 258 311 371
#
# _framework density 22.003464999999998
#
# number of rings (size 3 to 8) (size 9 to 14) (size 15 to 20)
#    0.750    0.750    2.500    3.750    1.750    2.000 
#    2.250    2.500    0.000    2.250    0.000    0.000 
#    0.000    0.000    0.000    0.000    0.000    0.000 
#
# Total GULP energy -198232.882158 kJ/mol
# GULP energy per Si atom -12389.555135 kJ/mol
# Density = 2.195338 g / cm^3
# Si number density = 22.003465 Si / 1000 Ang^3
#
#
#
# Elastic Constant Matrix: (Units=GPa)
#
#
# Indices 1 2 3 4 5 6 
#
# 1 50.5302 -12.1151 5.9427 -1.9409 18.9705 1.8618
# 2 -12.1151 81.0835 20.5520 3.0359 5.3971 1.8556
# 3 5.9427 20.5520 106.8215 -9.2685 22.0836 3.7118
# 4 -1.9409 3.0359 -9.2685 24.0645 -4.2142 11.8873
# 5 18.9705 5.3971 22.0836 -4.2142 31.0515 3.6157
# 6 1.8618 1.8556 3.7118 11.8873 3.6157 29.0614
#
#
#
# Elastic Compliance Matrix: (Units=1/GPa)
#
#
# Indices 1 2 3 4 5 6 
#
# 1 0.028011 0.005194 0.001243 -0.001674 -0.019219 0.000791
# 2 0.005194 0.014137 -0.002428 -0.003653 -0.004531 0.001133
# 3 0.001243 -0.002428 0.011885 0.004811 -0.007854 -0.002433
# 4 -0.001674 -0.003653 0.004811 0.057636 0.008965 -0.024965
# 5 -0.019219 -0.004531 -0.007854 0.008965 0.052429 -0.007666
# 6 0.000791 0.001133 -0.002433 -0.024965 -0.007666 0.045763
#
#
# Mechanical properties :
#
#
# Convention : Reuss Voigt Hill
#
# Bulk Modulus (GPa) = 16.11591 29.68829 22.90210
# Shear Modulus (GPa) = 22.46915 31.77251 27.12083
#
# Velocity S-wave (km/s) = 3.19903 3.80409 3.51461
# Velocity P-wave (km/s) = 4.58097 5.72858 5.18661
#
# Compressibility (1/GPa) = 0.06205049
#
# Stress axis : x y z
#
# Youngs Moduli (GPa) = 35.69987 70.73623 84.13936
#
# Poissons Ratio (x) = -0.36741 -0.10458
# Poissons Ratio (y) = -0.18543 0.20433
# Poissons Ratio (z) = -0.04437 0.17178
#
# Static dielectric constant tensor:
#      x y z
#    x 4.180850 -0.089630 0.223990 
#    y -0.089630 4.071900 0.140500 
#    z 0.223990 0.140500 3.709490 
# 
# 
# High freq. dielectric constant tensor:
#      x y z
#    x 1.868350 -0.009770 0.025830 
#    y -0.009770 1.865460 0.015030 
#    z 0.025830 0.015030 1.834040 
# 
# From -- ./inp_files/193450.got.cif
#   From: 2010.06.25/outbox.cif.g09.slc.cpg/sg2_97_cif.got.tgz:193450.got - 2010.06.27 13:26:56.
