data_PCOD8040170
_publ_section_title
;
Structure prediction by ZEFSAII (Michael W. Deem and Ramdas Pophale) SiO2 
 PCOD8040170
Probable space group: P -1
;
_chemical_formula_sum "Si O2"
_cell_formula_units_Z 16
_cell_length_a 14.434628
_cell_length_b 14.846351
_cell_length_c 11.270665
_cell_angle_alpha 115.554740
_cell_angle_beta 94.880715
_cell_angle_gamma 142.213080
_cell_volume 850.870530
_symmetry_space_group_name_H-M "P -1"
_symmetry_group_IT_number 2
_symmetry_cell_setting 'triclinic'
loop_
_space_group_symop_operation_xyz
x,y,z
-x,-y,-z
loop_
_atom_site_type_symbol
_atom_site_label
_atom_site_fract_x
_atom_site_fract_y
_atom_site_fract_z
Si Si1 0.575429 0.714318 0.031853
Si Si2 0.410684 0.575730 0.386890
Si Si3 0.008574 0.064399 0.160013
Si Si4 0.656508 0.714397 0.291902
Si Si5 0.117228 0.666153 0.220444
Si Si6 0.257305 0.553756 0.992942
Si Si7 0.074834 0.953584 0.281993
Si Si8 0.374164 0.743916 0.367441
O O1 0.675183 0.797039 0.221994
O O2 0.373862 0.432366 0.823217
O O3 0.456500 0.706879 0.012233
O O4 0.785290 0.917388 0.073347
O O5 0.246079 0.366121 0.352282
O O6 0.429336 0.525609 0.240839
O O7 0.675749 0.846528 0.624611
O O8 0.301191 0.574628 0.337493
O O9 0.003379 0.979766 0.215757
O O10 0.000000 0.000000 0.000000
O O11 0.895754 0.974752 0.539795
O O12 0.178308 0.639103 0.308212
O O13 0.919679 0.554081 0.169901
O O14 0.366499 0.967689 0.393855
O O15 0.000000 0.500000 0.000000
O O16 0.378899 0.731226 0.217657
O O17 0.120908 0.324905 0.906119
#
# Coordination Sequence:
#
# PCOD8040170 Si02
#       8
#     2   2   2   2   2   2   2   2
#     4  11  21  33  53  79 116 157 192 233 283 320
#     4  10  19  35  54  78 115 151 186 231 276 328
#     4  12  22  35  50  77 119 163 194 226 268 335
#     4   9  19  35  51  79 107 154 196 237 269 321
#     4   9  19  33  59  85 109 136 175 245 294 340
#     4  11  19  33  55  85 113 145 187 240 285 326
#     4  10  20  35  55  79 115 154 197 229 276 328
#     4  10  18  36  55  86 112 136 187 234 295 333
#
# _framework density 18.804269999999999
#
# number of rings (size 3 to 8) (size 9 to 14) (size 15 to 20)
#    0.750    1.000    3.750    2.625    0.000    2.000 
#    0.000    0.000    0.000    0.750    0.000    7.875 
#    0.000    0.000    0.000    0.000    0.000    0.000 
#
# Total GULP energy -198222.283418 kJ/mol
# GULP energy per Si atom -12388.892714 kJ/mol
# Density = 1.876147 g / cm^3
# Si number density = 18.804270 Si / 1000 Ang^3
#
#
#
# Elastic Constant Matrix: (Units=GPa)
#
#
# Indices 1 2 3 4 5 6 
#
# 1 131.3047 34.2177 25.5883 -2.7953 19.1482 0.7510
# 2 34.2177 48.5091 17.1460 5.5907 2.2321 15.4554
# 3 25.5883 17.1460 97.1951 2.6627 -0.1685 4.8283
# 4 -2.7953 5.5907 2.6627 14.1055 -0.7050 2.8919
# 5 19.1482 2.2321 -0.1685 -0.7050 27.9822 4.5296
# 6 0.7510 15.4554 4.8283 2.8919 4.5296 26.7966
#
#
#
# Elastic Compliance Matrix: (Units=1/GPa)
#
#
# Indices 1 2 3 4 5 6 
#
# 1 0.011856 -0.010016 -0.001833 0.004889 -0.008278 0.006646
# 2 -0.010016 0.035851 -0.002376 -0.011317 0.006918 -0.019917
# 3 -0.001833 -0.002376 0.011266 -0.001317 0.001598 -0.000736
# 4 0.004889 -0.011317 -0.001317 0.076919 -0.000249 -0.001632
# 5 -0.008278 0.006918 0.001598 -0.000249 0.042671 -0.011232
# 6 0.006646 -0.019917 -0.000736 -0.001632 -0.011232 0.050827
#
#
# Mechanical properties :
#
#
# Convention : Reuss Voigt Hill
#
# Bulk Modulus (GPa) = 32.76157 47.87922 40.32039
# Shear Modulus (GPa) = 18.65571 27.11398 22.88485
#
# Velocity S-wave (km/s) = 3.15318 3.80136 3.49234
# Velocity P-wave (km/s) = 5.54229 6.69211 6.14415
#
# Compressibility (1/GPa) = 0.03052357
#
# Stress axis : x y z
#
# Youngs Moduli (GPa) = 84.34291 27.89326 88.76455
#
# Poissons Ratio (x) = 0.27937 0.16271
# Poissons Ratio (y) = 0.84474 0.21092
# Poissons Ratio (z) = 0.15460 0.06628
#
# Static dielectric constant tensor:
#      x y z
#    x 3.938510 0.129900 0.107970 
#    y 0.129900 3.723380 -0.142590 
#    z 0.107970 -0.142590 3.646770 
# 
# 
# High freq. dielectric constant tensor:
#      x y z
#    x 1.739330 -0.001100 0.011180 
#    y -0.001100 1.672080 0.012380 
#    z 0.011180 0.012380 1.741490 
# 
# From -- ./inp_files/453943.got.cif
#   From: 2010.06.25/outbox.cif.g09.slc.cpg/sg2_227_cif.got.tgz:453943.got - 2010.06.27 13:26:56.
