data_PCOD8040516
_publ_section_title
;
Structure prediction by ZEFSAII (Michael W. Deem and Ramdas Pophale) SiO2 
 PCOD8040516
Probable space group: P -1
;
_chemical_formula_sum "Si O2"
_cell_formula_units_Z 14
_cell_length_a 9.848455
_cell_length_b 16.991714
_cell_length_c 8.170195
_cell_angle_alpha 64.778188
_cell_angle_beta 45.061014
_cell_angle_gamma 45.775460
_cell_volume 687.543231
_symmetry_space_group_name_H-M "P -1"
_symmetry_group_IT_number 2
_symmetry_cell_setting 'triclinic'
loop_
_space_group_symop_operation_xyz
x,y,z
-x,-y,-z
loop_
_atom_site_type_symbol
_atom_site_label
_atom_site_fract_x
_atom_site_fract_y
_atom_site_fract_z
Si Si1 0.655984 0.407408 0.640106
Si Si2 0.536929 0.805016 0.855586
Si Si3 0.817392 0.173378 0.117845
Si Si4 0.948695 0.040562 0.691318
Si Si5 0.739823 0.608612 0.072612
Si Si6 0.926323 0.819045 0.389658
Si Si7 0.425927 0.641863 0.576125
O O1 0.406973 0.423753 0.876644
O O2 0.873906 0.313677 0.651966
O O3 0.608663 0.522454 0.616598
O O4 0.725556 0.372314 0.418290
O O5 0.410094 0.778650 0.852309
O O6 0.660301 0.852654 0.618037
O O7 0.334263 0.894888 0.077733
O O8 0.744484 0.693555 0.879815
O O9 0.753567 0.261795 0.230834
O O10 0.049306 0.145755 0.843167
O O11 0.886615 0.062125 0.235851
O O12 0.019265 0.122062 0.574362
O O13 0.000000 0.000000 0.500000
O O14 0.587306 0.669191 0.317705
O O15 0.000000 0.500000 0.000000
#
# Coordination Sequence:
#
# PCOD8040516 Si02
#       7
#     2   2   2   2   2   2   2
#     4   9  18  38  60  87 117 162 198 249 296 340
#     4  11  23  39  61  91 123 158 198 242 301 359
#     4  11  22  41  60  87 125 158 194 248 301 354
#     4  11  23  43  67  87 116 156 200 255 295 348
#     4  10  18  37  60  89 120 158 203 244 295 347
#     4  11  22  40  61  88 123 157 198 240 303 359
#     4   9  19  36  60  84 118 157 203 243 297 343
#
# _framework density 20.362355000000001
#
# number of rings (size 3 to 8) (size 9 to 14) (size 15 to 20)
#    0.857    0.857    2.857    4.286    0.000    3.429 
#    2.571    2.857    0.000    0.000    0.000    0.000 
#    0.000    0.000    0.000    0.000    0.000    0.000 
#
# Total GULP energy -173503.676481 kJ/mol
# GULP energy per Si atom -12393.119749 kJ/mol
# Density = 2.031601 g / cm^3
# Si number density = 20.362355 Si / 1000 Ang^3
#
#
#
# Elastic Constant Matrix: (Units=GPa)
#
#
# Indices 1 2 3 4 5 6 
#
# 1 41.7823 19.2518 42.0204 3.1415 -4.8318 -6.1866
# 2 19.2518 104.6012 25.0547 -10.3811 3.2228 -10.9123
# 3 42.0204 25.0547 132.0269 -6.7357 -7.5677 12.4075
# 4 3.1415 -10.3811 -6.7357 34.3006 0.6359 0.4972
# 5 -4.8318 3.2228 -7.5677 0.6359 28.1930 -4.0771
# 6 -6.1866 -10.9123 12.4075 0.4972 -4.0771 31.0862
#
#
#
# Elastic Compliance Matrix: (Units=1/GPa)
#
#
# Indices 1 2 3 4 5 6 
#
# 1 0.043999 -0.004166 -0.014607 -0.008480 0.006325 0.014089
# 2 -0.004166 0.011336 -0.001058 0.003593 -0.001903 0.003266
# 3 -0.014607 -0.001058 0.013429 0.003783 -0.000123 -0.008715
# 4 -0.008480 0.003593 0.003783 0.031836 -0.001957 -0.002703
# 5 0.006325 -0.001903 -0.000123 -0.001957 0.037592 0.005602
# 6 0.014089 0.003266 -0.008715 -0.002703 0.005602 0.040375
#
#
# Mechanical properties :
#
#
# Convention : Reuss Voigt Hill
#
# Bulk Modulus (GPa) = 34.36226 50.11825 42.24025
# Shear Modulus (GPa) = 21.93653 31.52153 26.72903
#
# Velocity S-wave (km/s) = 3.28580 3.93877 3.62701
# Velocity P-wave (km/s) = 5.59529 6.73438 6.19109
#
# Compressibility (1/GPa) = 0.02910170
#
# Stress axis : x y z
#
# Youngs Moduli (GPa) = 22.72798 88.21377 74.46574
#
# Poissons Ratio (x) = 0.36748 1.08773
# Poissons Ratio (y) = 0.09468 0.07879
# Poissons Ratio (z) = 0.33199 0.09333
#
# Static dielectric constant tensor:
#      x y z
#    x 3.239630 -0.094460 0.029240 
#    y -0.094460 3.783140 -0.233110 
#    z 0.029240 -0.233110 3.760840 
# 
# 
# High freq. dielectric constant tensor:
#      x y z
#    x 1.755920 -0.012670 0.002680 
#    y -0.012670 1.807880 -0.015610 
#    z 0.002680 -0.015610 1.792060 
# 
# From -- ./inp_files/275216.got.cif
#   From: 2010.06.25/outbox.cif.g09.slc.cpg/sg2_138_cif.got.tgz:275216.got - 2010.06.27 13:26:56.
