data_PCOD8040274
_publ_section_title
;
Structure prediction by ZEFSAII (Michael W. Deem and Ramdas Pophale) SiO2 
 PCOD8040274
Probable space group: P -1
;
_chemical_formula_sum "Si O2"
_cell_formula_units_Z 16
_cell_length_a 12.142346
_cell_length_b 17.781335
_cell_length_c 23.941337
_cell_angle_alpha 28.953098
_cell_angle_beta 20.611271
_cell_angle_gamma 39.677807
_cell_volume 843.124167
_symmetry_space_group_name_H-M "P -1"
_symmetry_group_IT_number 2
_symmetry_cell_setting 'triclinic'
loop_
_space_group_symop_operation_xyz
x,y,z
-x,-y,-z
loop_
_atom_site_type_symbol
_atom_site_label
_atom_site_fract_x
_atom_site_fract_y
_atom_site_fract_z
Si Si1 0.188125 0.879421 0.468158
Si Si2 0.183147 0.507234 0.825986
Si Si3 0.497741 0.337886 0.054741
Si Si4 0.615617 0.134060 0.031209
Si Si5 0.666056 0.359320 0.081863
Si Si6 0.185411 0.282911 0.069416
Si Si7 0.667021 0.832945 0.367115
Si Si8 0.566586 0.995358 0.536675
O O1 0.442255 0.871397 0.400751
O O2 0.893130 0.713703 0.709038
O O3 0.376170 0.950219 0.274884
O O4 0.000000 0.000000 0.500000
O O5 0.534223 0.639122 0.566484
O O6 0.926925 0.595623 0.915018
O O7 0.244800 0.366044 0.926934
O O8 0.023841 0.421164 0.900496
O O9 0.620464 0.223151 0.029962
O O10 0.717050 0.341987 0.002833
O O11 0.551291 0.516027 0.886721
O O12 0.506704 0.241970 0.965749
O O13 0.965510 0.119034 0.859448
O O14 0.458751 0.188562 0.316708
O O15 0.927858 0.107111 0.304193
O O16 0.669076 0.934242 0.357551
O O17 0.500000 0.000000 0.500000
#
# Coordination Sequence:
#
# PCOD8040274 Si02
#       8
#     2   2   2   2   2   2   2   2
#     4  10  18  36  60  85 111 148 197 236 272 337
#     4  10  19  37  60  81 113 150 201 236 270 340
#     4  10  20  34  62  87 112 150 191 242 283 335
#     4  11  21  37  59  87 120 149 192 234 294 343
#     4  11  19  35  60  87 114 140 196 243 281 327
#     4  10  20  37  60  84 109 154 197 237 278 337
#     4  11  23  37  58  88 117 153 189 237 291 345
#     4  11  21  36  61  85 110 150 197 238 281 336
#
# _framework density 18.977039000000001
#
# number of rings (size 3 to 8) (size 9 to 14) (size 15 to 20)
#    0.000    1.500    3.750    4.875    0.000    0.500 
#    0.000    1.250    8.250    0.000    0.000    0.000 
#    0.000    0.000    0.000    0.000    0.000    0.000 
#
# Total GULP energy -198286.033556 kJ/mol
# GULP energy per Si atom -12392.877097 kJ/mol
# Density = 1.893385 g / cm^3
# Si number density = 18.977039 Si / 1000 Ang^3
#
#
#
# Elastic Constant Matrix: (Units=GPa)
#
#
# Indices 1 2 3 4 5 6 
#
# 1 139.6564 42.4757 42.2653 -0.3899 0.9613 -6.4099
# 2 42.4757 65.0957 54.9718 -7.5769 5.4683 -5.3171
# 3 42.2653 54.9718 113.8353 -2.6386 11.4432 -5.7440
# 4 -0.3899 -7.5769 -2.6386 39.5007 -6.1560 2.7635
# 5 0.9613 5.4683 11.4432 -6.1560 28.4973 -9.0252
# 6 -6.4099 -5.3171 -5.7440 2.7635 -9.0252 26.5714
#
#
#
# Elastic Compliance Matrix: (Units=1/GPa)
#
#
# Indices 1 2 3 4 5 6 
#
# 1 0.009092 -0.005246 -0.000923 -0.000872 0.001356 0.001495
# 2 -0.005246 0.029869 -0.012375 0.004885 0.001069 0.001891
# 3 -0.000923 -0.012375 0.015471 -0.001996 -0.004446 -0.000657
# 4 -0.000872 0.004885 -0.001996 0.027016 0.005542 -0.000591
# 5 0.001356 0.001069 -0.004446 0.005542 0.042028 0.013279
# 6 0.001495 0.001891 -0.000657 -0.000591 0.013279 0.042803
#
#
# Mechanical properties :
#
#
# Convention : Reuss Voigt Hill
#
# Bulk Modulus (GPa) = 57.66015 66.44588 62.05301
# Shear Modulus (GPa) = 23.90634 30.83887 27.37260
#
# Velocity S-wave (km/s) = 3.55315 4.03558 3.80202
# Velocity P-wave (km/s) = 6.87628 7.53687 7.21414
#
# Compressibility (1/GPa) = 0.01734300
#
# Stress axis : x y z
#
# Youngs Moduli (GPa) = 109.98209 33.47986 64.63777
#
# Poissons Ratio (x) = 0.17564 0.05969
# Poissons Ratio (y) = 0.57699 0.79987
# Poissons Ratio (z) = 0.10157 0.41430
#
# Static dielectric constant tensor:
#      x y z
#    x 3.616740 -0.073550 0.108200 
#    y -0.073550 3.326970 -0.453740 
#    z 0.108200 -0.453740 3.980960 
# 
# 
# High freq. dielectric constant tensor:
#      x y z
#    x 1.751880 -0.014540 0.002180 
#    y -0.014540 1.713200 -0.037210 
#    z 0.002180 -0.037210 1.729010 
# 
# From -- ./inp_files/195761.got.cif
#   From: 2010.06.25/outbox.cif.g09.slc.cpg/sg2_98_cif.got.tgz:195761.got - 2010.06.27 13:26:56.
