data_PCOD8040077
_publ_section_title
;
Structure prediction by ZEFSAII (Michael W. Deem and Ramdas Pophale) SiO2 
 PCOD8040077
Probable space group: P -1
;
_chemical_formula_sum "Si O2"
_cell_formula_units_Z 16
_cell_length_a 11.375874
_cell_length_b 11.978648
_cell_length_c 9.256143
_cell_angle_alpha 77.064931
_cell_angle_beta 127.858479
_cell_angle_gamma 123.229547
_cell_volume 820.837267
_symmetry_space_group_name_H-M "P -1"
_symmetry_group_IT_number 2
_symmetry_cell_setting 'triclinic'
loop_
_space_group_symop_operation_xyz
x,y,z
-x,-y,-z
loop_
_atom_site_type_symbol
_atom_site_label
_atom_site_fract_x
_atom_site_fract_y
_atom_site_fract_z
Si Si1 0.755263 0.297028 0.362198
Si Si2 0.126334 0.404231 0.704267
Si Si3 0.691734 0.066840 0.192693
Si Si4 0.164962 0.052967 0.860518
Si Si5 0.768114 0.917343 0.536752
Si Si6 0.599426 0.552778 0.906636
Si Si7 0.300995 0.289219 0.686287
Si Si8 0.393504 0.188098 0.253771
O O1 0.775118 0.435542 0.290634
O O2 0.758925 0.220047 0.243634
O O3 0.573815 0.200890 0.338032
O O4 0.916761 0.329409 0.579627
O O5 0.174773 0.342352 0.622939
O O6 0.195444 0.385731 0.917432
O O7 0.821082 0.066056 0.169456
O O8 0.695377 0.988668 0.360909
O O9 0.500000 0.000000 0.000000
O O10 0.300308 0.194377 0.840984
O O11 0.229277 0.074411 0.067903
O O12 0.968461 0.022316 0.707670
O O13 0.767385 0.795529 0.487984
O O14 0.640791 0.859668 0.593954
O O15 0.501569 0.416878 0.773966
O O16 0.584524 0.666852 0.783044
O O17 0.500000 0.500000 0.000000
#
# Coordination Sequence:
#
# PCOD8040077 Si02
#       8
#     2   2   2   2   2   2   2   2
#     4  11  21  36  58  86 121 149 195 237 297 346
#     4  10  19  34  63  90 106 149 202 250 275 344
#     4  11  23  39  61  86 115 163 196 239 286 352
#     4  11  20  41  62  85 118 156 204 240 283 349
#     4  11  26  37  59  92 121 155 195 244 295 353
#     4  10  18  35  63  87 109 153 200 246 286 334
#     4  10  18  38  65  84 113 147 207 247 282 337
#     4  12  22  39  59  90 124 154 189 248 307 340
#
# _framework density 19.492291999999999
#
# number of rings (size 3 to 8) (size 9 to 14) (size 15 to 20)
#    0.000    1.250    6.250    3.375    1.750    1.000 
#    0.000    0.000    0.000    0.750    0.000    0.000 
#    0.000    0.000    0.000    0.000    0.000    0.000 
#
# Total GULP energy -198349.568440 kJ/mol
# GULP energy per Si atom -12396.848027 kJ/mol
# Density = 1.944793 g / cm^3
# Si number density = 19.492292 Si / 1000 Ang^3
#
#
#
# Elastic Constant Matrix: (Units=GPa)
#
#
# Indices 1 2 3 4 5 6 
#
# 1 71.2052 35.2410 35.1514 0.6506 4.9212 -10.4756
# 2 35.2410 64.3363 27.4459 14.9524 -9.4820 -18.0386
# 3 35.1514 27.4459 107.5145 11.3910 14.7589 7.5356
# 4 0.6506 14.9524 11.3910 29.6866 2.7950 1.5123
# 5 4.9212 -9.4820 14.7589 2.7950 38.3373 5.4041
# 6 -10.4756 -18.0386 7.5356 1.5123 5.4041 31.3512
#
#
#
# Elastic Compliance Matrix: (Units=1/GPa)
#
#
# Indices 1 2 3 4 5 6 
#
# 1 0.023285 -0.012919 -0.004591 0.008156 -0.005289 0.001969
# 2 -0.012919 0.035287 -0.005679 -0.017223 0.011545 0.016192
# 3 -0.004591 -0.005679 0.013580 -0.001421 -0.004932 -0.007147
# 4 0.008156 -0.017223 -0.001421 0.043768 -0.006855 -0.007772
# 5 -0.005289 0.011545 -0.004932 -0.006855 0.031891 0.000895
# 6 0.001969 0.016192 -0.007147 -0.007772 0.000895 0.043810
#
#
# Mechanical properties :
#
#
# Convention : Reuss Voigt Hill
#
# Bulk Modulus (GPa) = 38.79912 48.74806 43.77359
# Shear Modulus (GPa) = 20.27652 29.55621 24.91636
#
# Velocity S-wave (km/s) = 3.22876 3.89820 3.57917
# Velocity P-wave (km/s) = 5.81790 6.73234 6.29176
#
# Compressibility (1/GPa) = 0.02577378
#
# Stress axis : x y z
#
# Youngs Moduli (GPa) = 42.94620 28.33913 73.63538
#
# Poissons Ratio (x) = 0.36612 0.33806
# Poissons Ratio (y) = 0.55483 0.41818
# Poissons Ratio (z) = 0.19717 0.16094
#
# Static dielectric constant tensor:
#      x y z
#    x 3.496360 -0.251610 0.207790 
#    y -0.251610 3.700440 0.394240 
#    z 0.207790 0.394240 3.861530 
# 
# 
# High freq. dielectric constant tensor:
#      x y z
#    x 1.733550 -0.024300 0.020800 
#    y -0.024300 1.758850 0.023820 
#    z 0.020800 0.023820 1.763650 
# 
# From -- ./inp_files/262349.got.cif
#   From: 2010.06.25/outbox.cif.g09.slc.cpg/sg2_132_cif.got.tgz:262349.got - 2010.06.27 13:26:56.
