data_PCOD8040748
_publ_section_title
;
Structure prediction by ZEFSAII (Michael W. Deem and Ramdas Pophale) SiO2 
 PCOD8040748
Probable space group: P -1
;
_chemical_formula_sum "Si O2"
_cell_formula_units_Z 16
_cell_length_a 14.723538
_cell_length_b 11.621996
_cell_length_c 10.201510
_cell_angle_alpha 53.997417
_cell_angle_beta 109.361645
_cell_angle_gamma 143.983416
_cell_volume 791.488900
_symmetry_space_group_name_H-M "P -1"
_symmetry_group_IT_number 2
_symmetry_cell_setting 'triclinic'
loop_
_space_group_symop_operation_xyz
x,y,z
-x,-y,-z
loop_
_atom_site_type_symbol
_atom_site_label
_atom_site_fract_x
_atom_site_fract_y
_atom_site_fract_z
Si Si1 0.768853 0.575025 0.010138
Si Si2 0.416670 0.154459 0.994892
Si Si3 0.636789 0.153117 0.652323
Si Si4 0.716205 0.248746 0.346833
Si Si5 0.350640 0.147097 0.468818
Si Si6 0.449260 0.689984 0.312502
Si Si7 0.841404 0.806664 0.639402
Si Si8 0.606986 0.572575 0.119756
O O1 0.593343 0.367715 0.999323
O O2 0.825270 0.485843 0.150282
O O3 0.762532 0.673275 0.068377
O O4 0.884352 0.768650 0.818257
O O5 0.306217 0.914620 0.187474
O O6 0.436719 0.119258 0.879762
O O7 0.339754 0.222872 0.909947
O O8 0.757166 0.319047 0.474718
O O9 0.628175 0.276687 0.661189
O O10 0.464837 0.914789 0.663360
O O11 0.739824 0.112510 0.410527
O O12 0.432591 0.264638 0.571423
O O13 0.213563 0.100918 0.406367
O O14 0.498435 0.333773 0.311548
O O15 0.302855 0.426193 0.361058
O O16 0.000000 0.000000 0.500000
O O17 0.500000 0.500000 0.000000
#
# Coordination Sequence:
#
# PCOD8040748 Si02
#       8
#     2   2   2   2   2   2   2   2
#     4   9  17  31  49  76 105 138 173 215 262 307
#     4   9  16  25  44  79 112 132 163 211 271 312
#     4   9  16  27  48  79 113 135 162 216 276 312
#     4   9  17  29  50  80 105 133 174 218 263 309
#     4  11  19  33  57  84 105 136 176 222 260 308
#     4  10  19  32  51  79 112 136 173 218 266 304
#     4  11  23  37  54  75 107 147 178 209 262 322
#     4  10  15  26  49  80 108 130 169 220 259 302
#
# _framework density 20.215064999999999
#
# number of rings (size 3 to 8) (size 9 to 14) (size 15 to 20)
#    0.000    2.250    3.750    4.500    0.000    1.000 
#    0.000    0.625    0.000    3.750    0.000    0.000 
#    0.000    0.000    0.000    0.000    0.000    0.000 
#
# Total GULP energy -198221.934324 kJ/mol
# GULP energy per Si atom -12388.870895 kJ/mol
# Density = 2.016905 g / cm^3
# Si number density = 20.215065 Si / 1000 Ang^3
#
#
#
# Elastic Constant Matrix: (Units=GPa)
#
#
# Indices 1 2 3 4 5 6 
#
# 1 87.4680 30.9993 70.1039 -5.7052 5.9018 -33.4221
# 2 30.9993 20.4870 31.2588 9.1099 -0.6926 -16.0086
# 3 70.1039 31.2588 188.8561 0.0739 4.9314 -17.5061
# 4 -5.7052 9.1099 0.0739 22.1327 -8.4849 -4.6837
# 5 5.9018 -0.6926 4.9314 -8.4849 34.4934 -2.3303
# 6 -33.4221 -16.0086 -17.5061 -4.6837 -2.3303 24.6875
#
#
#
# Elastic Compliance Matrix: (Units=1/GPa)
#
#
# Indices 1 2 3 4 5 6 
#
# 1 0.069898 -0.088865 -0.007254 0.066773 0.006770 0.045167
# 2 -0.088865 0.282397 -0.010833 -0.136669 -0.009281 0.028328
# 3 -0.007254 -0.010833 0.008814 -0.000081 -0.000979 -0.010702
# 4 0.066773 -0.136669 -0.000081 0.132559 0.020396 0.028791
# 5 0.006770 -0.009281 -0.000979 0.020396 0.033444 0.009478
# 6 0.045167 0.028328 -0.010702 0.028791 0.009478 0.118791
#
#
# Mechanical properties :
#
#
# Convention : Reuss Voigt Hill
#
# Bulk Modulus (GPa) = 6.79320 62.39279 34.59300
# Shear Modulus (GPa) = 5.50130 27.22600 16.36365
#
# Velocity S-wave (km/s) = 1.65145 3.67388 2.84822
# Velocity P-wave (km/s) = 2.64654 6.99486 5.28830
#
# Compressibility (1/GPa) = 0.14720598
#
# Stress axis : x y z
#
# Youngs Moduli (GPa) = 14.30649 3.54112 113.45296
#
# Poissons Ratio (x) = 0.31468 0.82298
# Poissons Ratio (y) = 1.27135 1.22899
# Poissons Ratio (z) = 0.10378 0.03836
#
# Static dielectric constant tensor:
#      x y z
#    x 3.812210 -0.540340 0.160190 
#    y -0.540340 3.128280 0.249910 
#    z 0.160190 0.249910 3.875580 
# 
# 
# High freq. dielectric constant tensor:
#      x y z
#    x 1.772380 -0.048200 0.014640 
#    y -0.048200 1.719070 0.023070 
#    z 0.014640 0.023070 1.817590 
# 
# From -- ./inp_files/306758.got.cif
#   From: 2010.06.25/outbox.cif.g09.slc.cpg/sg2_154_cif.got.tgz:306758.got - 2010.06.27 13:26:56.
