data_PCOD8040131
_publ_section_title
;
Structure prediction by ZEFSAII (Michael W. Deem and Ramdas Pophale) SiO2 
 PCOD8040131
Probable space group: P -1
;
_chemical_formula_sum "Si O2"
_cell_formula_units_Z 16
_cell_length_a 8.912963
_cell_length_b 18.277223
_cell_length_c 11.807825
_cell_angle_alpha 38.213468
_cell_angle_beta 80.575919
_cell_angle_gamma 52.300603
_cell_volume 717.764576
_symmetry_space_group_name_H-M "P -1"
_symmetry_group_IT_number 2
_symmetry_cell_setting 'triclinic'
loop_
_space_group_symop_operation_xyz
x,y,z
-x,-y,-z
loop_
_atom_site_type_symbol
_atom_site_label
_atom_site_fract_x
_atom_site_fract_y
_atom_site_fract_z
Si Si1 0.336331 0.383863 0.594296
Si Si2 0.797254 0.136344 0.491937
Si Si3 0.937319 0.619959 0.536327
Si Si4 0.523320 0.040969 0.069716
Si Si5 0.425248 0.494724 0.266113
Si Si6 0.347213 0.784069 0.832699
Si Si7 0.143686 0.173705 0.130048
Si Si8 0.824028 0.638151 0.958565
O O1 0.227420 0.378783 0.506187
O O2 0.460896 0.425423 0.475136
O O3 0.127707 0.554783 0.499809
O O4 0.531971 0.178738 0.887045
O O5 0.623689 0.302966 0.401304
O O6 0.721318 0.231999 0.261190
O O7 0.753976 0.021804 0.637338
O O8 0.084103 0.993068 0.660875
O O9 0.773409 0.831629 0.346219
O O10 0.070283 0.485802 0.791251
O O11 0.282008 0.158327 0.030938
O O12 0.500000 0.000000 0.000000
O O13 0.470244 0.607963 0.112648
O O14 0.147391 0.641671 0.080855
O O15 0.543814 0.767582 0.813405
O O16 0.191104 0.211691 0.197883
O O17 0.000000 0.500000 0.000000
#
# Coordination Sequence:
#
# PCOD8040131 Si02
#       8
#     2   2   2   2   2   2   2   2
#     4  10  18  35  65  93 121 163 217 271 304 369
#     4  10  22  43  65  89 123 173 222 266 305 375
#     4  10  20  38  59  94 131 162 209 268 322 366
#     4  10  19  32  60  99 125 157 212 272 315 363
#     4  11  20  40  67  93 123 167 219 262 316 371
#     4  10  25  41  60  92 131 171 214 259 313 388
#     4  11  22  37  65  97 126 162 216 267 314 378
#     4  12  25  43  64  95 137 173 203 262 333 383
#
# _framework density 22.291430999999999
#
# number of rings (size 3 to 8) (size 9 to 14) (size 15 to 20)
#    0.000    1.500    2.500    4.125    1.750    3.500 
#    2.250    0.625    0.000    1.500    0.000    0.000 
#    0.000    0.000    0.000    0.000    0.000    0.000 
#
# Total GULP energy -198335.479437 kJ/mol
# GULP energy per Si atom -12395.967465 kJ/mol
# Density = 2.224069 g / cm^3
# Si number density = 22.291431 Si / 1000 Ang^3
#
#
#
# Elastic Constant Matrix: (Units=GPa)
#
#
# Indices 1 2 3 4 5 6 
#
# 1 49.6343 12.0735 21.9995 -14.6623 -1.7402 -5.9573
# 2 12.0735 118.7334 23.1351 -17.7677 5.7582 -16.8255
# 3 21.9995 23.1351 96.0508 -14.4874 -1.7722 -14.4674
# 4 -14.6623 -17.7677 -14.4874 41.0034 -6.3937 -2.9040
# 5 -1.7402 5.7582 -1.7722 -6.3937 22.5353 7.0798
# 6 -5.9573 -16.8255 -14.4674 -2.9040 7.0798 24.2062
#
#
#
# Elastic Compliance Matrix: (Units=1/GPa)
#
#
# Indices 1 2 3 4 5 6 
#
# 1 0.024846 -0.000138 -0.003777 0.008197 0.002744 0.003942
# 2 -0.000138 0.010655 -0.000648 0.004285 -0.004321 0.008763
# 3 -0.003777 -0.000648 0.012973 0.003392 -0.000301 0.006869
# 4 0.008197 0.004285 0.003392 0.031957 0.006013 0.009098
# 5 0.002744 -0.004321 -0.000301 0.006013 0.052785 -0.017226
# 6 0.003942 0.008763 0.006869 0.009098 -0.017226 0.058608
#
#
# Mechanical properties :
#
#
# Convention : Reuss Voigt Hill
#
# Bulk Modulus (GPa) = 25.41449 42.09275 33.75362
# Shear Modulus (GPa) = 23.35735 31.36301 27.36018
#
# Velocity S-wave (km/s) = 3.24051 3.75501 3.50721
# Velocity P-wave (km/s) = 5.04252 6.14199 5.61921
#
# Compressibility (1/GPa) = 0.03934763
#
# Stress axis : x y z
#
# Youngs Moduli (GPa) = 40.24825 93.85062 77.08417
#
# Poissons Ratio (x) = 0.01299 0.29111
# Poissons Ratio (y) = 0.00557 0.04997
# Poissons Ratio (z) = 0.15200 0.06084
#
# Static dielectric constant tensor:
#      x y z
#    x 4.139080 0.030220 -1.123550 
#    y 0.030220 4.514770 -0.969860 
#    z -1.123550 -0.969860 7.209020 
# 
# 
# High freq. dielectric constant tensor:
#      x y z
#    x 1.838350 -0.022200 -0.017000 
#    y -0.022200 1.885900 -0.006750 
#    z -0.017000 -0.006750 1.893890 
# 
# From -- ./inp_files/402829.got.cif
#   From: 2010.06.25/outbox.cif.g09.slc.cpg/sg2_202_cif.got.tgz:402829.got - 2010.06.27 13:26:56.
