data_PCOD8040732
_publ_section_title
;
Structure prediction by ZEFSAII (Michael W. Deem and Ramdas Pophale) SiO2 
 PCOD8040732
Probable space group: P -1
;
_chemical_formula_sum "Si O2"
_cell_formula_units_Z 14
_cell_length_a 16.789213
_cell_length_b 7.853132
_cell_length_c 22.440588
_cell_angle_alpha 52.889324
_cell_angle_beta 25.899423
_cell_angle_gamma 35.618190
_cell_volume 650.571755
_symmetry_space_group_name_H-M "P -1"
_symmetry_group_IT_number 2
_symmetry_cell_setting 'triclinic'
loop_
_space_group_symop_operation_xyz
x,y,z
-x,-y,-z
loop_
_atom_site_type_symbol
_atom_site_label
_atom_site_fract_x
_atom_site_fract_y
_atom_site_fract_z
Si Si1 0.662526 0.669781 0.589507
Si Si2 0.760011 0.875889 0.317433
Si Si3 0.532082 0.264831 0.068048
Si Si4 0.249555 0.950479 0.518167
Si Si5 0.165884 0.245300 0.250751
Si Si6 0.146002 0.812715 0.736081
Si Si7 0.276202 0.685365 0.270293
O O1 0.633567 0.495399 0.689250
O O2 0.893422 0.407005 0.437934
O O3 0.342727 0.015722 0.704940
O O4 0.774386 0.773565 0.528179
O O5 0.050087 0.475069 0.220759
O O6 0.500000 0.000000 0.500000
O O7 0.808410 0.073715 0.263117
O O8 0.364569 0.214841 0.164549
O O9 0.437172 0.408278 0.168636
O O10 0.500000 0.500000 0.000000
O O11 0.875451 0.903302 0.912069
O O12 0.096829 0.006595 0.669955
O O13 0.580562 0.585138 0.372015
O O14 0.070498 0.018853 0.568881
O O15 0.348716 0.873203 0.183760
#
# Coordination Sequence:
#
# PCOD8040732 Si02
#       7
#     2   2   2   2   2   2   2
#     4  11  22  41  67 100 135 163 222 278 314 388
#     4  10  18  38  62  96 129 158 214 275 311 370
#     4  12  23  46  64  96 138 169 219 270 321 393
#     4  11  21  39  70  96 124 172 219 267 333 373
#     4  11  23  41  70  99 128 173 219 270 320 386
#     4  11  22  40  66  97 129 166 220 276 314 384
#     4  12  25  42  70  97 131 176 215 268 336 377
#
# _framework density 21.519534
#
# number of rings (size 3 to 8) (size 9 to 14) (size 15 to 20)
#    0.000    0.857    7.143    2.571    2.000    0.571 
#    2.571    1.429    0.000    0.000    0.000    0.000 
#    0.000    0.000    0.000    0.000    0.000    0.000 
#
# Total GULP energy -173566.976332 kJ/mol
# GULP energy per Si atom -12397.641167 kJ/mol
# Density = 2.147055 g / cm^3
# Si number density = 21.519534 Si / 1000 Ang^3
#
#
#
# Elastic Constant Matrix: (Units=GPa)
#
#
# Indices 1 2 3 4 5 6 
#
# 1 115.0917 55.6393 44.7703 -5.2930 -18.6714 -4.5966
# 2 55.6393 89.4891 37.3126 -7.2969 -9.9366 0.7234
# 3 44.7703 37.3126 91.8329 13.9228 -14.7831 -5.0445
# 4 -5.2930 -7.2969 13.9228 20.0395 1.2735 -2.6631
# 5 -18.6714 -9.9366 -14.7831 1.2735 27.2786 -7.4881
# 6 -4.5966 0.7234 -5.0445 -2.6631 -7.4881 38.1228
#
#
#
# Elastic Compliance Matrix: (Units=1/GPa)
#
#
# Indices 1 2 3 4 5 6 
#
# 1 0.014677 -0.006420 -0.004073 0.004362 0.006080 0.002851
# 2 -0.006420 0.018225 -0.006045 0.009040 -0.001910 -0.001663
# 3 -0.004073 -0.006045 0.019070 -0.016648 0.006756 0.002311
# 4 0.004362 0.009040 -0.016648 0.066485 -0.005369 0.001741
# 5 0.006080 -0.001910 0.006756 -0.005369 0.046920 0.010504
# 6 0.002851 -0.001663 0.002311 0.001741 0.010504 0.029097
#
#
# Mechanical properties :
#
#
# Convention : Reuss Voigt Hill
#
# Bulk Modulus (GPa) = 52.91835 63.53978 58.22907
# Shear Modulus (GPa) = 21.38149 27.66760 24.52455
#
# Velocity S-wave (km/s) = 3.15554 3.58955 3.37952
# Velocity P-wave (km/s) = 6.15799 6.83890 6.50735
#
# Compressibility (1/GPa) = 0.01889704
#
# Stress axis : x y z
#
# Youngs Moduli (GPa) = 68.13210 54.87039 52.43949
#
# Poissons Ratio (x) = 0.35225 0.21359
# Poissons Ratio (y) = 0.43738 0.31698
# Poissons Ratio (z) = 0.27751 0.33167
#
# Static dielectric constant tensor:
#      x y z
#    x 4.358980 -0.873940 -0.729220 
#    y -0.873940 5.205110 1.130180 
#    z -0.729220 1.130180 4.656070 
# 
# 
# High freq. dielectric constant tensor:
#      x y z
#    x 1.843950 0.003900 -0.023780 
#    y 0.003900 1.837590 0.008300 
#    z -0.023780 0.008300 1.824500 
# 
# From -- ./inp_files/418349.got.cif
#   From: 2010.06.25/outbox.cif.g09.slc.cpg/sg2_210_cif.got.tgz:418349.got - 2010.06.27 13:26:56.
