data_PCOD8040755
_publ_section_title
;
Structure prediction by ZEFSAII (Michael W. Deem and Ramdas Pophale) SiO2 
 PCOD8040755
Probable space group: P -1
;
_chemical_formula_sum "Si O2"
_cell_formula_units_Z 14
_cell_length_a 11.802388
_cell_length_b 19.591784
_cell_length_c 11.328126
_cell_angle_alpha 24.452208
_cell_angle_beta 129.980115
_cell_angle_gamma 140.678228
_cell_volume 667.794570
_symmetry_space_group_name_H-M "P -1"
_symmetry_group_IT_number 2
_symmetry_cell_setting 'triclinic'
loop_
_space_group_symop_operation_xyz
x,y,z
-x,-y,-z
loop_
_atom_site_type_symbol
_atom_site_label
_atom_site_fract_x
_atom_site_fract_y
_atom_site_fract_z
Si Si1 0.301168 0.649141 0.514843
Si Si2 0.118552 0.152873 0.666682
Si Si3 0.918215 0.349740 0.816851
Si Si4 0.088617 0.939637 0.559453
Si Si5 0.492074 0.530994 0.657545
Si Si6 0.097825 0.285167 0.688258
Si Si7 0.483698 0.325376 0.186199
O O1 0.238648 0.766244 0.209661
O O2 0.441975 0.639937 0.545188
O O3 0.401210 0.744547 0.559096
O O4 0.112381 0.423007 0.773908
O O5 0.341066 0.297337 0.582874
O O6 0.051809 0.227629 0.610040
O O7 0.047157 0.178384 0.454958
O O8 0.039287 0.916847 0.006289
O O9 0.934527 0.547975 0.561183
O O10 0.864920 0.202195 0.123238
O O11 0.274642 0.137361 0.323361
O O12 0.000000 0.000000 0.500000
O O13 0.310688 0.371137 0.711460
O O14 0.555429 0.412579 0.964267
O O15 0.500000 0.500000 0.000000
#
# Coordination Sequence:
#
# PCOD8040755 Si02
#       7
#     2   2   2   2   2   2   2
#     4   9  19  36  56  88 126 154 193 251 315 353
#     4  11  23  40  68  90 121 171 209 247 306 369
#     4  10  22  39  60  88 129 161 198 264 306 362
#     4  12  23  37  64  92 121 164 208 252 318 367
#     4  10  18  38  64  91 122 158 207 257 301 361
#     4  10  23  43  62  92 127 163 212 250 298 371
#     4  10  19  35  55  88 126 153 201 253 298 369
#
# _framework density 20.964531999999998
#
# number of rings (size 3 to 8) (size 9 to 14) (size 15 to 20)
#    0.000    1.714    1.429    4.714    4.000    1.143 
#    5.143    0.000    0.000    1.714    0.000    0.000 
#    0.000    0.000    0.000    0.000    0.000    0.000 
#
# Total GULP energy -173469.120073 kJ/mol
# GULP energy per Si atom -12390.651434 kJ/mol
# Density = 2.091682 g / cm^3
# Si number density = 20.964532 Si / 1000 Ang^3
#
#
#
# Elastic Constant Matrix: (Units=GPa)
#
#
# Indices 1 2 3 4 5 6 
#
# 1 60.1294 25.0477 37.0387 1.3327 -14.9692 8.9059
# 2 25.0477 103.1084 42.0258 18.1987 -11.1292 -0.4104
# 3 37.0387 42.0258 117.1276 4.9616 -15.3968 1.8664
# 4 1.3327 18.1987 4.9616 40.5054 3.5356 -10.9021
# 5 -14.9692 -11.1292 -15.3968 3.5356 30.2798 -6.8268
# 6 8.9059 -0.4104 1.8664 -10.9021 -6.8268 32.8768
#
#
#
# Elastic Compliance Matrix: (Units=1/GPa)
#
#
# Indices 1 2 3 4 5 6 
#
# 1 0.023571 -0.002610 -0.005497 -0.000866 0.006880 -0.004964
# 2 -0.002610 0.012902 -0.003248 -0.005605 0.002385 -0.000311
# 3 -0.005497 -0.003248 0.011707 0.000378 0.002310 0.001389
# 4 -0.000866 -0.005605 0.000378 0.030023 -0.003698 0.009331
# 5 0.006880 0.002385 0.002310 -0.003698 0.040066 0.005128
# 6 -0.004964 -0.000311 0.001389 0.009331 0.005128 0.035838
#
#
# Mechanical properties :
#
#
# Convention : Reuss Voigt Hill
#
# Bulk Modulus (GPa) = 39.26169 54.28774 46.77472
# Shear Modulus (GPa) = 26.98231 32.48263 29.73247
#
# Velocity S-wave (km/s) = 3.59143 3.94052 3.77002
# Velocity P-wave (km/s) = 5.99718 6.83044 6.42733
#
# Compressibility (1/GPa) = 0.02547012
#
# Stress axis : x y z
#
# Youngs Moduli (GPa) = 42.42418 77.50870 85.41866
#
# Poissons Ratio (x) = 0.20227 0.46957
# Poissons Ratio (y) = 0.11071 0.27745
# Poissons Ratio (z) = 0.23322 0.25176
#
# Static dielectric constant tensor:
#      x y z
#    x 3.482680 0.103660 -0.249500 
#    y 0.103660 4.424390 0.449360 
#    z -0.249500 0.449360 3.939730 
# 
# 
# High freq. dielectric constant tensor:
#      x y z
#    x 1.790420 0.007030 -0.032600 
#    y 0.007030 1.838310 0.016400 
#    z -0.032600 0.016400 1.810720 
# 
# From -- ./inp_files/177001.got.cif
#   From: 2010.06.25/outbox.cif.g09.slc.cpg/sg2_89_cif.got.tgz:177001.got - 2010.06.27 13:26:56.
