data_PCOD8040607
_publ_section_title
;
Structure prediction by ZEFSAII (Michael W. Deem and Ramdas Pophale) SiO2 
 PCOD8040607
Probable space group: P -1
;
_chemical_formula_sum "Si O2"
_cell_formula_units_Z 16
_cell_length_a 14.786423
_cell_length_b 12.293619
_cell_length_c 9.090740
_cell_angle_alpha 142.721630
_cell_angle_beta 105.400139
_cell_angle_gamma 58.112398
_cell_volume 810.450854
_symmetry_space_group_name_H-M "P -1"
_symmetry_group_IT_number 2
_symmetry_cell_setting 'triclinic'
loop_
_space_group_symop_operation_xyz
x,y,z
-x,-y,-z
loop_
_atom_site_type_symbol
_atom_site_label
_atom_site_fract_x
_atom_site_fract_y
_atom_site_fract_z
Si Si1 0.932711 0.857749 0.958132
Si Si2 0.468205 0.579957 0.235057
Si Si3 0.892868 0.309731 0.396357
Si Si4 0.641189 0.503969 0.463616
Si Si5 0.464595 0.228846 0.019368
Si Si6 0.314531 0.941047 0.949942
Si Si7 0.324195 0.047331 0.744983
Si Si8 0.916750 0.610495 0.949592
O O1 0.954065 0.731888 0.985420
O O2 0.028929 0.708363 0.723668
O O3 0.928860 0.076047 0.220378
O O4 0.814030 0.917950 0.900445
O O5 0.573816 0.561405 0.343271
O O6 0.425841 0.442761 0.144259
O O7 0.362781 0.822850 0.445825
O O8 0.500000 0.500000 0.000000
O O9 0.766451 0.444982 0.425639
O O10 0.904834 0.435450 0.670172
O O11 0.575063 0.707684 0.760331
O O12 0.646197 0.303799 0.327458
O O13 0.600176 0.063835 0.897753
O O14 0.406873 0.117890 0.800754
O O15 0.328274 0.037572 0.912030
O O16 0.197415 0.220581 0.833530
O O17 0.000000 0.500000 0.000000
#
# Coordination Sequence:
#
# PCOD8040607 Si02
#       8
#     2   2   2   2   2   2   2   2
#     4   9  21  38  64  88 121 159 203 248 304 346
#     4  11  24  40  56  90 130 153 186 248 309 356
#     4  10  20  41  63  92 118 154 209 254 291 356
#     4  10  18  37  64  89 115 152 198 245 293 349
#     4  11  19  36  65  89 117 148 205 244 287 364
#     4   9  17  33  61  93 112 148 197 247 286 345
#     4  11  21  37  63  85 115 161 201 239 297 356
#     4  11  24  41  59  89 124 161 204 249 300 354
#
# _framework density 19.742097999999999
#
# number of rings (size 3 to 8) (size 9 to 14) (size 15 to 20)
#    0.000    1.750    3.750    1.500    0.000    1.000 
#   11.250    0.000    0.000    0.000    0.000    0.000 
#    0.000    0.000    0.000    0.000    0.000    0.000 
#
# Total GULP energy -198384.333880 kJ/mol
# GULP energy per Si atom -12399.020867 kJ/mol
# Density = 1.969716 g / cm^3
# Si number density = 19.742098 Si / 1000 Ang^3
#
#
#
# Elastic Constant Matrix: (Units=GPa)
#
#
# Indices 1 2 3 4 5 6 
#
# 1 128.6018 57.7966 46.4310 10.6079 -6.0015 -4.1717
# 2 57.7966 109.8492 53.3778 7.8863 -2.0812 -14.8692
# 3 46.4310 53.3778 83.9067 3.9195 -4.3069 -1.9570
# 4 10.6079 7.8863 3.9195 23.9358 -1.1494 -5.2039
# 5 -6.0015 -2.0812 -4.3069 -1.1494 26.9272 6.3024
# 6 -4.1717 -14.8692 -1.9570 -5.2039 6.3024 23.0355
#
#
#
# Elastic Compliance Matrix: (Units=1/GPa)
#
#
# Indices 1 2 3 4 5 6 
#
# 1 0.011200 -0.004377 -0.003204 -0.003421 0.002063 -0.002407
# 2 -0.004377 0.016673 -0.008112 -0.000177 -0.003370 0.010162
# 3 -0.003204 -0.008112 0.018879 0.000055 0.002846 -0.004979
# 4 -0.003421 -0.000177 0.000055 0.045430 -0.001132 0.009843
# 5 0.002063 -0.003370 0.002846 -0.001132 0.040780 -0.012973
# 6 -0.002407 0.010162 -0.004979 0.009843 -0.012973 0.054885
#
#
# Mechanical properties :
#
#
# Convention : Reuss Voigt Hill
#
# Bulk Modulus (GPa) = 65.07918 70.84094 67.96006
# Shear Modulus (GPa) = 22.28628 25.76319 24.02474
#
# Velocity S-wave (km/s) = 3.36351 3.61638 3.49224
# Velocity P-wave (km/s) = 6.93690 7.30744 7.12458
#
# Compressibility (1/GPa) = 0.01536590
#
# Stress axis : x y z
#
# Youngs Moduli (GPa) = 89.28381 59.97853 52.97019
#
# Poissons Ratio (x) = 0.26255 0.16969
# Poissons Ratio (y) = 0.39082 0.42969
# Poissons Ratio (z) = 0.28603 0.48654
#
# Static dielectric constant tensor:
#      x y z
#    x 3.847850 0.014070 -0.040160 
#    y 0.014070 3.366780 0.353070 
#    z -0.040160 0.353070 3.503130 
# 
# 
# High freq. dielectric constant tensor:
#      x y z
#    x 1.781440 0.000800 0.002190 
#    y 0.000800 1.750440 0.032380 
#    z 0.002190 0.032380 1.757840 
# 
# From -- ./inp_files/270267.got.cif
#   From: 2010.06.25/outbox.cif.g09.slc.cpg/sg2_136_cif.got.tgz:270267.got - 2010.06.27 13:26:56.
