data_PCOD8040493
_publ_section_title
;
Structure prediction by ZEFSAII (Michael W. Deem and Ramdas Pophale) SiO2 
 PCOD8040493
Probable space group: P -1
;
_chemical_formula_sum "Si O2"
_cell_formula_units_Z 12
_cell_length_a 5.034812
_cell_length_b 14.794520
_cell_length_c 6.924054
_cell_angle_alpha 116.439075
_cell_angle_beta 103.211558
_cell_angle_gamma 76.914991
_cell_volume 444.970397
_symmetry_space_group_name_H-M "P -1"
_symmetry_group_IT_number 2
_symmetry_cell_setting 'triclinic'
loop_
_space_group_symop_operation_xyz
x,y,z
-x,-y,-z
loop_
_atom_site_type_symbol
_atom_site_label
_atom_site_fract_x
_atom_site_fract_y
_atom_site_fract_z
Si Si1 0.344371 0.868255 0.200586
Si Si2 0.404997 0.644116 0.082117
Si Si3 0.748007 0.527629 0.327359
Si Si4 0.377928 0.953419 0.695663
Si Si5 0.018478 0.141229 0.204174
Si Si6 0.218280 0.642561 0.456785
O O1 0.267419 0.925724 0.442854
O O2 0.549868 0.931311 0.175444
O O3 0.491663 0.752943 0.142540
O O4 0.055334 0.864987 0.039399
O O5 0.284744 0.592102 0.822031
O O6 0.680205 0.575019 0.143656
O O7 0.178496 0.657312 0.232176
O O8 0.536222 0.594088 0.504370
O O9 0.059060 0.553150 0.442124
O O10 0.131810 0.945490 0.797159
O O11 0.655203 0.875281 0.720308
O O12 0.878806 0.250009 0.361663
#
# Coordination Sequence:
#
# PCOD8040493 Si02
#       6
#     2   2   2   2   2   2
#     4  11  24  44  70 100 124 182 219 263 327 398
#     4   9  19  37  60  93 122 168 214 255 322 383
#     4   9  19  35  63  85 128 170 199 264 329 364
#     4  11  26  47  64  96 139 168 217 275 324 381
#     4  12  24  45  67  97 136 170 216 273 326 381
#     4  10  18  37  59  87 125 167 201 262 320 369
#
# _framework density 26.968088999999999
#
# number of rings (size 3 to 8) (size 9 to 14) (size 15 to 20)
#    1.000    0.667    1.667    3.500    0.000    4.000 
#    6.000    1.667    0.000    0.000    0.000    0.000 
#    0.000    0.000    0.000    0.000    0.000    0.000 
#
# Total GULP energy -148763.782090 kJ/mol
# GULP energy per Si atom -12396.981841 kJ/mol
# Density = 2.690671 g / cm^3
# Si number density = 26.968089 Si / 1000 Ang^3
#
#
#
# Elastic Constant Matrix: (Units=GPa)
#
#
# Indices 1 2 3 4 5 6 
#
# 1 113.5082 6.1686 18.9772 0.5201 4.1169 -10.3022
# 2 6.1686 103.1513 19.2540 35.2272 -2.8090 8.8694
# 3 18.9772 19.2540 138.5354 7.0259 8.0922 -14.3198
# 4 0.5201 35.2272 7.0259 53.4760 5.3905 7.5761
# 5 4.1169 -2.8090 8.0922 5.3905 17.0933 6.5362
# 6 -10.3022 8.8694 -14.3198 7.5761 6.5362 29.2937
#
#
#
# Elastic Compliance Matrix: (Units=1/GPa)
#
#
# Indices 1 2 3 4 5 6 
#
# 1 0.009477 -0.001119 -0.000504 0.000521 -0.003991 0.004181
# 2 -0.001119 0.013972 -0.002392 -0.008982 0.008590 -0.005387
# 3 -0.000504 -0.002392 0.008651 0.000249 -0.006830 0.006235
# 4 0.000521 -0.008982 0.000249 0.025732 -0.009234 -0.001570
# 5 -0.003991 0.008590 -0.006830 -0.009234 0.075344 -0.021766
# 6 0.004181 -0.005387 0.006235 -0.001570 -0.021766 0.045549
#
#
# Mechanical properties :
#
#
# Convention : Reuss Voigt Hill
#
# Bulk Modulus (GPa) = 41.54356 49.33275 45.43816
# Shear Modulus (GPa) = 25.67034 40.69227 33.18131
#
# Velocity S-wave (km/s) = 3.08860 3.88868 3.51150
# Velocity P-wave (km/s) = 5.30636 6.20444 5.77289
#
# Compressibility (1/GPa) = 0.02407112
#
# Stress axis : x y z
#
# Youngs Moduli (GPa) = 105.52075 71.56990 115.59867
#
# Poissons Ratio (x) = 0.08007 0.05824
# Poissons Ratio (y) = 0.11806 0.27648
# Poissons Ratio (z) = 0.05316 0.17118
#
# Static dielectric constant tensor:
#      x y z
#    x 4.473850 0.213750 0.168810 
#    y 0.213750 5.206190 -0.205950 
#    z 0.168810 -0.205950 5.026630 
# 
# 
# High freq. dielectric constant tensor:
#      x y z
#    x 2.059240 0.006800 0.000660 
#    y 0.006800 2.109200 -0.004650 
#    z 0.000660 -0.004650 2.098490 
# 
# From -- ./inp_files/121978.got.cif
#   From: 2010.06.25/outbox.cif.g09.slc.cpg/sg2_61_cif.got.tgz:121978.got - 2010.06.27 13:26:56.
