data_PCOD8040096
_publ_section_title
;
Structure prediction by ZEFSAII (Michael W. Deem and Ramdas Pophale) SiO2 
 PCOD8040096
Probable space group: P -1
;
_chemical_formula_sum "Si O2"
_cell_formula_units_Z 16
_cell_length_a 12.956428
_cell_length_b 11.578909
_cell_length_c 24.273807
_cell_angle_alpha 140.197834
_cell_angle_beta 19.031706
_cell_angle_gamma 138.345330
_cell_volume 756.339077
_symmetry_space_group_name_H-M "P -1"
_symmetry_group_IT_number 2
_symmetry_cell_setting 'triclinic'
loop_
_space_group_symop_operation_xyz
x,y,z
-x,-y,-z
loop_
_atom_site_type_symbol
_atom_site_label
_atom_site_fract_x
_atom_site_fract_y
_atom_site_fract_z
Si Si1 0.180041 0.866132 0.613444
Si Si2 0.796455 0.518827 0.490716
Si Si3 0.734369 0.974740 0.579114
Si Si4 0.146575 0.145450 0.936072
Si Si5 0.176610 0.436159 0.170663
Si Si6 0.854351 0.883148 0.667513
Si Si7 0.183726 0.038256 0.062378
Si Si8 0.712680 0.380190 0.293795
O O1 0.249903 0.661203 0.515352
O O2 0.996518 0.853435 0.644107
O O3 0.951988 0.942764 0.801521
O O4 0.500000 0.000000 0.500000
O O5 0.809869 0.695762 0.586844
O O6 0.488040 0.499573 0.599499
O O7 0.116200 0.525335 0.293480
O O8 0.507752 0.794316 0.637655
O O9 0.528168 0.148306 0.748162
O O10 0.000000 0.000000 0.500000
O O11 0.903799 0.970493 0.432874
O O12 0.042145 0.106323 0.911390
O O13 0.020461 0.334295 0.086099
O O14 0.000000 0.000000 0.000000
O O15 0.190045 0.222504 0.092183
O O16 0.869570 0.482918 0.305927
O O17 0.500000 0.500000 0.000000
O O18 0.526220 0.968877 0.869984
#
# Coordination Sequence:
#
# PCOD8040096 Si02
#       8
#     2   2   2   2   2   2   2   2
#     4  11  27  48  69  92 133 186 236 284 343 398
#     4  11  25  45  66 101 138 178 229 286 335 405
#     4  11  21  34  68 104 132 172 220 268 351 406
#     4  10  18  35  63  94 133 167 214 271 329 399
#     4  11  26  39  63 100 150 180 214 276 354 410
#     4  12  24  42  74  96 132 179 237 281 341 409
#     4  11  22  44  67  97 132 176 229 283 334 411
#     4  11  22  39  64 100 141 174 221 276 336 418
#
# _framework density 21.154534000000002
#
# number of rings (size 3 to 8) (size 9 to 14) (size 15 to 20)
#    0.000    1.000    5.000    2.625    5.250    1.000 
#    0.000    0.625    0.000    0.000    0.000    0.000 
#    0.000    0.000    0.000    0.000    0.000    0.000 
#
# Total GULP energy -198336.659036 kJ/mol
# GULP energy per Si atom -12396.041190 kJ/mol
# Density = 2.110639 g / cm^3
# Si number density = 21.154534 Si / 1000 Ang^3
#
#
#
# Elastic Constant Matrix: (Units=GPa)
#
#
# Indices 1 2 3 4 5 6 
#
# 1 160.0874 30.6722 59.4006 -1.3588 -10.3162 -2.0493
# 2 30.6722 36.0241 25.4281 -5.4097 -1.0522 -1.6060
# 3 59.4006 25.4281 145.2205 -1.9304 -7.4659 -8.1979
# 4 -1.3588 -5.4097 -1.9304 35.9350 2.1096 0.5410
# 5 -10.3162 -1.0522 -7.4659 2.1096 43.9718 2.9239
# 6 -2.0493 -1.6060 -8.1979 0.5410 2.9239 32.0812
#
#
#
# Elastic Compliance Matrix: (Units=1/GPa)
#
#
# Indices 1 2 3 4 5 6 
#
# 1 0.008255 -0.005429 -0.002387 -0.000712 0.001467 -0.000476
# 2 -0.005429 0.035987 -0.004058 0.005068 -0.001375 0.000458
# 3 -0.002387 -0.004058 0.008708 -0.000303 0.000716 0.001809
# 4 -0.000712 0.005068 -0.000303 0.028637 -0.001457 -0.000219
# 5 0.001467 -0.001375 0.000716 -0.001457 0.023371 -0.001898
# 6 -0.000476 0.000458 0.001809 -0.000219 -0.001898 0.031802
#
#
# Mechanical properties :
#
#
# Convention : Reuss Voigt Hill
#
# Bulk Modulus (GPa) = 34.24414 63.59265 48.91839
# Shear Modulus (GPa) = 29.36994 37.45302 33.41148
#
# Velocity S-wave (km/s) = 3.73010 4.21223 3.97848
# Velocity P-wave (km/s) = 5.89697 7.33372 6.65424
#
# Compressibility (1/GPa) = 0.02920208
#
# Stress axis : x y z
#
# Youngs Moduli (GPa) = 121.14139 27.78744 114.83849
#
# Poissons Ratio (x) = 0.15086 0.27410
# Poissons Ratio (y) = 0.65768 0.46604
# Poissons Ratio (z) = 0.28914 0.11277
#
# Static dielectric constant tensor:
#      x y z
#    x 3.999440 -0.031250 0.252870 
#    y -0.031250 3.478220 0.603220 
#    z 0.252870 0.603220 7.390850 
# 
# 
# High freq. dielectric constant tensor:
#      x y z
#    x 1.837960 0.010040 -0.001440 
#    y 0.010040 1.805900 0.009380 
#    z -0.001440 0.009380 1.855510 
# 
# From -- ./inp_files/610358.got.cif
#   From: 2010.06.25/outbox.cif.g09.slc.cpg/sg2_306_cif.got.tgz:610358.got - 2010.06.27 13:26:56.
