data_PCOD8040178
_publ_section_title
;
Structure prediction by ZEFSAII (Michael W. Deem and Ramdas Pophale) SiO2 
 PCOD8040178
Probable space group: P -1
;
_chemical_formula_sum "Si O2"
_cell_formula_units_Z 14
_cell_length_a 16.851904
_cell_length_b 9.410561
_cell_length_c 10.965479
_cell_angle_alpha 139.092380
_cell_angle_beta 42.890770
_cell_angle_gamma 128.187156
_cell_volume 766.872407
_symmetry_space_group_name_H-M "P -1"
_symmetry_group_IT_number 2
_symmetry_cell_setting 'triclinic'
loop_
_space_group_symop_operation_xyz
x,y,z
-x,-y,-z
loop_
_atom_site_type_symbol
_atom_site_label
_atom_site_fract_x
_atom_site_fract_y
_atom_site_fract_z
Si Si1 0.020246 0.990592 0.268912
Si Si2 0.529239 0.247574 0.172764
Si Si3 0.816571 0.224531 0.215759
Si Si4 0.122531 0.030847 0.811810
Si Si5 0.638829 0.426233 0.396445
Si Si6 0.008049 0.335308 0.700422
Si Si7 0.769523 0.496222 0.061465
O O1 0.910701 0.029193 0.329848
O O2 0.056659 0.200735 0.448880
O O3 0.974024 0.777751 0.264089
O O4 0.138771 0.958203 0.040746
O O5 0.545628 0.261624 0.311985
O O6 0.423834 0.384820 0.346154
O O7 0.650825 0.363581 0.047866
O O8 0.500000 0.000000 0.000000
O O9 0.798243 0.130887 0.314327
O O10 0.692955 0.289619 0.352570
O O11 0.921981 0.423985 0.223208
O O12 0.192403 0.275755 0.902676
O O13 0.000000 0.000000 0.000000
O O14 0.743341 0.537770 0.261491
O O15 0.870339 0.342825 0.838838
#
# Coordination Sequence:
#
# PCOD8040178 Si02
#       7
#     2   2   2   2   2   2   2
#     4  10  20  32  50  81 114 149 186 218 269 325
#     4   9  20  38  61  83 103 136 193 244 272 311
#     4  11  20  36  53  79 123 146 178 222 276 339
#     4  10  20  34  53  78 121 157 174 214 275 343
#     4   9  20  36  61  81 106 142 188 236 275 317
#     4  11  20  32  56  87 108 147 186 230 274 328
#     4  10  18  36  56  83 108 144 186 227 274 324
#
# _framework density 18.255970999999999
#
# number of rings (size 3 to 8) (size 9 to 14) (size 15 to 20)
#    0.857    1.143    4.286    1.286    0.000    5.143 
#    0.000    0.714    0.000    0.857    0.000    0.000 
#    0.000    0.000    0.000    0.000    0.000    0.000 
#
# Total GULP energy -173491.511514 kJ/mol
# GULP energy per Si atom -12392.250822 kJ/mol
# Density = 1.821442 g / cm^3
# Si number density = 18.255971 Si / 1000 Ang^3
#
#
#
# Elastic Constant Matrix: (Units=GPa)
#
#
# Indices 1 2 3 4 5 6 
#
# 1 114.4893 44.6205 47.4826 11.3257 -22.0482 -24.9568
# 2 44.6205 76.8834 16.4104 4.6240 -2.4542 -9.1280
# 3 47.4826 16.4104 86.4349 13.6292 -15.7823 -5.4352
# 4 11.3257 4.6240 13.6292 13.7337 -1.0392 -2.9845
# 5 -22.0482 -2.4542 -15.7823 -1.0392 28.5127 3.4809
# 6 -24.9568 -9.1280 -5.4352 -2.9845 3.4809 36.0422
#
#
#
# Elastic Compliance Matrix: (Units=1/GPa)
#
#
# Indices 1 2 3 4 5 6 
#
# 1 0.018092 -0.007750 -0.005624 -0.004200 0.009020 0.008498
# 2 -0.007750 0.017269 0.000153 -0.000024 -0.004356 -0.000551
# 3 -0.005624 0.000153 0.017441 -0.012938 0.005188 -0.002798
# 4 -0.004200 -0.000024 -0.012938 0.089261 -0.007556 0.003256
# 5 0.009020 -0.004356 0.005188 -0.007556 0.044142 0.001036
# 6 0.008498 -0.000551 -0.002798 0.003256 0.001036 0.033237
#
#
# Mechanical properties :
#
#
# Convention : Reuss Voigt Hill
#
# Bulk Modulus (GPa) = 37.93655 54.98163 46.45909
# Shear Modulus (GPa) = 19.63304 26.94399 23.28852
#
# Velocity S-wave (km/s) = 3.28293 3.84591 3.57552
# Velocity P-wave (km/s) = 5.93259 7.06426 6.52302
#
# Compressibility (1/GPa) = 0.02635980
#
# Stress axis : x y z
#
# Youngs Moduli (GPa) = 55.27185 57.90691 57.33512
#
# Poissons Ratio (x) = 0.44880 0.32244
# Poissons Ratio (y) = 0.42838 -0.00875
# Poissons Ratio (z) = 0.31084 -0.00884
#
# Static dielectric constant tensor:
#      x y z
#    x 3.588510 -0.295210 -0.120080 
#    y -0.295210 3.263170 0.054890 
#    z -0.120080 0.054890 3.223950 
# 
# 
# High freq. dielectric constant tensor:
#      x y z
#    x 1.702910 -0.006180 -0.009570 
#    y -0.006180 1.686500 0.012830 
#    z -0.009570 0.012830 1.693080 
# 
# From -- ./inp_files/264081.got.cif
#   From: 2010.06.25/outbox.cif.g09.slc.cpg/sg2_133_cif.got.tgz:264081.got - 2010.06.27 13:26:56.
