data_PCOD8040831
_publ_section_title
;
Structure prediction by ZEFSAII (Michael W. Deem and Ramdas Pophale) SiO2 
 PCOD8040831
Probable space group: P -1
;
_chemical_formula_sum "Si O2"
_cell_formula_units_Z 16
_cell_length_a 14.865179
_cell_length_b 8.854210
_cell_length_c 12.238981
_cell_angle_alpha 112.984038
_cell_angle_beta 110.788066
_cell_angle_gamma 31.943227
_cell_volume 783.707501
_symmetry_space_group_name_H-M "P -1"
_symmetry_group_IT_number 2
_symmetry_cell_setting 'triclinic'
loop_
_space_group_symop_operation_xyz
x,y,z
-x,-y,-z
loop_
_atom_site_type_symbol
_atom_site_label
_atom_site_fract_x
_atom_site_fract_y
_atom_site_fract_z
Si Si1 0.173863 0.589076 0.767235
Si Si2 0.477065 0.917718 0.710079
Si Si3 0.497818 0.297006 0.555202
Si Si4 0.532736 0.553730 0.777801
Si Si5 0.149574 0.043593 0.138899
Si Si6 0.327880 0.715785 0.920459
Si Si7 0.123765 0.705148 0.533376
Si Si8 0.737696 0.774940 0.670751
O O1 0.293399 0.574950 0.840004
O O2 0.076819 0.738361 0.649999
O O3 0.031605 0.772669 0.851446
O O4 0.296028 0.260807 0.734203
O O5 0.458665 0.801866 0.578582
O O6 0.520604 0.760360 0.796029
O O7 0.635053 0.817600 0.730194
O O8 0.544218 0.418188 0.638924
O O9 0.303093 0.540628 0.565512
O O10 0.598590 0.026047 0.595259
O O11 0.360515 0.759389 0.831170
O O12 0.703593 0.282665 0.843996
O O13 0.164642 0.209923 0.230770
O O14 0.169908 0.011930 0.006186
O O15 0.500000 0.500000 0.000000
O O16 0.125083 0.532122 0.418541
O O17 0.000000 0.000000 0.500000
#
# Coordination Sequence:
#
# PCOD8040831 Si02
#       8
#     2   2   2   2   2   2   2   2
#     4  12  22  41  63  94 125 158 203 254 313 356
#     4  11  20  35  62  90 123 160 204 248 299 368
#     4  10  18  39  59  86 125 168 200 239 301 372
#     4  10  21  38  63  91 116 165 210 246 295 370
#     4  10  24  40  63  89 122 163 206 253 303 357
#     4  10  21  45  68  84 117 167 211 252 301 360
#     4  11  22  35  63  94 129 162 194 253 310 363
#     4  10  20  42  59  87 128 167 200 239 305 373
#
# _framework density 20.415780999999999
#
# number of rings (size 3 to 8) (size 9 to 14) (size 15 to 20)
#    0.000    1.500    3.750    3.000    3.500    1.500 
#    0.000    6.250    0.000    0.000    0.000    0.000 
#    0.000    0.000    0.000    0.000    0.000    0.000 
#
# Total GULP energy -198362.121324 kJ/mol
# GULP energy per Si atom -12397.632583 kJ/mol
# Density = 2.036931 g / cm^3
# Si number density = 20.415781 Si / 1000 Ang^3
#
#
#
# Elastic Constant Matrix: (Units=GPa)
#
#
# Indices 1 2 3 4 5 6 
#
# 1 114.7415 38.8995 33.3193 0.7545 -21.4041 10.3379
# 2 38.8995 81.3151 33.3884 13.0261 -11.2823 17.3689
# 3 33.3193 33.3884 77.8204 15.6245 -9.6892 4.4355
# 4 0.7545 13.0261 15.6245 19.9954 -10.0420 -8.3631
# 5 -21.4041 -11.2823 -9.6892 -10.0420 22.6710 6.8409
# 6 10.3379 17.3689 4.4355 -8.3631 6.8409 33.7999
#
#
#
# Elastic Compliance Matrix: (Units=1/GPa)
#
#
# Indices 1 2 3 4 5 6 
#
# 1 0.014806 -0.004792 -0.005046 0.014063 0.016018 -0.001166
# 2 -0.004792 0.021590 -0.002908 -0.016411 0.001836 -0.013679
# 3 -0.005046 -0.002908 0.019091 -0.016125 -0.004421 -0.002563
# 4 0.014063 -0.016411 -0.016125 0.100658 0.035576 0.023954
# 5 0.016018 0.001836 -0.004421 0.035576 0.077691 -0.012184
# 6 -0.001166 -0.013679 -0.002563 0.023954 -0.012184 0.045701
#
#
# Mechanical properties :
#
#
# Convention : Reuss Voigt Hill
#
# Bulk Modulus (GPa) = 33.33878 53.89905 43.61891
# Shear Modulus (GPa) = 15.87165 26.51122 21.19143
#
# Velocity S-wave (km/s) = 2.79125 3.60747 3.22528
# Velocity P-wave (km/s) = 5.17238 6.61890 5.93983
#
# Compressibility (1/GPa) = 0.02999510
#
# Stress axis : x y z
#
# Youngs Moduli (GPa) = 67.54169 46.31800 52.37957
#
# Poissons Ratio (x) = 0.22196 0.26429
# Poissons Ratio (y) = 0.32367 0.15232
# Poissons Ratio (z) = 0.34080 0.13470
#
# Static dielectric constant tensor:
#      x y z
#    x 3.671930 0.032430 -0.204780 
#    y 0.032430 3.520300 0.302600 
#    z -0.204780 0.302600 4.010170 
# 
# 
# High freq. dielectric constant tensor:
#      x y z
#    x 1.799950 0.002320 -0.004130 
#    y 0.002320 1.779550 0.016950 
#    z -0.004130 0.016950 1.800410 
# 
# From -- ./inp_files/200172.got.cif
#   From: 2010.06.25/outbox.cif.g09.slc.cpg/sg2_101_cif.got.tgz:200172.got - 2010.06.27 13:26:56.
