data_PCOD8040033
_publ_section_title
;
Structure prediction by ZEFSAII (Michael W. Deem and Ramdas Pophale) SiO2 
 PCOD8040033
Probable space group: P -1
;
_chemical_formula_sum "Si O2"
_cell_formula_units_Z 16
_cell_length_a 9.441875
_cell_length_b 11.681053
_cell_length_c 8.576565
_cell_angle_alpha 120.746800
_cell_angle_beta 83.357836
_cell_angle_gamma 112.154279
_cell_volume 749.393705
_symmetry_space_group_name_H-M "P -1"
_symmetry_group_IT_number 2
_symmetry_cell_setting 'triclinic'
loop_
_space_group_symop_operation_xyz
x,y,z
-x,-y,-z
loop_
_atom_site_type_symbol
_atom_site_label
_atom_site_fract_x
_atom_site_fract_y
_atom_site_fract_z
Si Si1 0.984664 0.140472 0.673074
Si Si2 0.399259 0.627498 0.007476
Si Si3 0.732473 0.664433 0.024652
Si Si4 0.876124 0.586992 0.674700
Si Si5 0.385654 0.564474 0.625528
Si Si6 0.608885 0.143528 0.256353
Si Si7 0.692658 0.115164 0.884687
Si Si8 0.888495 0.297927 0.519846
O O1 0.844915 0.097157 0.785220
O O2 0.958814 0.235857 0.605036
O O3 0.144277 0.233540 0.800717
O O4 0.000000 0.000000 0.500000
O O5 0.318885 0.506832 0.061458
O O6 0.372456 0.534667 0.789209
O O7 0.582528 0.707720 0.073570
O O8 0.314047 0.739065 0.086457
O O9 0.806678 0.680717 0.854175
O O10 0.778087 0.512069 0.484363
O O11 0.902143 0.458768 0.679187
O O12 0.030614 0.697526 0.655431
O O13 0.500000 0.500000 0.500000
O O14 0.452769 0.733902 0.702473
O O15 0.715024 0.190266 0.429255
O O16 0.461800 0.010618 0.239500
O O17 0.695571 0.111919 0.071127
#
# Coordination Sequence:
#
# PCOD8040033 Si02
#       8
#     2   2   2   2   2   2   2   2
#     4  12  28  45  60  93 131 175 212 265 317 378
#     4  10  22  39  67  95 127 165 206 267 316 382
#     4  11  23  41  62  97 127 161 217 258 322 371
#     4  10  20  38  67  94 124 163 209 271 314 375
#     4  10  18  35  61  97 128 159 207 260 319 369
#     4   9  21  39  66  92 122 168 217 254 313 387
#     4  10  22  44  65  90 124 171 213 258 322 382
#     4  10  22  40  61  95 126 165 212 259 323 373
#
# _framework density 21.350594000000001
#
# number of rings (size 3 to 8) (size 9 to 14) (size 15 to 20)
#    0.000    1.750    1.250    2.250    1.750    6.500 
#    4.500    1.250    0.000    0.000    0.000    0.000 
#    0.000    0.000    0.000    0.000    0.000    0.000 
#
# Total GULP energy -198369.985722 kJ/mol
# GULP energy per Si atom -12398.124108 kJ/mol
# Density = 2.130200 g / cm^3
# Si number density = 21.350594 Si / 1000 Ang^3
#
#
#
# Elastic Constant Matrix: (Units=GPa)
#
#
# Indices 1 2 3 4 5 6 
#
# 1 104.1606 26.1441 48.1492 -1.0482 -4.2233 9.5451
# 2 26.1441 52.9993 24.6451 4.3333 2.6989 9.1828
# 3 48.1492 24.6451 94.9557 2.5854 -0.7852 9.2046
# 4 -1.0482 4.3333 2.5854 22.3035 1.6716 6.9697
# 5 -4.2233 2.6989 -0.7852 1.6716 47.6997 -3.5710
# 6 9.5451 9.1828 9.2046 6.9697 -3.5710 27.5501
#
#
#
# Elastic Compliance Matrix: (Units=1/GPa)
#
#
# Indices 1 2 3 4 5 6 
#
# 1 0.013461 -0.003925 -0.005677 0.002589 0.001082 -0.001973
# 2 -0.003925 0.023658 -0.003619 -0.002679 -0.002019 -0.004901
# 3 -0.005677 -0.003619 0.014514 -0.000766 -0.000145 -0.001501
# 4 0.002589 -0.002679 -0.000766 0.049684 -0.002318 -0.012618
# 5 0.001082 -0.002019 -0.000145 -0.002318 0.021532 0.003724
# 6 -0.001973 -0.004901 -0.001501 -0.012618 0.003724 0.042791
#
#
# Mechanical properties :
#
#
# Convention : Reuss Voigt Hill
#
# Bulk Modulus (GPa) = 39.69612 49.99917 44.84764
# Shear Modulus (GPa) = 24.94031 29.72243 27.33137
#
# Velocity S-wave (km/s) = 3.42150 3.73515 3.58176
# Velocity P-wave (km/s) = 5.85165 6.48620 6.17708
#
# Compressibility (1/GPa) = 0.02519138
#
# Stress axis : x y z
#
# Youngs Moduli (GPa) = 74.28980 42.26891 68.89747
#
# Poissons Ratio (x) = 0.16591 0.39114
# Poissons Ratio (y) = 0.29159 0.24932
# Poissons Ratio (z) = 0.42175 0.15296
#
# Static dielectric constant tensor:
#      x y z
#    x 3.260940 -0.143510 -0.247960 
#    y -0.143510 3.605550 -0.002100 
#    z -0.247960 -0.002100 3.680710 
# 
# 
# High freq. dielectric constant tensor:
#      x y z
#    x 1.842960 0.007960 0.004260 
#    y 0.007960 1.828130 -0.003940 
#    z 0.004260 -0.003940 1.838450 
# 
# From -- ./inp_files/189998.got.cif
#   From: 2010.06.25/outbox.cif.g09.slc.cpg/sg2_95_cif.got.tgz:189998.got - 2010.06.27 13:26:56.
