data_PCOD8040954
_publ_section_title
;
Structure prediction by ZEFSAII (Michael W. Deem and Ramdas Pophale) SiO2 
 PCOD8040954
Probable space group: P -1
;
_chemical_formula_sum "Si O2"
_cell_formula_units_Z 16
_cell_length_a 11.303069
_cell_length_b 8.322412
_cell_length_c 17.600052
_cell_angle_alpha 115.725096
_cell_angle_beta 150.624676
_cell_angle_gamma 74.255378
_cell_volume 709.906927
_symmetry_space_group_name_H-M "P -1"
_symmetry_group_IT_number 2
_symmetry_cell_setting 'triclinic'
loop_
_space_group_symop_operation_xyz
x,y,z
-x,-y,-z
loop_
_atom_site_type_symbol
_atom_site_label
_atom_site_fract_x
_atom_site_fract_y
_atom_site_fract_z
Si Si1 0.976610 0.124358 0.246293
Si Si2 0.804644 0.336105 0.317299
Si Si3 0.524415 0.581534 0.447708
Si Si4 0.742312 0.142061 0.693590
Si Si5 0.319137 0.710124 0.995308
Si Si6 0.360286 0.749478 0.635648
Si Si7 0.803891 0.603295 0.245565
Si Si8 0.234516 0.917675 0.128868
O O1 0.222035 0.262398 0.379295
O O2 0.929891 0.182287 0.318125
O O3 0.746902 0.136770 0.066116
O O4 0.019821 0.917769 0.223012
O O5 0.617246 0.232643 0.256202
O O6 0.687068 0.437181 0.205834
O O7 0.000000 0.500000 0.500000
O O8 0.500000 0.500000 0.500000
O O9 0.283041 0.659003 0.308362
O O10 0.531069 0.423875 0.358886
O O11 0.759602 0.145624 0.794779
O O12 0.500000 0.000000 0.500000
O O13 0.187466 0.502378 0.851433
O O14 0.618583 0.738161 0.167181
O O15 0.223584 0.741358 0.032752
O O16 0.076329 0.720555 0.443084
O O17 0.513612 0.931718 0.718717
O O18 0.000000 0.000000 0.000000
#
# Coordination Sequence:
#
# PCOD8040954 Si02
#       8
#     2   2   2   2   2   2   2   2
#     4  10  18  40  66  92 139 175 213 278 351 394
#     4   9  17  35  64  94 130 167 225 286 325 387
#     4  11  22  39  68  98 126 174 237 276 321 417
#     4  10  23  41  67  97 129 187 222 273 351 399
#     4  10  20  39  65  95 138 181 218 278 349 393
#     4  11  22  40  68 102 130 177 235 277 330 417
#     4   9  20  38  68  97 133 185 225 274 342 402
#     4  12  26  44  69  98 149 179 221 288 347 398
#
# _framework density 22.538166
#
# number of rings (size 3 to 8) (size 9 to 14) (size 15 to 20)
#    0.000    1.750    5.000    1.500    1.750    1.500 
#    0.000    5.625    5.500    0.000    0.000    0.000 
#    0.000    0.000    0.000    0.000    0.000    0.000 
#
# Total GULP energy -198324.002031 kJ/mol
# GULP energy per Si atom -12395.250127 kJ/mol
# Density = 2.248687 g / cm^3
# Si number density = 22.538166 Si / 1000 Ang^3
#
#
#
# Elastic Constant Matrix: (Units=GPa)
#
#
# Indices 1 2 3 4 5 6 
#
# 1 154.1645 83.4302 53.7543 -13.1177 -27.2572 -28.3544
# 2 83.4302 135.1009 40.8244 -37.1736 -9.9971 -25.9850
# 3 53.7543 40.8244 78.3169 -15.7593 -17.4831 -7.9925
# 4 -13.1177 -37.1736 -15.7593 32.4463 -0.6454 4.8487
# 5 -27.2572 -9.9971 -17.4831 -0.6454 38.9633 5.7940
# 6 -28.3544 -25.9850 -7.9925 4.8487 5.7940 45.5514
#
#
#
# Elastic Compliance Matrix: (Units=1/GPa)
#
#
# Indices 1 2 3 4 5 6 
#
# 1 0.012986 -0.007147 -0.005037 -0.005772 0.004422 0.003174
# 2 -0.007147 0.016907 -0.000683 0.015591 -0.001242 0.003575
# 3 -0.005037 -0.000683 0.018917 0.006706 0.005134 -0.001573
# 4 -0.005772 0.015591 0.006706 0.049570 0.003684 0.000733
# 5 0.004422 -0.001242 0.005134 0.003684 0.031012 -0.001391
# 6 0.003174 0.003575 -0.001573 0.000733 -0.001391 0.025791
#
#
# Mechanical properties :
#
#
# Convention : Reuss Voigt Hill
#
# Bulk Modulus (GPa) = 43.33697 80.40002 61.86850
# Shear Modulus (GPa) = 26.50975 36.03044 31.27009
#
# Velocity S-wave (km/s) = 3.43332 4.00264 3.72886
# Velocity P-wave (km/s) = 5.91497 7.55723 6.78597
#
# Compressibility (1/GPa) = 0.02307499
#
# Stress axis : x y z
#
# Youngs Moduli (GPa) = 77.00876 59.14561 52.86185
#
# Poissons Ratio (x) = 0.42273 0.26629
# Poissons Ratio (y) = 0.55040 0.03610
# Poissons Ratio (z) = 0.38793 0.04039
#
# Static dielectric constant tensor:
#      x y z
#    x 4.483830 -0.380040 -0.306810 
#    y -0.380040 4.541230 -0.260690 
#    z -0.306810 -0.260690 4.059870 
# 
# 
# High freq. dielectric constant tensor:
#      x y z
#    x 1.889090 -0.027010 -0.021610 
#    y -0.027010 1.882950 -0.013600 
#    z -0.021610 -0.013600 1.878160 
# 
# From -- ./inp_files/566173.got.cif
#   From: 2010.06.25/outbox.cif.g09.slc.cpg/sg2_284_cif.got.tgz:566173.got - 2010.06.27 13:26:56.
