data_PCOD8040655
_publ_section_title
;
Structure prediction by ZEFSAII (Michael W. Deem and Ramdas Pophale) SiO2 
 PCOD8040655
Probable space group: P -1
;
_chemical_formula_sum "Si O2"
_cell_formula_units_Z 14
_cell_length_a 9.280905
_cell_length_b 9.828878
_cell_length_c 14.693868
_cell_angle_alpha 134.491044
_cell_angle_beta 96.401754
_cell_angle_gamma 54.838273
_cell_volume 676.601184
_symmetry_space_group_name_H-M "P -1"
_symmetry_group_IT_number 2
_symmetry_cell_setting 'triclinic'
loop_
_space_group_symop_operation_xyz
x,y,z
-x,-y,-z
loop_
_atom_site_type_symbol
_atom_site_label
_atom_site_fract_x
_atom_site_fract_y
_atom_site_fract_z
Si Si1 0.886094 0.525601 0.677714
Si Si2 0.198466 0.792526 0.858680
Si Si3 0.166024 0.091554 0.843927
Si Si4 0.432331 0.900308 0.018839
Si Si5 0.424714 0.352817 0.416092
Si Si6 0.867291 0.493777 0.871237
Si Si7 0.322566 0.279660 0.569068
O O1 0.780614 0.470967 0.576533
O O2 0.889631 0.438429 0.739210
O O3 0.116152 0.346992 0.576674
O O4 0.753641 0.846134 0.814297
O O5 0.275447 0.505871 0.734244
O O6 0.151978 0.898352 0.800868
O O7 0.372605 0.767208 0.897938
O O8 0.000000 0.000000 0.000000
O O9 0.026597 0.209882 0.799820
O O10 0.397640 0.926307 0.754664
O O11 0.084716 0.328377 0.018986
O O12 0.641576 0.651488 0.968716
O O13 0.500000 0.000000 0.000000
O O14 0.500000 0.500000 0.500000
O O15 0.395342 0.277803 0.474782
O O16 0.500000 0.000000 0.500000
#
# Coordination Sequence:
#
# PCOD8040655 Si02
#       7
#     2   2   2   2   2   2   2
#     4  11  21  44  67  94 135 180 221 272 345 394
#     4  12  22  42  71  95 131 175 228 276 340 400
#     4  11  20  39  64 102 128 166 220 275 333 395
#     4  10  18  37  67  97 122 168 212 278 332 388
#     4  12  25  42  70  92 131 185 228 268 336 417
#     4  10  20  36  70 100 130 161 217 285 331 391
#     4  12  27  46  66  98 141 183 222 279 342 403
#
# _framework density 20.691658
#
# number of rings (size 3 to 8) (size 9 to 14) (size 15 to 20)
#    0.000    0.857    7.143    2.143    0.000    1.143 
#    2.571    2.143    0.000    0.000    0.000    0.000 
#    0.000    0.000    0.000    0.000    0.000    0.000 
#
# Total GULP energy -173581.941048 kJ/mol
# GULP energy per Si atom -12398.710075 kJ/mol
# Density = 2.064456 g / cm^3
# Si number density = 20.691658 Si / 1000 Ang^3
#
#
#
# Elastic Constant Matrix: (Units=GPa)
#
#
# Indices 1 2 3 4 5 6 
#
# 1 138.2518 73.9191 48.5038 3.7559 -6.8386 -19.1821
# 2 73.9191 142.0535 46.9740 0.2132 -7.6686 -13.4179
# 3 48.5038 46.9740 87.1906 0.5099 -7.1255 4.7530
# 4 3.7559 0.2132 0.5099 35.8922 -1.8488 -4.3612
# 5 -6.8386 -7.6686 -7.1255 -1.8488 48.5438 -3.5069
# 6 -19.1821 -13.4179 4.7530 -4.3612 -3.5069 29.1966
#
#
#
# Elastic Compliance Matrix: (Units=1/GPa)
#
#
# Indices 1 2 3 4 5 6 
#
# 1 0.012090 -0.003966 -0.004898 -0.000280 0.000851 0.006978
# 2 -0.003966 0.010641 -0.003632 0.000824 0.000845 0.003101
# 3 -0.004898 -0.003632 0.016618 -0.000595 0.000603 -0.007609
# 4 -0.000280 0.000824 -0.000595 0.028542 0.001432 0.004727
# 5 0.000851 0.000845 0.000603 0.001432 0.021258 0.003616
# 6 0.006978 0.003101 -0.007609 0.004727 0.003616 0.042639
#
#
# Mechanical properties :
#
#
# Convention : Reuss Voigt Hill
#
# Bulk Modulus (GPa) = 69.64765 78.47663 74.06214
# Shear Modulus (GPa) = 30.94703 35.93313 33.44008
#
# Velocity S-wave (km/s) = 3.87153 4.17177 4.02445
# Velocity P-wave (km/s) = 7.32925 7.82394 7.58063
#
# Compressibility (1/GPa) = 0.01435799
#
# Stress axis : x y z
#
# Youngs Moduli (GPa) = 82.71260 93.97201 60.17535
#
# Poissons Ratio (x) = 0.37269 0.29475
# Poissons Ratio (y) = 0.32803 0.21854
# Poissons Ratio (z) = 0.40514 0.34127
#
# Static dielectric constant tensor:
#      x y z
#    x 3.416880 -0.151140 -0.363580 
#    y -0.151140 3.836750 0.208130 
#    z -0.363580 0.208130 3.983320 
# 
# 
# High freq. dielectric constant tensor:
#      x y z
#    x 1.810250 -0.019310 -0.010630 
#    y -0.019310 1.797950 -0.002960 
#    z -0.010630 -0.002960 1.808490 
# 
# From -- ./inp_files/204484.got.cif
#   From: 2010.06.25/outbox.cif.g09.slc.cpg/sg2_103_cif.got.tgz:204484.got - 2010.06.27 13:26:56.
