data_PCOD8040937
_publ_section_title
;
Structure prediction by ZEFSAII (Michael W. Deem and Ramdas Pophale) SiO2 
 PCOD8040937
Probable space group: P -1
;
_chemical_formula_sum "Si O2"
_cell_formula_units_Z 16
_cell_length_a 12.365499
_cell_length_b 13.276379
_cell_length_c 9.582730
_cell_angle_alpha 125.145313
_cell_angle_beta 94.467205
_cell_angle_gamma 46.035865
_cell_volume 775.320265
_symmetry_space_group_name_H-M "P -1"
_symmetry_group_IT_number 2
_symmetry_cell_setting 'triclinic'
loop_
_space_group_symop_operation_xyz
x,y,z
-x,-y,-z
loop_
_atom_site_type_symbol
_atom_site_label
_atom_site_fract_x
_atom_site_fract_y
_atom_site_fract_z
Si Si1 0.058244 0.030258 0.334692
Si Si2 0.304695 0.566220 0.264767
Si Si3 0.729816 0.986256 0.178308
Si Si4 0.623525 0.719107 0.298314
Si Si5 0.901206 0.293488 0.912885
Si Si6 0.667194 0.191931 0.590527
Si Si7 0.666611 0.092372 0.949635
Si Si8 0.504990 0.980410 0.253979
O O1 0.067850 0.876578 0.177990
O O2 0.129151 0.991870 0.471036
O O3 0.189410 0.976340 0.194070
O O4 0.849192 0.264797 0.496734
O O5 0.199566 0.592729 0.152394
O O6 0.396317 0.609157 0.251819
O O7 0.472243 0.333037 0.144084
O O8 0.621481 0.956039 0.138652
O O9 0.913912 0.799257 0.132374
O O10 0.636238 0.175441 0.415319
O O11 0.759670 0.008424 0.043344
O O12 0.445269 0.797518 0.314066
O O13 0.642884 0.780931 0.208054
O O14 0.615559 0.818377 0.506284
O O15 0.777843 0.480728 0.158811
O O16 0.630544 0.985109 0.814422
#
# Coordination Sequence:
#
# PCOD8040937 Si02
#       8
#     2   2   2   2   2   2   2   2
#     4  11  21  40  69  93 131 156 210 261 303 382
#     4  11  21  39  69  94 126 166 206 252 316 378
#     4  11  24  40  63  86 136 162 202 264 310 366
#     4  10  20  36  69  91 117 164 221 258 299 367
#     4  11  20  41  63 100 118 161 211 260 315 362
#     4  10  18  40  62  94 123 162 203 260 306 366
#     4  12  25  43  61  95 131 168 203 256 320 368
#     4  10  22  42  60  89 124 169 212 256 305 366
#
# _framework density 20.636633
#
# number of rings (size 3 to 8) (size 9 to 14) (size 15 to 20)
#    0.000    1.250    5.000    1.875    0.000    3.500 
#    6.750    0.625    0.000    0.000    0.000    0.000 
#    0.000    0.000    0.000    0.000    0.000    0.000 
#
# Total GULP energy -198239.687061 kJ/mol
# GULP energy per Si atom -12389.980441 kJ/mol
# Density = 2.058966 g / cm^3
# Si number density = 20.636633 Si / 1000 Ang^3
#
#
#
# Elastic Constant Matrix: (Units=GPa)
#
#
# Indices 1 2 3 4 5 6 
#
# 1 87.1398 26.4342 42.2414 1.7486 3.7991 9.4851
# 2 26.4342 56.7947 42.8734 -4.1652 1.2650 1.3528
# 3 42.2414 42.8734 98.7449 16.3876 5.0625 8.2095
# 4 1.7486 -4.1652 16.3876 38.1542 2.0641 -3.3608
# 5 3.7991 1.2650 5.0625 2.0641 27.0346 -0.4696
# 6 9.4851 1.3528 8.2095 -3.3608 -0.4696 19.0432
#
#
#
# Elastic Compliance Matrix: (Units=1/GPa)
#
#
# Indices 1 2 3 4 5 6 
#
# 1 0.015416 -0.003456 -0.004670 0.000518 -0.001263 -0.005359
# 2 -0.003456 0.030368 -0.014056 0.010109 0.001054 0.007434
# 3 -0.004670 -0.014056 0.020745 -0.010796 -0.001878 -0.007570
# 4 0.000518 0.010109 -0.010796 0.032805 -0.000865 0.009446
# 5 -0.001263 0.001054 -0.001878 -0.000865 0.037573 0.002138
# 6 -0.005359 0.007434 -0.007570 0.009446 0.002138 0.059637
#
#
# Mechanical properties :
#
#
# Convention : Reuss Voigt Hill
#
# Bulk Modulus (GPa) = 45.11789 51.75305 48.43547
# Shear Modulus (GPa) = 20.13729 25.58843 22.86286
#
# Velocity S-wave (km/s) = 3.12717 3.52511 3.33209
# Velocity P-wave (km/s) = 5.91180 6.45765 6.19075
#
# Compressibility (1/GPa) = 0.02216415
#
# Stress axis : x y z
#
# Youngs Moduli (GPa) = 64.86779 32.92991 48.20423
#
# Poissons Ratio (x) = 0.11381 0.22510
# Poissons Ratio (y) = 0.22420 0.67757
# Poissons Ratio (z) = 0.30291 0.46287
#
# Static dielectric constant tensor:
#      x y z
#    x 3.897490 0.013250 0.047290 
#    y 0.013250 3.350730 0.098890 
#    z 0.047290 0.098890 3.901410 
# 
# 
# High freq. dielectric constant tensor:
#      x y z
#    x 1.820190 0.000520 0.009160 
#    y 0.000520 1.767430 0.006230 
#    z 0.009160 0.006230 1.811760 
# 
# From -- ./inp_files/205766.got.cif
#   From: 2010.06.25/outbox.cif.g09.slc.cpg/sg2_103_cif.got.tgz:205766.got - 2010.06.27 13:26:56.
