data_PCOD8040787
_publ_section_title
;
Structure prediction by ZEFSAII (Michael W. Deem and Ramdas Pophale) SiO2 
 PCOD8040787
Probable space group: P -1
;
_chemical_formula_sum "Si O2"
_cell_formula_units_Z 12
_cell_length_a 14.262330
_cell_length_b 8.738872
_cell_length_c 7.156309
_cell_angle_alpha 127.003396
_cell_angle_beta 55.256686
_cell_angle_gamma 96.725340
_cell_volume 549.536828
_symmetry_space_group_name_H-M "P -1"
_symmetry_group_IT_number 2
_symmetry_cell_setting 'triclinic'
loop_
_space_group_symop_operation_xyz
x,y,z
-x,-y,-z
loop_
_atom_site_type_symbol
_atom_site_label
_atom_site_fract_x
_atom_site_fract_y
_atom_site_fract_z
Si Si1 0.106030 0.012129 0.259291
Si Si2 0.722346 0.285372 0.893799
Si Si3 0.875177 0.598923 0.606217
Si Si4 0.347457 0.275694 0.805032
Si Si5 0.423473 0.822826 0.300804
Si Si6 0.810173 0.222169 0.354629
O O1 0.230481 0.840718 0.064779
O O2 0.110060 0.239321 0.442674
O O3 0.095639 0.956484 0.010225
O O4 0.000000 0.000000 0.500000
O O5 0.600381 0.248035 0.931667
O O6 0.828030 0.205305 0.550047
O O7 0.688814 0.527769 0.146466
O O8 0.830179 0.433133 0.429316
O O9 0.000000 0.500000 0.500000
O O10 0.773975 0.729479 0.962611
O O11 0.441491 0.303569 0.874695
O O12 0.406949 0.062647 0.475019
O O13 0.326840 0.780799 0.524812
#
# Coordination Sequence:
#
# PCOD8040787 Si02
#       6
#     2   2   2   2   2   2
#     4  12  24  40  60  90 126 158 206 252 296 360
#     4   9  21  37  61  89 121 156 199 249 300 353
#     4  11  23  39  64  91 120 164 203 246 302 366
#     4  10  18  38  67  88 122 161 204 241 307 358
#     4   9  19  37  68  89 118 164 198 249 301 359
#     4   9  22  41  61  88 121 159 200 244 307 349
#
# _framework density 21.836569000000001
#
# number of rings (size 3 to 8) (size 9 to 14) (size 15 to 20)
#    1.000    1.000    1.667    2.500    0.000    6.000 
#    0.000    1.667    0.000    0.000    0.000    0.000 
#    0.000    0.000    0.000    0.000    0.000    0.000 
#
# Total GULP energy -148656.580934 kJ/mol
# GULP energy per Si atom -12388.048411 kJ/mol
# Density = 2.178687 g / cm^3
# Si number density = 21.836569 Si / 1000 Ang^3
#
#
#
# Elastic Constant Matrix: (Units=GPa)
#
#
# Indices 1 2 3 4 5 6 
#
# 1 65.6664 50.8861 12.9528 12.4672 -10.9497 10.8822
# 2 50.8861 134.2469 20.7062 34.4623 -8.0294 11.5124
# 3 12.9528 20.7062 56.8743 7.7134 -6.5743 0.1673
# 4 12.4672 34.4623 7.7134 33.8868 1.6876 -0.3602
# 5 -10.9497 -8.0294 -6.5743 1.6876 35.0030 2.7513
# 6 10.8822 11.5124 0.1673 -0.3602 2.7513 30.3517
#
#
#
# Elastic Compliance Matrix: (Units=1/GPa)
#
#
# Indices 1 2 3 4 5 6 
#
# 1 0.023606 -0.007550 -0.001805 -0.000952 0.005841 -0.006131
# 2 -0.007550 0.013640 -0.001635 -0.010810 0.001193 -0.002694
# 3 -0.001805 -0.001635 0.019192 -0.002167 0.002700 0.000891
# 4 -0.000952 -0.010810 -0.002167 0.041686 -0.005623 0.005458
# 5 0.005841 0.001193 0.002700 -0.005623 0.031882 -0.005519
# 6 -0.006131 -0.002694 0.000891 0.005458 -0.005519 0.036727
#
#
# Mechanical properties :
#
#
# Convention : Reuss Voigt Hill
#
# Bulk Modulus (GPa) = 29.01985 47.31977 38.16981
# Shear Modulus (GPa) = 24.97522 31.33113 28.15317
#
# Velocity S-wave (km/s) = 3.38558 3.79199 3.59453
# Velocity P-wave (km/s) = 5.34802 6.39447 5.89451
#
# Compressibility (1/GPa) = 0.03445917
#
# Stress axis : x y z
#
# Youngs Moduli (GPa) = 42.36251 73.31174 52.10457
#
# Poissons Ratio (x) = 0.55349 0.09405
# Poissons Ratio (y) = 0.31983 0.08517
# Poissons Ratio (z) = 0.07647 0.11984
#
# Static dielectric constant tensor:
#      x y z
#    x 3.879860 0.243310 -0.108400 
#    y 0.243310 3.907850 0.194850 
#    z -0.108400 0.194850 3.653270 
# 
# 
# High freq. dielectric constant tensor:
#      x y z
#    x 1.843250 0.028110 -0.011910 
#    y 0.028110 1.853230 0.024620 
#    z -0.011910 0.024620 1.841730 
# 
# From -- ./inp_files/232622.got.cif
#   From: 2010.06.25/outbox.cif.g09.slc.cpg/sg2_117_cif.got.tgz:232622.got - 2010.06.27 13:26:56.
