data_PCOD8040561
_publ_section_title
;
Structure prediction by ZEFSAII (Michael W. Deem and Ramdas Pophale) SiO2 
 PCOD8040561
Probable space group: P -1
;
_chemical_formula_sum "Si O2"
_cell_formula_units_Z 16
_cell_length_a 9.086981
_cell_length_b 22.123149
_cell_length_c 13.292759
_cell_angle_alpha 23.295878
_cell_angle_beta 43.498810
_cell_angle_gamma 50.736312
_cell_volume 721.975322
_symmetry_space_group_name_H-M "P -1"
_symmetry_group_IT_number 2
_symmetry_cell_setting 'triclinic'
loop_
_space_group_symop_operation_xyz
x,y,z
-x,-y,-z
loop_
_atom_site_type_symbol
_atom_site_label
_atom_site_fract_x
_atom_site_fract_y
_atom_site_fract_z
Si Si1 0.855156 0.460887 0.032957
Si Si2 0.190645 0.351887 0.889471
Si Si3 0.731339 0.408350 0.845122
Si Si4 0.605233 0.709815 0.484728
Si Si5 0.623903 0.353570 0.770599
Si Si6 0.271613 0.959543 0.726443
Si Si7 0.341433 0.239747 0.396654
Si Si8 0.080098 0.204687 0.970499
O O1 0.790203 0.616743 0.777867
O O2 0.977982 0.364007 0.040694
O O3 0.640601 0.345193 0.340478
O O4 0.000000 0.500000 0.000000
O O5 0.378946 0.299278 0.944308
O O6 0.257099 0.525516 0.550860
O O7 0.152498 0.213158 0.038055
O O8 0.737053 0.564883 0.665408
O O9 0.611347 0.438301 0.754268
O O10 0.969587 0.364158 0.772697
O O11 0.586735 0.272215 0.184742
O O12 0.636573 0.803772 0.429841
O O13 0.716348 0.802131 0.193659
O O14 0.744237 0.201107 0.957854
O O15 0.500000 0.000000 0.500000
O O16 0.218870 0.091864 0.626588
O O17 0.093581 0.939233 0.755833
#
# Coordination Sequence:
#
# PCOD8040561 Si02
#       8
#     2   2   2   2   2   2   2   2
#     4  11  25  39  65  96 131 159 199 261 325 364
#     4  11  22  41  66  96 124 158 208 259 318 356
#     4  10  18  37  62  91 118 159 208 257 304 354
#     4  11  22  37  60  95 124 158 210 259 310 359
#     4  10  22  38  70  92 122 157 213 259 301 366
#     4  11  24  42  66  87 125 169 214 250 303 371
#     4  11  22  40  63  89 129 162 205 255 309 373
#     4  11  22  36  66  90 121 163 211 262 295 364
#
# _framework density 22.161422000000002
#
# number of rings (size 3 to 8) (size 9 to 14) (size 15 to 20)
#    0.000    1.250    3.750    4.875    7.000    0.500 
#    0.000    1.875    0.000    1.500    0.000    0.000 
#    0.000    0.000    0.000    0.000    0.000    0.000 
#
# Total GULP energy -198306.849916 kJ/mol
# GULP energy per Si atom -12394.178120 kJ/mol
# Density = 2.211098 g / cm^3
# Si number density = 22.161422 Si / 1000 Ang^3
#
#
#
# Elastic Constant Matrix: (Units=GPa)
#
#
# Indices 1 2 3 4 5 6 
#
# 1 126.6712 41.0082 9.9910 12.6691 -21.2615 17.3872
# 2 41.0082 101.9047 23.7678 19.2266 -16.1304 22.3455
# 3 9.9910 23.7678 47.6072 13.5206 -17.8446 5.5484
# 4 12.6691 19.2266 13.5206 41.1523 0.8451 -6.0254
# 5 -21.2615 -16.1304 -17.8446 0.8451 34.8743 -1.1963
# 6 17.3872 22.3455 5.5484 -6.0254 -1.1963 29.5196
#
#
#
# Elastic Compliance Matrix: (Units=1/GPa)
#
#
# Indices 1 2 3 4 5 6 
#
# 1 0.010768 -0.001652 0.003470 -0.004776 0.007472 -0.006417
# 2 -0.001652 0.015980 -0.001932 -0.008219 0.005175 -0.012228
# 3 0.003470 -0.001932 0.032449 -0.012437 0.017835 -0.008496
# 4 -0.004776 -0.008219 -0.012437 0.036652 -0.013337 0.018313
# 5 0.007472 0.005175 0.017835 -0.013337 0.044641 -0.012584
# 6 -0.006417 -0.012228 -0.008496 0.018313 -0.012584 0.051737
#
#
# Mechanical properties :
#
#
# Convention : Reuss Voigt Hill
#
# Bulk Modulus (GPa) = 16.95792 47.30190 32.12991
# Shear Modulus (GPa) = 23.57262 34.53698 29.05480
#
# Velocity S-wave (km/s) = 3.26495 3.95198 3.62477
# Velocity P-wave (km/s) = 4.67780 6.49729 5.66112
#
# Compressibility (1/GPa) = 0.05896950
#
# Stress axis : x y z
#
# Youngs Moduli (GPa) = 92.86693 62.57967 30.81746
#
# Poissons Ratio (x) = 0.10336 -0.10693
# Poissons Ratio (y) = 0.15338 0.05953
# Poissons Ratio (z) = -0.32223 0.12089
#
# Static dielectric constant tensor:
#      x y z
#    x 4.193950 0.263030 -0.252280 
#    y 0.263030 4.110300 0.092820 
#    z -0.252280 0.092820 3.714920 
# 
# 
# High freq. dielectric constant tensor:
#      x y z
#    x 1.876710 0.020380 -0.024770 
#    y 0.020380 1.872960 0.017740 
#    z -0.024770 0.017740 1.842330 
# 
# From -- ./inp_files/405254.got.cif
#   From: 2010.06.25/outbox.cif.g09.slc.cpg/sg2_203_cif.got.tgz:405254.got - 2010.06.27 13:26:56.
