data_PCOD8040698
_publ_section_title
;
Structure prediction by ZEFSAII (Michael W. Deem and Ramdas Pophale) SiO2 
 PCOD8040698
Probable space group: P -1
;
_chemical_formula_sum "Si O2"
_cell_formula_units_Z 14
_cell_length_a 11.329417
_cell_length_b 10.609114
_cell_length_c 9.532348
_cell_angle_alpha 107.255661
_cell_angle_beta 137.806817
_cell_angle_gamma 73.382656
_cell_volume 730.956239
_symmetry_space_group_name_H-M "P -1"
_symmetry_group_IT_number 2
_symmetry_cell_setting 'triclinic'
loop_
_space_group_symop_operation_xyz
x,y,z
-x,-y,-z
loop_
_atom_site_type_symbol
_atom_site_label
_atom_site_fract_x
_atom_site_fract_y
_atom_site_fract_z
Si Si1 0.587096 0.446738 0.914335
Si Si2 0.521722 0.747623 0.459399
Si Si3 0.306664 0.432612 0.218588
Si Si4 0.147723 0.878838 0.248376
Si Si5 0.949070 0.358594 0.796107
Si Si6 0.121380 0.165543 0.247305
Si Si7 0.984623 0.439533 0.317066
O O1 0.495349 0.321449 0.731554
O O2 0.583441 0.560511 0.827736
O O3 0.500000 0.500000 0.000000
O O4 0.790524 0.401483 0.106193
O O5 0.555957 0.626486 0.562053
O O6 0.351168 0.846276 0.377185
O O7 0.679845 0.841011 0.639295
O O8 0.204826 0.578129 0.212393
O O9 0.144243 0.342271 0.031945
O O10 0.099725 0.793419 0.316086
O O11 0.107760 0.036320 0.291474
O O12 0.025855 0.831485 0.000698
O O13 0.946071 0.449495 0.686604
O O14 0.105289 0.300984 0.367296
O O15 0.000000 0.500000 0.500000
#
# Coordination Sequence:
#
# PCOD8040698 Si02
#       7
#     2   2   2   2   2   2   2
#     4  11  23  34  54  94 124 150 197 250 300 353
#     4  12  20  36  60  90 118 160 198 243 298 354
#     4  10  19  34  61  84 122 151 204 248 291 344
#     4  11  22  36  60  89 122 152 198 245 303 349
#     4  10  18  38  60  87 114 156 201 247 292 350
#     4  11  22  39  57  89 122 156 194 249 295 355
#     4  11  22  40  63  85 120 162 198 246 300 353
#
# _framework density 19.152992999999999
#
# number of rings (size 3 to 8) (size 9 to 14) (size 15 to 20)
#    0.000    1.143    5.714    2.571    0.000    0.000 
#    0.000    0.714    0.000    0.000    0.000    7.000 
#    0.000    0.000    0.000    0.000    0.000    0.000 
#
# Total GULP energy -173482.133031 kJ/mol
# GULP energy per Si atom -12391.580931 kJ/mol
# Density = 1.910940 g / cm^3
# Si number density = 19.152993 Si / 1000 Ang^3
#
#
#
# Elastic Constant Matrix: (Units=GPa)
#
#
# Indices 1 2 3 4 5 6 
#
# 1 92.7056 43.3850 40.3215 -11.2905 0.7088 8.0960
# 2 43.3850 143.3775 33.7299 -9.5283 -1.0263 11.1972
# 3 40.3215 33.7299 91.4685 -1.3236 4.9214 -1.1314
# 4 -11.2905 -9.5283 -1.3236 12.7776 2.6896 0.7629
# 5 0.7088 -1.0263 4.9214 2.6896 36.0485 1.8441
# 6 8.0960 11.1972 -1.1314 0.7629 1.8441 19.7964
#
#
#
# Elastic Compliance Matrix: (Units=1/GPa)
#
#
# Indices 1 2 3 4 5 6 
#
# 1 0.016765 -0.002187 -0.006469 0.012929 -0.000142 -0.006474
# 2 -0.002187 0.008836 -0.002310 0.004578 0.000496 -0.004458
# 3 -0.006469 -0.002310 0.014711 -0.005851 -0.001776 0.005184
# 4 0.012929 0.004578 -0.005851 0.094388 -0.005789 -0.011310
# 5 -0.000142 0.000496 -0.001776 -0.005789 0.028573 -0.002763
# 6 -0.006474 -0.004458 0.005184 -0.011310 -0.002763 0.056673
#
#
# Mechanical properties :
#
#
# Convention : Reuss Voigt Hill
#
# Bulk Modulus (GPa) = 54.40756 62.49162 58.44959
# Shear Modulus (GPa) = 20.16083 27.73217 23.94650
#
# Velocity S-wave (km/s) = 3.24793 3.80929 3.53976
# Velocity P-wave (km/s) = 6.52180 7.21430 6.87677
#
# Compressibility (1/GPa) = 0.01837980
#
# Stress axis : x y z
#
# Youngs Moduli (GPa) = 59.64677 113.17627 67.97521
#
# Poissons Ratio (x) = 0.24756 0.43975
# Poissons Ratio (y) = 0.13047 0.15700
# Poissons Ratio (z) = 0.38587 0.26140
#
# Static dielectric constant tensor:
#      x y z
#    x 3.383560 0.236180 0.395740 
#    y 0.236180 3.549260 -0.113690 
#    z 0.395740 -0.113690 3.498090 
# 
# 
# High freq. dielectric constant tensor:
#      x y z
#    x 1.726970 0.020900 0.037510 
#    y 0.020900 1.738490 -0.004120 
#    z 0.037510 -0.004120 1.749920 
# 
# From -- ./inp_files/171378.got.cif
#   From: 2010.06.25/outbox.cif.g09.slc.cpg/sg2_86_cif.got.tgz:171378.got - 2010.06.27 13:26:56.
