data_PCOD8040801
_publ_section_title
;
Structure prediction by ZEFSAII (Michael W. Deem and Ramdas Pophale) SiO2 
 PCOD8040801
Probable space group: P -1
;
_chemical_formula_sum "Si O2"
_cell_formula_units_Z 16
_cell_length_a 15.089204
_cell_length_b 20.891457
_cell_length_c 11.159028
_cell_angle_alpha 150.964752
_cell_angle_beta 149.068085
_cell_angle_gamma 28.332127
_cell_volume 748.518860
_symmetry_space_group_name_H-M "P -1"
_symmetry_group_IT_number 2
_symmetry_cell_setting 'triclinic'
loop_
_space_group_symop_operation_xyz
x,y,z
-x,-y,-z
loop_
_atom_site_type_symbol
_atom_site_label
_atom_site_fract_x
_atom_site_fract_y
_atom_site_fract_z
Si Si1 0.263720 0.816548 0.412016
Si Si2 0.066162 0.534002 0.256453
Si Si3 0.711797 0.656690 0.219376
Si Si4 0.852874 0.088764 0.301445
Si Si5 0.198282 0.567237 0.838161
Si Si6 0.362455 0.628180 0.648193
Si Si7 0.686516 0.694587 0.637908
Si Si8 0.230055 0.164063 0.244594
O O1 0.210813 0.828874 0.510057
O O2 0.464069 0.820055 0.631248
O O3 0.318122 0.647137 0.154118
O O4 0.088330 0.956281 0.360254
O O5 0.231587 0.584394 0.510939
O O6 0.171892 0.377779 0.200843
O O7 0.856146 0.655101 0.278453
O O8 0.000000 0.500000 0.000000
O O9 0.844573 0.510164 0.222980
O O10 0.630020 0.814829 0.461979
O O11 0.512528 0.659428 0.950076
O O12 0.808384 0.216707 0.361041
O O13 0.726762 0.008636 0.986157
O O14 0.318169 0.435894 0.662894
O O15 0.996710 0.702957 0.763752
O O16 0.500000 0.500000 0.500000
O O17 0.749891 0.798207 0.807759
#
# Coordination Sequence:
#
# PCOD8040801 Si02
#       8
#     2   2   2   2   2   2   2   2
#     4  10  22  37  65  94 127 171 213 276 317 379
#     4  12  24  37  66 102 130 166 214 269 317 389
#     4  11  21  41  65  97 129 171 214 263 325 375
#     4  10  24  44  58  91 135 174 215 262 329 378
#     4  10  18  38  68  93 131 161 210 276 320 372
#     4  12  25  43  65  93 129 173 217 264 327 390
#     4  11  20  38  66 101 123 162 222 263 325 378
#     4  10  21  41  67  89 134 170 208 273 322 374
#
# _framework density 21.375547000000001
#
# number of rings (size 3 to 8) (size 9 to 14) (size 15 to 20)
#    0.000    1.250    3.750    3.375    0.000    3.000 
#    2.250    0.625    0.000    0.000    0.000    0.000 
#    0.000    0.000    0.000    0.000    0.000    0.000 
#
# Total GULP energy -198321.001385 kJ/mol
# GULP energy per Si atom -12395.062587 kJ/mol
# Density = 2.132690 g / cm^3
# Si number density = 21.375547 Si / 1000 Ang^3
#
#
#
# Elastic Constant Matrix: (Units=GPa)
#
#
# Indices 1 2 3 4 5 6 
#
# 1 96.4647 30.8713 18.1215 -16.0218 10.3694 11.0690
# 2 30.8713 54.0816 18.6155 0.7831 -1.0567 5.4627
# 3 18.1215 18.6155 88.0866 -21.8831 -4.2139 8.4090
# 4 -16.0218 0.7831 -21.8831 25.9679 3.0245 5.9682
# 5 10.3694 -1.0567 -4.2139 3.0245 36.6689 -10.1993
# 6 11.0690 5.4627 8.4090 5.9682 -10.1993 26.1194
#
#
#
# Elastic Compliance Matrix: (Units=1/GPa)
#
#
# Indices 1 2 3 4 5 6 
#
# 1 0.020526 -0.012271 0.005193 0.022976 -0.012438 -0.017911
# 2 -0.012271 0.027907 -0.008515 -0.018573 0.007397 0.009237
# 3 0.005193 -0.008515 0.018925 0.023222 -0.005320 -0.013896
# 4 0.022976 -0.018573 0.023222 0.085088 -0.022995 -0.041750
# 5 -0.012438 0.007397 -0.005320 -0.022995 0.039557 0.026137
# 6 -0.017911 0.009237 -0.013896 -0.041750 0.026137 0.068164
#
#
# Mechanical properties :
#
#
# Convention : Reuss Voigt Hill
#
# Bulk Modulus (GPa) = 27.64594 41.53884 34.59239
# Shear Modulus (GPa) = 16.47936 29.15287 22.81612
#
# Velocity S-wave (km/s) = 2.77960 3.69703 3.27064
# Velocity P-wave (km/s) = 4.82318 6.13996 5.52097
#
# Compressibility (1/GPa) = 0.03617168
#
# Stress axis : x y z
#
# Youngs Moduli (GPa) = 48.71781 35.83362 52.84105
#
# Poissons Ratio (x) = 0.43972 -0.27442
# Poissons Ratio (y) = 0.59782 0.44995
# Poissons Ratio (z) = -0.25300 0.30513
#
# Static dielectric constant tensor:
#      x y z
#    x 3.863620 0.063620 -0.047450 
#    y 0.063620 3.684800 -0.046910 
#    z -0.047450 -0.046910 4.095290 
# 
# 
# High freq. dielectric constant tensor:
#      x y z
#    x 1.836520 0.001160 -0.005000 
#    y 0.001160 1.819260 -0.008100 
#    z -0.005000 -0.008100 1.847980 
# 
# From -- ./inp_files/279419.got.cif
#   From: 2010.06.25/outbox.cif.g09.slc.cpg/sg2_140_cif.got.tgz:279419.got - 2010.06.27 13:26:56.
