data_PCOD8040105
_publ_section_title
;
Structure prediction by ZEFSAII (Michael W. Deem and Ramdas Pophale) SiO2 
 PCOD8040105
Probable space group: P -1
;
_chemical_formula_sum "Si O2"
_cell_formula_units_Z 16
_cell_length_a 13.002378
_cell_length_b 7.526714
_cell_length_c 10.889175
_cell_angle_alpha 125.715772
_cell_angle_beta 81.598177
_cell_angle_gamma 128.148761
_cell_volume 640.897788
_symmetry_space_group_name_H-M "P -1"
_symmetry_group_IT_number 2
_symmetry_cell_setting 'triclinic'
loop_
_space_group_symop_operation_xyz
x,y,z
-x,-y,-z
loop_
_atom_site_type_symbol
_atom_site_label
_atom_site_fract_x
_atom_site_fract_y
_atom_site_fract_z
Si Si1 0.846502 0.126797 0.200892
Si Si2 0.136882 0.331098 0.929927
Si Si3 0.435927 0.274945 0.265265
Si Si4 0.438126 0.112764 0.475425
Si Si5 0.155330 0.079369 0.307967
Si Si6 0.689073 0.270875 0.391742
Si Si7 0.322946 0.825630 0.912675
Si Si8 0.862632 0.351414 0.714093
O O1 0.773314 0.159012 0.339221
O O2 0.789289 0.140611 0.087797
O O3 0.012680 0.390187 0.287414
O O4 0.807963 0.819695 0.086761
O O5 0.238402 0.524096 0.878260
O O6 0.147534 0.533876 0.110244
O O7 0.978004 0.079144 0.817522
O O8 0.469773 0.227894 0.374688
O O9 0.529716 0.616990 0.348540
O O10 0.275776 0.128017 0.230818
O O11 0.448000 0.107917 0.086752
O O12 0.562353 0.091220 0.445500
O O13 0.281062 0.808653 0.399941
O O14 0.205011 0.384027 0.468614
O O15 0.117986 0.878695 0.352440
O O16 0.622582 0.202227 0.236936
#
# Coordination Sequence:
#
# PCOD8040105 Si02
#       8
#     2   2   2   2   2   2   2   2
#     4  10  24  38  60  96 124 159 207 252 306 368
#     4  12  21  37  64  90 126 164 202 256 305 360
#     4   9  17  33  61  92 115 162 212 248 295 373
#     4   9  18  35  63  92 120 162 206 252 307 359
#     4  10  18  35  64  85 125 160 200 252 312 350
#     4   9  22  39  58  94 129 157 201 257 306 372
#     4  10  20  39  63  90 123 160 208 246 307 362
#     4  11  20  37  62  94 123 157 213 255 298 368
#
# _framework density 24.964980000000001
#
# number of rings (size 3 to 8) (size 9 to 14) (size 15 to 20)
#    0.750    1.250    3.750    2.250    0.000    3.000 
#    0.000    0.625    0.000    9.750    0.000    0.000 
#    0.000    0.000    0.000    0.000    0.000    0.000 
#
# Total GULP energy -198382.755445 kJ/mol
# GULP energy per Si atom -12398.922215 kJ/mol
# Density = 2.490816 g / cm^3
# Si number density = 24.964980 Si / 1000 Ang^3
#
#
#
# Elastic Constant Matrix: (Units=GPa)
#
#
# Indices 1 2 3 4 5 6 
#
# 1 42.3332 30.1196 14.9979 4.7637 -0.3735 -7.0011
# 2 30.1196 119.4640 32.2852 7.2280 -4.1760 7.6238
# 3 14.9979 32.2852 131.6110 19.8997 -1.0137 15.3364
# 4 4.7637 7.2280 19.8997 32.9579 4.9141 -9.8794
# 5 -0.3735 -4.1760 -1.0137 4.9141 42.7081 -0.1961
# 6 -7.0011 7.6238 15.3364 -9.8794 -0.1961 33.8253
#
#
#
# Elastic Compliance Matrix: (Units=1/GPa)
#
#
# Indices 1 2 3 4 5 6 
#
# 1 0.031973 -0.008026 -0.003286 0.002428 -0.000814 0.010621
# 2 -0.008026 0.011108 -0.000963 -0.002184 0.001224 -0.004359
# 3 -0.003286 -0.000963 0.010274 -0.007890 0.000995 -0.007420
# 4 0.002428 -0.002184 -0.007890 0.040926 -0.005013 0.016496
# 5 -0.000814 0.001224 0.000995 -0.005013 0.024118 -0.002220
# 6 0.010621 -0.004359 -0.007420 0.016496 -0.002220 0.040914
#
#
# Mechanical properties :
#
#
# Convention : Reuss Voigt Hill
#
# Bulk Modulus (GPa) = 34.71546 49.80153 42.25850
# Shear Modulus (GPa) = 25.84484 36.29863 31.07173
#
# Velocity S-wave (km/s) = 3.22101 3.81725 3.53173
# Velocity P-wave (km/s) = 5.26964 6.27856 5.79610
#
# Compressibility (1/GPa) = 0.02880561
#
# Stress axis : x y z
#
# Youngs Moduli (GPa) = 31.27656 90.02867 97.33387
#
# Poissons Ratio (x) = 0.72259 0.31980
# Poissons Ratio (y) = 0.25103 0.09369
# Poissons Ratio (z) = 0.10276 0.08665
#
# Static dielectric constant tensor:
#      x y z
#    x 4.860550 -0.152340 0.034420 
#    y -0.152340 4.304280 0.072270 
#    z 0.034420 0.072270 4.502900 
# 
# 
# High freq. dielectric constant tensor:
#      x y z
#    x 2.019700 -0.005560 0.006280 
#    y -0.005560 1.993250 0.002350 
#    z 0.006280 0.002350 1.998560 
# 
# From -- ./inp_files/448199.got.cif
#   From: 2010.06.25/outbox.cif.g09.slc.cpg/sg2_225_cif.got.tgz:448199.got - 2010.06.27 13:26:56.
