data_PCOD8040933
_publ_section_title
;
Structure prediction by ZEFSAII (Michael W. Deem and Ramdas Pophale) SiO2 
 PCOD8040933
Probable space group: P -1
;
_chemical_formula_sum "Si O2"
_cell_formula_units_Z 16
_cell_length_a 26.391970
_cell_length_b 8.295643
_cell_length_c 22.142394
_cell_angle_alpha 131.041921
_cell_angle_beta 165.928666
_cell_angle_gamma 46.067334
_cell_volume 845.087055
_symmetry_space_group_name_H-M "P -1"
_symmetry_group_IT_number 2
_symmetry_cell_setting 'triclinic'
loop_
_space_group_symop_operation_xyz
x,y,z
-x,-y,-z
loop_
_atom_site_type_symbol
_atom_site_label
_atom_site_fract_x
_atom_site_fract_y
_atom_site_fract_z
Si Si1 0.487477 0.824417 0.355683
Si Si2 0.277300 0.219639 0.862236
Si Si3 0.865117 0.390072 0.125281
Si Si4 0.824594 0.522519 0.407385
Si Si5 0.069779 0.233645 0.201222
Si Si6 0.658267 0.699994 0.648447
Si Si7 0.506176 0.279768 0.024153
Si Si8 0.106900 0.737139 0.125293
O O1 0.707682 0.709935 0.544019
O O2 0.506770 0.713738 0.417778
O O3 0.457889 0.090657 0.390505
O O4 0.277245 0.779592 0.071179
O O5 0.285221 0.357084 0.967248
O O6 0.448084 0.266780 0.023671
O O7 0.026841 0.303354 0.568192
O O8 0.343071 0.956464 0.886590
O O9 0.076806 0.317500 0.397169
O O10 0.947738 0.394980 0.153703
O O11 0.719687 0.650405 0.257220
O O12 0.638571 0.457343 0.214230
O O13 0.134392 0.974768 0.233961
O O14 0.903458 0.280943 0.963744
O O15 0.691424 0.467875 0.665917
O O16 0.885560 0.726878 0.896757
#
# Coordination Sequence:
#
# PCOD8040933 Si02
#       8
#     2   2   2   2   2   2   2   2
#     4  10  20  36  54  76 111 146 183 228 280 325
#     4   9  21  35  62  82 114 145 179 230 279 326
#     4  10  22  36  52  81 120 140 173 236 285 311
#     4   9  21  35  62  82 115 142 181 232 273 328
#     4  10  20  36  54  76 111 145 184 229 279 323
#     4   9  18  35  58  77 101 147 194 229 265 326
#     4  10  18  40  62  87 103 148 195 213 272 354
#     4   9  18  35  58  77 101 147 193 229 267 323
#
# _framework density 18.932960000000001
#
# number of rings (size 3 to 8) (size 9 to 14) (size 15 to 20)
#    0.750    1.750    1.250    0.750    3.500    0.500 
#    2.250    0.000    0.000    0.000    0.000    0.000 
#    0.000    0.000    0.000    0.000    0.000    0.000 
#
# Total GULP energy -198316.687564 kJ/mol
# GULP energy per Si atom -12394.792973 kJ/mol
# Density = 1.888987 g / cm^3
# Si number density = 18.932960 Si / 1000 Ang^3
#
#
#
# Elastic Constant Matrix: (Units=GPa)
#
#
# Indices 1 2 3 4 5 6 
#
# 1 55.8418 54.1380 12.4620 16.7574 14.7632 -11.2216
# 2 54.1380 97.1916 35.0257 -13.6291 -16.9371 -2.8537
# 3 12.4620 35.0257 87.4111 12.9028 -7.1586 0.0374
# 4 16.7574 -13.6291 12.9028 24.4649 -4.2920 -5.2739
# 5 14.7632 -16.9371 -7.1586 -4.2920 14.0400 -8.5430
# 6 -11.2216 -2.8537 0.0374 -5.2739 -8.5430 37.0886
#
#
#
# Elastic Compliance Matrix: (Units=1/GPa)
#
#
# Indices 1 2 3 4 5 6 
#
# 1 -0.004642 0.012334 -0.004819 0.019561 0.028728 0.008948
# 2 0.012334 -0.002603 -0.000462 -0.014549 -0.023147 -0.003868
# 3 -0.004819 -0.000462 0.013523 -0.001924 0.011320 0.000826
# 4 0.019561 -0.014549 -0.001924 0.013788 -0.035789 -0.001482
# 5 0.028728 -0.023147 0.011320 -0.035789 0.010499 0.004229
# 6 0.008948 -0.003868 0.000826 -0.001482 0.004229 0.030135
#
#
# Mechanical properties :
#
#
# Convention : Reuss Voigt Hill
#
# Bulk Modulus (GPa) = 49.05501 49.29951 49.17726
# Shear Modulus (GPa) = 93.65334 24.37328 59.01331
#
# Velocity S-wave (km/s) = 7.04082 3.59185 5.58903
# Velocity P-wave (km/s) = 9.59498 6.58008 8.22682
#
# Compressibility (1/GPa) = 0.02038528
#
# Stress axis : x y z
#
# Youngs Moduli (GPa) = -215.43560 -384.22708 73.94750
#
# Poissons Ratio (x) = 4.73922 0.35637
# Poissons Ratio (y) = 2.65728 0.03416
# Poissons Ratio (z) = -1.03824 -0.17748
#
# Static dielectric constant tensor:
#      x y z
#    x 3.370390 0.010960 0.037230 
#    y 0.010960 3.365040 -0.173770 
#    z 0.037230 -0.173770 3.417120 
# 
# 
# High freq. dielectric constant tensor:
#      x y z
#    x 1.728370 -0.005830 0.018490 
#    y -0.005830 1.715120 -0.008590 
#    z 0.018490 -0.008590 1.734210 
# 
# From -- ./inp_files/325595.got.cif
#   From: 2010.06.25/outbox.cif.g09.slc.cpg/sg2_163_cif.got.tgz:325595.got - 2010.06.27 13:26:56.
