data_PCOD8040331
_publ_section_title
;
Structure prediction by ZEFSAII (Michael W. Deem and Ramdas Pophale) SiO2 
 PCOD8040331
Probable space group: P -1
;
_chemical_formula_sum "Si O2"
_cell_formula_units_Z 16
_cell_length_a 9.597757
_cell_length_b 14.026547
_cell_length_c 11.521865
_cell_angle_alpha 45.799000
_cell_angle_beta 111.116656
_cell_angle_gamma 129.488294
_cell_volume 848.452477
_symmetry_space_group_name_H-M "P -1"
_symmetry_group_IT_number 2
_symmetry_cell_setting 'triclinic'
loop_
_space_group_symop_operation_xyz
x,y,z
-x,-y,-z
loop_
_atom_site_type_symbol
_atom_site_label
_atom_site_fract_x
_atom_site_fract_y
_atom_site_fract_z
Si Si1 0.945280 0.275852 0.473010
Si Si2 0.863985 0.953412 0.139769
Si Si3 0.871842 0.064708 0.409473
Si Si4 0.673440 0.653308 0.478032
Si Si5 0.827414 0.508415 0.239211
Si Si6 0.885951 0.762182 0.862474
Si Si7 0.594918 0.720225 0.638744
Si Si8 0.945393 0.190580 0.788614
O O1 0.159496 0.360340 0.485591
O O2 0.874589 0.143789 0.463609
O O3 0.909823 0.408487 0.314948
O O4 0.848103 0.190307 0.640783
O O5 0.706965 0.819233 0.293615
O O6 0.910030 0.852534 0.156772
O O7 0.040723 0.087909 0.154118
O O8 0.804213 0.050160 0.959181
O O9 0.950494 0.192048 0.218421
O O10 0.664659 0.905237 0.469329
O O11 0.000000 0.000000 0.500000
O O12 0.500000 0.500000 0.500000
O O13 0.644517 0.645789 0.613064
O O14 0.619510 0.384364 0.319931
O O15 0.946726 0.630582 0.275218
O O16 0.835364 0.601166 0.048320
O O17 0.701118 0.722847 0.782319
#
# Coordination Sequence:
#
# PCOD8040331 Si02
#       8
#     2   2   2   2   2   2   2   2
#     4  11  21  38  57  83 113 157 182 229 292 342
#     4   9  17  33  58  85 101 147 193 233 267 331
#     4  10  18  36  62  78 107 151 196 228 270 337
#     4  11  20  34  60  84 109 143 198 233 273 333
#     4  11  24  34  56  86 125 143 180 240 293 326
#     4  10  19  37  59  84 112 153 191 229 275 338
#     4  11  19  36  58  87 108 145 194 239 265 331
#     4   9  18  34  55  79 113 146 186 224 281 335
#
# _framework density 18.857862999999998
#
# number of rings (size 3 to 8) (size 9 to 14) (size 15 to 20)
#    0.000    1.750    3.750    4.500    0.000    1.000 
#    0.000    1.250    2.750    2.250    0.000    0.000 
#    0.000    0.000    0.000    0.000    0.000    0.000 
#
# Total GULP energy -198273.686168 kJ/mol
# GULP energy per Si atom -12392.105386 kJ/mol
# Density = 1.881494 g / cm^3
# Si number density = 18.857863 Si / 1000 Ang^3
#
#
#
# Elastic Constant Matrix: (Units=GPa)
#
#
# Indices 1 2 3 4 5 6 
#
# 1 58.8578 31.2548 55.9632 -8.4462 -2.3875 -5.1408
# 2 31.2548 101.9298 39.2952 -5.6314 1.7537 -19.7398
# 3 55.9632 39.2952 89.6842 -12.3492 -18.2015 -2.0226
# 4 -8.4462 -5.6314 -12.3492 32.0952 -3.1213 -7.2393
# 5 -2.3875 1.7537 -18.2015 -3.1213 22.6772 -5.5486
# 6 -5.1408 -19.7398 -2.0226 -7.2393 -5.5486 22.5625
#
#
#
# Elastic Compliance Matrix: (Units=1/GPa)
#
#
# Indices 1 2 3 4 5 6 
#
# 1 0.051227 -0.001215 -0.036836 -0.003226 -0.024460 0.000257
# 2 -0.001215 0.014992 -0.005610 0.002783 -0.002309 0.012661
# 3 -0.036836 -0.005610 0.045259 0.010786 0.035062 0.002839
# 4 -0.003226 0.002783 0.010786 0.041424 0.018842 0.020592
# 5 -0.024460 -0.002309 0.035062 0.018842 0.077488 0.020651
# 6 0.000257 0.012661 0.002839 0.020592 0.020651 0.067397
#
#
# Mechanical properties :
#
#
# Convention : Reuss Voigt Hill
#
# Bulk Modulus (GPa) = 41.39907 55.94424 48.67166
# Shear Modulus (GPa) = 12.71742 23.73092 18.22417
#
# Velocity S-wave (km/s) = 2.59971 3.55126 3.11206
# Velocity P-wave (km/s) = 5.56886 6.82245 6.22728
#
# Compressibility (1/GPa) = 0.02415513
#
# Stress axis : x y z
#
# Youngs Moduli (GPa) = 19.52098 66.70425 22.09485
#
# Poissons Ratio (x) = 0.08102 0.81389
# Poissons Ratio (y) = 0.02371 0.12396
# Poissons Ratio (z) = 0.71908 0.37424
#
# Static dielectric constant tensor:
#      x y z
#    x 3.153950 -0.132890 -0.318110 
#    y -0.132890 3.638930 -0.016010 
#    z -0.318110 -0.016010 4.095550 
# 
# 
# High freq. dielectric constant tensor:
#      x y z
#    x 1.679490 -0.015890 -0.021350 
#    y -0.015890 1.746970 0.002790 
#    z -0.021350 0.002790 1.748440 
# 
# From -- ./inp_files/392119.got.cif
#   From: 2010.06.25/outbox.cif.g09.slc.cpg/sg2_197_cif.got.tgz:392119.got - 2010.06.27 13:26:56.
