data_PCOD8040904
_publ_section_title
;
Structure prediction by ZEFSAII (Michael W. Deem and Ramdas Pophale) SiO2 
 PCOD8040904
Probable space group: P -1
;
_chemical_formula_sum "Si O2"
_cell_formula_units_Z 16
_cell_length_a 16.006387
_cell_length_b 9.291197
_cell_length_c 13.812440
_cell_angle_alpha 45.567534
_cell_angle_beta 148.678162
_cell_angle_gamma 119.722165
_cell_volume 733.028129
_symmetry_space_group_name_H-M "P -1"
_symmetry_group_IT_number 2
_symmetry_cell_setting 'triclinic'
loop_
_space_group_symop_operation_xyz
x,y,z
-x,-y,-z
loop_
_atom_site_type_symbol
_atom_site_label
_atom_site_fract_x
_atom_site_fract_y
_atom_site_fract_z
Si Si1 0.122379 0.076475 0.155240
Si Si2 0.567900 0.014742 0.720865
Si Si3 0.932718 0.916762 0.186932
Si Si4 0.092633 0.849523 0.578474
Si Si5 0.356152 0.337481 0.706376
Si Si6 0.529506 0.256146 0.385919
Si Si7 0.030643 0.441244 0.760492
Si Si8 0.421800 0.980065 0.791519
O O1 0.305263 0.922155 0.400184
O O2 0.112360 0.311478 0.998700
O O3 0.047902 0.064450 0.194569
O O4 0.000000 0.000000 0.000000
O O5 0.606301 0.796168 0.798284
O O6 0.435365 0.014734 0.674150
O O7 0.491727 0.213032 0.480797
O O8 0.738858 0.039027 0.923462
O O9 0.974503 0.698142 0.273336
O O10 0.965153 0.874858 0.351302
O O11 0.136674 0.607890 0.770024
O O12 0.261584 0.899950 0.692078
O O13 0.000000 0.000000 0.500000
O O14 0.455590 0.513014 0.721346
O O15 0.159674 0.433421 0.464840
O O16 0.410668 0.198412 0.730251
O O17 0.413496 0.195514 0.925513
#
# Coordination Sequence:
#
# PCOD8040904 Si02
#       8
#     2   2   2   2   2   2   2   2
#     4  10  18  39  68  98 128 160 213 272 318 374
#     4  11  24  41  67 101 135 164 212 270 328 387
#     4  11  22  42  70 100 127 169 216 272 321 379
#     4  12  26  44  65  93 132 175 222 262 315 387
#     4  11  23  44  68  91 134 176 211 268 320 382
#     4  11  22  42  70  99 129 167 216 270 324 379
#     4  11  21  42  70  97 126 169 217 269 323 372
#     4  11  27  43  61  94 136 177 213 258 326 390
#
# _framework density 21.827266000000002
#
# number of rings (size 3 to 8) (size 9 to 14) (size 15 to 20)
#    0.000    1.000    6.250    1.875    3.500    1.000 
#    0.000    0.625    2.750    0.000    0.000    0.000 
#    0.000    0.000    0.000    0.000    0.000    0.000 
#
# Total GULP energy -198395.127900 kJ/mol
# GULP energy per Si atom -12399.695494 kJ/mol
# Density = 2.177759 g / cm^3
# Si number density = 21.827266 Si / 1000 Ang^3
#
#
#
# Elastic Constant Matrix: (Units=GPa)
#
#
# Indices 1 2 3 4 5 6 
#
# 1 138.1061 37.6365 31.8234 -10.1344 -18.3558 4.8719
# 2 37.6365 92.7933 31.5768 -5.3183 -13.9832 2.6844
# 3 31.8234 31.5768 75.2648 -4.8966 -6.4285 -7.5588
# 4 -10.1344 -5.3183 -4.8966 19.9573 2.2635 3.9031
# 5 -18.3558 -13.9832 -6.4285 2.2635 27.9873 1.0462
# 6 4.8719 2.6844 -7.5588 3.9031 1.0462 30.1450
#
#
#
# Elastic Compliance Matrix: (Units=1/GPa)
#
#
# Indices 1 2 3 4 5 6 
#
# 1 0.009339 -0.001893 -0.002819 0.003575 0.004343 -0.002661
# 2 -0.001893 0.014057 -0.004853 0.001562 0.004635 -0.002526
# 3 -0.002819 -0.004853 0.017010 0.000518 -0.000599 0.005107
# 4 0.003575 0.001562 0.000518 0.054039 -0.000844 -0.007554
# 5 0.004343 0.004635 -0.000599 -0.000844 0.040922 -0.002576
# 6 -0.002661 -0.002526 0.005107 -0.007554 -0.002576 0.036176
#
#
# Mechanical properties :
#
#
# Convention : Reuss Voigt Hill
#
# Bulk Modulus (GPa) = 46.99943 56.47086 51.73515
# Shear Modulus (GPa) = 25.28262 29.29307 27.28785
#
# Velocity S-wave (km/s) = 3.40708 3.66736 3.53961
# Velocity P-wave (km/s) = 6.08743 6.62273 6.36071
#
# Compressibility (1/GPa) = 0.02127685
#
# Stress axis : x y z
#
# Youngs Moduli (GPa) = 107.07261 71.13917 58.78965
#
# Poissons Ratio (x) = 0.13464 0.16571
# Poissons Ratio (y) = 0.20264 0.28533
# Poissons Ratio (z) = 0.30180 0.34527
#
# Static dielectric constant tensor:
#      x y z
#    x 4.395890 0.747960 0.042300 
#    y 0.747960 5.184410 0.984420 
#    z 0.042300 0.984420 5.108380 
# 
# 
# High freq. dielectric constant tensor:
#      x y z
#    x 1.866690 0.024400 -0.002030 
#    y 0.024400 1.846460 0.009750 
#    z -0.002030 0.009750 1.864700 
# 
# From -- ./inp_files/446842.got.cif
#   From: 2010.06.25/outbox.cif.g09.slc.cpg/sg2_224_cif.got.tgz:446842.got - 2010.06.27 13:26:56.
