data_PCOD8040473
_publ_section_title
;
Structure prediction by ZEFSAII (Michael W. Deem and Ramdas Pophale) SiO2 
 PCOD8040473
Probable space group: P -1
;
_chemical_formula_sum "Si O2"
_cell_formula_units_Z 16
_cell_length_a 17.487197
_cell_length_b 28.690239
_cell_length_c 11.837519
_cell_angle_alpha 31.720815
_cell_angle_beta 21.412606
_cell_angle_gamma 20.452029
_cell_volume 746.616464
_symmetry_space_group_name_H-M "P -1"
_symmetry_group_IT_number 2
_symmetry_cell_setting 'triclinic'
loop_
_space_group_symop_operation_xyz
x,y,z
-x,-y,-z
loop_
_atom_site_type_symbol
_atom_site_label
_atom_site_fract_x
_atom_site_fract_y
_atom_site_fract_z
Si Si1 0.472258 0.642102 0.752135
Si Si2 0.897035 0.978176 0.360097
Si Si3 0.910238 0.775258 0.405990
Si Si4 0.330664 0.981663 0.646803
Si Si5 0.664597 0.439914 0.570701
Si Si6 0.224696 0.698485 0.517681
Si Si7 0.322852 0.232013 0.744494
Si Si8 0.169568 0.602901 0.097265
O O1 0.612888 0.694955 0.431933
O O2 0.300664 0.658737 0.840228
O O3 0.773466 0.481354 0.701334
O O4 0.218721 0.724708 0.032922
O O5 0.166344 0.822130 0.352548
O O6 0.696668 0.001750 0.483773
O O7 0.662590 0.073276 0.591650
O O8 0.053612 0.017354 0.018064
O O9 0.671875 0.824393 0.530402
O O10 0.028234 0.654641 0.571385
O O11 0.695361 0.909026 0.501691
O O12 0.556122 0.567195 0.398380
O O13 0.733946 0.341883 0.585912
O O14 0.364928 0.503922 0.924911
O O15 0.916233 0.747108 0.892206
O O16 0.191296 0.282737 0.690823
#
# Coordination Sequence:
#
# PCOD8040473 Si02
#       8
#     2   2   2   2   2   2   2   2
#     4  10  19  36  57  90 119 148 195 241 301 349
#     4  11  21  38  57  90 117 153 199 237 290 362
#     4  10  18  37  58  85 116 143 188 252 295 338
#     4  10  21  33  61  86 111 149 189 243 304 338
#     4   9  19  39  60  79 113 156 194 241 290 335
#     4  10  21  38  59  84 117 163 197 235 282 355
#     4  11  21  36  58  85 119 162 191 234 296 351
#     4   9  20  35  60  86 116 152 192 252 290 343
#
# _framework density 21.430012999999999
#
# number of rings (size 3 to 8) (size 9 to 14) (size 15 to 20)
#    0.000    2.000    2.500    1.500    0.000    0.000 
#    0.000   15.000    0.000    5.250    0.000    0.000 
#    0.000    0.000    0.000    0.000    0.000    0.000 
#
# Total GULP energy -198243.929340 kJ/mol
# GULP energy per Si atom -12390.245584 kJ/mol
# Density = 2.138124 g / cm^3
# Si number density = 21.430013 Si / 1000 Ang^3
#
#
#
# Elastic Constant Matrix: (Units=GPa)
#
#
# Indices 1 2 3 4 5 6 
#
# 1 65.0580 30.6319 13.7568 -7.3605 -4.8788 -7.5671
# 2 30.6319 120.8997 6.6141 -0.3086 -4.6254 -10.1443
# 3 13.7568 6.6141 36.1498 -4.2572 0.6869 7.5142
# 4 -7.3605 -0.3086 -4.2572 21.8109 0.4438 -5.7761
# 5 -4.8788 -4.6254 0.6869 0.4438 26.9551 2.3545
# 6 -7.5671 -10.1443 7.5142 -5.7761 2.3545 37.6656
#
#
#
# Elastic Compliance Matrix: (Units=1/GPa)
#
#
# Indices 1 2 3 4 5 6 
#
# 1 0.020505 -0.004227 -0.007390 0.006777 0.002597 0.005332
# 2 -0.004227 0.009540 -0.000609 -0.000991 0.000760 0.001642
# 3 -0.007390 -0.000609 0.032440 0.001812 -0.001622 -0.007741
# 4 0.006777 -0.000991 0.001812 0.050752 -0.000572 0.008552
# 5 0.002597 0.000760 -0.001622 -0.000572 0.037873 -0.001405
# 6 0.005332 0.001642 -0.007741 0.008552 -0.001405 0.031007
#
#
# Mechanical properties :
#
#
# Convention : Reuss Voigt Hill
#
# Bulk Modulus (GPa) = 26.29293 36.01259 31.15276
# Shear Modulus (GPa) = 22.80545 28.69330 25.74938
#
# Velocity S-wave (km/s) = 3.26572 3.66311 3.47011
# Velocity P-wave (km/s) = 5.14934 5.89342 5.53390
#
# Compressibility (1/GPa) = 0.03803304
#
# Stress axis : x y z
#
# Youngs Moduli (GPa) = 48.76756 104.82177 30.82650
#
# Poissons Ratio (x) = 0.44309 0.22779
# Poissons Ratio (y) = 0.20614 0.01879
# Poissons Ratio (z) = 0.36037 0.06388
#
# Static dielectric constant tensor:
#      x y z
#    x 3.962820 -0.230590 0.033860 
#    y -0.230590 4.158970 0.188930 
#    z 0.033860 0.188930 3.350160 
# 
# 
# High freq. dielectric constant tensor:
#      x y z
#    x 1.838300 -0.001870 0.010170 
#    y -0.001870 1.855950 0.020470 
#    z 0.010170 0.020470 1.794530 
# 
# From -- ./inp_files/274719.got.cif
#   From: 2010.06.25/outbox.cif.g09.slc.cpg/sg2_138_cif.got.tgz:274719.got - 2010.06.27 13:26:56.
