data_PCOD8040107
_publ_section_title
;
Structure prediction by ZEFSAII (Michael W. Deem and Ramdas Pophale) SiO2 
 PCOD8040107
Probable space group: P -1
;
_chemical_formula_sum "Si O2"
_cell_formula_units_Z 16
_cell_length_a 16.221383
_cell_length_b 11.107395
_cell_length_c 16.887839
_cell_angle_alpha 149.154687
_cell_angle_beta 147.887444
_cell_angle_gamma 52.832591
_cell_volume 739.994799
_symmetry_space_group_name_H-M "P -1"
_symmetry_group_IT_number 2
_symmetry_cell_setting 'triclinic'
loop_
_space_group_symop_operation_xyz
x,y,z
-x,-y,-z
loop_
_atom_site_type_symbol
_atom_site_label
_atom_site_fract_x
_atom_site_fract_y
_atom_site_fract_z
Si Si1 0.993098 0.131892 0.777004
Si Si2 0.178806 0.431074 0.872733
Si Si3 0.170570 0.765393 0.729203
Si Si4 0.817246 0.070133 0.432766
Si Si5 0.408587 0.223439 0.363710
Si Si6 0.247782 0.683865 0.235125
Si Si7 0.857618 0.319906 0.166228
Si Si8 0.491192 0.784067 0.736310
O O1 0.894139 0.048901 0.567309
O O2 0.863743 0.156326 0.750660
O O3 0.047593 0.910279 0.723873
O O4 0.163707 0.411175 0.062650
O O5 0.229340 0.564273 0.902827
O O6 0.968345 0.279344 0.619080
O O7 0.256383 0.221580 0.829718
O O8 0.252421 0.644657 0.122740
O O9 0.208701 0.672557 0.793673
O O10 0.068081 0.503575 0.443475
O O11 0.352640 0.970090 0.951539
O O12 0.670503 0.159664 0.375173
O O13 0.554506 0.155760 0.483611
O O14 0.428387 0.503382 0.570960
O O15 0.426045 0.233812 0.289461
O O16 0.214615 0.988416 0.091806
#
# Coordination Sequence:
#
# PCOD8040107 Si02
#       8
#     2   2   2   2   2   2   2   2
#     4  10  18  35  64  89 116 150 213 243 293 350
#     4  10  22  38  58  88 129 158 196 243 314 360
#     4  10  20  39  63  89 117 161 201 256 294 356
#     4  10  20  38  64  89 116 162 204 255 287 356
#     4  10  20  36  60  93 123 154 199 257 297 352
#     4  10  20  34  61  92 118 156 197 255 295 348
#     4  10  22  38  59  85 128 165 189 242 321 359
#     4  10  20  36  64  93 116 149 216 253 291 344
#
# _framework density 21.621775
#
# number of rings (size 3 to 8) (size 9 to 14) (size 15 to 20)
#    0.000    2.000    3.750    0.000    0.000    0.500 
#    0.000   11.875    0.000    0.000    0.000    0.000 
#    0.000    0.000    0.000    0.000    0.000    0.000 
#
# Total GULP energy -198258.925803 kJ/mol
# GULP energy per Si atom -12391.182863 kJ/mol
# Density = 2.157256 g / cm^3
# Si number density = 21.621775 Si / 1000 Ang^3
#
#
#
# Elastic Constant Matrix: (Units=GPa)
#
#
# Indices 1 2 3 4 5 6 
#
# 1 42.9351 31.6502 20.9413 3.6310 -8.2199 0.8753
# 2 31.6502 84.7129 39.4551 0.0853 8.4536 5.5627
# 3 20.9413 39.4551 153.0172 13.6635 15.4410 4.9344
# 4 3.6310 0.0853 13.6635 26.5923 4.4893 1.7327
# 5 -8.2199 8.4536 15.4410 4.4893 18.4416 -1.8818
# 6 0.8753 5.5627 4.9344 1.7327 -1.8818 22.7209
#
#
#
# Elastic Compliance Matrix: (Units=1/GPa)
#
#
# Indices 1 2 3 4 5 6 
#
# 1 0.048745 -0.020466 -0.004533 -0.011290 0.038485 0.008165
# 2 -0.020466 0.022600 -0.001367 0.007378 -0.020821 -0.006735
# 3 -0.004533 -0.001367 0.008603 -0.002286 -0.008231 -0.001866
# 4 -0.011290 0.007378 -0.002286 0.043656 -0.017706 -0.005671
# 5 0.038485 -0.020821 -0.008231 -0.017706 0.093606 0.014505
# 6 0.008165 -0.006735 -0.001866 -0.005671 0.014505 0.047386
#
#
# Mechanical properties :
#
#
# Convention : Reuss Voigt Hill
#
# Bulk Modulus (GPa) = 36.74255 51.63983 44.19119
# Shear Modulus (GPa) = 15.31865 26.12553 20.72209
#
# Velocity S-wave (km/s) = 2.66462 3.47983 3.09915
# Velocity P-wave (km/s) = 5.14754 6.33093 5.76966
#
# Compressibility (1/GPa) = 0.02721640
#
# Stress axis : x y z
#
# Youngs Moduli (GPa) = 20.51492 44.24703 116.23957
#
# Poissons Ratio (x) = 0.90557 0.52687
# Poissons Ratio (y) = 0.41986 0.15892
# Poissons Ratio (z) = 0.09299 0.06049
#
# Static dielectric constant tensor:
#      x y z
#    x 3.554470 0.107390 -0.015300 
#    y 0.107390 3.752130 0.226620 
#    z -0.015300 0.226620 4.431510 
# 
# 
# High freq. dielectric constant tensor:
#      x y z
#    x 1.802650 0.014760 -0.007910 
#    y 0.014760 1.835700 0.002690 
#    z -0.007910 0.002690 1.864370 
# 
# From -- ./inp_files/387073.got.cif
#   From: 2010.06.25/outbox.cif.g09.slc.cpg/sg2_194_cif.got.tgz:387073.got - 2010.06.27 13:26:56.
