data_PCOD8040206
_publ_section_title
;
Structure prediction by ZEFSAII (Michael W. Deem and Ramdas Pophale) SiO2 
 PCOD8040206
Probable space group: P -1
;
_chemical_formula_sum "Si O2"
_cell_formula_units_Z 14
_cell_length_a 11.919700
_cell_length_b 11.048625
_cell_length_c 9.349807
_cell_angle_alpha 83.525637
_cell_angle_beta 146.481279
_cell_angle_gamma 84.961043
_cell_volume 637.436973
_symmetry_space_group_name_H-M "P -1"
_symmetry_group_IT_number 2
_symmetry_cell_setting 'triclinic'
loop_
_space_group_symop_operation_xyz
x,y,z
-x,-y,-z
loop_
_atom_site_type_symbol
_atom_site_label
_atom_site_fract_x
_atom_site_fract_y
_atom_site_fract_z
Si Si1 0.465419 0.703410 0.297442
Si Si2 0.509275 0.696348 0.923225
Si Si3 0.972674 0.095218 0.181230
Si Si4 0.262395 0.583192 0.890699
Si Si5 0.528053 0.184558 0.424280
Si Si6 0.206880 0.242874 0.560968
Si Si7 0.158707 0.089275 0.091821
O O1 0.480788 0.702800 0.485814
O O2 0.684420 0.716248 0.466703
O O3 0.260528 0.825920 0.013433
O O4 0.414740 0.580761 0.192265
O O5 0.322086 0.668485 0.818491
O O6 0.400642 0.777876 0.657939
O O7 0.691335 0.562492 0.090830
O O8 0.629302 0.779177 0.129356
O O9 0.154005 0.111242 0.481849
O O10 0.003966 0.157059 0.050539
O O11 0.979456 0.947438 0.179041
O O12 0.012328 0.641137 0.655747
O O13 0.285781 0.178662 0.153395
O O14 0.682874 0.046229 0.657912
#
# Coordination Sequence:
#
# PCOD8040206 Si02
#       7
#     2   2   2   2   2   2   2
#     4   9  18  33  60  80 107 139 181 222 266 318
#     4  10  21  37  56  81 111 139 180 222 266 323
#     4   9  17  33  58  78 102 146 181 211 270 316
#     4   9  20  38  58  77 107 149 177 214 271 321
#     4  10  19  35  57  84 109 139 178 227 268 310
#     4  10  18  36  58  78 107 147 176 219 269 323
#     4   9  18  34  57  80 109 142 177 223 270 311
#
# _framework density 21.962956999999999
#
# number of rings (size 3 to 8) (size 9 to 14) (size 15 to 20)
#    0.000    2.571    1.429    0.429    0.000    0.571 
#    7.714    2.143    0.000    0.000    0.000    0.000 
#    0.000    0.000    0.000    0.000    0.000    0.000 
#
# Total GULP energy -173443.355896 kJ/mol
# GULP energy per Si atom -12388.811135 kJ/mol
# Density = 2.191297 g / cm^3
# Si number density = 21.962957 Si / 1000 Ang^3
#
#
#
# Elastic Constant Matrix: (Units=GPa)
#
#
# Indices 1 2 3 4 5 6 
#
# 1 105.4132 28.3684 38.2894 3.5877 10.4207 -13.2100
# 2 28.3684 56.3022 34.4747 27.8580 -16.4039 -2.9065
# 3 38.2894 34.4747 72.8173 28.7201 -12.6758 2.0974
# 4 3.5877 27.8580 28.7201 36.8594 -7.9245 -2.8034
# 5 10.4207 -16.4039 -12.6758 -7.9245 43.4312 6.5126
# 6 -13.2100 -2.9065 2.0974 -2.8034 6.5126 27.5747
#
#
#
# Elastic Compliance Matrix: (Units=1/GPa)
#
#
# Indices 1 2 3 4 5 6 
#
# 1 0.020824 -0.013623 -0.014146 0.017548 -0.013247 0.014529
# 2 -0.013623 0.042107 0.001704 -0.029128 0.015687 -0.008884
# 3 -0.014146 0.001704 0.031986 -0.023496 0.011195 -0.014063
# 4 0.017548 -0.029128 -0.023496 0.064252 -0.012849 0.016691
# 5 -0.013247 0.015687 0.011195 -0.012849 0.035329 -0.015195
# 6 0.014529 -0.008884 -0.014063 0.016691 -0.015195 0.048644
#
#
# Mechanical properties :
#
#
# Convention : Reuss Voigt Hill
#
# Bulk Modulus (GPa) = 23.37240 48.53307 35.95273
# Shear Modulus (GPa) = 16.15331 30.46641 23.30986
#
# Velocity S-wave (km/s) = 2.71492 3.72852 3.26133
# Velocity P-wave (km/s) = 4.52687 6.37820 5.53055
#
# Compressibility (1/GPa) = 0.04278551
#
# Stress axis : x y z
#
# Youngs Moduli (GPa) = 48.02179 23.74920 31.26394
#
# Poissons Ratio (x) = 0.32354 0.44226
# Poissons Ratio (y) = 0.65420 -0.05326
# Poissons Ratio (z) = 0.67931 -0.04046
#
# Static dielectric constant tensor:
#      x y z
#    x 4.248270 -0.301940 0.150530 
#    y -0.301940 3.881440 0.745130 
#    z 0.150530 0.745130 3.790610 
# 
# 
# High freq. dielectric constant tensor:
#      x y z
#    x 1.879050 -0.026930 0.019930 
#    y -0.026930 1.835770 0.056820 
#    z 0.019930 0.056820 1.838350 
# 
# From -- ./inp_files/253283.got.cif
#   From: 2010.06.25/outbox.cif.g09.slc.cpg/sg2_127_cif.got.tgz:253283.got - 2010.06.27 13:26:56.
