data_PCOD8040889
_publ_section_title
;
Structure prediction by ZEFSAII (Michael W. Deem and Ramdas Pophale) SiO2 
 PCOD8040889
Probable space group: P -1
;
_chemical_formula_sum "Si O2"
_cell_formula_units_Z 16
_cell_length_a 11.556441
_cell_length_b 8.880551
_cell_length_c 9.724235
_cell_angle_alpha 59.939150
_cell_angle_beta 116.373388
_cell_angle_gamma 100.132580
_cell_volume 772.442982
_symmetry_space_group_name_H-M "P -1"
_symmetry_group_IT_number 2
_symmetry_cell_setting 'triclinic'
loop_
_space_group_symop_operation_xyz
x,y,z
-x,-y,-z
loop_
_atom_site_type_symbol
_atom_site_label
_atom_site_fract_x
_atom_site_fract_y
_atom_site_fract_z
Si Si1 0.986121 0.312025 0.141662
Si Si2 0.730046 0.811650 0.697364
Si Si3 0.450267 0.653973 0.000769
Si Si4 0.712291 0.756394 0.028635
Si Si5 0.269411 0.798552 0.437312
Si Si6 0.130783 0.918841 0.040216
Si Si7 0.805027 0.368468 0.267603
Si Si8 0.476312 0.427908 0.373231
O O1 0.931326 0.335456 0.255549
O O2 0.124755 0.209555 0.273583
O O3 0.893266 0.204646 0.044390
O O4 0.000000 0.500000 0.000000
O O5 0.634935 0.706656 0.601685
O O6 0.684920 0.013682 0.581296
O O7 0.719309 0.733987 0.879149
O O8 0.563730 0.790969 0.989070
O O9 0.431505 0.587561 0.176685
O O10 0.500000 0.500000 0.000000
O O11 0.311737 0.720383 0.835811
O O12 0.777772 0.572382 0.200018
O O13 0.787541 0.921977 0.043044
O O14 0.206685 0.804399 0.249987
O O15 0.169266 0.732530 0.528392
O O16 0.394369 0.667546 0.573938
O O17 0.000000 0.000000 0.000000
O O18 0.500000 0.500000 0.500000
#
# Coordination Sequence:
#
# PCOD8040889 Si02
#       8
#     2   2   2   2   2   2   2   2
#     4  12  23  42  71  91 128 181 223 255 324 400
#     4  11  22  43  67  91 133 176 213 266 330 387
#     4  10  18  39  67  89 129 172 216 257 325 390
#     4  10  18  40  70  87 124 175 217 258 322 388
#     4  11  24  41  68  96 131 168 219 265 332 378
#     4  11  23  44  64  97 130 169 217 268 327 385
#     4  11  21  41  68  97 128 179 219 258 327 394
#     4  12  24  40  67 102 129 162 223 279 321 384
#
# _framework density 20.713501999999998
#
# number of rings (size 3 to 8) (size 9 to 14) (size 15 to 20)
#    0.000    1.000    8.750    0.375    3.500    1.500 
#    2.250    3.125    0.000    0.000    0.000    0.000 
#    0.000    0.000    0.000    0.000    0.000    0.000 
#
# Total GULP energy -198396.673137 kJ/mol
# GULP energy per Si atom -12399.792071 kJ/mol
# Density = 2.066636 g / cm^3
# Si number density = 20.713502 Si / 1000 Ang^3
#
#
#
# Elastic Constant Matrix: (Units=GPa)
#
#
# Indices 1 2 3 4 5 6 
#
# 1 104.6815 27.0755 19.6582 3.7701 -9.7055 12.1052
# 2 27.0755 110.3434 23.8613 15.1068 -9.2208 21.8357
# 3 19.6582 23.8613 71.2889 3.7071 -12.8673 5.8435
# 4 3.7701 15.1068 3.7071 27.2337 2.5504 1.0567
# 5 -9.7055 -9.2208 -12.8673 2.5504 33.2725 -2.1759
# 6 12.1052 21.8357 5.8435 1.0567 -2.1759 32.0052
#
#
#
# Elastic Compliance Matrix: (Units=1/GPa)
#
#
# Indices 1 2 3 4 5 6 
#
# 1 0.010785 -0.001509 -0.001898 -0.000473 0.001863 -0.002561
# 2 -0.001509 0.012395 -0.002454 -0.006250 0.002061 -0.007091
# 3 -0.001898 -0.002454 0.016379 -0.001081 0.005169 -0.000211
# 4 -0.000473 -0.006250 -0.001081 0.040774 -0.005221 0.002939
# 5 0.001863 0.002061 0.005169 -0.005221 0.033529 -0.000603
# 6 -0.002561 -0.007091 -0.000211 0.002939 -0.000603 0.036952
#
#
# Mechanical properties :
#
#
# Convention : Reuss Voigt Hill
#
# Bulk Modulus (GPa) = 35.92455 47.50042 41.71249
# Shear Modulus (GPa) = 29.10086 32.88353 30.99219
#
# Velocity S-wave (km/s) = 3.75230 3.98872 3.87231
# Velocity P-wave (km/s) = 6.01283 6.64794 6.33834
#
# Compressibility (1/GPa) = 0.02783611
#
# Stress axis : x y z
#
# Youngs Moduli (GPa) = 92.71791 80.67906 61.05388
#
# Poissons Ratio (x) = 0.12172 0.11591
# Poissons Ratio (y) = 0.13989 0.14985
# Poissons Ratio (z) = 0.17602 0.19802
#
# Static dielectric constant tensor:
#      x y z
#    x 5.347670 0.237610 -0.435650 
#    y 0.237610 4.183670 0.013720 
#    z -0.435650 0.013720 3.905130 
# 
# 
# High freq. dielectric constant tensor:
#      x y z
#    x 1.819570 0.012380 -0.003490 
#    y 0.012380 1.800050 -0.003810 
#    z -0.003490 -0.003810 1.797760 
# 
# From -- ./inp_files/216410.got.cif
#   From: 2010.06.25/outbox.cif.g09.slc.cpg/sg2_109_cif.got.tgz:216410.got - 2010.06.27 13:26:56.
