data_PCOD8040553
_publ_section_title
;
Structure prediction by ZEFSAII (Michael W. Deem and Ramdas Pophale) SiO2 
 PCOD8040553
Probable space group: P -1
;
_chemical_formula_sum "Si O2"
_cell_formula_units_Z 16
_cell_length_a 11.796184
_cell_length_b 9.809623
_cell_length_c 11.165661
_cell_angle_alpha 102.517011
_cell_angle_beta 103.669934
_cell_angle_gamma 38.515614
_cell_volume 780.720590
_symmetry_space_group_name_H-M "P -1"
_symmetry_group_IT_number 2
_symmetry_cell_setting 'triclinic'
loop_
_space_group_symop_operation_xyz
x,y,z
-x,-y,-z
loop_
_atom_site_type_symbol
_atom_site_label
_atom_site_fract_x
_atom_site_fract_y
_atom_site_fract_z
Si Si1 0.191848 0.339445 0.584862
Si Si2 0.345239 0.894767 0.578369
Si Si3 0.211139 0.910075 0.307164
Si Si4 0.303401 0.710700 0.049517
Si Si5 0.976371 0.866957 0.294477
Si Si6 0.938139 0.672981 0.766449
Si Si7 0.261071 0.409795 0.386540
Si Si8 0.021896 0.190597 0.977912
O O1 0.304004 0.339745 0.525420
O O2 0.000000 0.500000 0.500000
O O3 0.141471 0.446643 0.723664
O O4 0.297407 0.098913 0.579968
O O5 0.328706 0.818848 0.439174
O O6 0.552657 0.698856 0.641722
O O7 0.223980 0.939049 0.661107
O O8 0.336195 0.729414 0.198657
O O9 0.041063 0.963476 0.300243
O O10 0.129101 0.132072 0.287836
O O11 0.173447 0.694763 0.010980
O O12 0.500000 0.500000 0.000000
O O13 0.194807 0.929745 0.992082
O O14 0.104458 0.670936 0.385546
O O15 0.976359 0.773685 0.155548
O O16 0.794192 0.680246 0.714564
O O17 0.953329 0.692540 0.914936
#
# Coordination Sequence:
#
# PCOD8040553 Si02
#       8
#     2   2   2   2   2   2   2   2
#     4  10  18  37  62  86 115 153 199 248 291 344
#     4  12  22  39  62  88 121 161 192 249 302 343
#     4  10  21  37  65  90 118 153 200 245 297 357
#     4   9  19  39  61  90 118 154 201 247 289 353
#     4  11  23  41  57  88 126 159 193 244 299 358
#     4  10  19  41  64  88 114 160 204 240 293 352
#     4  11  23  38  61  86 124 153 202 245 291 357
#     4   9  21  38  61  84 122 160 194 245 296 344
#
# _framework density 20.493887000000001
#
# number of rings (size 3 to 8) (size 9 to 14) (size 15 to 20)
#    0.000    1.750    5.000    1.500    0.000    4.000 
#    2.250    3.125    0.000    0.000    0.000    0.000 
#    0.000    0.000    0.000    0.000    0.000    0.000 
#
# Total GULP energy -198355.670076 kJ/mol
# GULP energy per Si atom -12397.229380 kJ/mol
# Density = 2.044724 g / cm^3
# Si number density = 20.493887 Si / 1000 Ang^3
#
#
#
# Elastic Constant Matrix: (Units=GPa)
#
#
# Indices 1 2 3 4 5 6 
#
# 1 112.3187 38.3427 42.9248 13.7576 -5.6729 -23.9303
# 2 38.3427 48.9261 18.0352 15.5169 -2.3976 -21.5038
# 3 42.9248 18.0352 121.6978 21.2675 3.0168 -12.9187
# 4 13.7576 15.5169 21.2675 27.2063 1.9028 -7.1423
# 5 -5.6729 -2.3976 3.0168 1.9028 31.2078 4.8381
# 6 -23.9303 -21.5038 -12.9187 -7.1423 4.8381 33.4441
#
#
#
# Elastic Compliance Matrix: (Units=1/GPa)
#
#
# Indices 1 2 3 4 5 6 
#
# 1 0.013704 -0.008432 -0.003531 0.001331 0.001628 0.003069
# 2 -0.008432 0.038074 0.001565 -0.014444 -0.000362 0.016020
# 3 -0.003531 0.001565 0.010619 -0.006979 -0.001321 0.001282
# 4 0.001331 -0.014444 -0.006979 0.050039 -0.003264 0.000128
# 5 0.001628 -0.000362 -0.001321 -0.003264 0.033431 -0.005112
# 6 0.003069 0.016020 0.001282 0.000128 -0.005112 0.043659
#
#
# Mechanical properties :
#
#
# Convention : Reuss Voigt Hill
#
# Bulk Modulus (GPa) = 24.03722 53.50532 38.77127
# Shear Modulus (GPa) = 22.30263 30.61428 26.45846
#
# Velocity S-wave (km/s) = 3.30245 3.86920 3.59700
# Velocity P-wave (km/s) = 5.12797 6.79158 6.01754
#
# Compressibility (1/GPa) = 0.04160215
#
# Stress axis : x y z
#
# Youngs Moduli (GPa) = 72.97036 26.26462 94.16896
#
# Poissons Ratio (x) = 0.22145 0.33255
# Poissons Ratio (y) = 0.61526 -0.14740
# Poissons Ratio (z) = 0.25769 -0.04111
#
# Static dielectric constant tensor:
#      x y z
#    x 3.822700 -0.051280 -0.142980 
#    y -0.051280 3.536770 0.224910 
#    z -0.142980 0.224910 4.161460 
# 
# 
# High freq. dielectric constant tensor:
#      x y z
#    x 1.795080 0.003990 -0.006380 
#    y 0.003990 1.786100 0.010670 
#    z -0.006380 0.010670 1.803230 
# 
# From -- ./inp_files/417595.got.cif
#   From: 2010.06.25/outbox.cif.g09.slc.cpg/sg2_209_cif.got.tgz:417595.got - 2010.06.27 13:26:56.
