data_PCOD8040350
_publ_section_title
;
Structure prediction by ZEFSAII (Michael W. Deem and Ramdas Pophale) SiO2 
 PCOD8040350
Probable space group: P -1
;
_chemical_formula_sum "Si O2"
_cell_formula_units_Z 14
_cell_length_a 9.186722
_cell_length_b 11.936253
_cell_length_c 15.478803
_cell_angle_alpha 152.476010
_cell_angle_beta 116.914707
_cell_angle_gamma 58.648043
_cell_volume 669.677283
_symmetry_space_group_name_H-M "P -1"
_symmetry_group_IT_number 2
_symmetry_cell_setting 'triclinic'
loop_
_space_group_symop_operation_xyz
x,y,z
-x,-y,-z
loop_
_atom_site_type_symbol
_atom_site_label
_atom_site_fract_x
_atom_site_fract_y
_atom_site_fract_z
Si Si1 0.215209 0.249870 0.754578
Si Si2 0.878690 0.471495 0.568860
Si Si3 0.265966 0.734325 0.160175
Si Si4 0.752588 0.731934 0.542281
Si Si5 0.594038 0.263018 0.620188
Si Si6 0.876600 0.914695 0.203347
Si Si7 0.844421 0.535415 0.796325
O O1 0.224322 0.140430 0.778975
O O2 0.023236 0.326900 0.720549
O O3 0.329207 0.039352 0.578114
O O4 0.296546 0.485291 0.938189
O O5 0.765386 0.659823 0.597081
O O6 0.837610 0.609015 0.744075
O O7 0.078256 0.417686 0.565564
O O8 0.826507 0.212477 0.376994
O O9 0.398441 0.679967 0.237439
O O10 0.077506 0.793322 0.191918
O O11 0.281725 0.965472 0.263653
O O12 0.601373 0.646345 0.399307
O O13 0.694794 0.412356 0.691916
O O14 0.820249 0.789929 0.018409
#
# Coordination Sequence:
#
# PCOD8040350 Si02
#       7
#     2   2   2   2   2   2   2
#     4  11  19  34  61  93 114 146 186 240 293 330
#     4  10  22  44  60  76 117 160 196 228 281 345
#     4  10  20  37  58  85 123 145 188 236 282 346
#     4  10  24  41  57  82 120 160 186 232 287 346
#     4  12  21  35  61  92 116 144 192 241 292 330
#     4  10  18  36  62  89 111 148 194 238 278 337
#     4  11  20  35  65  90 111 148 196 236 284 336
#
# _framework density 20.905593
#
# number of rings (size 3 to 8) (size 9 to 14) (size 15 to 20)
#    0.000    1.429    4.286    3.429    0.000    1.143 
#    0.000   17.857    0.000    0.000    0.000    0.000 
#    0.000    0.000    0.000    0.000    0.000    0.000 
#
# Total GULP energy -173688.860411 kJ/mol
# GULP energy per Si atom -12406.347172 kJ/mol
# Density = 2.085801 g / cm^3
# Si number density = 20.905593 Si / 1000 Ang^3
#
#
#
# Elastic Constant Matrix: (Units=GPa)
#
#
# Indices 1 2 3 4 5 6 
#
# 1 43.3033 42.5492 30.5226 -4.3258 25.3689 -1.8127
# 2 42.5492 118.3727 35.3009 -12.2781 25.0451 13.9650
# 3 30.5226 35.3009 95.9390 -15.0435 19.3827 -2.0895
# 4 -4.3258 -12.2781 -15.0435 18.0705 -2.3265 1.7846
# 5 25.3689 25.0451 19.3827 -2.3265 27.8878 -6.6826
# 6 -1.8127 13.9650 -2.0895 1.7846 -6.6826 28.2435
#
#
#
# Elastic Compliance Matrix: (Units=1/GPa)
#
#
# Indices 1 2 3 4 5 6 
#
# 1 0.066753 -0.012724 -0.008553 -0.005420 -0.043825 -0.000084
# 2 -0.012724 0.016086 0.000199 0.008461 -0.004803 -0.010427
# 3 -0.008553 0.000199 0.015149 0.010483 -0.002224 -0.000715
# 4 -0.005420 0.008461 0.010483 0.068628 -0.006539 -0.009639
# 5 -0.043825 -0.004803 -0.002224 -0.006539 0.085860 0.020126
# 6 -0.000084 -0.010427 -0.000715 -0.009639 0.020126 0.045874
#
#
# Mechanical properties :
#
#
# Convention : Reuss Voigt Hill
#
# Bulk Modulus (GPa) = 17.91084 52.70670 35.30877
# Shear Modulus (GPa) = 13.92304 24.78984 19.35644
#
# Velocity S-wave (km/s) = 2.58349 3.44728 3.04616
# Velocity P-wave (km/s) = 4.18154 6.41182 5.41280
#
# Compressibility (1/GPa) = 0.05583211
#
# Stress axis : x y z
#
# Youngs Moduli (GPa) = 14.98051 62.16609 66.01228
#
# Poissons Ratio (x) = 0.79098 0.56463
# Poissons Ratio (y) = 0.19061 -0.01314
# Poissons Ratio (z) = 0.12813 -0.01238
#
# Static dielectric constant tensor:
#      x y z
#    x 3.703730 0.109640 0.180550 
#    y 0.109640 3.660450 -0.063890 
#    z 0.180550 -0.063890 3.924730 
# 
# 
# High freq. dielectric constant tensor:
#      x y z
#    x 1.813240 0.013810 0.013200 
#    y 0.013810 1.803150 -0.009790 
#    z 0.013200 -0.009790 1.823200 
# 
# From -- ./inp_files/185781.got.cif
#   From: 2010.06.25/outbox.cif.g09.slc.cpg/sg2_93_cif.got.tgz:185781.got - 2010.06.27 13:26:56.
