data_PCOD8040482
_publ_section_title
;
Structure prediction by ZEFSAII (Michael W. Deem and Ramdas Pophale) SiO2 
 PCOD8040482
Probable space group: P -1
;
_chemical_formula_sum "Si O2"
_cell_formula_units_Z 10
_cell_length_a 9.621440
_cell_length_b 11.491535
_cell_length_c 9.318092
_cell_angle_alpha 126.408962
_cell_angle_beta 52.538357
_cell_angle_gamma 141.473243
_cell_volume 494.728700
_symmetry_space_group_name_H-M "P -1"
_symmetry_group_IT_number 2
_symmetry_cell_setting 'triclinic'
loop_
_space_group_symop_operation_xyz
x,y,z
-x,-y,-z
loop_
_atom_site_type_symbol
_atom_site_label
_atom_site_fract_x
_atom_site_fract_y
_atom_site_fract_z
Si Si1 0.239694 0.799588 0.393588
Si Si2 0.945253 0.104587 0.917999
Si Si3 0.717614 0.935566 0.232124
Si Si4 0.407713 0.069597 0.216481
Si Si5 0.907044 0.418919 0.156849
O O1 0.165789 0.857486 0.618069
O O2 0.020735 0.590327 0.323531
O O3 0.438502 0.794608 0.314440
O O4 0.341632 0.965317 0.332931
O O5 0.194844 0.159816 0.807760
O O6 0.819985 0.988195 0.761553
O O7 0.786240 0.959776 0.040960
O O8 0.979614 0.294218 0.053445
O O9 0.628939 0.297628 0.260129
O O10 0.500000 0.000000 0.000000
O O11 0.000000 0.500000 0.000000
#
# Coordination Sequence:
#
# PCOD8040482 Si02
#       5
#     2   2   2   2   2
#     4  11  21  38  61  84 114 150 191 229 282 336
#     4  10  20  39  61  82 116 150 187 232 285 333
#     4  10  22  38  57  87 119 147 179 241 291 324
#     4  10  18  37  59  81 110 155 187 227 275 339
#     4  11  19  35  64  84 106 154 197 223 274 341
#
# _framework density 20.213097999999999
#
# number of rings (size 3 to 8) (size 9 to 14) (size 15 to 20)
#    0.000    1.600    8.000    0.000    0.000    2.400 
#    0.000    1.000    0.000    0.000    0.000    0.000 
#    0.000    0.000    0.000    0.000    0.000    0.000 
#
# Total GULP energy -123947.925706 kJ/mol
# GULP energy per Si atom -12394.792571 kJ/mol
# Density = 2.016709 g / cm^3
# Si number density = 20.213098 Si / 1000 Ang^3
#
#
#
# Elastic Constant Matrix: (Units=GPa)
#
#
# Indices 1 2 3 4 5 6 
#
# 1 125.1023 27.8334 20.7766 -4.3555 11.9991 3.0283
# 2 27.8334 108.6435 11.9664 17.0527 16.8683 15.3305
# 3 20.7766 11.9664 45.7048 10.6443 6.8087 14.6404
# 4 -4.3555 17.0527 10.6443 29.3665 8.0922 10.5974
# 5 11.9991 16.8683 6.8087 8.0922 20.2849 12.0003
# 6 3.0283 15.3305 14.6404 10.5974 12.0003 23.0384
#
#
#
# Elastic Compliance Matrix: (Units=1/GPa)
#
#
# Indices 1 2 3 4 5 6 
#
# 1 0.010258 -0.002411 -0.005879 0.005105 -0.007370 0.005483
# 2 -0.002411 0.011696 0.000968 -0.005009 -0.004638 -0.003361
# 3 -0.005879 0.000968 0.031422 -0.007522 0.006962 -0.020005
# 4 0.005105 -0.005009 -0.007522 0.046276 -0.009540 -0.008875
# 5 -0.007370 -0.004638 0.006962 -0.009540 0.081817 -0.038598
# 6 0.005483 -0.003361 -0.020005 -0.008875 -0.038598 0.081822
#
#
# Mechanical properties :
#
#
# Convention : Reuss Voigt Hill
#
# Bulk Modulus (GPa) = 25.81884 44.51149 35.16517
# Shear Modulus (GPa) = 17.19118 29.12957 23.16038
#
# Velocity S-wave (km/s) = 2.91949 3.80033 3.38865
# Velocity P-wave (km/s) = 4.91586 6.42850 5.72238
#
# Compressibility (1/GPa) = 0.03873141
#
# Stress axis : x y z
#
# Youngs Moduli (GPa) = 97.48348 85.49798 31.82517
#
# Poissons Ratio (x) = 0.20615 0.18711
# Poissons Ratio (y) = 0.23505 -0.03081
# Poissons Ratio (z) = 0.57312 -0.08276
#
# Static dielectric constant tensor:
#      x y z
#    x 4.490460 0.445060 0.260110 
#    y 0.445060 4.572360 0.161360 
#    z 0.260110 0.161360 3.679950 
# 
# 
# High freq. dielectric constant tensor:
#      x y z
#    x 1.801980 0.012460 0.022040 
#    y 0.012460 1.764520 0.001090 
#    z 0.022040 0.001090 1.779100 
# 
# From -- ./inp_files/16368.got.cif
#   From: 2010.06.25/outbox.cif.g09.slc.cpg/sg2_9_cif.got.tgz:16368.got - 2010.06.27 13:26:56.
