data_PCOD8040207
_publ_section_title
;
Structure prediction by ZEFSAII (Michael W. Deem and Ramdas Pophale) SiO2 
 PCOD8040207
Probable space group: P -1
;
_chemical_formula_sum "Si O2"
_cell_formula_units_Z 16
_cell_length_a 18.619436
_cell_length_b 21.015258
_cell_length_c 10.022925
_cell_angle_alpha 122.608182
_cell_angle_beta 44.330369
_cell_angle_gamma 159.455141
_cell_volume 813.226661
_symmetry_space_group_name_H-M "P -1"
_symmetry_group_IT_number 2
_symmetry_cell_setting 'triclinic'
loop_
_space_group_symop_operation_xyz
x,y,z
-x,-y,-z
loop_
_atom_site_type_symbol
_atom_site_label
_atom_site_fract_x
_atom_site_fract_y
_atom_site_fract_z
Si Si1 0.927233 0.575239 0.458302
Si Si2 0.534539 0.687839 0.707543
Si Si3 0.965615 0.855196 0.377175
Si Si4 0.637741 0.221907 0.441353
Si Si5 0.838780 0.492044 0.784310
Si Si6 0.419229 0.954780 0.853748
Si Si7 0.660050 0.962908 0.121881
Si Si8 0.866262 0.625499 0.355044
O O1 0.787393 0.401147 0.394721
O O2 0.859570 0.543979 0.668716
O O3 0.788215 0.547422 0.522320
O O4 0.270753 0.804665 0.233246
O O5 0.675569 0.704205 0.572891
O O6 0.377075 0.575285 0.647493
O O7 0.297001 0.540162 0.970962
O O8 0.780784 0.921917 0.636669
O O9 0.892424 0.733904 0.431773
O O10 0.069576 0.898837 0.141188
O O11 0.556613 0.116259 0.301943
O O12 0.346478 0.040723 0.711625
O O13 0.845603 0.316868 0.370806
O O14 0.640943 0.281186 0.805646
O O15 0.316488 0.935275 0.843799
O O16 0.178392 0.800073 0.112686
#
# Coordination Sequence:
#
# PCOD8040207 Si02
#       8
#     2   2   2   2   2   2   2   2
#     4  11  23  35  50  82 120 147 169 219 279 324
#     4  10  20  40  62  81 101 142 191 227 265 313
#     4   9  21  37  62  80 104 140 188 232 262 314
#     4  11  19  33  56  80 111 145 183 220 262 325
#     4  10  18  36  58  78 110 144 182 224 264 317
#     4  11  20  32  53  79 111 149 180 213 265 327
#     4   9  17  32  55  82 107 135 181 229 264 305
#     4  11  23  36  54  81 116 143 177 223 275 324
#
# _framework density 19.674713000000001
#
# number of rings (size 3 to 8) (size 9 to 14) (size 15 to 20)
#    0.000    1.750    3.750    1.875    0.000    1.500 
#    0.000    0.625    0.000   12.000    0.000    0.000 
#    0.000    0.000    0.000    0.000    0.000    0.000 
#
# Total GULP energy -198376.858911 kJ/mol
# GULP energy per Si atom -12398.553682 kJ/mol
# Density = 1.962993 g / cm^3
# Si number density = 19.674713 Si / 1000 Ang^3
#
#
#
# Elastic Constant Matrix: (Units=GPa)
#
#
# Indices 1 2 3 4 5 6 
#
# 1 117.5068 38.6723 51.3885 4.2894 11.9787 -12.4507
# 2 38.6723 51.7863 22.5975 3.4383 4.3605 -18.8037
# 3 51.3885 22.5975 67.5514 1.8836 -8.0090 -6.8970
# 4 4.2894 3.4383 1.8836 22.4261 -3.1193 -7.3362
# 5 11.9787 4.3605 -8.0090 -3.1193 25.6134 3.5310
# 6 -12.4507 -18.8037 -6.8970 -7.3362 3.5310 22.2047
#
#
#
# Elastic Compliance Matrix: (Units=1/GPa)
#
#
# Indices 1 2 3 4 5 6 
#
# 1 0.017222 -0.005563 -0.012321 -0.002293 -0.011542 0.002197
# 2 -0.005563 0.037560 -0.006549 0.004211 -0.009400 0.029539
# 3 -0.012321 -0.006549 0.027672 0.001360 0.016528 -0.006038
# 4 -0.002293 0.004211 0.001360 0.051055 0.004397 0.018872
# 5 -0.011542 -0.009400 0.016528 0.004397 0.054009 -0.016434
# 6 0.002197 0.029539 -0.006038 0.018872 -0.016434 0.078255
#
#
# Mechanical properties :
#
#
# Convention : Reuss Voigt Hill
#
# Bulk Modulus (GPa) = 29.77120 51.35122 40.56121
# Shear Modulus (GPa) = 15.34526 22.32794 18.83660
#
# Velocity S-wave (km/s) = 2.79579 3.37241 3.09755
# Velocity P-wave (km/s) = 5.05830 6.42814 5.78392
#
# Compressibility (1/GPa) = 0.03358951
#
# Stress axis : x y z
#
# Youngs Moduli (GPa) = 58.06478 26.62440 36.13748
#
# Poissons Ratio (x) = 0.14811 0.44524
# Poissons Ratio (y) = 0.32301 0.23665
# Poissons Ratio (z) = 0.71540 0.17435
#
# Static dielectric constant tensor:
#      x y z
#    x 3.339910 -0.209360 0.005300 
#    y -0.209360 3.639390 -0.009010 
#    z 0.005300 -0.009010 3.693890 
# 
# 
# High freq. dielectric constant tensor:
#      x y z
#    x 1.737080 -0.018980 0.004120 
#    y -0.018980 1.775970 0.000330 
#    z 0.004120 0.000330 1.757830 
# 
# From -- ./inp_files/237721.got.cif
#   From: 2010.06.25/outbox.cif.g09.slc.cpg/sg2_119_cif.got.tgz:237721.got - 2010.06.27 13:26:56.
