data_PCOD8040462
_publ_section_title
;
Structure prediction by ZEFSAII (Michael W. Deem and Ramdas Pophale) SiO2 
 PCOD8040462
Probable space group: P -1
;
_chemical_formula_sum "Si O2"
_cell_formula_units_Z 14
_cell_length_a 8.933417
_cell_length_b 8.301440
_cell_length_c 11.270552
_cell_angle_alpha 129.143363
_cell_angle_beta 79.000568
_cell_angle_gamma 108.836042
_cell_volume 613.429084
_symmetry_space_group_name_H-M "P -1"
_symmetry_group_IT_number 2
_symmetry_cell_setting 'triclinic'
loop_
_space_group_symop_operation_xyz
x,y,z
-x,-y,-z
loop_
_atom_site_type_symbol
_atom_site_label
_atom_site_fract_x
_atom_site_fract_y
_atom_site_fract_z
Si Si1 0.447211 0.148728 0.743924
Si Si2 0.093733 0.564703 0.253259
Si Si3 0.248109 0.197170 0.000029
Si Si4 0.253671 0.822985 0.148946
Si Si5 0.429286 0.272384 0.244693
Si Si6 0.218661 0.730342 0.845204
Si Si7 0.379583 0.703087 0.443140
O O1 0.311539 0.226442 0.868351
O O2 0.603928 0.247828 0.842302
O O3 0.477181 0.236308 0.646507
O O4 0.401351 0.887189 0.624327
O O5 0.109448 0.740657 0.226298
O O6 0.206501 0.666531 0.393125
O O7 0.910294 0.482201 0.284710
O O8 0.128962 0.344599 0.097561
O O9 0.165975 0.943828 0.915050
O O10 0.390034 0.267321 0.107543
O O11 0.304126 0.080544 0.242448
O O12 0.213728 0.702768 0.974965
O O13 0.607025 0.252802 0.224041
O O14 0.402050 0.490638 0.406189
#
# Coordination Sequence:
#
# PCOD8040462 Si02
#       7
#     2   2   2   2   2   2   2
#     4  10  18  37  57  80 103 139 196 215 253 315
#     4  10  22  34  57  79 115 140 177 213 281 312
#     4  10  19  35  58  79 104 147 183 219 256 325
#     4  10  19  34  56  83 104 139 178 227 259 317
#     4  10  19  35  58  82 106 136 186 221 270 305
#     4  11  19  35  53  87 112 134 171 235 269 314
#     4   9  22  35  57  77 108 146 179 222 259 323
#
# _framework density 22.822521999999999
#
# number of rings (size 3 to 8) (size 9 to 14) (size 15 to 20)
#    0.000    2.000    2.857    1.714    2.000    2.286 
#    0.000    0.714    3.143    2.571    0.000    0.000 
#    0.000    0.000    0.000    0.000    0.000    0.000 
#
# Total GULP energy -173535.145151 kJ/mol
# GULP energy per Si atom -12395.367511 kJ/mol
# Density = 2.277058 g / cm^3
# Si number density = 22.822522 Si / 1000 Ang^3
#
#
#
# Elastic Constant Matrix: (Units=GPa)
#
#
# Indices 1 2 3 4 5 6 
#
# 1 54.7637 33.5276 16.7276 7.9561 11.0633 15.7152
# 2 33.5276 96.1265 9.6648 16.6180 2.2831 8.0565
# 3 16.7276 9.6648 42.2903 3.7039 4.5065 8.1869
# 4 7.9561 16.6180 3.7039 29.5401 -2.1508 10.1796
# 5 11.0633 2.2831 4.5065 -2.1508 22.5774 9.0942
# 6 15.7152 8.0565 8.1869 10.1796 9.0942 33.1202
#
#
#
# Elastic Compliance Matrix: (Units=1/GPa)
#
#
# Indices 1 2 3 4 5 6 
#
# 1 0.030021 -0.008828 -0.007365 -0.000234 -0.009287 -0.007655
# 2 -0.008828 0.014348 0.000196 -0.006400 0.001318 0.002255
# 3 -0.007365 0.000196 0.027205 -0.000594 -0.000732 -0.002894
# 4 -0.000234 -0.006400 -0.000594 0.043376 0.010852 -0.014497
# 5 -0.009287 0.001318 -0.000732 0.010852 0.055672 -0.014355
# 6 -0.007655 0.002255 -0.002894 -0.014497 -0.014355 0.042389
#
#
# Mechanical properties :
#
#
# Convention : Reuss Voigt Hill
#
# Bulk Modulus (GPa) = 25.26474 34.78006 30.02240
# Shear Modulus (GPa) = 19.36493 25.93159 22.64826
#
# Velocity S-wave (km/s) = 2.91606 3.37446 3.15360
# Velocity P-wave (km/s) = 4.73625 5.51861 5.14233
#
# Compressibility (1/GPa) = 0.03958085
#
# Stress axis : x y z
#
# Youngs Moduli (GPa) = 33.30947 69.69429 36.75830
#
# Poissons Ratio (x) = 0.61526 0.27073
# Poissons Ratio (y) = 0.29405 -0.00721
# Poissons Ratio (z) = 0.24533 -0.01368
#
# Static dielectric constant tensor:
#      x y z
#    x 3.725500 0.036700 0.187890 
#    y 0.036700 4.415920 0.141420 
#    z 0.187890 0.141420 3.921690 
# 
# 
# High freq. dielectric constant tensor:
#      x y z
#    x 1.864070 0.003890 0.022010 
#    y 0.003890 1.919990 0.005870 
#    z 0.022010 0.005870 1.878810 
# 
# From -- ./inp_files/157462.got.cif
#   From: 2010.06.25/outbox.cif.g09.slc.cpg/sg2_79_cif.got.tgz:157462.got - 2010.06.27 13:26:56.
