data_PCOD8040254
_publ_section_title
;
Structure prediction by ZEFSAII (Michael W. Deem and Ramdas Pophale) SiO2 
 PCOD8040254
Probable space group: P -1
;
_chemical_formula_sum "Si O2"
_cell_formula_units_Z 16
_cell_length_a 9.164632
_cell_length_b 10.905632
_cell_length_c 10.580572
_cell_angle_alpha 51.093753
_cell_angle_beta 61.850891
_cell_angle_gamma 52.986752
_cell_volume 649.579106
_symmetry_space_group_name_H-M "P -1"
_symmetry_group_IT_number 2
_symmetry_cell_setting 'triclinic'
loop_
_space_group_symop_operation_xyz
x,y,z
-x,-y,-z
loop_
_atom_site_type_symbol
_atom_site_label
_atom_site_fract_x
_atom_site_fract_y
_atom_site_fract_z
Si Si1 0.638005 0.766485 0.694988
Si Si2 0.047042 0.952294 0.733802
Si Si3 0.214928 0.652804 0.427529
Si Si4 0.894336 0.400149 0.751526
Si Si5 0.565539 0.669778 0.298121
Si Si6 0.292945 0.835354 0.944049
Si Si7 0.617158 0.127671 0.504646
Si Si8 0.204322 0.147269 0.953846
O O1 0.827445 0.588418 0.724578
O O2 0.497403 0.744919 0.863040
O O3 0.554345 0.801949 0.565795
O O4 0.688500 0.918314 0.625852
O O5 0.141789 0.963884 0.820628
O O6 0.208126 0.844910 0.636538
O O7 0.920682 0.147521 0.606469
O O8 0.924031 0.846205 0.878141
O O9 0.113032 0.587654 0.406221
O O10 0.410468 0.641314 0.299666
O O11 0.265833 0.518778 0.611981
O O12 0.097783 0.278318 0.797862
O O13 0.754480 0.320414 0.897453
O O14 0.452151 0.773118 0.401046
O O15 0.638669 0.791451 0.111503
O O16 0.289286 0.949545 0.993895
#
# Coordination Sequence:
#
# PCOD8040254 Si02
#       8
#     2   2   2   2   2   2   2   2
#     4  10  20  33  57  92 123 153 193 247 302 349
#     4  10  21  38  62  86 121 153 198 245 301 347
#     4  11  23  40  61  88 120 162 196 244 296 351
#     4  11  20  35  62  93 120 153 196 250 300 347
#     4  11  25  41  60  87 126 157 201 242 291 356
#     4  10  18  36  59  92 122 149 196 251 301 347
#     4  10  21  37  58  88 121 158 196 243 295 354
#     4  11  21  39  63  92 118 152 201 252 289 353
#
# _framework density 24.631333000000001
#
# number of rings (size 3 to 8) (size 9 to 14) (size 15 to 20)
#    0.000    1.500    5.000    1.125    1.750    1.500 
#    0.000    0.000    0.000    3.000    0.000    0.000 
#    0.000    0.000    0.000    0.000    0.000    0.000 
#
# Total GULP energy -198384.585059 kJ/mol
# GULP energy per Si atom -12399.036566 kJ/mol
# Density = 2.457527 g / cm^3
# Si number density = 24.631333 Si / 1000 Ang^3
#
#
#
# Elastic Constant Matrix: (Units=GPa)
#
#
# Indices 1 2 3 4 5 6 
#
# 1 45.5782 -0.6328 0.7590 3.0047 -11.3894 2.9479
# 2 -0.6328 76.7549 7.9242 -17.0454 7.7796 -9.2837
# 3 0.7590 7.9242 40.5895 -2.5274 -18.6964 -0.8525
# 4 3.0047 -17.0454 -2.5274 35.8195 -8.3372 -6.0927
# 5 -11.3894 7.7796 -18.6964 -8.3372 41.1436 -7.6442
# 6 2.9479 -9.2837 -0.8525 -6.0927 -7.6442 20.9632
#
#
#
# Elastic Compliance Matrix: (Units=1/GPa)
#
#
# Indices 1 2 3 4 5 6 
#
# 1 0.024009 -0.001251 0.003491 -0.000635 0.008155 -0.000999
# 2 -0.001251 0.016659 -0.003012 0.009181 -0.001210 0.009658
# 3 0.003491 -0.003012 0.035382 0.007191 0.020797 0.009288
# 4 -0.000635 0.009181 0.007191 0.039445 0.013199 0.020725
# 5 0.008155 -0.001210 0.020797 0.013199 0.042342 0.018439
# 6 -0.000999 0.009658 0.009288 0.020725 0.018439 0.065245
#
#
# Mechanical properties :
#
#
# Convention : Reuss Voigt Hill
#
# Bulk Modulus (GPa) = 13.42159 19.89149 16.65654
# Shear Modulus (GPa) = 20.04327 29.91007 24.97667
#
# Velocity S-wave (km/s) = 2.85569 3.48848 3.18782
# Velocity P-wave (km/s) = 4.04155 4.93145 4.50851
#
# Compressibility (1/GPa) = 0.07450685
#
# Stress axis : x y z
#
# Youngs Moduli (GPa) = 41.65088 60.02848 28.26309
#
# Poissons Ratio (x) = 0.07509 -0.09867
# Poissons Ratio (y) = 0.05210 0.08512
# Poissons Ratio (z) = -0.14541 0.18079
#
# Static dielectric constant tensor:
#      x y z
#    x 4.499270 -0.120060 -0.213770 
#    y -0.120060 4.180440 -0.155280 
#    z -0.213770 -0.155280 4.474100 
# 
# 
# High freq. dielectric constant tensor:
#      x y z
#    x 1.971420 -0.017120 -0.017220 
#    y -0.017120 1.963120 -0.015040 
#    z -0.017220 -0.015040 1.975940 
# 
# From -- ./inp_files/245136.got.cif
#   From: 2010.06.25/outbox.cif.g09.slc.cpg/sg2_123_cif.got.tgz:245136.got - 2010.06.27 13:26:56.
