data_PCOD8040878
_publ_section_title
;
Structure prediction by ZEFSAII (Michael W. Deem and Ramdas Pophale) SiO2 
 PCOD8040878
Probable space group: P -1
;
_chemical_formula_sum "Si O2"
_cell_formula_units_Z 12
_cell_length_a 10.379676
_cell_length_b 7.145804
_cell_length_c 17.521291
_cell_angle_alpha 141.348385
_cell_angle_beta 138.221788
_cell_angle_gamma 50.248961
_cell_volume 535.679270
_symmetry_space_group_name_H-M "P -1"
_symmetry_group_IT_number 2
_symmetry_cell_setting 'triclinic'
loop_
_space_group_symop_operation_xyz
x,y,z
-x,-y,-z
loop_
_atom_site_type_symbol
_atom_site_label
_atom_site_fract_x
_atom_site_fract_y
_atom_site_fract_z
Si Si1 0.243952 0.252256 0.164204
Si Si2 0.470307 0.274178 0.130906
Si Si3 0.871356 0.682457 0.618496
Si Si4 0.449126 0.783080 0.477541
Si Si5 0.788532 0.688175 0.409442
Si Si6 0.853348 0.184559 0.890511
O O1 0.412483 0.134623 0.141018
O O2 0.290539 0.568870 0.319315
O O3 0.248846 0.003722 0.152281
O O4 0.035857 0.316088 0.050165
O O5 0.673043 0.401257 0.272037
O O6 0.300372 0.536876 0.114771
O O7 0.500000 0.000000 0.000000
O O8 0.663416 0.600424 0.534269
O O9 0.871461 0.760974 0.553144
O O10 0.041945 0.390686 0.605323
O O11 0.926272 0.966655 0.781862
O O12 0.500000 0.000000 0.500000
O O13 0.359281 0.004348 0.577661
#
# Coordination Sequence:
#
# PCOD8040878 Si02
#       6
#     2   2   2   2   2   2
#     4  11  24  44  66  98 135 175 224 273 328 400
#     4  12  23  41  68  96 132 180 217 277 337 388
#     4  10  19  38  65  91 132 171 212 273 324 383
#     4  10  18  39  66  91 132 167 211 273 324 383
#     4  10  20  37  64 101 128 161 232 268 314 408
#     4  11  25  43  67  97 134 180 221 270 336 395
#
# _framework density 22.401463
#
# number of rings (size 3 to 8) (size 9 to 14) (size 15 to 20)
#    0.000    1.333    5.000    2.500    0.000    5.333 
#    0.000    0.833    0.000    0.000    0.000    0.000 
#    0.000    0.000    0.000    0.000    0.000    0.000 
#
# Total GULP energy -148688.803500 kJ/mol
# GULP energy per Si atom -12390.733625 kJ/mol
# Density = 2.235048 g / cm^3
# Si number density = 22.401463 Si / 1000 Ang^3
#
#
#
# Elastic Constant Matrix: (Units=GPa)
#
#
# Indices 1 2 3 4 5 6 
#
# 1 117.2283 71.3910 79.7268 12.3926 -10.5674 -51.3240
# 2 71.3910 77.4560 39.7293 13.9260 -10.9639 -35.6642
# 3 79.7268 39.7293 158.6552 22.9395 6.0352 -13.3791
# 4 12.3926 13.9260 22.9395 27.4382 -11.1303 -12.5238
# 5 -10.5674 -10.9639 6.0352 -11.1303 44.8696 6.7925
# 6 -51.3240 -35.6642 -13.3791 -12.5238 6.7925 49.1646
#
#
#
# Elastic Compliance Matrix: (Units=1/GPa)
#
#
# Indices 1 2 3 4 5 6 
#
# 1 0.049950 -0.022293 -0.020741 0.026551 0.010293 0.035670
# 2 -0.022293 0.032459 0.004578 -0.010978 -0.000475 -0.001212
# 3 -0.020741 0.004578 0.017084 -0.018361 -0.008007 -0.017253
# 4 0.026551 -0.010978 -0.018361 0.065945 0.017998 0.029069
# 5 0.010293 -0.000475 -0.008007 0.017998 0.028800 0.008827
# 6 0.035670 -0.001212 -0.017253 0.029069 0.008827 0.058187
#
#
# Mechanical properties :
#
#
# Convention : Reuss Voigt Hill
#
# Bulk Modulus (GPa) = 44.28667 81.67041 62.97854
# Shear Modulus (GPa) = 14.84277 35.12730 24.98503
#
# Velocity S-wave (km/s) = 2.57686 3.96420 3.34328
# Velocity P-wave (km/s) = 5.35407 7.58221 6.56338
#
# Compressibility (1/GPa) = 0.02258016
#
# Stress axis : x y z
#
# Youngs Moduli (GPa) = 20.01993 30.80842 58.53531
#
# Poissons Ratio (x) = 0.68682 1.21407
# Poissons Ratio (y) = 0.44631 -0.26796
# Poissons Ratio (z) = 0.41523 -0.14103
#
# Static dielectric constant tensor:
#      x y z
#    x 4.842320 -0.887030 0.009130 
#    y -0.887030 4.674240 -0.065250 
#    z 0.009130 -0.065250 4.283690 
# 
# 
# High freq. dielectric constant tensor:
#      x y z
#    x 1.880510 -0.027360 0.000860 
#    y -0.027360 1.860880 -0.005000 
#    z 0.000860 -0.005000 1.900300 
# 
# From -- ./inp_files/150009.got.cif
#   From: 2010.06.25/outbox.cif.g09.slc.cpg/sg2_76_cif.got.tgz:150009.got - 2010.06.27 13:26:56.
