data_PCOD8040444
_publ_section_title
;
Structure prediction by ZEFSAII (Michael W. Deem and Ramdas Pophale) SiO2 
 PCOD8040444
Probable space group: P -1
;
_chemical_formula_sum "Si O2"
_cell_formula_units_Z 14
_cell_length_a 9.402216
_cell_length_b 8.300815
_cell_length_c 18.091283
_cell_angle_alpha 113.000031
_cell_angle_beta 150.868639
_cell_angle_gamma 67.916558
_cell_volume 630.821888
_symmetry_space_group_name_H-M "P -1"
_symmetry_group_IT_number 2
_symmetry_cell_setting 'triclinic'
loop_
_space_group_symop_operation_xyz
x,y,z
-x,-y,-z
loop_
_atom_site_type_symbol
_atom_site_label
_atom_site_fract_x
_atom_site_fract_y
_atom_site_fract_z
Si Si1 0.101744 0.393954 0.826772
Si Si2 0.095287 0.083729 0.984348
Si Si3 0.355387 0.708110 0.280016
Si Si4 0.572971 0.328158 0.293243
Si Si5 0.745197 0.240649 0.097010
Si Si6 0.062497 0.268042 0.390261
Si Si7 0.737474 0.402794 0.534710
O O1 0.105895 0.603120 0.850263
O O2 0.878700 0.368751 0.786096
O O3 0.980477 0.301490 0.680457
O O4 0.413223 0.307263 0.978259
O O5 0.797025 0.161112 0.824493
O O6 0.266302 0.932147 0.987465
O O7 0.301999 0.237335 0.120229
O O8 0.000000 0.000000 0.000000
O O9 0.519402 0.534975 0.286276
O O10 0.604873 0.811834 0.454569
O O11 0.595795 0.286427 0.385602
O O12 0.867155 0.253952 0.372131
O O13 0.919117 0.175288 0.238575
O O14 0.084896 0.467983 0.411383
O O15 0.500000 0.500000 0.500000
#
# Coordination Sequence:
#
# PCOD8040444 Si02
#       7
#     2   2   2   2   2   2   2
#     4  10  20  40  72  93 123 174 215 265 314 395
#     4  12  28  42  63  92 137 170 215 272 320 391
#     4  11  22  41  68  94 123 172 221 261 325 379
#     4  11  23  42  67  96 133 169 217 266 320 381
#     4  10  24  42  62  97 134 168 213 263 330 370
#     4  10  22  39  68  97 130 168 216 273 310 385
#     4  10  18  36  69  99 125 158 219 269 308 374
#
# _framework density 22.193269000000001
#
# number of rings (size 3 to 8) (size 9 to 14) (size 15 to 20)
#    0.000    1.429    2.857    3.857    2.000    7.429 
#    0.000    2.857    0.000    0.000    0.000    0.000 
#    0.000    0.000    0.000    0.000    0.000    0.000 
#
# Total GULP energy -173512.721050 kJ/mol
# GULP energy per Si atom -12393.765789 kJ/mol
# Density = 2.214276 g / cm^3
# Si number density = 22.193269 Si / 1000 Ang^3
#
#
#
# Elastic Constant Matrix: (Units=GPa)
#
#
# Indices 1 2 3 4 5 6 
#
# 1 117.1878 10.5653 47.9335 -4.5202 -4.0365 -3.0676
# 2 10.5653 45.3207 27.0698 -0.2732 -15.8697 -1.2809
# 3 47.9335 27.0698 166.4637 -16.5055 -16.2830 0.5905
# 4 -4.5202 -0.2732 -16.5055 22.8026 -5.7178 -15.3030
# 5 -4.0365 -15.8697 -16.2830 -5.7178 40.6323 -2.2491
# 6 -3.0676 -1.2809 0.5905 -15.3030 -2.2491 23.3067
#
#
#
# Elastic Compliance Matrix: (Units=1/GPa)
#
#
# Indices 1 2 3 4 5 6 
#
# 1 0.009764 -0.000652 -0.002526 0.001808 0.000097 0.002510
# 2 -0.000652 0.027820 -0.002885 0.004411 0.010566 0.005432
# 3 -0.002526 -0.002885 0.008774 0.011930 0.004234 0.007528
# 4 0.001808 0.004411 0.011930 0.109589 0.026237 0.074665
# 5 0.000097 0.010566 0.004234 0.026237 0.035305 0.021120
# 6 0.002510 0.005432 0.007528 0.074665 0.021120 0.094407
#
#
# Mechanical properties :
#
#
# Convention : Reuss Voigt Hill
#
# Bulk Modulus (GPa) = 29.21131 55.56773 42.38952
# Shear Modulus (GPa) = 16.17107 33.57523 24.87315
#
# Velocity S-wave (km/s) = 2.70228 3.89376 3.35140
# Velocity P-wave (km/s) = 4.78824 6.73110 5.84101
#
# Compressibility (1/GPa) = 0.03423332
#
# Stress axis : x y z
#
# Youngs Moduli (GPa) = 102.41755 35.94548 113.97303
#
# Poissons Ratio (x) = 0.02344 0.28786
# Poissons Ratio (y) = 0.06678 0.32876
# Poissons Ratio (z) = 0.25868 0.10369
#
# Static dielectric constant tensor:
#      x y z
#    x 4.073690 -0.048800 -0.281890 
#    y -0.048800 3.913440 0.368000 
#    z -0.281890 0.368000 5.312620 
# 
# 
# High freq. dielectric constant tensor:
#      x y z
#    x 1.879280 -0.000070 -0.002840 
#    y -0.000070 1.825070 -0.002720 
#    z -0.002840 -0.002720 1.906080 
# 
# From -- ./inp_files/557529.got.cif
#   From: 2010.06.25/outbox.cif.g09.slc.cpg/sg2_279_cif.got.tgz:557529.got - 2010.06.27 13:26:56.
