data_PCOD8040503
_publ_section_title
;
Structure prediction by ZEFSAII (Michael W. Deem and Ramdas Pophale) SiO2 
 PCOD8040503
Probable space group: P -1
;
_chemical_formula_sum "Si O2"
_cell_formula_units_Z 14
_cell_length_a 15.604603
_cell_length_b 6.879770
_cell_length_c 12.012030
_cell_angle_alpha 74.799041
_cell_angle_beta 142.699003
_cell_angle_gamma 95.716489
_cell_volume 740.928923
_symmetry_space_group_name_H-M "P -1"
_symmetry_group_IT_number 2
_symmetry_cell_setting 'triclinic'
loop_
_space_group_symop_operation_xyz
x,y,z
-x,-y,-z
loop_
_atom_site_type_symbol
_atom_site_label
_atom_site_fract_x
_atom_site_fract_y
_atom_site_fract_z
Si Si1 0.767431 0.138646 0.420141
Si Si2 0.615070 0.008486 0.473939
Si Si3 0.449027 0.187876 0.083145
Si Si4 0.979959 0.656692 0.356252
Si Si5 0.557146 0.658593 0.611910
Si Si6 0.779881 0.016944 0.214376
Si Si7 0.746075 0.482054 0.036858
O O1 0.756796 0.009999 0.542621
O O2 0.603568 0.238097 0.196133
O O3 0.861992 0.309381 0.523312
O O4 0.834587 0.006629 0.401362
O O5 0.475790 0.039107 0.242966
O O6 0.581991 0.203495 0.493865
O O7 0.638969 0.799049 0.598095
O O8 0.349028 0.403602 0.977726
O O9 0.371630 0.065396 0.931313
O O10 0.000000 0.500000 0.500000
O O11 0.899016 0.561536 0.186502
O O12 0.892576 0.875038 0.273382
O O13 0.500000 0.500000 0.500000
O O14 0.672631 0.536004 0.834270
O O15 0.765590 0.242516 0.115465
#
# Coordination Sequence:
#
# PCOD8040503 Si02
#       7
#     2   2   2   2   2   2   2
#     4  10  20  38  57  85 118 152 188 235 281 334
#     4   8  19  36  55  84 115 142 186 237 283 325
#     4   8  19  36  53  89 111 147 182 241 280 328
#     4  11  23  41  55  81 121 162 185 226 283 352
#     4  10  18  37  60  83 113 147 190 233 293 330
#     4  11  20  36  58  85 118 149 193 227 287 345
#     4  10  21  36  59  86 114 152 188 231 290 338
#
# _framework density 18.895199000000002
#
# number of rings (size 3 to 8) (size 9 to 14) (size 15 to 20)
#    0.857    1.429    1.429    1.714    0.000    1.714 
#    5.143    0.714    0.000    1.714    0.000    0.000 
#    0.000    0.000    0.000    0.000    0.000    0.000 
#
# Total GULP energy -173448.316933 kJ/mol
# GULP energy per Si atom -12389.165495 kJ/mol
# Density = 1.885219 g / cm^3
# Si number density = 18.895199 Si / 1000 Ang^3
#
#
#
# Elastic Constant Matrix: (Units=GPa)
#
#
# Indices 1 2 3 4 5 6 
#
# 1 77.8382 53.3747 35.2298 3.2173 -16.1693 24.7973
# 2 53.3747 140.2253 68.7571 8.6428 -4.1494 10.5036
# 3 35.2298 68.7571 89.7101 17.1888 -4.0373 10.2186
# 4 3.2173 8.6428 17.1888 43.6158 7.9892 0.3367
# 5 -16.1693 -4.1494 -4.0373 7.9892 34.4216 7.3777
# 6 24.7973 10.5036 10.2186 0.3367 7.3777 24.7147
#
#
#
# Elastic Compliance Matrix: (Units=1/GPa)
#
#
# Indices 1 2 3 4 5 6 
#
# 1 0.040972 -0.010922 -0.000208 -0.005715 0.028859 -0.044918
# 2 -0.010922 0.014443 -0.008834 0.002685 -0.007326 0.010624
# 3 -0.000208 -0.008834 0.020107 -0.006839 0.003948 -0.005435
# 4 -0.005715 0.002685 -0.006839 0.027599 -0.011836 0.010578
# 5 0.028859 -0.007326 0.003948 -0.011836 0.054261 -0.043511
# 6 -0.044918 0.010624 -0.005435 0.010578 -0.043511 0.096106
#
#
# Mechanical properties :
#
#
# Convention : Reuss Voigt Hill
#
# Bulk Modulus (GPa) = 28.09678 69.16631 48.63154
# Shear Modulus (GPa) = 16.37835 30.57790 23.47812
#
# Velocity S-wave (km/s) = 2.94734 4.02716 3.52880
# Velocity P-wave (km/s) = 5.14631 7.63602 6.51127
#
# Compressibility (1/GPa) = 0.03559127
#
# Stress axis : x y z
#
# Youngs Moduli (GPa) = 24.40698 69.24001 49.73389
#
# Poissons Ratio (x) = 0.75627 0.01036
# Poissons Ratio (y) = 0.26658 0.43937
# Poissons Ratio (z) = 0.00508 0.61169
#
# Static dielectric constant tensor:
#      x y z
#    x 3.855090 0.313620 0.097980 
#    y 0.313620 3.690470 0.248410 
#    z 0.097980 0.248410 3.549410 
# 
# 
# High freq. dielectric constant tensor:
#      x y z
#    x 1.713420 0.000820 -0.002980 
#    y 0.000820 1.737110 0.010510 
#    z -0.002980 0.010510 1.724990 
# 
# From -- ./inp_files/364786.got.cif
#   From: 2010.06.25/outbox.cif.g09.slc.cpg/sg2_183_cif.got.tgz:364786.got - 2010.06.27 13:26:56.
