data_PCOD8040996
_publ_section_title
;
Structure prediction by ZEFSAII (Michael W. Deem and Ramdas Pophale) SiO2 
 PCOD8040996
Probable space group: P -1
;
_chemical_formula_sum "Si O2"
_cell_formula_units_Z 16
_cell_length_a 9.245201
_cell_length_b 11.496246
_cell_length_c 13.992080
_cell_angle_alpha 137.645334
_cell_angle_beta 131.668227
_cell_angle_gamma 52.455833
_cell_volume 727.548370
_symmetry_space_group_name_H-M "P -1"
_symmetry_group_IT_number 2
_symmetry_cell_setting 'triclinic'
loop_
_space_group_symop_operation_xyz
x,y,z
-x,-y,-z
loop_
_atom_site_type_symbol
_atom_site_label
_atom_site_fract_x
_atom_site_fract_y
_atom_site_fract_z
Si Si1 0.148083 0.158164 0.451991
Si Si2 0.038419 0.290962 0.871001
Si Si3 0.553086 0.640913 0.355040
Si Si4 0.240254 0.804610 0.173818
Si Si5 0.754346 0.119012 0.520316
Si Si6 0.773339 0.101794 0.980288
Si Si7 0.714783 0.259325 0.252676
Si Si8 0.610076 0.010871 0.201138
O O1 0.246740 0.324199 0.581903
O O2 0.915940 0.238429 0.386635
O O3 0.251843 0.004210 0.328901
O O4 0.178802 0.077438 0.523182
O O5 0.979677 0.208205 0.894884
O O6 0.902841 0.243179 0.694973
O O7 0.269696 0.192957 0.893101
O O8 0.000000 0.500000 0.000000
O O9 0.396299 0.651009 0.205518
O O10 0.466512 0.791531 0.486126
O O11 0.585954 0.459312 0.318221
O O12 0.283458 0.773139 0.061738
O O13 0.741977 0.093097 0.385492
O O14 0.610038 0.983656 0.851383
O O15 0.768470 0.220160 0.142387
O O16 0.000000 0.000000 0.000000
O O17 0.588691 0.131230 0.168721
#
# Coordination Sequence:
#
# PCOD8040996 Si02
#       8
#     2   2   2   2   2   2   2   2
#     4  10  18  41  66  93 132 178 224 286 339 400
#     4  10  22  43  72 107 139 170 225 294 342 404
#     4  10  22  39  66 102 131 178 225 292 338 405
#     4  10  21  45  68  92 134 174 239 271 345 416
#     4  10  22  42  74  98 137 175 241 265 346 415
#     4  12  25  44  67  96 132 186 237 278 344 414
#     4  12  25  40  65  99 145 177 233 282 352 404
#     4  12  24  45  73  97 139 189 227 283 350 412
#
# _framework density 21.991664
#
# number of rings (size 3 to 8) (size 9 to 14) (size 15 to 20)
#    0.000    1.500    3.750    4.125    3.500    1.000 
#    2.250    1.250    0.000    0.000    0.000    0.000 
#    0.000    0.000    0.000    0.000    0.000    0.000 
#
# Total GULP energy -198285.408055 kJ/mol
# GULP energy per Si atom -12392.838003 kJ/mol
# Density = 2.194161 g / cm^3
# Si number density = 21.991664 Si / 1000 Ang^3
#
#
#
# Elastic Constant Matrix: (Units=GPa)
#
#
# Indices 1 2 3 4 5 6 
#
# 1 125.2473 50.2759 39.7613 -6.0945 2.4968 -2.9346
# 2 50.2759 149.3561 34.2057 5.2553 0.6727 0.5034
# 3 39.7613 34.2057 58.9363 8.7323 4.8333 1.8531
# 4 -6.0945 5.2553 8.7323 21.5780 6.2524 2.6049
# 5 2.4968 0.6727 4.8333 6.2524 36.6506 -10.3177
# 6 -2.9346 0.5034 1.8531 2.6049 -10.3177 28.0474
#
#
#
# Elastic Compliance Matrix: (Units=1/GPa)
#
#
# Indices 1 2 3 4 5 6 
#
# 1 0.011737 -0.002484 -0.007489 0.007062 -0.000734 0.000841
# 2 -0.002484 0.008260 -0.002925 -0.001782 0.000774 0.000235
# 3 -0.007489 -0.002925 0.025540 -0.011085 -0.001455 -0.001924
# 4 0.007062 -0.001782 -0.011085 0.057394 -0.010993 -0.007871
# 5 -0.000734 0.000774 -0.001455 -0.010993 0.033105 0.013205
# 6 0.000841 0.000235 -0.001924 -0.007871 0.013205 0.041454
#
#
# Mechanical properties :
#
#
# Convention : Reuss Voigt Hill
#
# Bulk Modulus (GPa) = 50.65725 64.66950 57.66338
# Shear Modulus (GPa) = 23.82487 31.20830 27.51658
#
# Velocity S-wave (km/s) = 3.29501 3.77118 3.54111
# Velocity P-wave (km/s) = 6.12870 6.95935 6.55719
#
# Compressibility (1/GPa) = 0.01974051
#
# Stress axis : x y z
#
# Youngs Moduli (GPa) = 85.20308 121.06894 39.15432
#
# Poissons Ratio (x) = 0.30068 0.29324
# Poissons Ratio (y) = 0.21161 0.11453
# Poissons Ratio (z) = 0.63811 0.35414
#
# Static dielectric constant tensor:
#      x y z
#    x 4.346300 -0.032210 -0.108050 
#    y -0.032210 4.066160 -0.158250 
#    z -0.108050 -0.158250 3.811490 
# 
# 
# High freq. dielectric constant tensor:
#      x y z
#    x 1.875620 -0.002790 0.004340 
#    y -0.002790 1.858720 -0.016900 
#    z 0.004340 -0.016900 1.841860 
# 
# From -- ./inp_files/501037.got.cif
#   From: 2010.06.25/outbox.cif.g09.slc.cpg/sg2_251_cif.got.tgz:501037.got - 2010.06.27 13:26:56.
