data_PCOD8040109
_publ_section_title
;
Structure prediction by ZEFSAII (Michael W. Deem and Ramdas Pophale) SiO2 
 PCOD8040109
Probable space group: P -1
;
_chemical_formula_sum "Si O2"
_cell_formula_units_Z 16
_cell_length_a 12.903055
_cell_length_b 11.068219
_cell_length_c 17.811491
_cell_angle_alpha 35.190605
_cell_angle_beta 148.668757
_cell_angle_gamma 136.785006
_cell_volume 758.252860
_symmetry_space_group_name_H-M "P -1"
_symmetry_group_IT_number 2
_symmetry_cell_setting 'triclinic'
loop_
_space_group_symop_operation_xyz
x,y,z
-x,-y,-z
loop_
_atom_site_type_symbol
_atom_site_label
_atom_site_fract_x
_atom_site_fract_y
_atom_site_fract_z
Si Si1 0.262649 0.862828 0.733677
Si Si2 0.955272 0.952886 0.370602
Si Si3 0.115123 0.500884 0.429596
Si Si4 0.516131 0.178377 0.481706
Si Si5 0.626590 0.007679 0.790409
Si Si6 0.871844 0.656935 0.797881
Si Si7 0.728611 0.574913 0.083814
Si Si8 0.269001 0.536260 0.345355
O O1 0.134696 0.950306 0.542738
O O2 0.213052 0.608665 0.843272
O O3 0.490880 0.926799 0.817913
O O4 0.232707 0.966837 0.742572
O O5 0.894471 0.718349 0.418490
O O6 0.015032 0.107196 0.259232
O O7 0.274066 0.677629 0.474349
O O8 0.181727 0.435551 0.419870
O O9 0.891736 0.579362 0.250609
O O10 0.502423 0.067182 0.610765
O O11 0.334417 0.326348 0.292295
O O12 0.500000 0.000000 0.500000
O O13 0.764851 0.214907 0.798341
O O14 0.751406 0.811724 0.943590
O O15 0.845719 0.571277 0.740923
O O16 0.000000 0.500000 0.000000
O O17 0.500000 0.500000 0.000000
O O18 0.500000 0.500000 0.500000
#
# Coordination Sequence:
#
# PCOD8040109 Si02
#       8
#     2   2   2   2   2   2   2   2
#     4   9  16  31  62  95 121 153 210 269 322 370
#     4  10  18  35  64  91 117 162 212 266 325 374
#     4  10  21  38  69  95 122 166 230 264 325 384
#     4  11  25  42  61  87 135 185 212 256 331 407
#     4  10  19  35  63  89 128 159 215 267 327 372
#     4  12  25  41  63  96 134 170 215 273 329 388
#     4   9  19  32  55  97 129 152 199 275 320 379
#     4  11  19  37  67  95 118 162 221 273 317 383
#
# _framework density 21.101137999999999
#
# number of rings (size 3 to 8) (size 9 to 14) (size 15 to 20)
#    0.000    1.750    3.750    3.000    0.000    5.000 
#    0.000    1.250    8.250    0.000    0.000    0.000 
#    0.000    0.000    0.000    0.000    0.000    0.000 
#
# Total GULP energy -198267.524595 kJ/mol
# GULP energy per Si atom -12391.720287 kJ/mol
# Density = 2.105311 g / cm^3
# Si number density = 21.101138 Si / 1000 Ang^3
#
#
#
# Elastic Constant Matrix: (Units=GPa)
#
#
# Indices 1 2 3 4 5 6 
#
# 1 45.7730 31.1496 22.7952 4.0246 8.1156 5.5775
# 2 31.1496 133.7592 56.5929 -14.9780 0.2536 5.7625
# 3 22.7952 56.5929 136.5564 -24.7130 11.1082 10.5554
# 4 4.0246 -14.9780 -24.7130 39.6228 6.9788 -0.5012
# 5 8.1156 0.2536 11.1082 6.9788 23.9965 -2.9333
# 6 5.5775 5.7625 10.5554 -0.5012 -2.9333 33.4868
#
#
#
# Elastic Compliance Matrix: (Units=1/GPa)
#
#
# Indices 1 2 3 4 5 6 
#
# 1 0.029694 -0.006338 -0.002424 -0.005618 -0.007690 -0.003849
# 2 -0.006338 0.010513 -0.003202 0.002105 0.002969 0.000547
# 3 -0.002424 -0.003202 0.011127 0.007124 -0.006740 -0.003036
# 4 -0.005618 0.002105 0.007124 0.033008 -0.011285 -0.002167
# 5 -0.007690 0.002969 -0.006740 -0.011285 0.051529 0.007239
# 6 -0.003849 0.000547 -0.003036 -0.002167 0.007239 0.031968
#
#
# Mechanical properties :
#
#
# Convention : Reuss Voigt Hill
#
# Bulk Modulus (GPa) = 36.48802 59.68488 48.08645
# Shear Modulus (GPa) = 24.88774 33.12461 29.00618
#
# Velocity S-wave (km/s) = 3.43804 3.96637 3.71162
# Velocity P-wave (km/s) = 5.75236 7.02301 6.41920
#
# Compressibility (1/GPa) = 0.02740625
#
# Stress axis : x y z
#
# Youngs Moduli (GPa) = 33.67728 95.11692 89.87262
#
# Poissons Ratio (x) = 0.60288 0.21781
# Poissons Ratio (y) = 0.21346 0.28777
# Poissons Ratio (z) = 0.08162 0.30456
#
# Static dielectric constant tensor:
#      x y z
#    x 3.685570 0.105700 0.367280 
#    y 0.105700 4.030460 -0.414020 
#    z 0.367280 -0.414020 4.109070 
# 
# 
# High freq. dielectric constant tensor:
#      x y z
#    x 1.797970 0.022240 0.030460 
#    y 0.022240 1.831620 -0.029660 
#    z 0.030460 -0.029660 1.818280 
# 
# From -- ./inp_files/597668.got.cif
#   From: 2010.06.25/outbox.cif.g09.slc.cpg/sg2_299_cif.got.tgz:597668.got - 2010.06.27 13:26:56.
