data_PCOD8040932
_publ_section_title
;
Structure prediction by ZEFSAII (Michael W. Deem and Ramdas Pophale) SiO2 
 PCOD8040932
Probable space group: P -1
;
_chemical_formula_sum "Si O2"
_cell_formula_units_Z 16
_cell_length_a 7.635341
_cell_length_b 16.360510
_cell_length_c 19.540677
_cell_angle_alpha 20.752246
_cell_angle_beta 86.710752
_cell_angle_gamma 98.073016
_cell_volume 721.905065
_symmetry_space_group_name_H-M "P -1"
_symmetry_group_IT_number 2
_symmetry_cell_setting 'triclinic'
loop_
_space_group_symop_operation_xyz
x,y,z
-x,-y,-z
loop_
_atom_site_type_symbol
_atom_site_label
_atom_site_fract_x
_atom_site_fract_y
_atom_site_fract_z
Si Si1 0.791646 0.490332 0.301086
Si Si2 0.167988 0.894201 0.309641
Si Si3 0.176483 0.694579 0.214762
Si Si4 0.873122 0.616064 0.046799
Si Si5 0.557204 0.205484 0.260761
Si Si6 0.815568 0.525606 0.883487
Si Si7 0.382942 0.154175 0.961675
Si Si8 0.238033 0.058009 0.490380
O O1 0.717628 0.189712 0.570462
O O2 0.785022 0.469286 0.236363
O O3 0.643578 0.592096 0.249928
O O4 0.029851 0.716433 0.144598
O O5 0.954084 0.614787 0.507961
O O6 0.103869 0.092593 0.188497
O O7 0.324360 0.043488 0.126672
O O8 0.378324 0.742328 0.134784
O O9 0.232433 0.911152 0.103505
O O10 0.717797 0.414658 0.150417
O O11 0.103571 0.664483 0.994292
O O12 0.322046 0.078881 0.392760
O O13 0.609167 0.966787 0.441285
O O14 0.608441 0.356960 0.068106
O O15 0.751872 0.656449 0.720575
O O16 0.002134 0.793019 0.710776
#
# Coordination Sequence:
#
# PCOD8040932 Si02
#       8
#     2   2   2   2   2   2   2   2
#     4   9  21  38  55  84 119 149 182 231 281 331
#     4   9  21  38  55  82 118 149 179 230 281 335
#     4   9  20  38  62  86 112 147 190 232 274 330
#     4  10  20  37  54  78 118 145 181 228 279 333
#     4  10  20  36  57  78 105 143 186 235 271 324
#     4  10  20  36  58  79 104 144 186 233 275 325
#     4  10  18  40  62  85 112 145 193 235 268 329
#     4   9  19  35  55  81 102 130 191 234 272 324
#
# _framework density 22.163578999999999
#
# number of rings (size 3 to 8) (size 9 to 14) (size 15 to 20)
#    0.750    1.750    0.000    2.625    0.000    4.000 
#    9.000    6.250    0.000    0.000    0.000    0.000 
#    0.000    0.000    0.000    0.000    0.000    0.000 
#
# Total GULP energy -198238.447756 kJ/mol
# GULP energy per Si atom -12389.902985 kJ/mol
# Density = 2.211313 g / cm^3
# Si number density = 22.163579 Si / 1000 Ang^3
#
#
#
# Elastic Constant Matrix: (Units=GPa)
#
#
# Indices 1 2 3 4 5 6 
#
# 1 54.0847 10.0463 21.9677 -2.5522 11.8720 -16.7544
# 2 10.0463 54.8957 19.8188 -3.8138 13.9971 -16.4328
# 3 21.9677 19.8188 115.1770 8.5579 27.2901 -16.9485
# 4 -2.5522 -3.8138 8.5579 22.4057 -9.1465 2.2537
# 5 11.8720 13.9971 27.2901 -9.1465 46.9299 -1.6532
# 6 -16.7544 -16.4328 -16.9485 2.2537 -1.6532 29.5767
#
#
#
# Elastic Compliance Matrix: (Units=1/GPa)
#
#
# Indices 1 2 3 4 5 6 
#
# 1 0.024120 0.001454 -0.001753 0.000302 -0.004994 0.013164
# 2 0.001454 0.023900 -0.001024 0.000737 -0.006295 0.013107
# 3 -0.001753 -0.001024 0.012697 -0.009175 -0.008213 0.005954
# 4 0.000302 0.000737 -0.009175 0.055458 0.015565 -0.008033
# 5 -0.004994 -0.006295 -0.008213 0.015565 0.031891 -0.010436
# 6 0.013164 0.013107 0.005954 -0.008033 -0.010436 0.051991
#
#
# Mechanical properties :
#
#
# Convention : Reuss Voigt Hill
#
# Bulk Modulus (GPa) = 17.22058 36.42479 26.82269
# Shear Modulus (GPa) = 22.51656 31.27075 26.89365
#
# Velocity S-wave (km/s) = 3.19082 3.76028 3.48719
# Velocity P-wave (km/s) = 4.62187 5.94333 5.32376
#
# Compressibility (1/GPa) = 0.05807004
#
# Stress axis : x y z
#
# Youngs Moduli (GPa) = 41.45968 41.84095 78.76144
#
# Poissons Ratio (x) = -0.06082 0.13803
# Poissons Ratio (y) = -0.06026 0.08067
# Poissons Ratio (z) = 0.07266 0.04285
#
# Static dielectric constant tensor:
#      x y z
#    x 4.183120 -0.280390 0.263370 
#    y -0.280390 3.698840 -0.095050 
#    z 0.263370 -0.095050 4.129770 
# 
# 
# High freq. dielectric constant tensor:
#      x y z
#    x 1.879190 -0.019240 0.010980 
#    y -0.019240 1.841690 -0.003400 
#    z 0.010980 -0.003400 1.877910 
# 
# From -- ./inp_files/590887.got.cif
#   From: 2010.06.25/outbox.cif.g09.slc.cpg/sg2_296_cif.got.tgz:590887.got - 2010.06.27 13:26:56.
