data_PCOD8040706
_publ_section_title
;
Structure prediction by ZEFSAII (Michael W. Deem and Ramdas Pophale) SiO2 
 PCOD8040706
Probable space group: P -1
;
_chemical_formula_sum "Si O2"
_cell_formula_units_Z 16
_cell_length_a 11.563366
_cell_length_b 21.469822
_cell_length_c 13.746869
_cell_angle_alpha 28.219417
_cell_angle_beta 149.610839
_cell_angle_gamma 147.623380
_cell_volume 763.766496
_symmetry_space_group_name_H-M "P -1"
_symmetry_group_IT_number 2
_symmetry_cell_setting 'triclinic'
loop_
_space_group_symop_operation_xyz
x,y,z
-x,-y,-z
loop_
_atom_site_type_symbol
_atom_site_label
_atom_site_fract_x
_atom_site_fract_y
_atom_site_fract_z
Si Si1 0.248779 0.950782 0.441602
Si Si2 0.137133 0.429317 0.088345
Si Si3 0.388457 0.365417 0.801720
Si Si4 0.203263 0.203232 0.305200
Si Si5 0.373608 0.246330 0.161074
Si Si6 0.346881 0.797160 0.895178
Si Si7 0.913153 0.317190 0.416027
Si Si8 0.657434 0.023309 0.179297
O O1 0.287296 0.915604 0.628983
O O2 0.051663 0.814105 0.436255
O O3 0.500000 0.000000 0.500000
O O4 0.180032 0.090630 0.205401
O O5 0.379093 0.491727 0.246340
O O6 0.199948 0.330057 0.194348
O O7 0.894377 0.343985 0.088828
O O8 0.087283 0.560964 0.824321
O O9 0.138784 0.381330 0.564212
O O10 0.363757 0.346534 0.926975
O O11 0.435280 0.237972 0.952558
O O12 0.293892 0.281575 0.160030
O O13 0.377268 0.123978 0.586763
O O14 0.935477 0.088538 0.256435
O O15 0.653700 0.255343 0.367511
O O16 0.415215 0.865539 0.957910
O O17 0.500000 0.000000 0.000000
#
# Coordination Sequence:
#
# PCOD8040706 Si02
#       8
#     2   2   2   2   2   2   2   2
#     4  10  18  38  61  86 124 155 188 253 306 351
#     4  10  23  41  59  85 127 163 206 241 297 362
#     4  11  23  39  62  94 118 161 203 250 308 351
#     4  10  22  41  64  84 123 170 196 244 308 354
#     4  10  21  41  63  88 123 158 202 251 305 360
#     4  11  20  40  65  88 124 157 196 253 304 364
#     4  10  23  38  58  91 124 156 205 250 294 361
#     4  10  23  40  61  94 122 156 206 249 295 363
#
# _framework density 20.948810999999999
#
# number of rings (size 3 to 8) (size 9 to 14) (size 15 to 20)
#    0.000    1.750    5.000    0.375    0.000    7.000 
#    0.000    1.250    0.000    0.000    0.000    0.000 
#    0.000    0.000    0.000    0.000    0.000    0.000 
#
# Total GULP energy -198242.366258 kJ/mol
# GULP energy per Si atom -12390.147891 kJ/mol
# Density = 2.090113 g / cm^3
# Si number density = 20.948811 Si / 1000 Ang^3
#
#
#
# Elastic Constant Matrix: (Units=GPa)
#
#
# Indices 1 2 3 4 5 6 
#
# 1 101.1763 16.1046 16.5521 9.2015 -10.0944 -1.5887
# 2 16.1046 104.8865 42.6315 12.1348 -10.8079 -3.1979
# 3 16.5521 42.6315 50.3342 15.7037 -5.2299 2.5386
# 4 9.2015 12.1348 15.7037 36.6364 -3.7279 -10.5003
# 5 -10.0944 -10.8079 -5.2299 -3.7279 23.9789 -2.9941
# 6 -1.5887 -3.1979 2.5386 -10.5003 -2.9941 22.3905
#
#
#
# Elastic Compliance Matrix: (Units=1/GPa)
#
#
# Indices 1 2 3 4 5 6 
#
# 1 0.010856 0.000143 -0.003152 -0.000612 0.004027 0.001400
# 2 0.000143 0.015531 -0.013892 0.003001 0.005235 0.005911
# 3 -0.003152 -0.013892 0.037753 -0.015174 -0.003470 -0.014068
# 4 -0.000612 0.003001 -0.015174 0.039857 0.006690 0.021692
# 5 0.004027 0.005235 -0.003470 0.006690 0.047403 0.010903
# 6 0.001400 0.005911 -0.014068 0.021692 0.010903 0.058831
#
#
# Mechanical properties :
#
#
# Convention : Reuss Voigt Hill
#
# Bulk Modulus (GPa) = 32.96234 45.21926 39.09080
# Shear Modulus (GPa) = 19.67382 28.67509 24.17446
#
# Velocity S-wave (km/s) = 3.06786 3.70377 3.40071
# Velocity P-wave (km/s) = 5.32146 6.31846 5.84127
#
# Compressibility (1/GPa) = 0.03033765
#
# Stress axis : x y z
#
# Youngs Moduli (GPa) = 92.11450 64.38756 26.48812
#
# Poissons Ratio (x) = -0.00919 0.08349
# Poissons Ratio (y) = -0.01314 0.36796
# Poissons Ratio (z) = 0.29035 0.89445
#
# Static dielectric constant tensor:
#      x y z
#    x 4.190570 -1.712150 0.621890 
#    y -1.712150 13.453010 -3.524050 
#    z 0.621890 -3.524050 4.707750 
# 
# 
# High freq. dielectric constant tensor:
#      x y z
#    x 1.827660 -0.001520 -0.004770 
#    y -0.001520 1.824740 -0.016730 
#    z -0.004770 -0.016730 1.789980 
# 
# From -- ./inp_files/524071.got.cif
#   From: 2010.06.25/outbox.cif.g09.slc.cpg/sg2_263_cif.got.tgz:524071.got - 2010.06.27 13:26:56.
