data_PCOD8040949
_publ_section_title
;
Structure prediction by ZEFSAII (Michael W. Deem and Ramdas Pophale) SiO2 
 PCOD8040949
Probable space group: P -1
;
_chemical_formula_sum "Si O2"
_cell_formula_units_Z 12
_cell_length_a 6.617006
_cell_length_b 16.096730
_cell_length_c 12.319326
_cell_angle_alpha 153.920128
_cell_angle_beta 102.223659
_cell_angle_gamma 76.444798
_cell_volume 560.784892
_symmetry_space_group_name_H-M "P -1"
_symmetry_group_IT_number 2
_symmetry_cell_setting 'triclinic'
loop_
_space_group_symop_operation_xyz
x,y,z
-x,-y,-z
loop_
_atom_site_type_symbol
_atom_site_label
_atom_site_fract_x
_atom_site_fract_y
_atom_site_fract_z
Si Si1 0.590267 0.241043 0.517035
Si Si2 0.846043 0.595604 0.393324
Si Si3 0.266476 0.698571 0.616214
Si Si4 0.570403 0.340313 0.186180
Si Si5 0.120080 0.438501 0.048341
Si Si6 0.393056 0.075460 0.686598
O O1 0.339457 0.266820 0.521918
O O2 0.666131 0.169790 0.321297
O O3 0.678699 0.444179 0.783397
O O4 0.677937 0.097316 0.452292
O O5 0.753253 0.465211 0.319671
O O6 0.015163 0.714148 0.610566
O O7 0.961950 0.470176 0.166139
O O8 0.358285 0.477552 0.344724
O O9 0.356947 0.768814 0.822152
O O10 0.543798 0.185627 0.909289
O O11 0.193259 0.214686 0.791950
O O12 0.000000 0.500000 0.000000
O O13 0.500000 0.000000 0.500000
#
# Coordination Sequence:
#
# PCOD8040949 Si02
#       6
#     2   2   2   2   2   2
#     4  10  23  42  64  93 130 161 210 264 307 374
#     4  10  18  40  65  93 122 166 213 254 314 368
#     4   9  19  40  67  93 122 170 211 252 315 369
#     4  10  20  39  65  94 129 163 210 261 308 370
#     4  11  24  43  64  89 125 174 210 254 314 372
#     4  12  25  42  63  96 130 167 206 261 318 368
#
# _framework density 21.398579000000002
#
# number of rings (size 3 to 8) (size 9 to 14) (size 15 to 20)
#    0.000    1.667    5.000    1.500    2.333    2.667 
#    6.000    0.833    0.000    0.000    0.000    0.000 
#    0.000    0.000    0.000    0.000    0.000    0.000 
#
# Total GULP energy -148764.687149 kJ/mol
# GULP energy per Si atom -12397.057262 kJ/mol
# Density = 2.134987 g / cm^3
# Si number density = 21.398579 Si / 1000 Ang^3
#
#
#
# Elastic Constant Matrix: (Units=GPa)
#
#
# Indices 1 2 3 4 5 6 
#
# 1 121.5987 36.9803 23.2943 2.6699 -17.1483 -10.8395
# 2 36.9803 172.8128 46.1679 -3.0503 -11.2605 -1.3679
# 3 23.2943 46.1679 75.1582 -6.6522 -6.8844 -2.9575
# 4 2.6699 -3.0503 -6.6522 44.0431 -4.2876 4.9008
# 5 -17.1483 -11.2605 -6.8844 -4.2876 16.3005 0.6688
# 6 -10.8395 -1.3679 -2.9575 4.9008 0.6688 37.7566
#
#
#
# Elastic Compliance Matrix: (Units=1/GPa)
#
#
# Indices 1 2 3 4 5 6 
#
# 1 0.010450 -0.001193 -0.001578 -0.000351 0.009299 0.002714
# 2 -0.001193 0.007216 -0.003858 0.000253 0.002185 -0.000455
# 3 -0.001578 -0.003858 0.016725 0.002653 0.003423 0.000312
# 4 -0.000351 0.000253 0.002653 0.024219 0.007426 -0.003159
# 5 0.009299 0.002185 0.003423 0.007426 0.076010 0.000707
# 6 0.002714 -0.000455 0.000312 -0.003159 0.000707 0.027670
#
#
# Mechanical properties :
#
#
# Convention : Reuss Voigt Hill
#
# Bulk Modulus (GPa) = 47.32273 64.71717 56.01995
# Shear Modulus (GPa) = 27.38324 37.16184 32.27254
#
# Velocity S-wave (km/s) = 3.58114 4.17183 3.88772
# Velocity P-wave (km/s) = 6.26596 7.31539 6.81092
#
# Compressibility (1/GPa) = 0.02113149
#
# Stress axis : x y z
#
# Youngs Moduli (GPa) = 95.69313 138.58233 59.79058
#
# Poissons Ratio (x) = 0.16538 0.09437
# Poissons Ratio (y) = 0.11420 0.23068
# Poissons Ratio (z) = 0.15104 0.53466
#
# Static dielectric constant tensor:
#      x y z
#    x 3.835950 -0.123650 -0.044500 
#    y -0.123650 4.333600 -0.210670 
#    z -0.044500 -0.210670 3.642190 
# 
# 
# High freq. dielectric constant tensor:
#      x y z
#    x 1.836030 -0.006250 -0.007090 
#    y -0.006250 1.865790 -0.013770 
#    z -0.007090 -0.013770 1.805150 
# 
# From -- ./inp_files/27425.got.cif
#   From: 2010.06.25/outbox.cif.g09.slc.cpg/sg2_14_cif.got.tgz:27425.got - 2010.06.27 13:26:56.
