data_PCOD8040902
_publ_section_title
;
Structure prediction by ZEFSAII (Michael W. Deem and Ramdas Pophale) SiO2 
 PCOD8040902
Probable space group: P -1
;
_chemical_formula_sum "Si O2"
_cell_formula_units_Z 16
_cell_length_a 12.460704
_cell_length_b 9.003088
_cell_length_c 8.536942
_cell_angle_alpha 112.479602
_cell_angle_beta 87.233267
_cell_angle_gamma 121.862872
_cell_volume 737.064304
_symmetry_space_group_name_H-M "P -1"
_symmetry_group_IT_number 2
_symmetry_cell_setting 'triclinic'
loop_
_space_group_symop_operation_xyz
x,y,z
-x,-y,-z
loop_
_atom_site_type_symbol
_atom_site_label
_atom_site_fract_x
_atom_site_fract_y
_atom_site_fract_z
Si Si1 0.327312 0.226176 0.533808
Si Si2 0.486027 0.410317 0.133010
Si Si3 0.143853 0.954008 0.703548
Si Si4 0.467335 0.035908 0.345614
Si Si5 0.325557 0.671226 0.010759
Si Si6 0.214845 0.286127 0.058841
Si Si7 0.858813 0.690150 0.595070
Si Si8 0.254464 0.717214 0.712126
O O1 0.432748 0.434137 0.677317
O O2 0.225240 0.236402 0.440993
O O3 0.254566 0.076138 0.618436
O O4 0.407098 0.164242 0.400800
O O5 0.539439 0.273538 0.057777
O O6 0.335635 0.295526 0.138039
O O7 0.500000 0.500000 0.000000
O O8 0.174999 0.812546 0.727705
O O9 0.005083 0.826635 0.577506
O O10 0.136389 0.091665 0.885699
O O11 0.500000 0.000000 0.500000
O O12 0.594938 0.136129 0.273819
O O13 0.356273 0.830894 0.200546
O O14 0.234491 0.661419 0.874889
O O15 0.254760 0.462842 0.011844
O O16 0.132118 0.289343 0.208431
O O17 0.801422 0.470441 0.466829
#
# Coordination Sequence:
#
# PCOD8040902 Si02
#       8
#     2   2   2   2   2   2   2   2
#     4  12  24  43  70  99 134 175 221 273 336 395
#     4  10  18  39  68  93 127 168 209 268 340 383
#     4  12  25  47  68  94 136 184 222 268 328 394
#     4  12  24  41  68 107 137 165 215 288 339 388
#     4  11  23  42  66  99 137 171 210 273 348 398
#     4  11  24  43  70  98 133 172 225 277 331 390
#     4  12  27  45  67  98 134 181 229 269 315 403
#     4  12  25  44  68  99 137 172 224 271 339 394
#
# _framework density 21.707740000000001
#
# number of rings (size 3 to 8) (size 9 to 14) (size 15 to 20)
#    0.000    0.500    5.000    5.250    3.500    1.000 
#    0.000    0.625    0.000    0.000    0.000    0.000 
#    0.000    0.000    0.000    0.000    0.000    0.000 
#
# Total GULP energy -198452.958655 kJ/mol
# GULP energy per Si atom -12403.309916 kJ/mol
# Density = 2.165833 g / cm^3
# Si number density = 21.707740 Si / 1000 Ang^3
#
#
#
# Elastic Constant Matrix: (Units=GPa)
#
#
# Indices 1 2 3 4 5 6 
#
# 1 86.2703 30.8115 38.3274 14.0417 14.6562 -12.4141
# 2 30.8115 67.2882 33.0070 11.0212 9.5803 -17.4227
# 3 38.3274 33.0070 112.7993 17.5196 -7.1277 -23.3944
# 4 14.0417 11.0212 17.5196 30.3288 -4.3921 1.6375
# 5 14.6562 9.5803 -7.1277 -4.3921 28.8685 -1.0059
# 6 -12.4141 -17.4227 -23.3944 1.6375 -1.0059 32.2745
#
#
#
# Elastic Compliance Matrix: (Units=1/GPa)
#
#
# Indices 1 2 3 4 5 6 
#
# 1 0.017534 -0.002991 -0.004356 -0.006046 -0.009836 0.001972
# 2 -0.002991 0.022058 -0.003132 -0.006333 -0.007240 0.008582
# 3 -0.004356 -0.003132 0.013780 -0.004281 0.006247 0.007034
# 4 -0.006046 -0.006333 -0.004281 0.042603 0.010224 -0.010690
# 5 -0.009836 -0.007240 0.006247 0.010224 0.045054 -0.002278
# 6 0.001972 0.008582 0.007034 -0.010690 -0.002278 0.041946
#
#
# Mechanical properties :
#
#
# Convention : Reuss Voigt Hill
#
# Bulk Modulus (GPa) = 30.85058 52.29440 41.57249
# Shear Modulus (GPa) = 23.28425 29.24181 26.26303
#
# Velocity S-wave (km/s) = 3.27865 3.67422 3.48206
# Velocity P-wave (km/s) = 5.34559 6.49172 5.94633
#
# Compressibility (1/GPa) = 0.03241430
#
# Stress axis : x y z
#
# Youngs Moduli (GPa) = 57.03326 45.33587 72.56680
#
# Poissons Ratio (x) = 0.13558 0.31610
# Poissons Ratio (y) = 0.17057 0.22728
# Poissons Ratio (z) = 0.24844 0.14199
#
# Static dielectric constant tensor:
#      x y z
#    x 4.390400 0.056720 -0.078780 
#    y 0.056720 4.076260 -0.076010 
#    z -0.078780 -0.076010 4.008090 
# 
# 
# High freq. dielectric constant tensor:
#      x y z
#    x 1.850400 -0.011810 0.002040 
#    y -0.011810 1.852320 0.002240 
#    z 0.002040 0.002240 1.865060 
# 
# From -- ./inp_files/184820.got.cif
#   From: 2010.06.25/outbox.cif.g09.slc.cpg/sg2_93_cif.got.tgz:184820.got - 2010.06.27 13:26:56.
