data_PCOD8040022
_publ_section_title
;
Structure prediction by ZEFSAII (Michael W. Deem and Ramdas Pophale) SiO2 
 PCOD8040022
Probable space group: P -1
;
_chemical_formula_sum "Si O2"
_cell_formula_units_Z 16
_cell_length_a 22.197910
_cell_length_b 18.232066
_cell_length_c 9.309748
_cell_angle_alpha 148.727261
_cell_angle_beta 149.232155
_cell_angle_gamma 26.293618
_cell_volume 792.435481
_symmetry_space_group_name_H-M "P -1"
_symmetry_group_IT_number 2
_symmetry_cell_setting 'triclinic'
loop_
_space_group_symop_operation_xyz
x,y,z
-x,-y,-z
loop_
_atom_site_type_symbol
_atom_site_label
_atom_site_fract_x
_atom_site_fract_y
_atom_site_fract_z
Si Si1 0.531011 0.645083 0.788398
Si Si2 0.860989 0.017174 0.807291
Si Si3 0.047543 0.407826 0.097637
Si Si4 0.797705 0.422910 0.752082
Si Si5 0.671105 0.398000 0.166583
Si Si6 0.259147 0.485295 0.760469
Si Si7 0.783806 0.988613 0.307670
Si Si8 0.918812 0.180182 0.854727
O O1 0.500000 0.500000 0.500000
O O2 0.650628 0.583522 0.802871
O O3 0.385470 0.844066 0.791557
O O4 0.594830 0.665605 0.102038
O O5 0.805027 0.949060 0.457244
O O6 0.726104 0.217753 0.900537
O O7 0.000000 0.000000 0.000000
O O8 0.919137 0.901718 0.880979
O O9 0.130842 0.461891 0.456905
O O10 0.000000 0.500000 0.000000
O O11 0.896110 0.480562 0.993082
O O12 0.163879 0.193040 0.964561
O O13 0.749864 0.359706 0.416114
O O14 0.905068 0.252866 0.789826
O O15 0.701016 0.511663 0.317783
O O16 0.500000 0.500000 0.000000
O O17 0.204696 0.665253 0.032894
O O18 0.893065 0.031011 0.544899
#
# Coordination Sequence:
#
# PCOD8040022 Si02
#       8
#     2   2   2   2   2   2   2   2
#     4  11  21  43  69  97 127 168 214 276 329 377
#     4  10  18  35  61  90 123 163 208 258 320 381
#     4  12  26  43  63  94 138 179 212 262 325 392
#     4  11  23  40  66  98 132 164 219 275 324 376
#     4  12  22  35  64  96 125 162 217 271 321 369
#     4  11  22  42  65  89 134 174 210 256 332 389
#     4  11  21  40  69  93 131 172 211 268 331 380
#     4  10  21  38  68  96 120 165 225 270 318 372
#
# _framework density 20.190916999999999
#
# number of rings (size 3 to 8) (size 9 to 14) (size 15 to 20)
#    0.000    1.000    6.250    3.750    0.000    4.500 
#    0.000    0.625    2.750    0.000    0.000    0.000 
#    0.000    0.000    0.000    0.000    0.000    0.000 
#
# Total GULP energy -198339.934614 kJ/mol
# GULP energy per Si atom -12396.245913 kJ/mol
# Density = 2.014496 g / cm^3
# Si number density = 20.190917 Si / 1000 Ang^3
#
#
#
# Elastic Constant Matrix: (Units=GPa)
#
#
# Indices 1 2 3 4 5 6 
#
# 1 121.7586 41.6713 35.6710 -12.1776 0.2293 5.7374
# 2 41.6713 108.5322 26.6575 -14.2883 2.2495 -2.9914
# 3 35.6710 26.6575 86.4574 -18.7141 -1.6110 5.7192
# 4 -12.1776 -14.2883 -18.7141 38.5548 3.4716 -9.4518
# 5 0.2293 2.2495 -1.6110 3.4716 32.4772 -9.2576
# 6 5.7374 -2.9914 5.7192 -9.4518 -9.2576 38.2966
#
#
#
# Elastic Compliance Matrix: (Units=1/GPa)
#
#
# Indices 1 2 3 4 5 6 
#
# 1 0.010312 -0.003184 -0.003134 0.000259 -0.000424 -0.001364
# 2 -0.003184 0.011313 -0.001691 0.002957 -0.000530 0.002215
# 3 -0.003134 -0.001691 0.014568 0.005321 0.000154 -0.000488
# 4 0.000259 0.002957 0.005321 0.031498 -0.001359 0.006843
# 5 -0.000424 -0.000530 0.000154 -0.001359 0.033173 0.007683
# 6 -0.001364 0.002215 -0.000488 0.006843 0.007683 0.030108
#
#
# Mechanical properties :
#
#
# Convention : Reuss Voigt Hill
#
# Bulk Modulus (GPa) = 49.56800 58.30531 53.93666
# Shear Modulus (GPa) = 32.52770 36.04895 34.28833
#
# Velocity S-wave (km/s) = 4.01809 4.22999 4.12540
# Velocity P-wave (km/s) = 6.79188 7.26614 7.03301
#
# Compressibility (1/GPa) = 0.02017431
#
# Stress axis : x y z
#
# Youngs Moduli (GPa) = 96.97447 88.39396 68.64466
#
# Poissons Ratio (x) = 0.28146 0.21515
# Poissons Ratio (y) = 0.30878 0.11606
# Poissons Ratio (z) = 0.30395 0.14946
#
# Static dielectric constant tensor:
#      x y z
#    x 3.797850 0.342290 -0.307270 
#    y 0.342290 3.950790 -0.513500 
#    z -0.307270 -0.513500 3.793630 
# 
# 
# High freq. dielectric constant tensor:
#      x y z
#    x 1.782150 0.006960 -0.022090 
#    y 0.006960 1.797390 -0.022580 
#    z -0.022090 -0.022580 1.774010 
# 
# From -- ./inp_files/348997.got.cif
#   From: 2010.06.25/outbox.cif.g09.slc.cpg/sg2_175_cif.got.tgz:348997.got - 2010.06.27 13:26:56.
