data_PCOD8040495
_publ_section_title
;
Structure prediction by ZEFSAII (Michael W. Deem and Ramdas Pophale) SiO2 
 PCOD8040495
Probable space group: P -1
;
_chemical_formula_sum "Si O2"
_cell_formula_units_Z 16
_cell_length_a 10.504255
_cell_length_b 5.407855
_cell_length_c 16.612269
_cell_angle_alpha 77.831559
_cell_angle_beta 59.953032
_cell_angle_gamma 62.871286
_cell_volume 726.798522
_symmetry_space_group_name_H-M "P -1"
_symmetry_group_IT_number 2
_symmetry_cell_setting 'triclinic'
loop_
_space_group_symop_operation_xyz
x,y,z
-x,-y,-z
loop_
_atom_site_type_symbol
_atom_site_label
_atom_site_fract_x
_atom_site_fract_y
_atom_site_fract_z
Si Si1 0.200444 0.567832 0.238005
Si Si2 0.121167 0.563621 0.820073
Si Si3 0.578090 0.672992 0.513556
Si Si4 0.642928 0.039914 0.820139
Si Si5 0.859905 0.671373 0.334825
Si Si6 0.195134 0.935577 0.080269
Si Si7 0.675600 0.951848 0.123748
Si Si8 0.618364 0.226204 0.286320
O O1 0.284591 0.235246 0.239890
O O2 0.018258 0.684999 0.324249
O O3 0.298288 0.720792 0.244417
O O4 0.189508 0.658751 0.139856
O O5 0.067724 0.547153 0.746532
O O6 0.156040 0.291847 0.882435
O O7 0.298428 0.562016 0.760184
O O8 0.987622 0.830833 0.886454
O O9 0.500000 0.500000 0.500000
O O10 0.767396 0.561568 0.437291
O O11 0.550010 0.631335 0.620150
O O12 0.500000 0.000000 0.500000
O O13 0.700900 0.958691 0.899714
O O14 0.448779 0.162768 0.867265
O O15 0.739243 0.962034 0.316458
O O16 0.278021 0.873651 0.970665
O O17 0.583745 0.150833 0.213191
#
# Coordination Sequence:
#
# PCOD8040495 Si02
#       8
#     2   2   2   2   2   2   2   2
#     4  10  21  38  66  85 116 157 216 252 288 354
#     4  11  20  37  59  89 127 156 200 248 314 359
#     4  10  20  34  61  90 121 154 195 245 305 364
#     4  10  23  41  61  86 118 165 216 244 294 353
#     4  10  18  37  59  89 120 150 202 254 302 352
#     4  10  22  39  61  87 121 163 217 242 300 354
#     4  11  25  37  57  89 129 167 194 260 300 362
#     4  10  21  35  56  89 124 158 191 249 312 363
#
# _framework density 22.014353
#
# number of rings (size 3 to 8) (size 9 to 14) (size 15 to 20)
#    0.750    1.000    3.750    0.750    1.750    2.000 
#    0.000    0.000    0.000    1.500    0.000    0.000 
#    0.000    0.000    0.000    0.000    0.000    0.000 
#
# Total GULP energy -198246.124261 kJ/mol
# GULP energy per Si atom -12390.382766 kJ/mol
# Density = 2.196425 g / cm^3
# Si number density = 22.014353 Si / 1000 Ang^3
#
#
#
# Elastic Constant Matrix: (Units=GPa)
#
#
# Indices 1 2 3 4 5 6 
#
# 1 50.4429 10.5608 31.1663 2.5245 -16.7414 9.0776
# 2 10.5608 75.1165 11.2541 6.1832 2.4872 19.9752
# 3 31.1663 11.2541 124.5290 13.8723 -12.8453 9.5293
# 4 2.5245 6.1832 13.8723 17.7053 3.2864 -5.5634
# 5 -16.7414 2.4872 -12.8453 3.2864 24.7570 -0.1693
# 6 9.0776 19.9752 9.5293 -5.5634 -0.1693 30.7171
#
#
#
# Elastic Compliance Matrix: (Units=1/GPa)
#
#
# Indices 1 2 3 4 5 6 
#
# 1 0.031157 -0.001773 -0.004249 -0.006644 0.019872 -0.007831
# 2 -0.001773 0.017889 0.000913 -0.010678 -0.001196 -0.013333
# 3 -0.004249 0.000913 0.010956 -0.010506 0.004083 -0.004618
# 4 -0.006644 -0.010678 -0.010506 0.081431 -0.019497 0.026807
# 5 0.019872 -0.001196 0.004083 -0.019497 0.058592 -0.009570
# 6 -0.007831 -0.013333 -0.004618 0.026807 -0.009570 0.049775
#
#
# Mechanical properties :
#
#
# Convention : Reuss Voigt Hill
#
# Bulk Modulus (GPa) = 20.08563 39.56119 29.82341
# Shear Modulus (GPa) = 18.07593 27.77636 22.92614
#
# Velocity S-wave (km/s) = 2.86859 3.55595 3.23060
# Velocity P-wave (km/s) = 4.48502 5.90503 5.24332
#
# Compressibility (1/GPa) = 0.04978683
#
# Stress axis : x y z
#
# Youngs Moduli (GPa) = 32.09513 55.89964 91.27532
#
# Poissons Ratio (x) = 0.09909 0.38779
# Poissons Ratio (y) = 0.05689 -0.08337
# Poissons Ratio (z) = 0.13636 -0.05106
#
# Static dielectric constant tensor:
#      x y z
#    x 3.820990 0.144460 -0.196490 
#    y 0.144460 3.662730 -0.027820 
#    z -0.196490 -0.027820 4.179350 
# 
# 
# High freq. dielectric constant tensor:
#      x y z
#    x 1.854430 0.010900 -0.022810 
#    y 0.010900 1.851430 0.000260 
#    z -0.022810 0.000260 1.849410 
# 
# From -- ./inp_files/110524.got.cif
#   From: 2010.06.25/outbox.cif.g09.slc.cpg/sg2_56_cif.got.tgz:110524.got - 2010.06.27 13:26:56.
