data_PCOD8040533
_publ_section_title
;
Structure prediction by ZEFSAII (Michael W. Deem and Ramdas Pophale) SiO2 
 PCOD8040533
Probable space group: P -1
;
_chemical_formula_sum "Si O2"
_cell_formula_units_Z 14
_cell_length_a 11.090849
_cell_length_b 12.016357
_cell_length_c 14.312057
_cell_angle_alpha 139.934078
_cell_angle_beta 28.985748
_cell_angle_gamma 134.589868
_cell_volume 591.691710
_symmetry_space_group_name_H-M "P -1"
_symmetry_group_IT_number 2
_symmetry_cell_setting 'triclinic'
loop_
_space_group_symop_operation_xyz
x,y,z
-x,-y,-z
loop_
_atom_site_type_symbol
_atom_site_label
_atom_site_fract_x
_atom_site_fract_y
_atom_site_fract_z
Si Si1 0.504745 0.085584 0.272729
Si Si2 0.788721 0.224176 0.339350
Si Si3 0.334119 0.254429 0.026336
Si Si4 0.343451 0.669624 0.836776
Si Si5 0.074996 0.309613 0.720163
Si Si6 0.656678 0.358316 0.702708
Si Si7 0.887763 0.606436 0.455795
O O1 0.632314 0.089691 0.291409
O O2 0.667234 0.203766 0.163367
O O3 0.225064 0.139511 0.506697
O O4 0.499875 0.879887 0.119055
O O5 0.622234 0.251394 0.561582
O O6 0.843157 0.400565 0.357861
O O7 0.051945 0.159957 0.150171
O O8 0.425657 0.300411 0.888550
O O9 0.339020 0.436818 0.196059
O O10 0.264607 0.470881 0.732532
O O11 0.626225 0.689437 0.696920
O O12 0.162487 0.730570 0.078146
O O13 0.984460 0.348723 0.702646
O O14 0.918707 0.320601 0.548887
#
# Coordination Sequence:
#
# PCOD8040533 Si02
#       7
#     2   2   2   2   2   2   2
#     4  11  21  39  62  94 125 147 199 263 295 344
#     4  11  21  38  63  90 120 160 199 247 298 356
#     4  10  23  40  59  88 125 161 201 243 297 355
#     4  10  20  36  61  92 118 158 199 247 308 348
#     4  10  20  36  61  92 120 155 198 250 303 356
#     4  10  24  41  61  88 121 168 202 233 298 371
#     4  10  18  37  61  87 119 155 204 247 283 362
#
# _framework density 23.660971
#
# number of rings (size 3 to 8) (size 9 to 14) (size 15 to 20)
#    0.000    1.714    2.857    3.000    0.000    7.429 
#    0.000    2.857    0.000   15.429    0.000    0.000 
#    0.000    0.000    0.000    0.000    0.000    0.000 
#
# Total GULP energy -173622.614910 kJ/mol
# GULP energy per Si atom -12401.615351 kJ/mol
# Density = 2.360712 g / cm^3
# Si number density = 23.660971 Si / 1000 Ang^3
#
#
#
# Elastic Constant Matrix: (Units=GPa)
#
#
# Indices 1 2 3 4 5 6 
#
# 1 63.7563 18.0206 39.3658 6.6101 12.4726 -14.8002
# 2 18.0206 36.7447 37.5464 -0.5048 2.8055 -10.4682
# 3 39.3658 37.5464 137.2001 -10.6036 0.5945 -21.7659
# 4 6.6101 -0.5048 -10.6036 38.3247 -15.4512 -5.6919
# 5 12.4726 2.8055 0.5945 -15.4512 23.7994 -1.5396
# 6 -14.8002 -10.4682 -21.7659 -5.6919 -1.5396 26.1146
#
#
#
# Elastic Compliance Matrix: (Units=1/GPa)
#
#
# Indices 1 2 3 4 5 6 
#
# 1 0.029246 -0.003343 -0.008206 -0.017275 -0.025742 0.003112
# 2 -0.003343 0.040253 -0.009279 -0.002108 -0.003753 0.005827
# 3 -0.008206 -0.009279 0.014042 0.011319 0.012816 0.006556
# 4 -0.017275 -0.002108 0.011319 0.051482 0.043256 0.012570
# 5 -0.025742 -0.003753 0.012816 0.043256 0.084295 0.008986
# 6 0.003112 0.005827 0.006556 0.012570 0.008986 0.051126
#
#
# Mechanical properties :
#
#
# Convention : Reuss Voigt Hill
#
# Bulk Modulus (GPa) = 23.87519 47.50741 35.69130
# Shear Modulus (GPa) = 15.33456 27.16563 21.25009
#
# Velocity S-wave (km/s) = 2.54853 3.39207 3.00010
# Velocity P-wave (km/s) = 4.33272 5.95512 5.20749
#
# Compressibility (1/GPa) = 0.04188448
#
# Stress axis : x y z
#
# Youngs Moduli (GPa) = 34.19294 24.84282 71.21622
#
# Poissons Ratio (x) = 0.08305 0.58442
# Poissons Ratio (y) = 0.11431 0.66080
# Poissons Ratio (z) = 0.28060 0.23051
#
# Static dielectric constant tensor:
#      x y z
#    x 4.144230 -0.186960 -0.099880 
#    y -0.186960 3.992640 -0.076620 
#    z -0.099880 -0.076620 4.338320 
# 
# 
# High freq. dielectric constant tensor:
#      x y z
#    x 1.928100 -0.015410 -0.002930 
#    y -0.015410 1.919160 -0.007630 
#    z -0.002930 -0.007630 1.946360 
# 
# From -- ./inp_files/519204.got.cif
#   From: 2010.06.25/outbox.cif.g09.slc.cpg/sg2_260_cif.got.tgz:519204.got - 2010.06.27 13:26:56.
