data_PCOD8040319
_publ_section_title
;
Structure prediction by ZEFSAII (Michael W. Deem and Ramdas Pophale) SiO2 
 PCOD8040319
Probable space group: P -1
;
_chemical_formula_sum "Si O2"
_cell_formula_units_Z 16
_cell_length_a 11.000099
_cell_length_b 10.702344
_cell_length_c 14.786318
_cell_angle_alpha 129.056361
_cell_angle_beta 30.914176
_cell_angle_gamma 138.326742
_cell_volume 594.318984
_symmetry_space_group_name_H-M "P -1"
_symmetry_group_IT_number 2
_symmetry_cell_setting 'triclinic'
loop_
_space_group_symop_operation_xyz
x,y,z
-x,-y,-z
loop_
_atom_site_type_symbol
_atom_site_label
_atom_site_fract_x
_atom_site_fract_y
_atom_site_fract_z
Si Si1 0.359313 0.188878 0.554967
Si Si2 0.865567 0.241893 0.930806
Si Si3 0.481302 0.819474 0.039339
Si Si4 0.840358 0.634442 0.031250
Si Si5 0.768598 0.613305 0.711055
Si Si6 0.243833 0.050253 0.758942
Si Si7 0.722896 0.158306 0.629113
Si Si8 0.956673 0.371506 0.282537
O O1 0.316093 0.058810 0.610675
O O2 0.671757 0.369677 0.446866
O O3 0.129702 0.245198 0.718803
O O4 0.338334 0.056185 0.423905
O O5 0.726653 0.301923 0.967985
O O6 0.980542 0.383055 0.009140
O O7 0.625942 0.038618 0.025720
O O8 0.301678 0.769928 0.223438
O O9 0.715944 0.764066 0.866997
O O10 0.517945 0.549972 0.223460
O O11 0.953114 0.861098 0.058869
O O12 0.848851 0.534038 0.886923
O O13 0.964580 0.706587 0.542956
O O14 0.896840 0.536916 0.672376
O O15 0.519098 0.177024 0.699547
O O16 0.096570 0.837271 0.786549
#
# Coordination Sequence:
#
# PCOD8040319 Si02
#       8
#     2   2   2   2   2   2   2   2
#     4  10  18  36  65  90 126 149 199 261 297 356
#     4  10  22  45  61  94 117 155 218 257 292 351
#     4  11  24  42  69  85 120 162 211 258 291 360
#     4  11  24  37  61  91 126 166 196 250 311 358
#     4  12  23  42  59  94 131 156 203 247 302 378
#     4  10  18  36  61  89 123 155 197 253 297 365
#     4  11  20  38  64  93 120 165 194 248 318 345
#     4  11  19  37  63  92 123 160 199 248 309 361
#
# _framework density 26.921569999999999
#
# number of rings (size 3 to 8) (size 9 to 14) (size 15 to 20)
#    0.000    1.250    3.750    4.500    0.000    1.500 
#    6.750    0.625    0.000    0.000    0.000    0.000 
#    0.000    0.000    0.000    0.000    0.000    0.000 
#
# Total GULP energy -198392.483295 kJ/mol
# GULP energy per Si atom -12399.530206 kJ/mol
# Density = 2.686030 g / cm^3
# Si number density = 26.921570 Si / 1000 Ang^3
#
#
#
# Elastic Constant Matrix: (Units=GPa)
#
#
# Indices 1 2 3 4 5 6 
#
# 1 111.7933 29.2177 40.5887 -16.2652 -7.0402 27.8630
# 2 29.2177 44.8249 8.8262 3.7406 10.6570 34.4852
# 3 40.5887 8.8262 145.8949 -11.2162 10.4766 9.7899
# 4 -16.2652 3.7406 -11.2162 39.6062 12.7936 -0.1649
# 5 -7.0402 10.6570 10.4766 12.7936 38.5043 2.5605
# 6 27.8630 34.4852 9.7899 -0.1649 2.5605 44.2049
#
#
#
# Elastic Compliance Matrix: (Units=1/GPa)
#
#
# Indices 1 2 3 4 5 6 
#
# 1 0.013537 -0.008453 -0.003165 0.004022 0.004438 -0.001479
# 2 -0.008453 0.068026 0.002277 -0.004126 -0.016476 -0.047306
# 3 -0.003165 0.002277 0.008136 0.002084 -0.004026 -0.001342
# 4 0.004022 -0.004126 0.002084 0.030783 -0.008975 0.000857
# 5 0.004438 -0.016476 -0.004026 -0.008975 0.034828 0.008897
# 6 -0.001479 -0.047306 -0.001342 0.000857 0.008897 0.060243
#
#
# Mechanical properties :
#
#
# Convention : Reuss Voigt Hill
#
# Bulk Modulus (GPa) = 14.08131 51.08647 32.58389
# Shear Modulus (GPa) = 19.38677 39.38845 29.38761
#
# Velocity S-wave (km/s) = 2.68642 3.82917 3.30752
# Velocity P-wave (km/s) = 3.85542 6.21026 5.16873
#
# Compressibility (1/GPa) = 0.07101612
#
# Stress axis : x y z
#
# Youngs Moduli (GPa) = 73.87384 14.70032 122.90469
#
# Poissons Ratio (x) = 0.12426 0.38897
# Poissons Ratio (y) = 0.62446 -0.27980
# Poissons Ratio (z) = 0.23380 -0.03347
#
# Static dielectric constant tensor:
#      x y z
#    x 4.844790 0.265990 -0.025680 
#    y 0.265990 4.955650 0.029550 
#    z -0.025680 0.029550 4.813170 
# 
# 
# High freq. dielectric constant tensor:
#      x y z
#    x 2.064460 0.014760 -0.002780 
#    y 0.014760 2.116290 0.005930 
#    z -0.002780 0.005930 2.078290 
# 
# From -- ./inp_files/224378.got.cif
#   From: 2010.06.25/outbox.cif.g09.slc.cpg/sg2_113_cif.got.tgz:224378.got - 2010.06.27 13:26:56.
