data_PCOD8040754
_publ_section_title
;
Structure prediction by ZEFSAII (Michael W. Deem and Ramdas Pophale) SiO2 
 PCOD8040754
Probable space group: P -1
;
_chemical_formula_sum "Si O2"
_cell_formula_units_Z 16
_cell_length_a 8.584714
_cell_length_b 16.498541
_cell_length_c 20.680532
_cell_angle_alpha 147.421521
_cell_angle_beta 147.854001
_cell_angle_gamma 34.843295
_cell_volume 778.171657
_symmetry_space_group_name_H-M "P -1"
_symmetry_group_IT_number 2
_symmetry_cell_setting 'triclinic'
loop_
_space_group_symop_operation_xyz
x,y,z
-x,-y,-z
loop_
_atom_site_type_symbol
_atom_site_label
_atom_site_fract_x
_atom_site_fract_y
_atom_site_fract_z
Si Si1 0.846472 0.440345 0.001721
Si Si2 0.564165 0.329884 0.153536
Si Si3 0.271842 0.863624 0.793039
Si Si4 0.950625 0.814373 0.998024
Si Si5 0.510938 0.346938 0.706490
Si Si6 0.985499 0.948051 0.386790
Si Si7 0.469587 0.803486 0.082811
Si Si8 0.838071 0.858457 0.521847
O O1 0.758230 0.355110 0.852184
O O2 0.817654 0.353993 0.000868
O O3 0.644309 0.629646 0.060338
O O4 0.202691 0.422547 0.106564
O O5 0.758139 0.228721 0.214042
O O6 0.676579 0.476789 0.273126
O O7 0.595750 0.206432 0.022581
O O8 0.034964 0.838022 0.642306
O O9 0.160480 0.055388 0.895481
O O10 0.630838 0.797530 0.846953
O O11 0.128889 0.874121 0.045529
O O12 0.237005 0.304943 0.618966
O O13 0.707547 0.210526 0.631342
O O14 0.662734 0.918758 0.240973
O O15 0.000000 0.000000 0.500000
O O16 0.969037 0.106162 0.445835
O O17 0.500000 0.000000 0.500000
#
# Coordination Sequence:
#
# PCOD8040754 Si02
#       8
#     2   2   2   2   2   2   2   2
#     4  10  18  38  64  91 121 159 205 251 302 351
#     4  10  20  39  64  92 121 161 199 256 303 351
#     4  10  23  41  59  87 126 163 206 243 307 370
#     4  10  22  35  59  91 124 162 196 255 304 356
#     4  10  19  38  63  87 121 161 207 238 297 366
#     4  11  23  36  58  95 126 154 200 256 298 352
#     4  11  21  36  62  96 125 154 205 258 304 347
#     4  10  23  40  61  83 114 165 203 242 299 367
#
# _framework density 20.561015000000001
#
# number of rings (size 3 to 8) (size 9 to 14) (size 15 to 20)
#    0.000    1.750    2.500    2.625    8.750    1.000 
#    0.000    0.000    0.000    3.750    0.000    0.000 
#    0.000    0.000    0.000    0.000    0.000    0.000 
#
# Total GULP energy -198345.805886 kJ/mol
# GULP energy per Si atom -12396.612868 kJ/mol
# Density = 2.051422 g / cm^3
# Si number density = 20.561015 Si / 1000 Ang^3
#
#
#
# Elastic Constant Matrix: (Units=GPa)
#
#
# Indices 1 2 3 4 5 6 
#
# 1 132.3262 32.6625 55.5157 -4.5309 14.4362 18.9115
# 2 32.6625 65.0894 40.9777 -14.3929 4.2315 20.0722
# 3 55.5157 40.9777 100.6335 6.4541 7.2745 26.1498
# 4 -4.5309 -14.3929 6.4541 25.1927 9.1063 -5.5306
# 5 14.4362 4.2315 7.2745 9.1063 35.1940 5.7433
# 6 18.9115 20.0722 26.1498 -5.5306 5.7433 33.9506
#
#
#
# Elastic Compliance Matrix: (Units=1/GPa)
#
#
# Indices 1 2 3 4 5 6 
#
# 1 0.010703 -0.000479 -0.005775 0.004798 -0.004429 0.000300
# 2 -0.000479 0.028850 -0.011439 0.020552 -0.005625 -0.003680
# 3 -0.005775 -0.011439 0.021075 -0.017129 0.005446 -0.009964
# 4 0.004798 0.020552 -0.017129 0.066788 -0.020248 0.012675
# 5 -0.004429 -0.005625 0.005446 -0.020248 0.036300 -0.007841
# 6 0.000300 -0.003680 -0.009964 0.012675 -0.007841 0.042529
#
#
# Mechanical properties :
#
#
# Convention : Reuss Voigt Hill
#
# Bulk Modulus (GPa) = 39.61518 61.81786 50.71652
# Shear Modulus (GPa) = 19.99644 30.12702 25.06173
#
# Velocity S-wave (km/s) = 3.12194 3.83201 3.49506
# Velocity P-wave (km/s) = 5.68369 7.05053 6.40368
#
# Compressibility (1/GPa) = 0.02524285
#
# Stress axis : x y z
#
# Youngs Moduli (GPa) = 93.43542 34.66158 47.45013
#
# Poissons Ratio (x) = 0.01660 0.27401
# Poissons Ratio (y) = 0.04474 0.54278
# Poissons Ratio (z) = 0.53956 0.39649
#
# Static dielectric constant tensor:
#      x y z
#    x 4.053760 0.346730 0.440920 
#    y 0.346730 3.671900 0.096900 
#    z 0.440920 0.096900 3.786410 
# 
# 
# High freq. dielectric constant tensor:
#      x y z
#    x 1.811470 0.019360 0.017610 
#    y 0.019360 1.791300 -0.000370 
#    z 0.017610 -0.000370 1.792120 
# 
# From -- ./inp_files/277080.got.cif
#   From: 2010.06.25/outbox.cif.g09.slc.cpg/sg2_139_cif.got.tgz:277080.got - 2010.06.27 13:26:56.
