data_PCOD8040278
_publ_section_title
;
Structure prediction by ZEFSAII (Michael W. Deem and Ramdas Pophale) SiO2 
 PCOD8040278
Probable space group: P -1
;
_chemical_formula_sum "Si O2"
_cell_formula_units_Z 14
_cell_length_a 13.081863
_cell_length_b 19.641735
_cell_length_c 7.407999
_cell_angle_alpha 37.797550
_cell_angle_beta 37.324880
_cell_angle_gamma 37.531287
_cell_volume 634.115366
_symmetry_space_group_name_H-M "P -1"
_symmetry_group_IT_number 2
_symmetry_cell_setting 'triclinic'
loop_
_space_group_symop_operation_xyz
x,y,z
-x,-y,-z
loop_
_atom_site_type_symbol
_atom_site_label
_atom_site_fract_x
_atom_site_fract_y
_atom_site_fract_z
Si Si1 0.526582 0.817292 0.884080
Si Si2 0.929436 0.238729 0.581924
Si Si3 0.198104 0.068490 0.843154
Si Si4 0.963877 0.779960 0.917340
Si Si5 0.214530 0.316024 0.902009
Si Si6 0.166522 0.520417 0.311856
Si Si7 0.491000 0.607184 0.158689
O O1 0.658633 0.871256 0.498044
O O2 0.310249 0.920602 0.972638
O O3 0.588515 0.772348 0.096459
O O4 0.553610 0.698968 0.980763
O O5 0.718854 0.317006 0.785006
O O6 0.037605 0.118933 0.808298
O O7 0.928019 0.199924 0.452353
O O8 0.040528 0.324911 0.254024
O O9 0.113541 0.099101 0.100883
O O10 0.797756 0.748345 0.137017
O O11 0.103603 0.667509 0.087967
O O12 0.197661 0.454271 0.603413
O O13 0.000000 0.500000 0.500000
O O14 0.367050 0.452853 0.076644
O O15 0.500000 0.500000 0.500000
#
# Coordination Sequence:
#
# PCOD8040278 Si02
#       7
#     2   2   2   2   2   2   2
#     4  10  22  38  63  94 122 159 220 247 304 369
#     4   9  21  39  60  91 124 163 204 247 315 363
#     4  10  21  42  64  91 121 169 208 256 295 369
#     4   9  18  37  61  84 125 155 200 255 300 360
#     4   8  18  38  59  90 120 159 210 251 298 367
#     4  10  18  36  60  87 118 160 203 245 304 362
#     4  12  22  40  62  89 132 159 198 267 308 363
#
# _framework density 22.078002999999999
#
# number of rings (size 3 to 8) (size 9 to 14) (size 15 to 20)
#    0.857    1.429    1.429    1.714    0.000    2.286 
#    5.143    7.857    0.000    0.000    0.000    0.000 
#    0.000    0.000    0.000    0.000    0.000    0.000 
#
# Total GULP energy -173459.701894 kJ/mol
# GULP energy per Si atom -12389.978707 kJ/mol
# Density = 2.202775 g / cm^3
# Si number density = 22.078003 Si / 1000 Ang^3
#
#
#
# Elastic Constant Matrix: (Units=GPa)
#
#
# Indices 1 2 3 4 5 6 
#
# 1 47.6567 25.5319 12.5598 -7.0968 15.2520 -23.7458
# 2 25.5319 97.1898 18.3908 12.1354 9.3492 -22.2929
# 3 12.5598 18.3908 45.7315 5.4147 3.4964 -15.7343
# 4 -7.0968 12.1354 5.4147 32.6919 -2.8189 -0.3915
# 5 15.2520 9.3492 3.4964 -2.8189 19.1095 -7.3798
# 6 -23.7458 -22.2929 -15.7343 -0.3915 -7.3798 44.8377
#
#
#
# Elastic Compliance Matrix: (Units=1/GPa)
#
#
# Indices 1 2 3 4 5 6 
#
# 1 0.040388 -0.005923 -0.003482 0.009813 -0.021965 0.013693
# 2 -0.005923 0.013772 -0.002158 -0.006138 -0.001497 0.002654
# 3 -0.003482 -0.002158 0.026329 -0.004162 0.000887 0.006432
# 4 0.009813 -0.006138 -0.004162 0.035850 0.001715 0.001280
# 5 -0.021965 -0.001497 0.000887 0.001715 0.070512 -0.000445
# 6 0.013693 0.002654 0.006432 0.001280 -0.000445 0.033069
#
#
# Mechanical properties :
#
#
# Convention : Reuss Voigt Hill
#
# Bulk Modulus (GPa) = 17.43221 33.72702 25.57961
# Shear Modulus (GPa) = 19.07193 28.26751 23.66972
#
# Velocity S-wave (km/s) = 2.94231 3.58208 3.27784
# Velocity P-wave (km/s) = 4.41087 5.69367 5.09282
#
# Compressibility (1/GPa) = 0.05736508
#
# Stress axis : x y z
#
# Youngs Moduli (GPa) = 24.76001 72.60891 37.98134
#
# Poissons Ratio (x) = 0.43003 0.13224
# Poissons Ratio (y) = 0.14664 0.08195
# Poissons Ratio (z) = 0.08621 0.15667
#
# Static dielectric constant tensor:
#      x y z
#    x 3.748250 -0.309950 0.159970 
#    y -0.309950 4.029540 -0.098340 
#    z 0.159970 -0.098340 3.984680 
# 
# 
# High freq. dielectric constant tensor:
#      x y z
#    x 1.848990 -0.020750 0.009690 
#    y -0.020750 1.860930 -0.004350 
#    z 0.009690 -0.004350 1.859370 
# 
# From -- ./inp_files/319977.got.cif
#   From: 2010.06.25/outbox.cif.g09.slc.cpg/sg2_160_cif.got.tgz:319977.got - 2010.06.27 13:26:56.
