data_PCOD8040577
_publ_section_title
;
Structure prediction by ZEFSAII (Michael W. Deem and Ramdas Pophale) SiO2 
 PCOD8040577
Probable space group: P -1
;
_chemical_formula_sum "Si O2"
_cell_formula_units_Z 16
_cell_length_a 11.570844
_cell_length_b 11.337420
_cell_length_c 17.480899
_cell_angle_alpha 150.767879
_cell_angle_beta 43.394906
_cell_angle_gamma 126.581024
_cell_volume 764.399298
_symmetry_space_group_name_H-M "P -1"
_symmetry_group_IT_number 2
_symmetry_cell_setting 'triclinic'
loop_
_space_group_symop_operation_xyz
x,y,z
-x,-y,-z
loop_
_atom_site_type_symbol
_atom_site_label
_atom_site_fract_x
_atom_site_fract_y
_atom_site_fract_z
Si Si1 0.839473 0.030628 0.014634
Si Si2 0.251596 0.265176 0.432431
Si Si3 0.204630 0.797552 0.706740
Si Si4 0.001924 0.072641 0.696486
Si Si5 0.817811 0.557960 0.270671
Si Si6 0.477257 0.090712 0.977710
Si Si7 0.303914 0.041189 0.643472
Si Si8 0.709838 0.443877 0.100320
O O1 0.744552 0.070623 0.165025
O O2 0.896950 0.285930 0.101427
O O3 0.717699 0.903253 0.945127
O O4 0.001671 0.834698 0.826285
O O5 0.258291 0.509468 0.518519
O O6 0.274073 0.315984 0.540170
O O7 0.414902 0.083766 0.231689
O O8 0.078187 0.148158 0.431105
O O9 0.288484 0.907082 0.655005
O O10 0.042795 0.270829 0.726031
O O11 0.168479 0.958736 0.599537
O O12 0.861510 0.222273 0.903050
O O13 0.684393 0.535749 0.252764
O O14 0.538386 0.358964 0.099634
O O15 0.500000 0.000000 0.000000
O O16 0.249465 0.330260 0.843571
O O17 0.500000 0.000000 0.500000
#
# Coordination Sequence:
#
# PCOD8040577 Si02
#       8
#     2   2   2   2   2   2   2   2
#     4  10  21  39  65  89 119 162 192 250 300 361
#     4  10  24  37  60  95 117 158 194 256 300 348
#     4  10  23  41  59  88 126 160 199 234 308 364
#     4  10  21  39  61  88 119 159 199 244 297 349
#     4  10  18  37  63  86 120 151 205 241 292 352
#     4  11  23  39  62  91 119 148 206 253 302 342
#     4  11  24  37  58  86 120 159 199 242 293 355
#     4  10  21  39  62  88 115 161 198 243 296 352
#
# _framework density 20.931467999999999
#
# number of rings (size 3 to 8) (size 9 to 14) (size 15 to 20)
#    0.000    1.750    1.250    3.375    3.500    5.500 
#    0.000    0.625    0.000    0.000    0.000    0.000 
#    0.000    0.000    0.000    0.000    0.000    0.000 
#
# Total GULP energy -198319.750272 kJ/mol
# GULP energy per Si atom -12394.984392 kJ/mol
# Density = 2.088383 g / cm^3
# Si number density = 20.931468 Si / 1000 Ang^3
#
#
#
# Elastic Constant Matrix: (Units=GPa)
#
#
# Indices 1 2 3 4 5 6 
#
# 1 107.7598 47.4074 29.6259 2.3213 15.1790 3.6134
# 2 47.4074 118.8384 27.6361 1.4167 20.7880 -15.5964
# 3 29.6259 27.6361 58.9386 3.5573 22.0616 2.4519
# 4 2.3213 1.4167 3.5573 26.3322 -0.1458 2.1643
# 5 15.1790 20.7880 22.0616 -0.1458 27.4400 -4.0284
# 6 3.6134 -15.5964 2.4519 2.1643 -4.0284 36.6967
#
#
#
# Elastic Compliance Matrix: (Units=1/GPa)
#
#
# Indices 1 2 3 4 5 6 
#
# 1 0.012440 -0.004293 -0.003708 -0.000131 -0.001076 -0.002912
# 2 -0.004293 0.012058 -0.002065 -0.000446 -0.004334 0.005236
# 3 -0.003708 -0.002065 0.027239 -0.002999 -0.018921 -0.004233
# 4 -0.000131 -0.000446 -0.002999 0.038592 0.002740 -0.001951
# 5 -0.001076 -0.004334 -0.018921 0.002740 0.056364 0.005554
# 6 -0.002912 0.005236 -0.004233 -0.001951 0.005554 0.030770
#
#
# Mechanical properties :
#
#
# Convention : Reuss Voigt Hill
#
# Bulk Modulus (GPa) = 31.64068 54.98618 43.31343
# Shear Modulus (GPa) = 24.02342 30.15162 27.08752
#
# Velocity S-wave (km/s) = 3.39147 3.79950 3.60127
# Velocity P-wave (km/s) = 5.52135 6.75092 6.16685
#
# Compressibility (1/GPa) = 0.03160488
#
# Stress axis : x y z
#
# Youngs Moduli (GPa) = 80.38643 82.93270 36.71243
#
# Poissons Ratio (x) = 0.35599 0.13614
# Poissons Ratio (y) = 0.34506 0.07581
# Poissons Ratio (z) = 0.29810 0.17125
#
# Static dielectric constant tensor:
#      x y z
#    x 3.779710 -0.072270 0.392670 
#    y -0.072270 3.871810 0.282860 
#    z 0.392670 0.282860 3.769410 
# 
# 
# High freq. dielectric constant tensor:
#      x y z
#    x 1.817760 0.001580 0.009910 
#    y 0.001580 1.827840 0.000880 
#    z 0.009910 0.000880 1.809180 
# 
# From -- ./inp_files/277869.got.cif
#   From: 2010.06.25/outbox.cif.g09.slc.cpg/sg2_139_cif.got.tgz:277869.got - 2010.06.27 13:26:56.
