data_PCOD8040194
_publ_section_title
;
Structure prediction by ZEFSAII (Michael W. Deem and Ramdas Pophale) SiO2 
 PCOD8040194
Probable space group: P -1
;
_chemical_formula_sum "Si O2"
_cell_formula_units_Z 16
_cell_length_a 9.591856
_cell_length_b 25.937345
_cell_length_c 6.654245
_cell_angle_alpha 66.858544
_cell_angle_beta 130.647570
_cell_angle_gamma 139.899363
_cell_volume 790.085995
_symmetry_space_group_name_H-M "P -1"
_symmetry_group_IT_number 2
_symmetry_cell_setting 'triclinic'
loop_
_space_group_symop_operation_xyz
x,y,z
-x,-y,-z
loop_
_atom_site_type_symbol
_atom_site_label
_atom_site_fract_x
_atom_site_fract_y
_atom_site_fract_z
Si Si1 0.278122 0.531547 0.261130
Si Si2 0.883874 0.069949 0.587219
Si Si3 0.120312 0.725075 0.543488
Si Si4 0.240707 0.287980 0.514524
Si Si5 0.360749 0.894749 0.415810
Si Si6 0.036138 0.158423 0.203919
Si Si7 0.345381 0.211841 0.028618
Si Si8 0.636898 0.551864 0.249281
O O1 0.472097 0.621154 0.406043
O O2 0.409683 0.536794 0.173517
O O3 0.242275 0.472796 0.472527
O O4 0.000000 0.500000 0.000000
O O5 0.741597 0.096078 0.493343
O O6 0.964125 0.093246 0.392870
O O7 0.682878 0.973132 0.578515
O O8 0.159734 0.121793 0.891369
O O9 0.284748 0.812783 0.466744
O O10 0.340854 0.727986 0.806690
O O11 0.967285 0.709078 0.627293
O O12 0.896343 0.649267 0.297979
O O13 0.127835 0.233867 0.293577
O O14 0.263553 0.252045 0.784325
O O15 0.229514 0.892635 0.098857
O O16 0.285071 0.198981 0.229719
O O17 0.500000 0.500000 0.000000
#
# Coordination Sequence:
#
# PCOD8040194 Si02
#       8
#     2   2   2   2   2   2   2   2
#     4  10  22  40  62  87 117 157 197 243 297 353
#     4   9  19  37  57  84 114 152 189 240 285 335
#     4  11  21  40  59  83 117 156 186 237 296 339
#     4  10  21  39  60  82 115 155 193 232 290 345
#     4  10  19  35  60  83 114 151 193 233 290 343
#     4  10  18  36  57  84 112 148 194 239 279 340
#     4  10  21  37  56  86 119 146 194 242 278 343
#     4  10  24  40  59  89 124 151 197 249 291 352
#
# _framework density 20.250962000000001
#
# number of rings (size 3 to 8) (size 9 to 14) (size 15 to 20)
#    0.000    2.000    3.750    1.125    1.750    2.000 
#    4.500    0.625    0.000    0.000    0.000    0.000 
#    0.000    0.000    0.000    0.000    0.000    0.000 
#
# Total GULP energy -198345.625151 kJ/mol
# GULP energy per Si atom -12396.601572 kJ/mol
# Density = 2.020487 g / cm^3
# Si number density = 20.250962 Si / 1000 Ang^3
#
#
#
# Elastic Constant Matrix: (Units=GPa)
#
#
# Indices 1 2 3 4 5 6 
#
# 1 84.6978 33.1662 60.0158 7.3999 8.8349 12.1928
# 2 33.1662 127.1785 31.4925 27.4187 -5.7972 0.6510
# 3 60.0158 31.4925 90.4846 19.6729 -6.1625 7.0909
# 4 7.3999 27.4187 19.6729 38.5488 5.3433 -1.3394
# 5 8.8349 -5.7972 -6.1625 5.3433 36.2449 4.5914
# 6 12.1928 0.6510 7.0909 -1.3394 4.5914 24.5430
#
#
#
# Elastic Compliance Matrix: (Units=1/GPa)
#
#
# Indices 1 2 3 4 5 6 
#
# 1 0.029483 -0.005354 -0.020233 0.009964 -0.012213 -0.005830
# 2 -0.005354 0.010766 0.001841 -0.008170 0.004473 0.000559
# 3 -0.020233 0.001841 0.027589 -0.013198 0.011981 -0.000930
# 4 0.009964 -0.008170 -0.013198 0.038367 -0.012070 0.003432
# 5 -0.012213 0.004473 0.011981 -0.012070 0.035714 -0.004853
# 6 -0.005830 0.000559 -0.000930 0.003432 -0.004853 0.044990
#
#
# Mechanical properties :
#
#
# Convention : Reuss Voigt Hill
#
# Bulk Modulus (GPa) = 49.14880 61.30109 55.22495
# Shear Modulus (GPa) = 20.73126 31.71312 26.22219
#
# Velocity S-wave (km/s) = 3.20303 3.96157 3.60232
# Velocity P-wave (km/s) = 6.16456 7.15974 6.68070
#
# Compressibility (1/GPa) = 0.02034637
#
# Stress axis : x y z
#
# Youngs Moduli (GPa) = 33.91826 92.88867 36.24611
#
# Poissons Ratio (x) = 0.49728 0.73337
# Poissons Ratio (y) = 0.18158 -0.06673
# Poissons Ratio (z) = 0.68627 -0.17101
#
# Static dielectric constant tensor:
#      x y z
#    x 3.511620 0.055890 -0.033730 
#    y 0.055890 3.949610 0.291850 
#    z -0.033730 0.291850 3.534310 
# 
# 
# High freq. dielectric constant tensor:
#      x y z
#    x 1.772190 0.006810 -0.002750 
#    y 0.006810 1.805410 0.020670 
#    z -0.002750 0.020670 1.779450 
# 
# From -- ./inp_files/47743.got.cif
#   From: 2010.06.25/outbox.cif.g09.slc.cpg/sg2_24_cif.got.tgz:47743.got - 2010.06.27 13:26:56.
