data_PCOD8040893
_publ_section_title
;
Structure prediction by ZEFSAII (Michael W. Deem and Ramdas Pophale) SiO2 
 PCOD8040893
Probable space group: P -1
;
_chemical_formula_sum "Si O2"
_cell_formula_units_Z 16
_cell_length_a 28.683064
_cell_length_b 17.738797
_cell_length_c 12.413369
_cell_angle_alpha 159.473193
_cell_angle_beta 29.540601
_cell_angle_gamma 159.725556
_cell_volume 765.548340
_symmetry_space_group_name_H-M "P -1"
_symmetry_group_IT_number 2
_symmetry_cell_setting 'triclinic'
loop_
_space_group_symop_operation_xyz
x,y,z
-x,-y,-z
loop_
_atom_site_type_symbol
_atom_site_label
_atom_site_fract_x
_atom_site_fract_y
_atom_site_fract_z
Si Si1 0.236261 0.389156 0.200019
Si Si2 0.848341 0.348480 0.389162
Si Si3 0.337868 0.292803 0.676993
Si Si4 0.656079 0.330615 0.256509
Si Si5 0.646104 0.641252 0.878261
Si Si6 0.126023 0.582283 0.145195
Si Si7 0.962259 0.686515 0.819892
Si Si8 0.568193 0.354814 0.244577
O O1 0.215007 0.611848 0.526610
O O2 0.315180 0.475279 0.267452
O O3 0.332631 0.457778 0.003420
O O4 0.088625 0.046710 0.038258
O O5 0.872212 0.557639 0.719867
O O6 0.983468 0.444718 0.206497
O O7 0.747188 0.002422 0.168548
O O8 0.481957 0.407185 0.541932
O O9 0.323786 0.383627 0.709800
O O10 0.216820 0.933883 0.463528
O O11 0.655064 0.542816 0.612836
O O12 0.649349 0.372629 0.199671
O O13 0.798447 0.432765 0.120249
O O14 0.530566 0.971975 0.057198
O O15 0.500000 0.500000 0.000000
O O16 0.113289 0.400714 0.031289
O O17 0.000000 0.500000 0.500000
#
# Coordination Sequence:
#
# PCOD8040893 Si02
#       8
#     2   2   2   2   2   2   2   2
#     4  12  23  40  70  99 131 173 212 269 336 378
#     4  11  24  41  64 100 132 169 220 267 320 390
#     4  10  19  36  64 100 128 156 219 280 316 382
#     4  10  23  42  66  88 127 182 216 261 335 375
#     4  12  27  47  63  93 136 177 219 266 326 399
#     4  10  20  39  65  95 130 166 216 273 324 382
#     4  10  18  39  67  96 131 164 213 269 324 377
#     4   9  21  40  63  95 124 169 225 269 321 381
#
# _framework density 20.900051999999999
#
# number of rings (size 3 to 8) (size 9 to 14) (size 15 to 20)
#    0.000    1.500    5.000    1.125    3.500    2.000 
#    6.750    0.625    0.000    0.000    0.000    0.000 
#    0.000    0.000    0.000    0.000    0.000    0.000 
#
# Total GULP energy -198354.585414 kJ/mol
# GULP energy per Si atom -12397.161588 kJ/mol
# Density = 2.085248 g / cm^3
# Si number density = 20.900052 Si / 1000 Ang^3
#
#
#
# Elastic Constant Matrix: (Units=GPa)
#
#
# Indices 1 2 3 4 5 6 
#
# 1 99.7057 32.9424 19.7050 3.9199 -14.8937 0.9396
# 2 32.9424 103.6653 28.0715 -11.3812 1.2922 0.1214
# 3 19.7050 28.0715 62.4145 -15.9720 1.9191 4.8589
# 4 3.9199 -11.3812 -15.9720 17.8562 -1.1530 -5.2642
# 5 -14.8937 1.2922 1.9191 -1.1530 29.5429 2.4254
# 6 0.9396 0.1214 4.8589 -5.2642 2.4254 32.0179
#
#
#
# Elastic Compliance Matrix: (Units=1/GPa)
#
#
# Indices 1 2 3 4 5 6 
#
# 1 0.014023 -0.004277 -0.005303 -0.010632 0.007342 -0.001895
# 2 -0.004277 0.012490 -0.002542 0.007001 -0.002412 0.001798
# 3 -0.005303 -0.002542 0.024341 0.021161 -0.003334 0.000203
# 4 -0.010632 0.007001 0.021161 0.084777 -0.004665 0.011366
# 5 0.007342 -0.002412 -0.003334 -0.004665 0.037965 -0.003343
# 6 -0.001895 0.001798 0.000203 0.011366 -0.003343 0.033372
#
#
# Mechanical properties :
#
#
# Convention : Reuss Voigt Hill
#
# Bulk Modulus (GPa) = 37.57697 47.46924 42.52310
# Shear Modulus (GPa) = 20.82622 28.22118 24.52370
#
# Velocity S-wave (km/s) = 3.16011 3.67862 3.42918
# Velocity P-wave (km/s) = 5.59763 6.38786 6.00576
#
# Compressibility (1/GPa) = 0.02661205
#
# Stress axis : x y z
#
# Youngs Moduli (GPa) = 71.31093 80.06200 41.08273
#
# Poissons Ratio (x) = 0.34241 0.21785
# Poissons Ratio (y) = 0.30499 0.10442
# Poissons Ratio (z) = 0.37814 0.20349
#
# Static dielectric constant tensor:
#      x y z
#    x 4.405720 -0.378920 -0.092070 
#    y -0.378920 4.271350 -0.139380 
#    z -0.092070 -0.139380 3.636680 
# 
# 
# High freq. dielectric constant tensor:
#      x y z
#    x 1.811100 -0.005760 -0.024070 
#    y -0.005760 1.830200 -0.007250 
#    z -0.024070 -0.007250 1.797550 
# 
# From -- ./inp_files/477724.got.cif
#   From: 2010.06.25/outbox.cif.g09.slc.cpg/sg2_239_cif.got.tgz:477724.got - 2010.06.27 13:26:56.
