data_PCOD8040719
_publ_section_title
;
Structure prediction by ZEFSAII (Michael W. Deem and Ramdas Pophale) SiO2 
 PCOD8040719
Probable space group: P -1
;
_chemical_formula_sum "Si O2"
_cell_formula_units_Z 16
_cell_length_a 10.476808
_cell_length_b 14.708734
_cell_length_c 8.795473
_cell_angle_alpha 80.879477
_cell_angle_beta 54.840702
_cell_angle_gamma 49.267229
_cell_volume 786.353982
_symmetry_space_group_name_H-M "P -1"
_symmetry_group_IT_number 2
_symmetry_cell_setting 'triclinic'
loop_
_space_group_symop_operation_xyz
x,y,z
-x,-y,-z
loop_
_atom_site_type_symbol
_atom_site_label
_atom_site_fract_x
_atom_site_fract_y
_atom_site_fract_z
Si Si1 0.811603 0.165475 0.180782
Si Si2 0.336127 0.250382 0.075886
Si Si3 0.627534 0.358851 0.507485
Si Si4 0.288272 0.953557 0.920071
Si Si5 0.507229 0.039477 0.818007
Si Si6 0.052758 0.217878 0.437971
Si Si7 0.211217 0.683916 0.102818
Si Si8 0.618437 0.568107 0.044894
O O1 0.638424 0.283512 0.379887
O O2 0.711469 0.107748 0.217769
O O3 0.869700 0.203089 0.982792
O O4 0.045233 0.056669 0.129307
O O5 0.570302 0.156534 0.021510
O O6 0.168481 0.264895 0.294471
O O7 0.379192 0.188891 0.891560
O O8 0.251928 0.389835 0.084579
O O9 0.500000 0.500000 0.500000
O O10 0.493805 0.369723 0.732781
O O11 0.872601 0.275933 0.417324
O O12 0.379804 0.019321 0.801344
O O13 0.765245 0.938434 0.628539
O O14 0.500000 0.000000 0.000000
O O15 0.949883 0.270033 0.660218
O O16 0.446389 0.618969 0.016615
O O17 0.220910 0.585138 0.024381
#
# Coordination Sequence:
#
# PCOD8040719 Si02
#       8
#     2   2   2   2   2   2   2   2
#     4  11  19  35  58  84 119 143 184 229 285 328
#     4  10  18  38  62  82 112 146 190 230 272 334
#     4  11  21  37  58  81 114 152 183 231 279 328
#     4   9  19  33  59  84 109 149 179 232 285 321
#     4   8  16  35  57  78 110 144 183 225 274 324
#     4   9  20  36  60  82 109 150 189 224 281 328
#     4  10  20  36  56  83 115 146 188 232 268 330
#     4  10  21  37  57  83 110 151 192 225 272 329
#
# _framework density 20.347071
#
# number of rings (size 3 to 8) (size 9 to 14) (size 15 to 20)
#    0.000    2.500    2.500    2.250    0.000    0.500 
#    4.500    6.250    5.500    0.000    0.000    0.000 
#    0.000    0.000    0.000    0.000    0.000    0.000 
#
# Total GULP energy -198236.466797 kJ/mol
# GULP energy per Si atom -12389.779175 kJ/mol
# Density = 2.030076 g / cm^3
# Si number density = 20.347071 Si / 1000 Ang^3
#
#
#
# Elastic Constant Matrix: (Units=GPa)
#
#
# Indices 1 2 3 4 5 6 
#
# 1 92.3742 31.1906 37.8827 9.9623 5.3644 13.2695
# 2 31.1906 50.6806 18.5512 6.7002 7.1931 24.1471
# 3 37.8827 18.5512 88.2691 12.7650 7.1928 15.0556
# 4 9.9623 6.7002 12.7650 33.7246 6.3146 4.4517
# 5 5.3644 7.1931 7.1928 6.3146 23.9792 4.6542
# 6 13.2695 24.1471 15.0556 4.4517 4.6542 33.4394
#
#
#
# Elastic Compliance Matrix: (Units=1/GPa)
#
#
# Indices 1 2 3 4 5 6 
#
# 1 0.015689 -0.008929 -0.005157 -0.001363 0.000561 0.002647
# 2 -0.008929 0.036397 0.000480 -0.001004 -0.004492 -0.022197
# 3 -0.005157 0.000480 0.014787 -0.003280 -0.001731 -0.004280
# 4 -0.001363 -0.001004 -0.003280 0.032883 -0.006940 -0.000669
# 5 0.000561 -0.004492 -0.001731 -0.006940 0.045586 -0.001620
# 6 0.002647 -0.022197 -0.004280 -0.000669 -0.001620 0.047125
#
#
# Mechanical properties :
#
#
# Convention : Reuss Voigt Hill
#
# Bulk Modulus (GPa) = 25.21345 45.17478 35.19411
# Shear Modulus (GPa) = 21.46848 27.80859 24.63853
#
# Velocity S-wave (km/s) = 3.25178 3.70092 3.48359
# Velocity P-wave (km/s) = 5.14950 6.36496 5.78921
#
# Compressibility (1/GPa) = 0.03966138
#
# Stress axis : x y z
#
# Youngs Moduli (GPa) = 63.73702 27.47484 67.62789
#
# Poissons Ratio (x) = 0.24531 0.34876
# Poissons Ratio (y) = 0.56909 -0.03244
# Poissons Ratio (z) = 0.32869 -0.01318
#
# Static dielectric constant tensor:
#      x y z
#    x 4.084460 0.385470 0.180620 
#    y 0.385470 4.049480 0.438550 
#    z 0.180620 0.438550 3.592450 
# 
# 
# High freq. dielectric constant tensor:
#      x y z
#    x 1.790030 0.012130 0.007130 
#    y 0.012130 1.787480 0.020760 
#    z 0.007130 0.020760 1.776360 
# 
# From -- ./inp_files/272800.got.cif
#   From: 2010.06.25/outbox.cif.g09.slc.cpg/sg2_137_cif.got.tgz:272800.got - 2010.06.27 13:26:56.
