data_PCOD8040586
_publ_section_title
;
Structure prediction by ZEFSAII (Michael W. Deem and Ramdas Pophale) SiO2 
 PCOD8040586
Probable space group: P -1
;
_chemical_formula_sum "Si O2"
_cell_formula_units_Z 16
_cell_length_a 15.310730
_cell_length_b 8.932021
_cell_length_c 9.455515
_cell_angle_alpha 105.381354
_cell_angle_beta 37.971029
_cell_angle_gamma 96.044723
_cell_volume 755.265103
_symmetry_space_group_name_H-M "P -1"
_symmetry_group_IT_number 2
_symmetry_cell_setting 'triclinic'
loop_
_space_group_symop_operation_xyz
x,y,z
-x,-y,-z
loop_
_atom_site_type_symbol
_atom_site_label
_atom_site_fract_x
_atom_site_fract_y
_atom_site_fract_z
Si Si1 0.452628 0.148878 0.701824
Si Si2 0.150211 0.230033 0.189327
Si Si3 0.989521 0.361730 0.169783
Si Si4 0.055782 0.288554 0.616984
Si Si5 0.199873 0.872041 0.081925
Si Si6 0.478716 0.930230 0.857427
Si Si7 0.791503 0.858530 0.354653
Si Si8 0.751618 0.188017 0.323994
O O1 0.578817 0.253038 0.572246
O O2 0.500000 0.000000 0.500000
O O3 0.429937 0.088311 0.871865
O O4 0.290149 0.243757 0.911785
O O5 0.145765 0.319199 0.368918
O O6 0.015873 0.309383 0.285846
O O7 0.131706 0.055656 0.217524
O O8 0.977506 0.548543 0.213157
O O9 0.837557 0.317212 0.306038
O O10 0.121112 0.278956 0.885159
O O11 0.139052 0.151489 0.579436
O O12 0.907617 0.234585 0.742711
O O13 0.348162 0.831637 0.976457
O O14 0.219775 0.834579 0.882386
O O15 0.626384 0.832162 0.578307
O O16 0.500000 0.000000 0.000000
O O17 0.796984 0.025848 0.314456
#
# Coordination Sequence:
#
# PCOD8040586 Si02
#       8
#     2   2   2   2   2   2   2   2
#     4  10  18  37  63  91 115 149 204 255 296 349
#     4  11  22  41  64  88 120 162 203 248 306 355
#     4  12  24  40  60  90 126 165 204 241 296 362
#     4  12  26  40  58  91 133 161 194 252 303 355
#     4  11  21  40  65  92 120 154 204 253 302 354
#     4  10  21  36  60  95 122 147 194 262 309 347
#     4  11  21  39  64  89 117 162 208 246 295 355
#     4  11  21  38  67  94 114 155 210 255 290 356
#
# _framework density 21.184612999999999
#
# number of rings (size 3 to 8) (size 9 to 14) (size 15 to 20)
#    0.000    1.000    5.000    4.500    0.000    2.000 
#    0.000    2.500    0.000    0.000    0.000    0.000 
#    0.000    0.000    0.000    0.000    0.000    0.000 
#
# Total GULP energy -198246.444292 kJ/mol
# GULP energy per Si atom -12390.402768 kJ/mol
# Density = 2.113640 g / cm^3
# Si number density = 21.184613 Si / 1000 Ang^3
#
#
#
# Elastic Constant Matrix: (Units=GPa)
#
#
# Indices 1 2 3 4 5 6 
#
# 1 142.6719 32.9319 39.5923 -11.3682 -7.5466 8.5264
# 2 32.9319 67.1136 29.7646 -0.6220 -17.1001 17.2896
# 3 39.5923 29.7646 96.4876 -9.5276 -11.5051 14.5998
# 4 -11.3682 -0.6220 -9.5276 14.8210 2.3630 3.7201
# 5 -7.5466 -17.1001 -11.5051 2.3630 45.1006 -17.6399
# 6 8.5264 17.2896 14.5998 3.7201 -17.6399 24.2910
#
#
#
# Elastic Compliance Matrix: (Units=1/GPa)
#
#
# Indices 1 2 3 4 5 6 
#
# 1 0.008806 -0.003370 -0.001945 0.005835 -0.001074 -0.001197
# 2 -0.003370 0.021312 -0.003649 -0.002222 0.003105 -0.009198
# 3 -0.001945 -0.003649 0.014272 0.009831 -0.001738 -0.008066
# 4 0.005835 -0.002222 0.009831 0.087783 -0.013561 -0.029667
# 5 -0.001074 0.003105 -0.001738 -0.013561 0.033439 0.025572
# 6 -0.001197 -0.009198 -0.008066 -0.029667 0.025572 0.076096
#
#
# Mechanical properties :
#
#
# Convention : Reuss Voigt Hill
#
# Bulk Modulus (GPa) = 37.78892 56.76116 47.27504
# Shear Modulus (GPa) = 18.62505 30.44148 24.53326
#
# Velocity S-wave (km/s) = 2.96831 3.79484 3.40673
# Velocity P-wave (km/s) = 5.44284 6.78622 6.15131
#
# Compressibility (1/GPa) = 0.02646278
#
# Stress axis : x y z
#
# Youngs Moduli (GPa) = 113.55542 46.92177 70.06901
#
# Poissons Ratio (x) = 0.15812 0.13627
# Poissons Ratio (y) = 0.38266 0.25569
# Poissons Ratio (z) = 0.22083 0.17122
#
# Static dielectric constant tensor:
#      x y z
#    x 4.408210 0.052050 -0.348320 
#    y 0.052050 3.363230 -0.184560 
#    z -0.348320 -0.184560 4.250850 
# 
# 
# High freq. dielectric constant tensor:
#      x y z
#    x 1.854210 -0.005830 0.001030 
#    y -0.005830 1.776110 -0.013410 
#    z 0.001030 -0.013410 1.842130 
# 
# From -- ./inp_files/298653.got.cif
#   From: 2010.06.25/outbox.cif.g09.slc.cpg/sg2_150_cif.got.tgz:298653.got - 2010.06.27 13:26:56.
