data_PCOD8040024
_publ_section_title
;
Structure prediction by ZEFSAII (Michael W. Deem and Ramdas Pophale) SiO2 
 PCOD8040024
Probable space group: P -1
;
_chemical_formula_sum "Si O2"
_cell_formula_units_Z 14
_cell_length_a 9.380701
_cell_length_b 13.663714
_cell_length_c 9.615231
_cell_angle_alpha 95.158596
_cell_angle_beta 119.488551
_cell_angle_gamma 44.140207
_cell_volume 672.921218
_symmetry_space_group_name_H-M "P -1"
_symmetry_group_IT_number 2
_symmetry_cell_setting 'triclinic'
loop_
_space_group_symop_operation_xyz
x,y,z
-x,-y,-z
loop_
_atom_site_type_symbol
_atom_site_label
_atom_site_fract_x
_atom_site_fract_y
_atom_site_fract_z
Si Si1 0.130859 0.191038 0.357612
Si Si2 0.561391 0.803171 0.148951
Si Si3 0.072933 0.576738 0.508708
Si Si4 0.426598 0.880311 0.539450
Si Si5 0.387541 0.736554 0.292120
Si Si6 0.232062 0.315807 0.059046
Si Si7 0.093308 0.164210 0.018384
O O1 0.365433 0.160886 0.463852
O O2 0.899999 0.361977 0.338069
O O3 0.200175 0.066967 0.477038
O O4 0.060339 0.182463 0.171439
O O5 0.455855 0.764137 0.188469
O O6 0.837972 0.722842 0.316475
O O7 0.608847 0.733759 0.010748
O O8 0.353936 0.987457 0.073828
O O9 0.357832 0.443472 0.558594
O O10 0.000000 0.500000 0.500000
O O11 0.306016 0.846250 0.391899
O O12 0.554894 0.781509 0.728883
O O13 0.152618 0.773352 0.158269
O O14 0.103519 0.268873 0.977481
O O15 0.000000 0.500000 0.000000
#
# Coordination Sequence:
#
# PCOD8040024 Si02
#       7
#     2   2   2   2   2   2   2
#     4  10  18  35  61  91 119 163 214 250 299 377
#     4  11  21  41  66  91 124 169 212 249 313 386
#     4  10  19  34  61  92 122 162 209 251 305 375
#     4  10  19  38  62  88 123 166 209 254 304 380
#     4  11  22  39  67  97 126 156 216 268 315 352
#     4  11  25  41  63  91 130 170 211 253 315 382
#     4  11  24  40  65  96 128 163 208 270 313 362
#
# _framework density 20.804814
#
# number of rings (size 3 to 8) (size 9 to 14) (size 15 to 20)
#    0.000    1.429    4.286    3.429    6.000    0.571 
#    0.000    3.571    0.000    0.000    0.000    0.000 
#    0.000    0.000    0.000    0.000    0.000    0.000 
#
# Total GULP energy -173538.524169 kJ/mol
# GULP energy per Si atom -12395.608869 kJ/mol
# Density = 2.075746 g / cm^3
# Si number density = 20.804814 Si / 1000 Ang^3
#
#
#
# Elastic Constant Matrix: (Units=GPa)
#
#
# Indices 1 2 3 4 5 6 
#
# 1 59.7149 33.8776 47.5635 0.4223 9.6263 5.8709
# 2 33.8776 159.6101 48.7458 6.2429 6.2492 -9.9303
# 3 47.5635 48.7458 116.6370 8.4319 11.7933 0.0444
# 4 0.4223 6.2429 8.4319 37.5738 -4.8279 2.4783
# 5 9.6263 6.2492 11.7933 -4.8279 43.5318 4.4412
# 6 5.8709 -9.9303 0.0444 2.4783 4.4412 18.6922
#
#
#
# Elastic Compliance Matrix: (Units=1/GPa)
#
#
# Indices 1 2 3 4 5 6 
#
# 1 0.028035 -0.003631 -0.009974 0.003037 -0.001543 -0.010747
# 2 -0.003631 0.007988 -0.001699 -0.001361 -0.000618 0.005715
# 3 -0.009974 -0.001699 0.013774 -0.003150 -0.001945 0.003077
# 4 0.003037 -0.001361 -0.003150 0.028477 0.004193 -0.006441
# 5 -0.001543 -0.000618 -0.001945 0.004193 0.025041 -0.006344
# 6 -0.010747 0.005715 0.003077 -0.006441 -0.006344 0.062264
#
#
# Mechanical properties :
#
#
# Convention : Reuss Voigt Hill
#
# Bulk Modulus (GPa) = 52.11551 66.25954 59.18752
# Shear Modulus (GPa) = 24.68125 33.67791 29.17958
#
# Velocity S-wave (km/s) = 3.44804 4.02774 3.74911
# Velocity P-wave (km/s) = 6.39970 7.31762 6.87400
#
# Compressibility (1/GPa) = 0.01918815
#
# Stress axis : x y z
#
# Youngs Moduli (GPa) = 35.67012 125.18974 72.59943
#
# Poissons Ratio (x) = 0.45460 0.72412
# Poissons Ratio (y) = 0.12953 0.12334
# Poissons Ratio (z) = 0.35578 0.21268
#
# Static dielectric constant tensor:
#      x y z
#    x 3.359580 -0.115150 0.061910 
#    y -0.115150 4.312550 -0.203470 
#    z 0.061910 -0.203470 3.928470 
# 
# 
# High freq. dielectric constant tensor:
#      x y z
#    x 1.762290 0.003170 -0.000310 
#    y 0.003170 1.839840 0.003460 
#    z -0.000310 0.003460 1.816800 
# 
# From -- ./inp_files/184501.got.cif
#   From: 2010.06.25/outbox.cif.g09.slc.cpg/sg2_93_cif.got.tgz:184501.got - 2010.06.27 13:26:56.
