data_PCOD8040637
_publ_section_title
;
Structure prediction by ZEFSAII (Michael W. Deem and Ramdas Pophale) SiO2 
 PCOD8040637
Probable space group: P -1
;
_chemical_formula_sum "Si O2"
_cell_formula_units_Z 16
_cell_length_a 11.448685
_cell_length_b 8.782163
_cell_length_c 8.870866
_cell_angle_alpha 57.175581
_cell_angle_beta 100.965117
_cell_angle_gamma 99.280809
_cell_volume 733.992599
_symmetry_space_group_name_H-M "P -1"
_symmetry_group_IT_number 2
_symmetry_cell_setting 'triclinic'
loop_
_space_group_symop_operation_xyz
x,y,z
-x,-y,-z
loop_
_atom_site_type_symbol
_atom_site_label
_atom_site_fract_x
_atom_site_fract_y
_atom_site_fract_z
Si Si1 0.154221 0.996600 0.153435
Si Si2 0.414058 0.914676 0.820967
Si Si3 0.042038 0.740919 0.029042
Si Si4 0.706415 0.168724 0.463704
Si Si5 0.458324 0.546490 0.627308
Si Si6 0.382575 0.511172 0.064937
Si Si7 0.644813 0.830070 0.075677
Si Si8 0.150336 0.570631 0.859625
O O1 0.122016 0.805822 0.159108
O O2 0.229748 0.965929 0.339085
O O3 0.224534 0.133972 0.980381
O O4 0.036547 0.091806 0.124551
O O5 0.378993 0.938426 0.623781
O O6 0.360207 0.074367 0.814886
O O7 0.357184 0.722119 0.971666
O O8 0.556303 0.914946 0.885548
O O9 0.962298 0.558154 0.153056
O O10 0.120135 0.694909 0.928470
O O11 0.621402 0.283652 0.485441
O O12 0.808080 0.298501 0.337586
O O13 0.500000 0.500000 0.500000
O O14 0.585748 0.591522 0.719322
O O15 0.386691 0.382402 0.787836
O O16 0.500000 0.500000 0.000000
O O17 0.256880 0.435413 0.001930
#
# Coordination Sequence:
#
# PCOD8040637 Si02
#       8
#     2   2   2   2   2   2   2   2
#     4  11  24  40  63  91 121 167 212 262 313 355
#     4   9  20  37  61  93 123 173 194 245 317 375
#     4  10  24  43  65  86 118 177 215 255 308 373
#     4  11  23  39  64  95 128 158 209 271 299 371
#     4  11  24  38  59  99 129 163 201 248 318 380
#     4  10  18  37  66  92 123 163 195 248 319 381
#     4  10  22  41  62  86 135 171 198 251 315 388
#     4  10  21  43  67  89 122 165 216 253 310 369
#
# _framework density 21.798586
#
# number of rings (size 3 to 8) (size 9 to 14) (size 15 to 20)
#    0.000    1.750    2.500    2.250    8.750    1.500 
#    2.250    0.000    0.000    0.000    0.000    0.000 
#    0.000    0.000    0.000    0.000    0.000    0.000 
#
# Total GULP energy -198288.750015 kJ/mol
# GULP energy per Si atom -12393.046876 kJ/mol
# Density = 2.174897 g / cm^3
# Si number density = 21.798586 Si / 1000 Ang^3
#
#
#
# Elastic Constant Matrix: (Units=GPa)
#
#
# Indices 1 2 3 4 5 6 
#
# 1 97.0019 21.7189 30.9668 13.6648 -2.3458 -8.0947
# 2 21.7189 98.5813 18.2980 22.7542 6.0702 -2.3127
# 3 30.9668 18.2980 94.7858 21.2724 14.0437 -5.8957
# 4 13.6648 22.7542 21.2724 35.6426 0.4710 0.7318
# 5 -2.3458 6.0702 14.0437 0.4710 29.5324 -1.4143
# 6 -8.0947 -2.3127 -5.8957 0.7318 -1.4143 32.2460
#
#
#
# Elastic Compliance Matrix: (Units=1/GPa)
#
#
# Indices 1 2 3 4 5 6 
#
# 1 0.012394 -0.001851 -0.003694 -0.001460 0.003263 0.002479
# 2 -0.001851 0.012368 0.000295 -0.007337 -0.002687 0.000525
# 3 -0.003694 0.000295 0.014497 -0.007364 -0.007054 0.001602
# 4 -0.001460 -0.007337 -0.007364 0.037700 0.004153 -0.002912
# 5 0.003263 -0.002687 -0.007054 0.004153 0.038004 0.000909
# 6 0.002479 0.000525 0.001602 -0.002912 0.000909 0.032071
#
#
# Mechanical properties :
#
#
# Convention : Reuss Voigt Hill
#
# Bulk Modulus (GPa) = 34.77046 48.03736 41.40391
# Shear Modulus (GPa) = 29.91841 34.10991 32.01416
#
# Velocity S-wave (km/s) = 3.70874 3.96002 3.83643
# Velocity P-wave (km/s) = 5.85876 6.55696 6.21767
#
# Compressibility (1/GPa) = 0.02876005
#
# Stress axis : x y z
#
# Youngs Moduli (GPa) = 80.68373 80.85127 68.97789
#
# Poissons Ratio (x) = 0.14964 0.25477
# Poissons Ratio (y) = 0.14933 -0.02031
# Poissons Ratio (z) = 0.29801 -0.02381
#
# Static dielectric constant tensor:
#      x y z
#    x 4.149220 0.164520 0.198050 
#    y 0.164520 4.193860 0.279590 
#    z 0.198050 0.279590 3.590510 
# 
# 
# High freq. dielectric constant tensor:
#      x y z
#    x 1.859380 -0.002680 0.005330 
#    y -0.002680 1.874540 0.014740 
#    z 0.005330 0.014740 1.826650 
# 
# From -- ./inp_files/237215.got.cif
#   From: 2010.06.25/outbox.cif.g09.slc.cpg/sg2_119_cif.got.tgz:237215.got - 2010.06.27 13:26:56.
