data_PCOD8040943
_publ_section_title
;
Structure prediction by ZEFSAII (Michael W. Deem and Ramdas Pophale) SiO2 
 PCOD8040943
Probable space group: P -1
;
_chemical_formula_sum "Si O2"
_cell_formula_units_Z 16
_cell_length_a 8.679448
_cell_length_b 16.388245
_cell_length_c 13.588396
_cell_angle_alpha 24.718298
_cell_angle_beta 77.005271
_cell_angle_gamma 83.843924
_cell_volume 764.874606
_symmetry_space_group_name_H-M "P -1"
_symmetry_group_IT_number 2
_symmetry_cell_setting 'triclinic'
loop_
_space_group_symop_operation_xyz
x,y,z
-x,-y,-z
loop_
_atom_site_type_symbol
_atom_site_label
_atom_site_fract_x
_atom_site_fract_y
_atom_site_fract_z
Si Si1 0.518437 0.678971 0.574709
Si Si2 0.967054 0.616479 0.781831
Si Si3 0.131805 0.651227 0.096843
Si Si4 0.931605 0.903120 0.963497
Si Si5 0.378905 0.288132 0.265636
Si Si6 0.274329 0.924489 0.334515
Si Si7 0.494272 0.224437 0.121642
Si Si8 0.158043 0.280786 0.618613
O O1 0.582593 0.792864 0.544197
O O2 0.365787 0.754906 0.470905
O O3 0.464597 0.441725 0.860723
O O4 0.659181 0.735872 0.410948
O O5 0.958007 0.470575 0.849731
O O6 0.804949 0.693526 0.731675
O O7 0.110378 0.815751 0.533031
O O8 0.000000 0.500000 0.000000
O O9 0.313932 0.768955 0.912122
O O10 0.136758 0.499202 0.352226
O O11 0.032827 0.811732 0.968664
O O12 0.769714 0.947022 0.890367
O O13 0.876429 0.745732 0.231801
O O14 0.036546 0.114124 0.755441
O O15 0.500000 0.500000 0.000000
O O16 0.416456 0.151261 0.320398
O O17 0.399922 0.071081 0.224699
#
# Coordination Sequence:
#
# PCOD8040943 Si02
#       8
#     2   2   2   2   2   2   2   2
#     4  10  21  42  65  86 134 173 212 258 321 389
#     4  12  24  41  66  97 133 171 209 270 321 371
#     4  11  22  45  68  93 130 175 215 255 325 394
#     4  11  24  39  69  98 129 162 221 276 319 377
#     4  10  18  40  64  87 122 176 211 245 314 386
#     4  12  26  40  61 103 130 163 216 274 320 364
#     4  10  23  40  67  91 126 174 217 255 316 396
#     4  10  21  46  67  94 125 176 215 264 329 380
#
# _framework density 20.91846
#
# number of rings (size 3 to 8) (size 9 to 14) (size 15 to 20)
#    0.000    1.250    5.000    2.625    3.500    1.500 
#    2.250    2.500    0.000    0.000    0.000    0.000 
#    0.000    0.000    0.000    0.000    0.000    0.000 
#
# Total GULP energy -198421.226409 kJ/mol
# GULP energy per Si atom -12401.326651 kJ/mol
# Density = 2.087085 g / cm^3
# Si number density = 20.918460 Si / 1000 Ang^3
#
#
#
# Elastic Constant Matrix: (Units=GPa)
#
#
# Indices 1 2 3 4 5 6 
#
# 1 140.0134 36.2541 37.4328 1.2796 14.6666 -13.0273
# 2 36.2541 86.7413 24.7041 6.8813 4.5649 -6.9922
# 3 37.4328 24.7041 48.2169 3.6656 -0.4688 5.1440
# 4 1.2796 6.8813 3.6656 20.6811 3.5395 -5.2166
# 5 14.6666 4.5649 -0.4688 3.5395 39.9105 -3.1424
# 6 -13.0273 -6.9922 5.1440 -5.2166 -3.1424 32.9814
#
#
#
# Elastic Compliance Matrix: (Units=1/GPa)
#
#
# Indices 1 2 3 4 5 6 
#
# 1 0.010641 -0.001752 -0.008218 0.003347 -0.003687 0.005292
# 2 -0.001752 0.014500 -0.006166 -0.002801 -0.000615 0.002842
# 3 -0.008218 -0.006166 0.031880 -0.006313 0.003860 -0.010156
# 4 0.003347 -0.002801 -0.006313 0.053494 -0.004964 0.009701
# 5 -0.003687 -0.000615 0.003860 -0.004964 0.026935 -0.000407
# 6 0.005292 0.002842 -0.010156 0.009701 -0.000407 0.036092
#
#
# Mechanical properties :
#
#
# Convention : Reuss Voigt Hill
#
# Bulk Modulus (GPa) = 40.40438 52.41708 46.41073
# Shear Modulus (GPa) = 23.35761 30.48663 26.92212
#
# Velocity S-wave (km/s) = 3.34519 3.82174 3.59137
# Velocity P-wave (km/s) = 5.85470 6.67731 6.27949
#
# Compressibility (1/GPa) = 0.02474979
#
# Stress axis : x y z
#
# Youngs Moduli (GPa) = 93.97724 68.96373 31.36794
#
# Poissons Ratio (x) = 0.12081 0.25779
# Poissons Ratio (y) = 0.16463 0.19340
# Poissons Ratio (z) = 0.77233 0.42520
#
# Static dielectric constant tensor:
#      x y z
#    x 3.898550 -0.120620 0.014940 
#    y -0.120620 4.019790 0.142720 
#    z 0.014940 0.142720 3.844290 
# 
# 
# High freq. dielectric constant tensor:
#      x y z
#    x 1.827700 -0.005690 -0.000240 
#    y -0.005690 1.812670 -0.000450 
#    z -0.000240 -0.000450 1.824630 
# 
# From -- ./inp_files/348352.got.cif
#   From: 2010.06.25/outbox.cif.g09.slc.cpg/sg2_175_cif.got.tgz:348352.got - 2010.06.27 13:26:56.
