data_PCOD8040884
_publ_section_title
;
Structure prediction by ZEFSAII (Michael W. Deem and Ramdas Pophale) SiO2 
 PCOD8040884
Probable space group: P -1
;
_chemical_formula_sum "Si O2"
_cell_formula_units_Z 16
_cell_length_a 22.077455
_cell_length_b 11.597563
_cell_length_c 9.107303
_cell_angle_alpha 40.350010
_cell_angle_beta 47.082590
_cell_angle_gamma 30.877861
_cell_volume 772.301240
_symmetry_space_group_name_H-M "P -1"
_symmetry_group_IT_number 2
_symmetry_cell_setting 'triclinic'
loop_
_space_group_symop_operation_xyz
x,y,z
-x,-y,-z
loop_
_atom_site_type_symbol
_atom_site_label
_atom_site_fract_x
_atom_site_fract_y
_atom_site_fract_z
Si Si1 0.660708 0.353404 0.596483
Si Si2 0.308558 0.138538 0.559209
Si Si3 0.946257 0.911555 0.854551
Si Si4 0.080085 0.061351 0.466239
Si Si5 0.511039 0.901607 0.237005
Si Si6 0.296892 0.554778 0.248048
Si Si7 0.447347 0.823554 0.919175
Si Si8 0.950581 0.566909 0.354779
O O1 0.582316 0.607890 0.381868
O O2 0.683677 0.426644 0.634605
O O3 0.783253 0.127074 0.528763
O O4 0.598770 0.259852 0.817639
O O5 0.271638 0.384239 0.448597
O O6 0.191958 0.210496 0.635553
O O7 0.385169 0.044505 0.376951
O O8 0.381811 0.917496 0.777923
O O9 0.931335 0.872417 0.749947
O O10 0.042348 0.918437 0.700646
O O11 0.820489 0.164226 0.888276
O O12 0.999358 0.664636 0.095571
O O13 0.998243 0.315894 0.446651
O O14 0.574309 0.949878 0.191548
O O15 0.500000 0.000000 0.000000
O O16 0.412626 0.428861 0.086092
O O17 0.000000 0.500000 0.500000
#
# Coordination Sequence:
#
# PCOD8040884 Si02
#       8
#     2   2   2   2   2   2   2   2
#     4  11  22  38  68  96 131 169 217 267 324 382
#     4  11  21  43  69  93 130 169 224 272 318 387
#     4  10  22  41  70  93 128 173 218 276 323 383
#     4  10  23  43  64  97 128 172 222 269 322 386
#     4  11  25  42  61 100 139 172 204 265 341 389
#     4  10  18  39  67 101 122 161 221 276 316 374
#     4  11  22  39  71  99 128 167 223 273 311 393
#     4  12  27  44  64  97 134 175 222 272 329 391
#
# _framework density 20.717306000000001
#
# number of rings (size 3 to 8) (size 9 to 14) (size 15 to 20)
#    0.000    1.250    3.750    3.000    1.750    4.000 
#    4.500    0.000    0.000    0.000    0.000    0.000 
#    0.000    0.000    0.000    0.000    0.000    0.000 
#
# Total GULP energy -198432.000003 kJ/mol
# GULP energy per Si atom -12402.000000 kJ/mol
# Density = 2.067015 g / cm^3
# Si number density = 20.717306 Si / 1000 Ang^3
#
#
#
# Elastic Constant Matrix: (Units=GPa)
#
#
# Indices 1 2 3 4 5 6 
#
# 1 59.9472 34.0085 42.1097 7.6384 -0.0387 -11.8700
# 2 34.0085 89.0041 31.4952 15.7739 -0.6461 -8.3782
# 3 42.1097 31.4952 123.2127 10.5682 -1.8490 -5.2319
# 4 7.6384 15.7739 10.5682 21.3623 0.9339 -9.5987
# 5 -0.0387 -0.6461 -1.8490 0.9339 22.6944 2.6196
# 6 -11.8700 -8.3782 -5.2319 -9.5987 2.6196 27.4834
#
#
#
# Elastic Compliance Matrix: (Units=1/GPa)
#
#
# Indices 1 2 3 4 5 6 
#
# 1 0.027755 -0.007767 -0.007458 0.003991 -0.002076 0.009792
# 2 -0.007767 0.015964 -0.000671 -0.009662 0.001025 -0.002088
# 3 -0.007458 -0.000671 0.011048 -0.003573 0.001327 -0.002697
# 4 0.003991 -0.009662 -0.003573 0.063954 -0.005612 0.020969
# 5 -0.002076 0.001025 0.001327 -0.005612 0.045190 -0.006599
# 6 0.009792 -0.002088 -0.002697 0.020969 -0.006599 0.047417
#
#
# Mechanical properties :
#
#
# Convention : Reuss Voigt Hill
#
# Bulk Modulus (GPa) = 43.52363 54.15456 48.83910
# Shear Modulus (GPa) = 19.93791 25.27807 22.60799
#
# Velocity S-wave (km/s) = 3.10559 3.49684 3.30701
# Velocity P-wave (km/s) = 5.82353 6.51923 6.18118
#
# Compressibility (1/GPa) = 0.02297602
#
# Stress axis : x y z
#
# Youngs Moduli (GPa) = 36.02896 62.64211 90.51143
#
# Poissons Ratio (x) = 0.48653 0.67505
# Poissons Ratio (y) = 0.27983 0.06071
# Poissons Ratio (z) = 0.26871 0.04202
#
# Static dielectric constant tensor:
#      x y z
#    x 3.719710 -0.039170 -0.137150 
#    y -0.039170 4.060650 -0.063370 
#    z -0.137150 -0.063370 3.673120 
# 
# 
# High freq. dielectric constant tensor:
#      x y z
#    x 1.795360 -0.002190 -0.022690 
#    y -0.002190 1.819690 -0.002810 
#    z -0.022690 -0.002810 1.809440 
# 
# From -- ./inp_files/258133.got.cif
#   From: 2010.06.25/outbox.cif.g09.slc.cpg/sg2_130_cif.got.tgz:258133.got - 2010.06.27 13:26:56.
