data_PCOD8040946
_publ_section_title
;
Structure prediction by ZEFSAII (Michael W. Deem and Ramdas Pophale) SiO2 
 PCOD8040946
Probable space group: P -1
;
_chemical_formula_sum "Si O2"
_cell_formula_units_Z 16
_cell_length_a 9.849077
_cell_length_b 14.913901
_cell_length_c 11.587061
_cell_angle_alpha 79.421754
_cell_angle_beta 65.849670
_cell_angle_gamma 29.405459
_cell_volume 703.486436
_symmetry_space_group_name_H-M "P -1"
_symmetry_group_IT_number 2
_symmetry_cell_setting 'triclinic'
loop_
_space_group_symop_operation_xyz
x,y,z
-x,-y,-z
loop_
_atom_site_type_symbol
_atom_site_label
_atom_site_fract_x
_atom_site_fract_y
_atom_site_fract_z
Si Si1 0.451524 0.318646 0.137310
Si Si2 0.095146 0.685019 0.916661
Si Si3 0.754814 0.237404 0.837146
Si Si4 0.707956 0.564984 0.482504
Si Si5 0.824255 0.720310 0.803831
Si Si6 0.862626 0.685508 0.399068
Si Si7 0.245656 0.111448 0.775802
Si Si8 0.129388 0.866093 0.760564
O O1 0.343383 0.286120 0.116411
O O2 0.675719 0.177991 0.203879
O O3 0.138950 0.538691 0.240131
O O4 0.644918 0.279418 0.995951
O O5 0.466223 0.450404 0.824468
O O6 0.032194 0.822740 0.862047
O O7 0.864928 0.745147 0.906979
O O8 0.991952 0.727681 0.075263
O O9 0.076520 0.122862 0.759230
O O10 0.829969 0.097845 0.780897
O O11 0.684108 0.686976 0.473816
O O12 0.349676 0.724612 0.603884
O O13 0.822651 0.476840 0.334762
O O14 0.978722 0.375809 0.518953
O O15 0.588290 0.903438 0.760177
O O16 0.639908 0.881558 0.368235
#
# Coordination Sequence:
#
# PCOD8040946 Si02
#       8
#     2   2   2   2   2   2   2   2
#     4  10  18  40  64  93 126 166 213 270 317 381
#     4  12  26  43  65 102 138 166 210 277 334 385
#     4  12  22  39  70  98 125 172 222 263 326 386
#     4   9  21  43  61  92 133 172 216 264 321 383
#     4  11  25  42  64  96 138 173 206 269 337 380
#     4   9  19  36  67  91 127 164 216 278 310 367
#     4  12  22  41  67 103 126 164 227 271 321 388
#     4  11  22  42  69  93 129 175 218 267 320 385
#
# _framework density 22.743863000000001
#
# number of rings (size 3 to 8) (size 9 to 14) (size 15 to 20)
#    0.000    1.250    3.750    4.125    0.000    1.500 
#    6.750    0.625    0.000    0.000    0.000    0.000 
#    0.000    0.000    0.000    0.000    0.000    0.000 
#
# Total GULP energy -198244.648504 kJ/mol
# GULP energy per Si atom -12390.290531 kJ/mol
# Density = 2.269210 g / cm^3
# Si number density = 22.743863 Si / 1000 Ang^3
#
#
#
# Elastic Constant Matrix: (Units=GPa)
#
#
# Indices 1 2 3 4 5 6 
#
# 1 90.9230 21.3599 12.2624 -11.5432 6.8388 -1.9197
# 2 21.3599 80.5554 -4.6362 -8.7402 2.6596 10.9041
# 3 12.2624 -4.6362 69.9583 -6.3109 -9.5076 8.6203
# 4 -11.5432 -8.7402 -6.3109 31.0078 9.7319 -4.3168
# 5 6.8388 2.6596 -9.5076 9.7319 19.0557 2.9561
# 6 -1.9197 10.9041 8.6203 -4.3168 2.9561 19.0548
#
#
#
# Elastic Compliance Matrix: (Units=1/GPa)
#
#
# Indices 1 2 3 4 5 6 
#
# 1 0.015148 -0.004308 -0.005296 0.009153 -0.013797 0.010601
# 2 -0.004308 0.015284 0.003516 0.001210 0.002231 -0.010843
# 3 -0.005296 0.003516 0.018914 -0.003838 0.015026 -0.014303
# 4 0.009153 0.001210 -0.003838 0.047950 -0.032633 0.017892
# 5 -0.013797 0.002231 0.015026 -0.032633 0.085965 -0.030194
# 6 0.010601 -0.010843 -0.014303 0.017892 -0.030194 0.074961
#
#
# Mechanical properties :
#
#
# Convention : Reuss Voigt Hill
#
# Bulk Modulus (GPa) = 26.90314 33.26765 30.08540
# Shear Modulus (GPa) = 17.68110 27.98702 22.83406
#
# Velocity S-wave (km/s) = 2.79122 3.51170 3.17198
# Velocity P-wave (km/s) = 4.71617 5.57688 5.16449
#
# Compressibility (1/GPa) = 0.03717038
#
# Stress axis : x y z
#
# Youngs Moduli (GPa) = 66.01426 65.42867 52.87121
#
# Poissons Ratio (x) = 0.28186 0.28002
# Poissons Ratio (y) = 0.28438 -0.18592
# Poissons Ratio (z) = 0.34964 -0.23008
#
# Static dielectric constant tensor:
#      x y z
#    x 3.882530 0.240910 0.070170 
#    y 0.240910 4.140100 0.104370 
#    z 0.070170 0.104370 4.126710 
# 
# 
# High freq. dielectric constant tensor:
#      x y z
#    x 1.866660 0.022710 -0.010880 
#    y 0.022710 1.894480 0.005390 
#    z -0.010880 0.005390 1.900000 
# 
# From -- ./inp_files/347502.got.cif
#   From: 2010.06.25/outbox.cif.g09.slc.cpg/sg2_174_cif.got.tgz:347502.got - 2010.06.27 13:26:56.
