data_PCOD8040441
_publ_section_title
;
Structure prediction by ZEFSAII (Michael W. Deem and Ramdas Pophale) SiO2 
 PCOD8040441
Probable space group: P -1
;
_chemical_formula_sum "Si O2"
_cell_formula_units_Z 16
_cell_length_a 19.969730
_cell_length_b 12.249474
_cell_length_c 9.157199
_cell_angle_alpha 135.551386
_cell_angle_beta 47.812548
_cell_angle_gamma 157.407602
_cell_volume 601.973782
_symmetry_space_group_name_H-M "P -1"
_symmetry_group_IT_number 2
_symmetry_cell_setting 'triclinic'
loop_
_space_group_symop_operation_xyz
x,y,z
-x,-y,-z
loop_
_atom_site_type_symbol
_atom_site_label
_atom_site_fract_x
_atom_site_fract_y
_atom_site_fract_z
Si Si1 0.121930 0.046687 0.427387
Si Si2 0.802496 0.897198 0.310000
Si Si3 0.500377 0.373432 0.611373
Si Si4 0.841308 0.573217 0.833007
Si Si5 0.188606 0.599351 0.818612
Si Si6 0.906406 0.378025 0.744938
Si Si7 0.621382 0.323885 0.166844
Si Si8 0.284393 0.833388 0.606725
O O1 0.190132 0.188153 0.627893
O O2 0.302427 0.286648 0.302885
O O3 0.000000 0.000000 0.500000
O O4 0.999036 0.711205 0.284649
O O5 0.617712 0.644600 0.253464
O O6 0.837703 0.127295 0.523577
O O7 0.961138 0.073594 0.142506
O O8 0.501159 0.285928 0.368015
O O9 0.436896 0.161346 0.627795
O O10 0.831122 0.416200 0.809481
O O11 0.751447 0.382834 0.633440
O O12 0.722910 0.526439 0.054436
O O13 0.249150 0.533134 0.752893
O O14 0.328001 0.847979 0.724557
O O15 0.161848 0.704900 0.067806
O O16 0.114901 0.693586 0.727241
O O17 0.500000 0.000000 0.000000
#
# Coordination Sequence:
#
# PCOD8040441 Si02
#       8
#     2   2   2   2   2   2   2   2
#     4  12  26  44  62  92 142 186 208 259 345 408
#     4  11  21  42  72  96 126 175 231 267 322 397
#     4  12  23  41  67 101 132 172 222 275 323 396
#     4  10  18  36  68  98 128 163 215 280 325 376
#     4  11  23  40  68  95 135 174 214 268 336 390
#     4  10  18  36  70  99 126 163 220 276 328 368
#     4  11  22  40  64  98 136 166 221 275 326 381
#     4  11  19  36  67 103 126 160 227 276 323 376
#
# _framework density 26.579231
#
# number of rings (size 3 to 8) (size 9 to 14) (size 15 to 20)
#    0.000    1.000    7.500    2.250    0.000    0.500 
#    2.250    1.250    0.000    0.000    0.000    0.000 
#    0.000    0.000    0.000    0.000    0.000    0.000 
#
# Total GULP energy -198354.934172 kJ/mol
# GULP energy per Si atom -12397.183386 kJ/mol
# Density = 2.651874 g / cm^3
# Si number density = 26.579231 Si / 1000 Ang^3
#
#
#
# Elastic Constant Matrix: (Units=GPa)
#
#
# Indices 1 2 3 4 5 6 
#
# 1 120.2366 50.8387 28.6886 -21.5899 3.4652 2.4381
# 2 50.8387 168.5570 28.0658 -35.8777 16.2515 -9.4143
# 3 28.6886 28.0658 119.6805 -37.7537 12.5377 -4.4929
# 4 -21.5899 -35.8777 -37.7537 45.1530 -2.6699 13.7047
# 5 3.4652 16.2515 12.5377 -2.6699 37.4408 -9.9197
# 6 2.4381 -9.4143 -4.4929 13.7047 -9.9197 37.4767
#
#
#
# Elastic Compliance Matrix: (Units=1/GPa)
#
#
# Indices 1 2 3 4 5 6 
#
# 1 0.010145 -0.002435 -0.001095 0.002729 0.000046 -0.002388
# 2 -0.002435 0.008088 0.000931 0.006091 -0.003380 -0.000820
# 3 -0.001095 0.000931 0.012318 0.011329 -0.004566 -0.003570
# 4 0.002729 0.006091 0.011329 0.041734 -0.007570 -0.014555
# 5 0.000046 -0.003380 -0.004566 -0.007570 0.031750 0.009773
# 6 -0.002388 -0.000820 -0.003570 -0.014555 0.009773 0.034114
#
#
# Mechanical properties :
#
#
# Convention : Reuss Voigt Hill
#
# Bulk Modulus (GPa) = 39.43924 69.29561 54.36743
# Shear Modulus (GPa) = 32.93902 44.07282 38.50592
#
# Velocity S-wave (km/s) = 3.52416 4.07648 3.81034
# Velocity P-wave (km/s) = 5.60626 6.94873 6.31328
#
# Compressibility (1/GPa) = 0.02535546
#
# Stress axis : x y z
#
# Youngs Moduli (GPa) = 98.57543 123.63340 81.18384
#
# Poissons Ratio (x) = 0.30099 0.08886
# Poissons Ratio (y) = 0.23998 -0.07562
# Poissons Ratio (z) = 0.10790 -0.11516
#
# Static dielectric constant tensor:
#      x y z
#    x 5.047310 0.027240 -0.138360 
#    y 0.027240 5.257970 -0.164310 
#    z -0.138360 -0.164310 5.219120 
# 
# 
# High freq. dielectric constant tensor:
#      x y z
#    x 2.072550 -0.010520 -0.015500 
#    y -0.010520 2.083440 -0.008030 
#    z -0.015500 -0.008030 2.066620 
# 
# From -- ./inp_files/354579.got.cif
#   From: 2010.06.25/outbox.cif.g09.slc.cpg/sg2_178_cif.got.tgz:354579.got - 2010.06.27 13:26:56.
