data_PCOD8040366
_publ_section_title
;
Structure prediction by ZEFSAII (Michael W. Deem and Ramdas Pophale) SiO2 
 PCOD8040366
Probable space group: P -1
;
_chemical_formula_sum "Si O2"
_cell_formula_units_Z 16
_cell_length_a 18.660425
_cell_length_b 8.958953
_cell_length_c 8.331949
_cell_angle_alpha 59.653032
_cell_angle_beta 50.684687
_cell_angle_gamma 45.157090
_cell_volume 759.756891
_symmetry_space_group_name_H-M "P -1"
_symmetry_group_IT_number 2
_symmetry_cell_setting 'triclinic'
loop_
_space_group_symop_operation_xyz
x,y,z
-x,-y,-z
loop_
_atom_site_type_symbol
_atom_site_label
_atom_site_fract_x
_atom_site_fract_y
_atom_site_fract_z
Si Si1 0.232339 0.662009 0.365689
Si Si2 0.045915 0.293840 0.774503
Si Si3 0.747192 0.166466 0.264028
Si Si4 0.599739 0.525307 0.038904
Si Si5 0.299171 0.266906 0.069942
Si Si6 0.089532 0.595493 0.399698
Si Si7 0.171361 0.581402 0.826993
Si Si8 0.349342 0.824421 0.275637
O O1 0.126302 0.738327 0.353986
O O2 0.212587 0.556297 0.600668
O O3 0.245387 0.844341 0.314326
O O4 0.348727 0.490796 0.201145
O O5 0.049548 0.498797 0.641793
O O6 0.006775 0.259205 0.674285
O O7 0.166691 0.081865 0.764640
O O8 0.958919 0.339913 0.015460
O O9 0.672597 0.292483 0.144676
O O10 0.818583 0.256141 0.168804
O O11 0.662373 0.197293 0.507247
O O12 0.468383 0.613314 0.163557
O O13 0.605378 0.693710 0.046016
O O14 0.196165 0.390906 0.273644
O O15 0.353193 0.021283 0.127114
O O16 0.253348 0.348053 0.911744
#
# Coordination Sequence:
#
# PCOD8040366 Si02
#       8
#     2   2   2   2   2   2   2   2
#     4  10  22  39  54  83 123 149 178 236 285 332
#     4  10  18  36  63  82 109 149 193 228 277 334
#     4  10  20  36  60  88 109 143 196 235 270 334
#     4  10  21  38  59  83 114 152 189 231 277 330
#     4   9  18  37  59  86 109 147 194 232 269 336
#     4   9  19  36  61  84 112 146 185 235 282 333
#     4   9  20  35  57  81 120 147 179 230 286 331
#     4  11  20  37  61  84 114 148 188 235 284 325
#
# _framework density 21.059369
#
# number of rings (size 3 to 8) (size 9 to 14) (size 15 to 20)
#    0.000    2.250    1.250    2.250    0.000    0.500 
#    2.250    6.250    0.000    0.000    0.000    0.000 
#    0.000    0.000    0.000    0.000    0.000    0.000 
#
# Total GULP energy -198334.513245 kJ/mol
# GULP energy per Si atom -12395.907078 kJ/mol
# Density = 2.101144 g / cm^3
# Si number density = 21.059369 Si / 1000 Ang^3
#
#
#
# Elastic Constant Matrix: (Units=GPa)
#
#
# Indices 1 2 3 4 5 6 
#
# 1 74.5805 22.9360 16.6545 -7.3749 -1.2772 4.1197
# 2 22.9360 79.7332 35.7055 -14.2983 2.0521 -11.0316
# 3 16.6545 35.7055 131.8253 3.3730 1.7566 -6.0544
# 4 -7.3749 -14.2983 3.3730 28.1558 2.0290 -2.5123
# 5 -1.2772 2.0521 1.7566 2.0290 28.0120 0.6089
# 6 4.1197 -11.0316 -6.0544 -2.5123 0.6089 16.6444
#
#
#
# Elastic Compliance Matrix: (Units=1/GPa)
#
#
# Indices 1 2 3 4 5 6 
#
# 1 0.015683 -0.004936 -0.001027 0.000973 0.001232 -0.007425
# 2 -0.004936 0.019934 -0.004350 0.010833 -0.002514 0.014579
# 3 -0.001027 -0.004350 0.008990 -0.003542 -0.000038 0.000108
# 4 0.000973 0.010833 -0.003542 0.043076 -0.003915 0.012296
# 5 0.001232 -0.002514 -0.000038 -0.003915 0.036310 -0.003904
# 6 -0.007425 0.014579 0.000108 0.012296 -0.003904 0.073619
#
#
# Mechanical properties :
#
#
# Convention : Reuss Voigt Hill
#
# Bulk Modulus (GPa) = 41.69850 48.52568 45.11209
# Shear Modulus (GPa) = 22.10129 28.61864 25.35996
#
# Velocity S-wave (km/s) = 3.24308 3.69039 3.47394
# Velocity P-wave (km/s) = 5.81952 6.42270 6.12853
#
# Compressibility (1/GPa) = 0.02398168
#
# Stress axis : x y z
#
# Youngs Moduli (GPa) = 63.76299 50.16542 111.23775
#
# Poissons Ratio (x) = 0.24762 0.11421
# Poissons Ratio (y) = 0.31474 0.48385
# Poissons Ratio (z) = 0.06547 0.21821
#
# Static dielectric constant tensor:
#      x y z
#    x 3.859900 -0.033300 -0.100820 
#    y -0.033300 3.346940 -0.151400 
#    z -0.100820 -0.151400 4.012980 
# 
# 
# High freq. dielectric constant tensor:
#      x y z
#    x 1.815870 -0.002530 -0.013250 
#    y -0.002530 1.787210 -0.008000 
#    z -0.013250 -0.008000 1.840800 
# 
# From -- ./inp_files/208934.got.cif
#   From: 2010.06.25/outbox.cif.g09.slc.cpg/sg2_105_cif.got.tgz:208934.got - 2010.06.27 13:26:56.
