data_PCOD8040606
_publ_section_title
;
Structure prediction by ZEFSAII (Michael W. Deem and Ramdas Pophale) SiO2 
 PCOD8040606
Probable space group: P -1
;
_chemical_formula_sum "Si O2"
_cell_formula_units_Z 14
_cell_length_a 12.157376
_cell_length_b 9.110498
_cell_length_c 8.032874
_cell_angle_alpha 93.380963
_cell_angle_beta 96.495866
_cell_angle_gamma 49.205638
_cell_volume 669.113861
_symmetry_space_group_name_H-M "P -1"
_symmetry_group_IT_number 2
_symmetry_cell_setting 'triclinic'
loop_
_space_group_symop_operation_xyz
x,y,z
-x,-y,-z
loop_
_atom_site_type_symbol
_atom_site_label
_atom_site_fract_x
_atom_site_fract_y
_atom_site_fract_z
Si Si1 0.267923 0.473965 0.330901
Si Si2 0.674633 0.086373 0.906450
Si Si3 0.097063 0.724817 0.836775
Si Si4 0.484073 0.622329 0.846375
Si Si5 0.603690 0.583938 0.307386
Si Si6 0.105080 0.347315 0.149635
Si Si7 0.109386 0.856780 0.195537
O O1 0.373448 0.409177 0.185305
O O2 0.359077 0.373304 0.508194
O O3 0.165982 0.421610 0.283686
O O4 0.167016 0.707765 0.348629
O O5 0.522910 0.207858 0.784421
O O6 0.770718 0.129733 0.841388
O O7 0.754307 0.860860 0.912533
O O8 0.639962 0.155992 0.099293
O O9 0.258443 0.540581 0.801214
O O10 0.991462 0.682474 0.760587
O O11 0.079979 0.765193 0.035524
O O12 0.037426 0.929669 0.758812
O O13 0.441169 0.549679 0.682986
O O14 0.500000 0.500000 0.000000
O O15 0.000000 0.500000 0.000000
#
# Coordination Sequence:
#
# PCOD8040606 Si02
#       7
#     2   2   2   2   2   2   2
#     4  12  23  37  61  94 125 154 197 248 297 359
#     4  10  21  40  65  87 116 160 198 248 302 344
#     4  10  21  39  62  87 120 160 198 245 299 348
#     4  10  19  37  64  92 113 152 204 251 288 339
#     4  11  22  37  65  91 122 153 199 248 303 354
#     4  11  25  40  62  88 121 158 205 244 290 362
#     4  10  18  37  64  88 116 157 203 244 291 345
#
# _framework density 20.923196000000001
#
# number of rings (size 3 to 8) (size 9 to 14) (size 15 to 20)
#    0.000    1.429    5.714    1.286    0.000    2.286 
#    0.000    0.000    0.000    0.000    0.000    0.000 
#    0.000    0.000    0.000    0.000    0.000    0.000 
#
# Total GULP energy -173473.313793 kJ/mol
# GULP energy per Si atom -12390.950985 kJ/mol
# Density = 2.087557 g / cm^3
# Si number density = 20.923196 Si / 1000 Ang^3
#
#
#
# Elastic Constant Matrix: (Units=GPa)
#
#
# Indices 1 2 3 4 5 6 
#
# 1 104.1539 37.3921 27.2629 1.2374 22.9204 1.7119
# 2 37.3921 151.8067 39.6181 -16.6221 11.1432 -13.6931
# 3 27.2629 39.6181 76.9734 -1.7702 24.8250 3.2717
# 4 1.2374 -16.6221 -1.7702 18.2520 -2.5053 5.5971
# 5 22.9204 11.1432 24.8250 -2.5053 28.7729 2.1075
# 6 1.7119 -13.6931 3.2717 5.5971 2.1075 33.3687
#
#
#
# Elastic Compliance Matrix: (Units=1/GPa)
#
#
# Indices 1 2 3 4 5 6 
#
# 1 0.012830 -0.003026 -0.000048 -0.004764 -0.009385 -0.000503
# 2 -0.003026 0.009486 -0.004849 0.007925 0.003392 0.002980
# 3 -0.000048 -0.004849 0.020714 -0.003897 -0.016123 -0.002346
# 4 -0.004764 0.007925 -0.003897 0.065772 0.010387 -0.007810
# 5 -0.009385 0.003392 -0.016123 0.010387 0.055866 -0.001816
# 6 -0.000503 0.002980 -0.002346 -0.007810 -0.001816 0.032871
#
#
# Mechanical properties :
#
#
# Convention : Reuss Voigt Hill
#
# Bulk Modulus (GPa) = 36.78605 60.16447 48.47526
# Shear Modulus (GPa) = 22.47729 31.32278 26.90004
#
# Velocity S-wave (km/s) = 3.28117 3.87335 3.58949
# Velocity P-wave (km/s) = 5.65459 6.98721 6.35593
#
# Compressibility (1/GPa) = 0.02718422
#
# Stress axis : x y z
#
# Youngs Moduli (GPa) = 77.94068 105.42246 48.27545
#
# Poissons Ratio (x) = 0.31899 0.00233
# Poissons Ratio (y) = 0.23583 0.23409
# Poissons Ratio (z) = 0.00376 0.51119
#
# Static dielectric constant tensor:
#      x y z
#    x 3.899650 -0.075250 0.338880 
#    y -0.075250 4.251940 0.015540 
#    z 0.338880 0.015540 3.509370 
# 
# 
# High freq. dielectric constant tensor:
#      x y z
#    x 1.821020 -0.012610 0.024280 
#    y -0.012610 1.825810 -0.001860 
#    z 0.024280 -0.001860 1.779680 
# 
# From -- ./inp_files/180438.got.cif
#   From: 2010.06.25/outbox.cif.g09.slc.cpg/sg2_91_cif.got.tgz:180438.got - 2010.06.27 13:26:56.
