data_PCOD8040938
_publ_section_title
;
Structure prediction by ZEFSAII (Michael W. Deem and Ramdas Pophale) SiO2 
 PCOD8040938
Probable space group: P -1
;
_chemical_formula_sum "Si O2"
_cell_formula_units_Z 16
_cell_length_a 9.260987
_cell_length_b 12.951173
_cell_length_c 9.410084
_cell_angle_alpha 135.651195
_cell_angle_beta 100.167125
_cell_angle_gamma 79.061226
_cell_volume 773.248851
_symmetry_space_group_name_H-M "P -1"
_symmetry_group_IT_number 2
_symmetry_cell_setting 'triclinic'
loop_
_space_group_symop_operation_xyz
x,y,z
-x,-y,-z
loop_
_atom_site_type_symbol
_atom_site_label
_atom_site_fract_x
_atom_site_fract_y
_atom_site_fract_z
Si Si1 0.820420 0.339829 0.294164
Si Si2 0.518966 0.356064 0.666764
Si Si3 0.151274 0.648337 0.373301
Si Si4 0.535851 0.322900 0.101211
Si Si5 0.931061 0.845396 0.334721
Si Si6 0.904136 0.682284 0.882798
Si Si7 0.350559 0.350710 0.363150
Si Si8 0.591078 0.850331 0.323405
O O1 0.855403 0.276361 0.396383
O O2 0.700774 0.251697 0.100513
O O3 0.750690 0.507185 0.461423
O O4 0.963184 0.340356 0.225002
O O5 0.695110 0.328060 0.653850
O O6 0.465074 0.529760 0.850724
O O7 0.441591 0.280710 0.444002
O O8 0.462875 0.279915 0.720393
O O9 0.132186 0.473554 0.207222
O O10 0.019910 0.726813 0.334679
O O11 0.464113 0.390563 0.300816
O O12 0.448497 0.195070 0.889380
O O13 0.763804 0.866080 0.382245
O O14 0.939329 0.792241 0.121601
O O15 0.000000 0.000000 0.500000
O O16 0.763257 0.752977 0.834932
O O17 0.500000 0.000000 0.500000
#
# Coordination Sequence:
#
# PCOD8040938 Si02
#       8
#     2   2   2   2   2   2   2   2
#     4  10  21  35  67 102 131 157 198 263 320 375
#     4  11  21  39  70  98 126 159 206 265 315 371
#     4  11  21  41  66 100 129 158 204 262 320 373
#     4  11  20  41  69  96 129 160 211 257 314 369
#     4  12  28  46  61  86 133 173 211 258 309 371
#     4  11  23  39  68  98 129 165 205 256 318 376
#     4  10  18  40  63 101 129 157 200 265 316 369
#     4  12  28  45  63  89 125 174 218 256 305 373
#
# _framework density 20.691915000000002
#
# number of rings (size 3 to 8) (size 9 to 14) (size 15 to 20)
#    0.000    1.000    5.000    3.750    8.750    0.000 
#    0.000    2.500    0.000    0.000    0.000    0.000 
#    0.000    0.000    0.000    0.000    0.000    0.000 
#
# Total GULP energy -198335.389194 kJ/mol
# GULP energy per Si atom -12395.961825 kJ/mol
# Density = 2.064482 g / cm^3
# Si number density = 20.691915 Si / 1000 Ang^3
#
#
#
# Elastic Constant Matrix: (Units=GPa)
#
#
# Indices 1 2 3 4 5 6 
#
# 1 148.6532 26.4647 46.3803 -8.8819 12.6385 6.4288
# 2 26.4647 25.5978 36.5427 -6.5657 6.7866 -2.3770
# 3 46.3803 36.5427 115.7123 -7.2029 15.6289 -5.3361
# 4 -8.8819 -6.5657 -7.2029 22.6264 -3.0012 4.8194
# 5 12.6385 6.7866 15.6289 -3.0012 38.9757 -11.5632
# 6 6.4288 -2.3770 -5.3361 4.8194 -11.5632 38.6312
#
#
#
# Elastic Compliance Matrix: (Units=1/GPa)
#
#
# Indices 1 2 3 4 5 6 
#
# 1 0.008638 -0.006715 -0.001125 0.001419 -0.001886 -0.002748
# 2 -0.006715 0.081214 -0.021814 0.013553 -0.001926 0.000834
# 3 -0.001125 -0.021814 0.016194 -0.002060 -0.002296 0.000652
# 4 0.001419 0.013553 -0.002060 0.049278 0.000076 -0.005812
# 5 -0.001886 -0.001926 -0.002296 0.000076 0.030171 0.008900
# 6 -0.002748 0.000834 0.000652 -0.005812 0.008900 0.029873
#
#
# Mechanical properties :
#
#
# Convention : Reuss Voigt Hill
#
# Bulk Modulus (GPa) = 21.39632 56.52652 38.96142
# Shear Modulus (GPa) = 17.22623 32.08503 24.65563
#
# Velocity S-wave (km/s) = 2.88846 3.94205 3.45564
# Velocity P-wave (km/s) = 4.63542 6.93521 5.89848
#
# Compressibility (1/GPa) = 0.04673700
#
# Stress axis : x y z
#
# Youngs Moduli (GPa) = 115.77342 12.31318 61.75119
#
# Poissons Ratio (x) = 0.08268 0.06948
# Poissons Ratio (y) = 0.77742 1.34705
# Poissons Ratio (z) = 0.13026 0.26860
#
# Static dielectric constant tensor:
#      x y z
#    x 4.174970 -0.195580 0.372730 
#    y -0.195580 3.666200 -0.446720 
#    z 0.372730 -0.446720 3.959930 
# 
# 
# High freq. dielectric constant tensor:
#      x y z
#    x 1.834720 -0.003350 0.010770 
#    y -0.003350 1.776410 -0.035210 
#    z 0.010770 -0.035210 1.810880 
# 
# From -- ./inp_files/190786.got.cif
#   From: 2010.06.25/outbox.cif.g09.slc.cpg/sg2_96_cif.got.tgz:190786.got - 2010.06.27 13:26:56.
