data_PCOD8040200
_publ_section_title
;
Structure prediction by ZEFSAII (Michael W. Deem and Ramdas Pophale) SiO2 
 PCOD8040200
Probable space group: P -1
;
_chemical_formula_sum "Si O2"
_cell_formula_units_Z 14
_cell_length_a 11.410995
_cell_length_b 9.099831
_cell_length_c 14.036792
_cell_angle_alpha 63.863326
_cell_angle_beta 31.578369
_cell_angle_gamma 65.389715
_cell_volume 682.590397
_symmetry_space_group_name_H-M "P -1"
_symmetry_group_IT_number 2
_symmetry_cell_setting 'triclinic'
loop_
_space_group_symop_operation_xyz
x,y,z
-x,-y,-z
loop_
_atom_site_type_symbol
_atom_site_label
_atom_site_fract_x
_atom_site_fract_y
_atom_site_fract_z
Si Si1 0.038704 0.011966 0.202191
Si Si2 0.227185 0.959956 0.799164
Si Si3 0.714699 0.353731 0.567117
Si Si4 0.517066 0.971511 0.228040
Si Si5 0.928648 0.387421 0.213742
Si Si6 0.692722 0.419809 0.171423
Si Si7 0.942259 0.862292 0.506188
O O1 0.037998 0.890884 0.326262
O O2 0.274505 0.980140 0.993079
O O3 0.823836 0.982629 0.290849
O O4 0.014940 0.196820 0.203937
O O5 0.412296 0.054765 0.701232
O O6 0.306033 0.768068 0.804699
O O7 0.000000 0.000000 0.000000
O O8 0.787615 0.424846 0.396006
O O9 0.559310 0.494659 0.688486
O O10 0.937064 0.309864 0.490500
O O11 0.574375 0.195461 0.696579
O O12 0.328940 0.127078 0.309746
O O13 0.771324 0.444849 0.218086
O O14 0.142793 0.493241 0.038225
O O15 0.000000 0.000000 0.500000
#
# Coordination Sequence:
#
# PCOD8040200 Si02
#       7
#     2   2   2   2   2   2   2
#     4  10  18  36  57  87 114 150 185 236 285 331
#     4   9  21  39  60  85 115 148 190 232 288 348
#     4  11  21  36  58  89 113 146 193 236 277 332
#     4  10  20  36  58  85 117 147 189 234 281 334
#     4  10  19  34  57  83 117 140 185 239 281 331
#     4  10  21  37  57  83 115 150 184 234 291 330
#     4  10  21  34  55  88 117 148 195 231 274 336
#
# _framework density 20.510102
#
# number of rings (size 3 to 8) (size 9 to 14) (size 15 to 20)
#    0.000    2.000    4.286    0.429    2.000    4.000 
#    0.000    2.143    0.000    4.286    0.000    0.000 
#    0.000    0.000    0.000    0.000    0.000    0.000 
#
# Total GULP energy -173532.376832 kJ/mol
# GULP energy per Si atom -12395.169774 kJ/mol
# Density = 2.046342 g / cm^3
# Si number density = 20.510102 Si / 1000 Ang^3
#
#
#
# Elastic Constant Matrix: (Units=GPa)
#
#
# Indices 1 2 3 4 5 6 
#
# 1 85.1968 21.0349 18.7659 12.3655 -0.6869 -6.3886
# 2 21.0349 77.0843 29.3763 26.8003 -0.9646 -15.7799
# 3 18.7659 29.3763 73.8201 34.4298 2.7886 -5.9916
# 4 12.3655 26.8003 34.4298 25.5210 -8.7160 -6.9894
# 5 -0.6869 -0.9646 2.7886 -8.7160 28.6380 5.9454
# 6 -6.3886 -15.7799 -5.9916 -6.9894 5.9454 24.8260
#
#
#
# Elastic Compliance Matrix: (Units=1/GPa)
#
#
# Indices 1 2 3 4 5 6 
#
# 1 0.012937 -0.002007 -0.001345 -0.002194 -0.000552 0.001243
# 2 -0.002007 0.028017 0.015950 -0.053603 -0.019181 0.010644
# 3 -0.001345 0.015950 0.061618 -0.112218 -0.040209 0.002699
# 4 -0.002194 -0.053603 -0.112218 0.278780 0.095167 -0.006023
# 5 -0.000552 -0.019181 -0.040209 0.095167 0.069613 -0.011917
# 6 0.001243 0.010644 0.002699 -0.006023 -0.011917 0.049175
#
#
# Mechanical properties :
#
#
# Convention : Reuss Voigt Hill
#
# Bulk Modulus (GPa) = 7.82671 41.60617 24.71644
# Shear Modulus (GPa) = 9.66122 26.92527 18.29324
#
# Velocity S-wave (km/s) = 2.17272 3.62716 2.98973
# Velocity P-wave (km/s) = 3.18097 6.15398 4.89847
#
# Compressibility (1/GPa) = 0.12776755
#
# Stress axis : x y z
#
# Youngs Moduli (GPa) = 77.30042 35.69210 16.22903
#
# Poissons Ratio (x) = 0.07164 0.02182
# Poissons Ratio (y) = 0.15516 -0.25885
# Poissons Ratio (z) = 0.10394 -0.56928
#
# Static dielectric constant tensor:
#      x y z
#    x 4.375710 -0.286750 -0.169480 
#    y -0.286750 3.537880 0.299930 
#    z -0.169480 0.299930 3.789450 
# 
# 
# High freq. dielectric constant tensor:
#      x y z
#    x 1.798390 -0.012940 0.001430 
#    y -0.012940 1.779190 0.026640 
#    z 0.001430 0.026640 1.804000 
# 
# From -- ./inp_files/270034.got.cif
#   From: 2010.06.25/outbox.cif.g09.slc.cpg/sg2_136_cif.got.tgz:270034.got - 2010.06.27 13:26:56.
