data_PCOD8040664
_publ_section_title
;
Structure prediction by ZEFSAII (Michael W. Deem and Ramdas Pophale) SiO2 
 PCOD8040664
Probable space group: P -1
;
_chemical_formula_sum "Si O2"
_cell_formula_units_Z 16
_cell_length_a 9.600627
_cell_length_b 13.025177
_cell_length_c 15.011785
_cell_angle_alpha 149.736417
_cell_angle_beta 79.257378
_cell_angle_gamma 113.493508
_cell_volume 815.440486
_symmetry_space_group_name_H-M "P -1"
_symmetry_group_IT_number 2
_symmetry_cell_setting 'triclinic'
loop_
_space_group_symop_operation_xyz
x,y,z
-x,-y,-z
loop_
_atom_site_type_symbol
_atom_site_label
_atom_site_fract_x
_atom_site_fract_y
_atom_site_fract_z
Si Si1 0.712627 0.500247 0.343392
Si Si2 0.824542 0.286047 0.868885
Si Si3 0.379027 0.061639 0.892113
Si Si4 0.707099 0.108384 0.940229
Si Si5 0.818484 0.447796 0.484747
Si Si6 0.329113 0.270586 0.216675
Si Si7 0.588729 0.479366 0.059709
Si Si8 0.181778 0.124125 0.535792
O O1 0.768804 0.522364 0.454519
O O2 0.523429 0.430321 0.310190
O O3 0.806780 0.733514 0.448625
O O4 0.765387 0.321352 0.160873
O O5 0.805757 0.186494 0.895890
O O6 0.781472 0.083570 0.650268
O O7 0.703370 0.384223 0.937851
O O8 0.000000 0.500000 0.000000
O O9 0.517439 0.016950 0.884221
O O10 0.269121 0.820648 0.675732
O O11 0.275483 0.103140 0.011745
O O12 0.447762 0.285563 0.990071
O O13 0.728609 0.895652 0.814718
O O14 0.767482 0.582029 0.664578
O O15 0.000000 0.500000 0.500000
O O16 0.691506 0.712893 0.281211
O O17 0.500000 0.500000 0.000000
O O18 0.000000 0.000000 0.500000
#
# Coordination Sequence:
#
# PCOD8040664 Si02
#       8
#     2   2   2   2   2   2   2   2
#     4  11  20  40  67  94 120 166 220 257 309 391
#     4  11  22  41  65  96 132 170 219 267 325 383
#     4  10  21  41  63  89 126 160 215 261 310 390
#     4  10  18  37  69  94 116 162 220 267 297 376
#     4  12  26  38  58  98 135 164 204 265 330 381
#     4  11  20  39  68  89 118 167 216 252 313 377
#     4  11  25  44  66  97 131 168 217 277 328 383
#     4  12  23  41  71  98 129 170 225 271 318 387
#
# _framework density 19.621299
#
# number of rings (size 3 to 8) (size 9 to 14) (size 15 to 20)
#    0.000    1.000    7.500    1.875    3.500    2.000 
#    2.250    1.250    0.000    0.000    0.000    0.000 
#    0.000    0.000    0.000    0.000    0.000    0.000 
#
# Total GULP energy -198303.205609 kJ/mol
# GULP energy per Si atom -12393.950351 kJ/mol
# Density = 1.957664 g / cm^3
# Si number density = 19.621299 Si / 1000 Ang^3
#
#
#
# Elastic Constant Matrix: (Units=GPa)
#
#
# Indices 1 2 3 4 5 6 
#
# 1 71.9412 56.1975 48.2212 7.4541 -14.9209 8.2681
# 2 56.1975 100.0157 54.9857 12.0364 -7.1032 10.5111
# 3 48.2212 54.9857 155.9987 8.4892 -15.8558 10.8851
# 4 7.4541 12.0364 8.4892 31.9305 8.6344 -0.1643
# 5 -14.9209 -7.1032 -15.8558 8.6344 25.1074 -6.2268
# 6 8.2681 10.5111 10.8851 -0.1643 -6.2268 29.3709
#
#
#
# Elastic Compliance Matrix: (Units=1/GPa)
#
#
# Indices 1 2 3 4 5 6 
#
# 1 0.029749 -0.013702 -0.002730 -0.004794 0.013838 0.000448
# 2 -0.013702 0.019486 -0.002739 -0.002262 -0.004334 -0.003033
# 3 -0.002730 -0.002739 0.008710 -0.001586 0.003462 -0.000754
# 4 -0.004794 -0.002262 -0.001586 0.038565 -0.017963 -0.000846
# 5 0.013838 -0.004334 0.003462 -0.017963 0.057277 0.008415
# 6 0.000448 -0.003033 -0.000754 -0.000846 0.008415 0.037066
#
#
# Mechanical properties :
#
#
# Convention : Reuss Voigt Hill
#
# Bulk Modulus (GPa) = 51.00964 71.86273 61.43619
# Shear Modulus (GPa) = 21.21079 28.51849 24.86464
#
# Velocity S-wave (km/s) = 3.29144 3.81654 3.56368
# Velocity P-wave (km/s) = 6.36382 7.49171 6.95068
#
# Compressibility (1/GPa) = 0.01960414
#
# Stress axis : x y z
#
# Youngs Moduli (GPa) = 33.61467 51.31812 114.80609
#
# Poissons Ratio (x) = 0.70316 0.31342
# Poissons Ratio (y) = 0.46059 0.31442
# Poissons Ratio (z) = 0.09177 0.14055
#
# Static dielectric constant tensor:
#      x y z
#    x 3.343620 0.099910 -0.184310 
#    y 0.099910 3.609260 0.075380 
#    z -0.184310 0.075380 4.049120 
# 
# 
# High freq. dielectric constant tensor:
#      x y z
#    x 1.734830 0.018490 -0.013930 
#    y 0.018490 1.769930 0.005470 
#    z -0.013930 0.005470 1.784240 
# 
# From -- ./inp_files/501155.got.cif
#   From: 2010.06.25/outbox.cif.g09.slc.cpg/sg2_251_cif.got.tgz:501155.got - 2010.06.27 13:26:56.
