data_PCOD8040569
_publ_section_title
;
Structure prediction by ZEFSAII (Michael W. Deem and Ramdas Pophale) SiO2 
 PCOD8040569
Probable space group: P -1
;
_chemical_formula_sum "Si O2"
_cell_formula_units_Z 14
_cell_length_a 11.660594
_cell_length_b 11.151352
_cell_length_c 9.021820
_cell_angle_alpha 50.469948
_cell_angle_beta 69.261949
_cell_angle_gamma 101.747136
_cell_volume 680.293845
_symmetry_space_group_name_H-M "P -1"
_symmetry_group_IT_number 2
_symmetry_cell_setting 'triclinic'
loop_
_space_group_symop_operation_xyz
x,y,z
-x,-y,-z
loop_
_atom_site_type_symbol
_atom_site_label
_atom_site_fract_x
_atom_site_fract_y
_atom_site_fract_z
Si Si1 0.893732 0.067839 0.488989
Si Si2 0.853625 0.038136 0.190859
Si Si3 0.681572 0.708194 0.037789
Si Si4 0.359945 0.855438 0.785672
Si Si5 0.816214 0.556637 0.893618
Si Si6 0.636507 0.420813 0.804276
Si Si7 0.814470 0.713001 0.268965
O O1 0.827618 0.032609 0.382792
O O2 0.757479 0.928422 0.775636
O O3 0.000000 0.000000 0.500000
O O4 0.998042 0.293232 0.315850
O O5 0.723858 0.057750 0.173954
O O6 0.829498 0.848111 0.289300
O O7 0.024476 0.218921 0.926449
O O8 0.507558 0.579474 0.165939
O O9 0.703002 0.709470 0.203053
O O10 0.759100 0.610824 0.017221
O O11 0.500000 0.000000 0.500000
O O12 0.235780 0.662783 0.897109
O O13 0.412150 0.790405 0.955579
O O14 0.737426 0.573242 0.770468
O O15 0.738816 0.502077 0.543305
#
# Coordination Sequence:
#
# PCOD8040569 Si02
#       7
#     2   2   2   2   2   2   2
#     4  10  18  37  62  95 118 153 216 258 291 357
#     4  11  23  40  63  92 131 161 206 256 305 375
#     4  11  20  38  65  98 121 157 214 261 300 360
#     4  10  24  42  64  91 123 167 207 255 317 355
#     4   9  21  37  64  89 122 159 213 251 308 353
#     4  10  23  39  61  92 124 164 203 255 311 365
#     4  11  23  37  65  91 127 167 204 249 313 369
#
# _framework density 20.579343000000001
#
# number of rings (size 3 to 8) (size 9 to 14) (size 15 to 20)
#    0.857    0.857    2.857    3.429    4.000    1.143 
#    0.000    0.714    0.000    0.000    0.000    0.000 
#    0.000    0.000    0.000    0.000    0.000    0.000 
#
# Total GULP energy -173450.445332 kJ/mol
# GULP energy per Si atom -12389.317524 kJ/mol
# Density = 2.053250 g / cm^3
# Si number density = 20.579343 Si / 1000 Ang^3
#
#
#
# Elastic Constant Matrix: (Units=GPa)
#
#
# Indices 1 2 3 4 5 6 
#
# 1 78.2951 15.6660 30.4106 14.3407 4.1021 4.3110
# 2 15.6660 53.2539 32.6325 -6.6627 -1.1709 14.8866
# 3 30.4106 32.6325 140.6653 9.4505 26.9737 5.9820
# 4 14.3407 -6.6627 9.4505 18.7161 1.4175 5.8123
# 5 4.1021 -1.1709 26.9737 1.4175 25.1492 2.7190
# 6 4.3110 14.8866 5.9820 5.8123 2.7190 37.6906
#
#
#
# Elastic Compliance Matrix: (Units=1/GPa)
#
#
# Indices 1 2 3 4 5 6 
#
# 1 0.017694 -0.008304 -0.000480 -0.017400 -0.002229 0.004176
# 2 -0.008304 0.036650 -0.010772 0.029121 0.014852 -0.017378
# 3 -0.000480 -0.010772 0.012935 -0.010440 -0.014238 0.004894
# 4 -0.017400 0.029121 -0.010440 0.088388 0.012832 -0.022411
# 5 -0.002229 0.014852 -0.014238 0.012832 0.056381 -0.009398
# 6 0.004176 -0.017378 0.004894 -0.022411 -0.009398 0.036275
#
#
# Mechanical properties :
#
#
# Convention : Reuss Voigt Hill
#
# Bulk Modulus (GPa) = 35.50430 47.73694 41.62062
# Shear Modulus (GPa) = 16.84489 29.21152 23.02820
#
# Velocity S-wave (km/s) = 2.86411 3.77166 3.34877
# Velocity P-wave (km/s) = 5.31294 6.49724 5.93470
#
# Compressibility (1/GPa) = 0.02816560
#
# Stress axis : x y z
#
# Youngs Moduli (GPa) = 56.51630 27.28526 77.30714
#
# Poissons Ratio (x) = 0.22659 0.03711
# Poissons Ratio (y) = 0.46933 0.83279
# Poissons Ratio (z) = 0.02713 0.29393
#
# Static dielectric constant tensor:
#      x y z
#    x 4.899260 0.566080 0.831830 
#    y 0.566080 3.630690 -0.200830 
#    z 0.831830 -0.200830 5.008810 
# 
# 
# High freq. dielectric constant tensor:
#      x y z
#    x 1.790700 0.023800 0.002970 
#    y 0.023800 1.773570 -0.008720 
#    z 0.002970 -0.008720 1.818050 
# 
# From -- ./inp_files/256824.got.cif
#   From: 2010.06.25/outbox.cif.g09.slc.cpg/sg2_129_cif.got.tgz:256824.got - 2010.06.27 13:26:56.
