data_PCOD8040400
_publ_section_title
;
Structure prediction by ZEFSAII (Michael W. Deem and Ramdas Pophale) SiO2 
 PCOD8040400
Probable space group: P -1
;
_chemical_formula_sum "Si O2"
_cell_formula_units_Z 14
_cell_length_a 9.321923
_cell_length_b 8.538641
_cell_length_c 11.594991
_cell_angle_alpha 71.199812
_cell_angle_beta 129.045531
_cell_angle_gamma 108.340918
_cell_volume 670.669724
_symmetry_space_group_name_H-M "P -1"
_symmetry_group_IT_number 2
_symmetry_cell_setting 'triclinic'
loop_
_space_group_symop_operation_xyz
x,y,z
-x,-y,-z
loop_
_atom_site_type_symbol
_atom_site_label
_atom_site_fract_x
_atom_site_fract_y
_atom_site_fract_z
Si Si1 0.686298 0.892627 0.087895
Si Si2 0.651424 0.237045 0.921885
Si Si3 0.150081 0.908893 0.660021
Si Si4 0.574282 0.519349 0.662792
Si Si5 0.941362 0.630448 0.277800
Si Si6 0.267681 0.663659 0.610025
Si Si7 0.011017 0.382066 0.191998
O O1 0.483518 0.776201 0.028751
O O2 0.843336 0.787242 0.153059
O O3 0.727152 0.967156 0.219941
O O4 0.682237 0.044333 0.957935
O O5 0.559160 0.329140 0.749851
O O6 0.851066 0.350153 0.021384
O O7 0.288769 0.830655 0.660233
O O8 0.021187 0.759383 0.694518
O O9 0.000000 0.000000 0.500000
O O10 0.500000 0.500000 0.500000
O O11 0.459281 0.634671 0.653770
O O12 0.783893 0.616728 0.756050
O O13 0.797427 0.499357 0.307306
O O14 0.120866 0.692165 0.430640
O O15 0.005499 0.560143 0.207036
#
# Coordination Sequence:
#
# PCOD8040400 Si02
#       7
#     2   2   2   2   2   2   2
#     4  10  20  39  66  90 123 155 209 255 304 349
#     4  10  23  41  61  91 123 165 199 252 307 359
#     4  10  20  36  65  90 122 156 202 258 300 347
#     4  12  23  40  65  89 126 162 203 248 303 371
#     4  10  18  36  64  94 117 156 210 252 294 357
#     4  10  20  35  61  96 120 156 206 253 297 355
#     4  10  23  39  62  90 124 164 201 247 307 360
#
# _framework density 20.874656999999999
#
# number of rings (size 3 to 8) (size 9 to 14) (size 15 to 20)
#    0.000    1.714    4.286    0.429    2.000    0.571 
#    5.143    1.429    6.286    0.000    0.000    0.000 
#    0.000    0.000    0.000    0.000    0.000    0.000 
#
# Total GULP energy -173545.956201 kJ/mol
# GULP energy per Si atom -12396.139729 kJ/mol
# Density = 2.082715 g / cm^3
# Si number density = 20.874657 Si / 1000 Ang^3
#
#
#
# Elastic Constant Matrix: (Units=GPa)
#
#
# Indices 1 2 3 4 5 6 
#
# 1 120.7308 23.8939 15.7529 -2.0948 24.4031 -13.1760
# 2 23.8939 52.8091 16.4350 -11.5416 10.3831 -11.0441
# 3 15.7529 16.4350 72.2597 -24.7355 7.2114 -4.2023
# 4 -2.0948 -11.5416 -24.7355 46.0595 -0.6313 10.2513
# 5 24.4031 10.3831 7.2114 -0.6313 31.6571 -2.4164
# 6 -13.1760 -11.0441 -4.2023 10.2513 -2.4164 31.3875
#
#
#
# Elastic Compliance Matrix: (Units=1/GPa)
#
#
# Indices 1 2 3 4 5 6 
#
# 1 0.010738 -0.002749 -0.001467 -0.001843 -0.006817 0.003421
# 2 -0.002749 0.023806 -0.003046 0.002915 -0.004516 0.005515
# 3 -0.001467 -0.003046 0.018137 0.009439 -0.002004 -0.002496
# 4 -0.001843 0.002915 0.009439 0.029219 -0.001725 -0.008160
# 5 -0.006817 -0.004516 -0.002004 -0.001725 0.038657 -0.001180
# 6 0.003421 0.005515 -0.002496 -0.008160 -0.001180 0.037477
#
#
# Mechanical properties :
#
#
# Convention : Reuss Voigt Hill
#
# Bulk Modulus (GPa) = 26.20748 39.77372 32.99060
# Shear Modulus (GPa) = 26.98663 34.46867 30.72765
#
# Velocity S-wave (km/s) = 3.59944 4.06793 3.84084
# Velocity P-wave (km/s) = 5.46412 6.41553 5.95884
#
# Compressibility (1/GPa) = 0.03815704
#
# Stress axis : x y z
#
# Youngs Moduli (GPa) = 93.13029 42.00581 55.13474
#
# Poissons Ratio (x) = 0.11546 0.08090
# Poissons Ratio (y) = 0.25599 0.16794
# Poissons Ratio (z) = 0.13666 0.12795
#
# Static dielectric constant tensor:
#      x y z
#    x 3.691800 -0.079500 0.166600 
#    y -0.079500 3.782600 -0.113210 
#    z 0.166600 -0.113210 3.914370 
# 
# 
# High freq. dielectric constant tensor:
#      x y z
#    x 1.802910 -0.003870 0.019970 
#    y -0.003870 1.806840 -0.013210 
#    z 0.019970 -0.013210 1.827450 
# 
# From -- ./inp_files/176464.got.cif
#   From: 2010.06.25/outbox.cif.g09.slc.cpg/sg2_89_cif.got.tgz:176464.got - 2010.06.27 13:26:56.
