data_PCOD8040675
_publ_section_title
;
Structure prediction by ZEFSAII (Michael W. Deem and Ramdas Pophale) SiO2 
 PCOD8040675
Probable space group: P -1
;
_chemical_formula_sum "Si O2"
_cell_formula_units_Z 16
_cell_length_a 15.858466
_cell_length_b 9.404295
_cell_length_c 20.773512
_cell_angle_alpha 50.956491
_cell_angle_beta 160.363982
_cell_angle_gamma 127.970412
_cell_volume 805.718755
_symmetry_space_group_name_H-M "P -1"
_symmetry_group_IT_number 2
_symmetry_cell_setting 'triclinic'
loop_
_space_group_symop_operation_xyz
x,y,z
-x,-y,-z
loop_
_atom_site_type_symbol
_atom_site_label
_atom_site_fract_x
_atom_site_fract_y
_atom_site_fract_z
Si Si1 0.704774 0.863886 0.467803
Si Si2 0.686765 0.534245 0.217792
Si Si3 0.780768 0.668485 0.109929
Si Si4 0.709652 0.073169 0.936776
Si Si5 0.335291 0.724599 0.486091
Si Si6 0.322305 0.326005 0.620630
Si Si7 0.270325 0.115922 0.371990
Si Si8 0.978294 0.775333 0.446926
O O1 0.763204 0.695749 0.510141
O O2 0.737798 0.814671 0.580156
O O3 0.414295 0.909242 0.229270
O O4 0.915946 0.023190 0.554049
O O5 0.822610 0.584088 0.233812
O O6 0.725355 0.708274 0.243826
O O7 0.812436 0.358570 0.386085
O O8 0.390540 0.477621 0.013623
O O9 0.051025 0.699276 0.260854
O O10 0.653092 0.859027 0.975217
O O11 0.007013 0.131346 0.140513
O O12 0.560634 0.204505 0.839494
O O13 0.395137 0.544434 0.621915
O O14 0.525318 0.749183 0.556106
O O15 0.353770 0.907156 0.492160
O O16 0.093380 0.242593 0.524351
#
# Coordination Sequence:
#
# PCOD8040675 Si02
#       8
#     2   2   2   2   2   2   2   2
#     4  10  22  39  61  83 126 160 189 239 304 352
#     4  10  20  30  62  86 117 156 191 245 294 348
#     4  10  18  38  55  88 120 152 197 242 295 351
#     4   9  21  38  58  84 120 160 189 242 298 348
#     4  10  21  39  65  86 117 151 206 250 284 346
#     4  10  22  38  59  89 120 155 193 248 292 353
#     4  10  22  43  64  84 116 164 197 244 297 344
#     4  11  19  36  56  91 116 156 195 238 299 351
#
# _framework density 19.858046000000002
#
# number of rings (size 3 to 8) (size 9 to 14) (size 15 to 20)
#    0.750    1.250    2.500    1.875    1.750    1.000 
#    2.250    8.125    0.000    0.000    0.000    0.000 
#    0.000    0.000    0.000    0.000    0.000    0.000 
#
# Total GULP energy -198221.325974 kJ/mol
# GULP energy per Si atom -12388.832873 kJ/mol
# Density = 1.981285 g / cm^3
# Si number density = 19.858046 Si / 1000 Ang^3
#
#
#
# Elastic Constant Matrix: (Units=GPa)
#
#
# Indices 1 2 3 4 5 6 
#
# 1 82.5811 9.2797 35.3414 25.1055 7.0847 -2.9105
# 2 9.2797 62.2197 35.4662 4.1061 6.9009 2.7304
# 3 35.3414 35.4662 88.7700 13.4141 1.7619 1.5022
# 4 25.1055 4.1061 13.4141 35.0906 -1.9372 -0.1783
# 5 7.0847 6.9009 1.7619 -1.9372 27.6767 6.5645
# 6 -2.9105 2.7304 1.5022 -0.1783 6.5645 28.1403
#
#
#
# Elastic Compliance Matrix: (Units=1/GPa)
#
#
# Indices 1 2 3 4 5 6 
#
# 1 0.018913 0.002302 -0.006622 -0.011618 -0.006652 0.003565
# 2 0.002302 0.021727 -0.009349 -0.000917 -0.005451 -0.000105
# 3 -0.006622 -0.009349 0.017715 -0.000771 0.003194 -0.001473
# 4 -0.011618 -0.000917 -0.000771 0.037556 0.006434 -0.002335
# 5 -0.006652 -0.005451 0.003194 0.006434 0.041823 -0.010045
# 6 0.003565 -0.000105 -0.001473 -0.002335 -0.010045 0.038322
#
#
# Mechanical properties :
#
#
# Convention : Reuss Voigt Hill
#
# Bulk Modulus (GPa) = 32.23966 43.74948 37.99457
# Shear Modulus (GPa) = 23.39373 28.41375 25.90374
#
# Velocity S-wave (km/s) = 3.43599 3.78675 3.61563
# Velocity P-wave (km/s) = 5.65789 6.41859 6.05021
#
# Compressibility (1/GPa) = 0.03101769
#
# Stress axis : x y z
#
# Youngs Moduli (GPa) = 52.87347 46.02508 56.45064
#
# Poissons Ratio (x) = -0.10595 0.37382
# Poissons Ratio (y) = -0.12172 0.52774
# Poissons Ratio (z) = 0.35013 0.43027
#
# Static dielectric constant tensor:
#      x y z
#    x 3.334270 -0.057770 -0.021900 
#    y -0.057770 3.684770 0.083850 
#    z -0.021900 0.083850 3.558340 
# 
# 
# High freq. dielectric constant tensor:
#      x y z
#    x 1.744650 0.000110 0.003370 
#    y 0.000110 1.779600 0.007390 
#    z 0.003370 0.007390 1.764310 
# 
# From -- ./inp_files/597357.got.cif
#   From: 2010.06.25/outbox.cif.g09.slc.cpg/sg2_299_cif.got.tgz:597357.got - 2010.06.27 13:26:56.
