data_PCOD8040436
_publ_section_title
;
Structure prediction by ZEFSAII (Michael W. Deem and Ramdas Pophale) SiO2 
 PCOD8040436
Probable space group: P -1
;
_chemical_formula_sum "Si O2"
_cell_formula_units_Z 16
_cell_length_a 17.886172
_cell_length_b 11.908215
_cell_length_c 9.141214
_cell_angle_alpha 132.671823
_cell_angle_beta 133.718564
_cell_angle_gamma 30.364470
_cell_volume 693.413976
_symmetry_space_group_name_H-M "P -1"
_symmetry_group_IT_number 2
_symmetry_cell_setting 'triclinic'
loop_
_space_group_symop_operation_xyz
x,y,z
-x,-y,-z
loop_
_atom_site_type_symbol
_atom_site_label
_atom_site_fract_x
_atom_site_fract_y
_atom_site_fract_z
Si Si1 0.883099 0.530420 0.143117
Si Si2 0.073341 0.765211 0.840973
Si Si3 0.437875 0.370657 0.946195
Si Si4 0.429441 0.067235 0.805379
Si Si5 0.628075 0.323546 0.394679
Si Si6 0.075847 0.180851 0.605959
Si Si7 0.177839 0.589650 0.328576
Si Si8 0.446159 0.210681 0.532775
O O1 0.980676 0.306616 0.178644
O O2 0.753357 0.733751 0.257722
O O3 0.966666 0.591700 0.255076
O O4 0.811270 0.521694 0.900897
O O5 0.257157 0.587565 0.927268
O O6 0.005250 0.809307 0.630276
O O7 0.000000 0.000000 0.000000
O O8 0.494319 0.145550 0.882309
O O9 0.475328 0.324669 0.780589
O O10 0.537594 0.390397 0.179841
O O11 0.471807 0.871299 0.589690
O O12 0.500000 0.000000 0.000000
O O13 0.500000 0.500000 0.500000
O O14 0.743695 0.335904 0.536385
O O15 0.739584 0.058000 0.354394
O O16 0.998745 0.199464 0.668123
O O17 0.264825 0.408637 0.420753
O O18 0.500000 0.000000 0.500000
#
# Coordination Sequence:
#
# PCOD8040436 Si02
#       8
#     2   2   2   2   2   2   2   2
#     4  11  24  42  73 103 136 190 241 287 349 426
#     4  11  23  46  70 104 148 185 228 299 358 421
#     4  10  22  43  66 100 141 181 236 287 352 428
#     4  10  18  36  68 100 133 178 231 292 343 407
#     4  12  27  46  75 106 139 190 246 291 359 432
#     4  12  26  47  71 105 145 186 238 296 359 427
#     4  12  25  47  70 104 145 188 235 299 362 422
#     4  10  22  40  68 100 144 179 229 291 361 407
#
# _framework density 23.074241000000001
#
# number of rings (size 3 to 8) (size 9 to 14) (size 15 to 20)
#    0.000    1.000    2.500    4.875    3.500    0.500 
#    0.000    0.000    0.000    0.000    0.000    0.000 
#    0.000    0.000    0.000    0.000    0.000    0.000 
#
# Total GULP energy -198267.502506 kJ/mol
# GULP energy per Si atom -12391.718907 kJ/mol
# Density = 2.302172 g / cm^3
# Si number density = 23.074241 Si / 1000 Ang^3
#
#
#
# Elastic Constant Matrix: (Units=GPa)
#
#
# Indices 1 2 3 4 5 6 
#
# 1 106.8841 33.8371 48.8518 15.3076 -6.2094 -8.9496
# 2 33.8371 113.9025 37.7267 8.7955 -11.1887 -1.1171
# 3 48.8518 37.7267 178.5445 15.3384 -24.1854 -22.2540
# 4 15.3076 8.7955 15.3384 33.6117 -0.2157 -0.5425
# 5 -6.2094 -11.1887 -24.1854 -0.2157 42.4077 1.7805
# 6 -8.9496 -1.1171 -22.2540 -0.5425 1.7805 29.3522
#
#
#
# Elastic Compliance Matrix: (Units=1/GPa)
#
#
# Indices 1 2 3 4 5 6 
#
# 1 0.011818 -0.002506 -0.002202 -0.003695 -0.000280 0.001787
# 2 -0.002506 0.010188 -0.001361 -0.000918 0.001604 -0.001522
# 3 -0.002202 -0.001361 0.007759 -0.002080 0.003527 0.004907
# 4 -0.003695 -0.000918 -0.002080 0.032580 -0.001718 -0.002032
# 5 -0.000280 0.001604 0.003527 -0.001718 0.025922 0.001045
# 6 0.001787 -0.001522 0.004907 -0.002032 0.001045 0.038175
#
#
# Mechanical properties :
#
#
# Convention : Reuss Voigt Hill
#
# Bulk Modulus (GPa) = 56.72826 71.12915 63.92870
# Shear Modulus (GPa) = 34.61277 39.66869 37.14073
#
# Velocity S-wave (km/s) = 3.87726 4.15079 4.01636
# Velocity P-wave (km/s) = 6.68451 7.33929 7.01954
#
# Compressibility (1/GPa) = 0.01762790
#
# Stress axis : x y z
#
# Youngs Moduli (GPa) = 84.61508 98.15292 128.88525
#
# Poissons Ratio (x) = 0.24600 0.28378
# Poissons Ratio (y) = 0.21207 0.17536
# Poissons Ratio (z) = 0.18631 0.13355
#
# Static dielectric constant tensor:
#      x y z
#    x 0.886950 1.978880 3.793360 
#    y 1.978880 3.378730 -2.310680 
#    z 3.793360 -2.310680 -0.767870 
# 
# 
# High freq. dielectric constant tensor:
#      x y z
#    x 1.897410 0.005810 -0.020250 
#    y 0.005810 1.918480 0.007740 
#    z -0.020250 0.007740 1.927000 
# 
# From -- ./inp_files/333815.got.cif
#   From: 2010.06.25/outbox.cif.g09.slc.cpg/sg2_167_cif.got.tgz:333815.got - 2010.06.27 13:26:56.
