data_PCOD8040785
_publ_section_title
;
Structure prediction by ZEFSAII (Michael W. Deem and Ramdas Pophale) SiO2 
 PCOD8040785
Probable space group: P -1
;
_chemical_formula_sum "Si O2"
_cell_formula_units_Z 12
_cell_length_a 8.649916
_cell_length_b 15.724116
_cell_length_c 9.147481
_cell_angle_alpha 132.274930
_cell_angle_beta 123.805027
_cell_angle_gamma 40.145284
_cell_volume 591.209962
_symmetry_space_group_name_H-M "P -1"
_symmetry_group_IT_number 2
_symmetry_cell_setting 'triclinic'
loop_
_space_group_symop_operation_xyz
x,y,z
-x,-y,-z
loop_
_atom_site_type_symbol
_atom_site_label
_atom_site_fract_x
_atom_site_fract_y
_atom_site_fract_z
Si Si1 0.819130 0.485215 0.971061
Si Si2 0.972360 0.308296 0.589942
Si Si3 0.523635 0.805458 0.177979
Si Si4 0.105405 0.436949 0.324917
Si Si5 0.533719 0.115992 0.100421
Si Si6 0.997086 0.956019 0.784389
O O1 0.837136 0.361667 0.741001
O O2 0.562132 0.651097 0.023096
O O3 0.000000 0.500000 0.000000
O O4 0.915318 0.433317 0.127179
O O5 0.260211 0.215258 0.648062
O O6 0.851336 0.455459 0.599602
O O7 0.922596 0.207989 0.369365
O O8 0.277909 0.923667 0.277093
O O9 0.511339 0.856378 0.064809
O O10 0.354233 0.269754 0.272100
O O11 0.000000 0.500000 0.500000
O O12 0.807061 0.046672 0.205550
O O13 0.500000 0.000000 0.000000
O O14 0.000000 0.000000 0.000000
#
# Coordination Sequence:
#
# PCOD8040785 Si02
#       6
#     2   2   2   2   2   2
#     4   8  15  35  62  83 108 155 195 235 277 345
#     4  10  18  38  67  81 113 157 199 243 273 344
#     4   9  17  39  63  86 111 152 203 231 283 355
#     4  10  20  35  61  91 113 152 195 236 301 339
#     4  11  22  39  56  83 129 153 182 247 300 340
#     4  10  23  35  56  94 113 153 201 235 286 347
#
# _framework density 20.297356000000001
#
# number of rings (size 3 to 8) (size 9 to 14) (size 15 to 20)
#    0.000    2.667    5.000    0.500    4.667    0.667 
#    0.000    0.833    0.000    5.000    0.000    0.000 
#    0.000    0.000    0.000    0.000    0.000    0.000 
#
# Total GULP energy -148669.663294 kJ/mol
# GULP energy per Si atom -12389.138608 kJ/mol
# Density = 2.025116 g / cm^3
# Si number density = 20.297356 Si / 1000 Ang^3
#
#
#
# Elastic Constant Matrix: (Units=GPa)
#
#
# Indices 1 2 3 4 5 6 
#
# 1 95.9702 58.7885 48.1985 18.0076 -1.7325 -13.2664
# 2 58.7885 108.8616 42.4390 27.2833 -2.9057 -13.6381
# 3 48.1985 42.4390 145.4013 25.9673 -6.6801 6.4397
# 4 18.0076 27.2833 25.9673 37.7576 5.5891 -8.1249
# 5 -1.7325 -2.9057 -6.6801 5.5891 34.0647 1.7726
# 6 -13.2664 -13.6381 6.4397 -8.1249 1.7726 13.6417
#
#
#
# Elastic Compliance Matrix: (Units=1/GPa)
#
#
# Indices 1 2 3 4 5 6 
#
# 1 0.019279 -0.007005 -0.005930 0.003999 -0.002333 0.017229
# 2 -0.007005 0.015807 -0.001404 -0.006063 0.001407 0.005859
# 3 -0.005930 -0.001404 0.011891 -0.009009 0.004363 -0.018716
# 4 0.003999 -0.006063 -0.009009 0.042985 -0.010645 0.029064
# 5 -0.002333 0.001407 0.004363 -0.010645 0.032662 -0.013506
# 6 0.017229 0.005859 -0.018716 0.029064 -0.013506 0.123818
#
#
# Mechanical properties :
#
#
# Convention : Reuss Voigt Hill
#
# Bulk Modulus (GPa) = 54.64765 72.12057 63.38411
# Shear Modulus (GPa) = 17.77968 30.47992 24.12980
#
# Velocity S-wave (km/s) = 2.96287 3.87934 3.45166
# Velocity P-wave (km/s) = 6.21987 7.46156 6.86883
#
# Compressibility (1/GPa) = 0.01829905
#
# Stress axis : x y z
#
# Youngs Moduli (GPa) = 51.87095 63.26159 84.09534
#
# Poissons Ratio (x) = 0.44315 0.49871
# Poissons Ratio (y) = 0.36336 0.11805
# Poissons Ratio (z) = 0.30761 0.08880
#
# Static dielectric constant tensor:
#      x y z
#    x 3.593210 -0.500980 -0.321460 
#    y -0.500980 4.201250 0.160640 
#    z -0.321460 0.160640 4.850280 
# 
# 
# High freq. dielectric constant tensor:
#      x y z
#    x 1.748270 -0.022810 -0.010930 
#    y -0.022810 1.795630 0.018360 
#    z -0.010930 0.018360 1.797310 
# 
# From -- ./inp_files/204002.got.cif
#   From: 2010.06.25/outbox.cif.g09.slc.cpg/sg2_103_cif.got.tgz:204002.got - 2010.06.27 13:26:56.
