data_PCOD8040051
_publ_section_title
;
Structure prediction by ZEFSAII (Michael W. Deem and Ramdas Pophale) SiO2 
 PCOD8040051
Probable space group: P -1
;
_chemical_formula_sum "Si O2"
_cell_formula_units_Z 16
_cell_length_a 15.172425
_cell_length_b 15.160822
_cell_length_c 8.909556
_cell_angle_alpha 132.958177
_cell_angle_beta 37.312315
_cell_angle_gamma 142.820012
_cell_volume 744.323637
_symmetry_space_group_name_H-M "P -1"
_symmetry_group_IT_number 2
_symmetry_cell_setting 'triclinic'
loop_
_space_group_symop_operation_xyz
x,y,z
-x,-y,-z
loop_
_atom_site_type_symbol
_atom_site_label
_atom_site_fract_x
_atom_site_fract_y
_atom_site_fract_z
Si Si1 0.630887 0.726155 0.549538
Si Si2 0.939259 0.604684 0.681448
Si Si3 0.277521 0.183377 0.800941
Si Si4 0.865916 0.039772 0.680136
Si Si5 0.269107 0.463587 0.645659
Si Si6 0.072051 0.702135 0.924973
Si Si7 0.328986 0.600809 0.411354
Si Si8 0.053265 0.859706 0.640472
O O1 0.705220 0.743520 0.299595
O O2 0.418010 0.611044 0.704972
O O3 0.720085 0.671697 0.477412
O O4 0.677497 0.883607 0.725069
O O5 0.738366 0.500511 0.765239
O O6 0.000000 0.500000 0.500000
O O7 0.960328 0.681263 0.901011
O O8 0.070546 0.731826 0.530756
O O9 0.464317 0.269660 0.735607
O O10 0.211933 0.015315 0.673114
O O11 0.138545 0.188496 0.096238
O O12 0.942372 0.140413 0.544762
O O13 0.840127 0.130363 0.945074
O O14 0.000000 0.000000 0.500000
O O15 0.295689 0.491758 0.465365
O O16 0.073628 0.418309 0.900631
O O17 0.224976 0.676514 0.667305
#
# Coordination Sequence:
#
# PCOD8040051 Si02
#       8
#     2   2   2   2   2   2   2   2
#     4   9  19  35  58  93 124 153 199 261 296 359
#     4  10  23  41  59  88 124 161 205 248 299 360
#     4   9  20  39  64  91 122 159 206 251 302 361
#     4  11  22  38  62  94 120 154 205 249 306 366
#     4  10  18  35  62  88 122 158 199 249 308 354
#     4  11  22  39  60  86 127 162 201 255 302 358
#     4  10  22  41  61  88 122 165 209 248 296 370
#     4  10  21  39  66  89 121 162 197 255 312 353
#
# _framework density 21.496027000000002
#
# number of rings (size 3 to 8) (size 9 to 14) (size 15 to 20)
#    0.000    2.000    1.250    1.875    3.500    1.500 
#    2.250   10.625    0.000    0.000    0.000    0.000 
#    0.000    0.000    0.000    0.000    0.000    0.000 
#
# Total GULP energy -198337.297829 kJ/mol
# GULP energy per Si atom -12396.081114 kJ/mol
# Density = 2.144710 g / cm^3
# Si number density = 21.496027 Si / 1000 Ang^3
#
#
#
# Elastic Constant Matrix: (Units=GPa)
#
#
# Indices 1 2 3 4 5 6 
#
# 1 124.7417 67.1990 33.1166 8.4698 13.0127 6.3967
# 2 67.1990 148.2594 46.7597 4.6993 4.7211 3.2006
# 3 33.1166 46.7597 59.0132 8.9754 10.2446 10.6460
# 4 8.4698 4.6993 8.9754 33.9958 9.0640 -3.1537
# 5 13.0127 4.7211 10.2446 9.0640 29.1117 6.3184
# 6 6.3967 3.2006 10.6460 -3.1537 6.3184 41.2729
#
#
#
# Elastic Compliance Matrix: (Units=1/GPa)
#
#
# Indices 1 2 3 4 5 6 
#
# 1 0.011334 -0.004312 -0.002177 -0.000826 -0.003251 -0.000426
# 2 -0.004312 0.010727 -0.006821 0.000991 0.001983 0.001368
# 3 -0.002177 -0.006821 0.026058 -0.004731 -0.004415 -0.005541
# 4 -0.000826 0.000991 -0.004731 0.033852 -0.009830 0.005363
# 5 -0.003251 0.001983 -0.004415 -0.009830 0.041309 -0.005586
# 6 -0.000426 0.001368 -0.005541 0.005363 -0.005586 0.026883
#
#
# Mechanical properties :
#
#
# Convention : Reuss Voigt Hill
#
# Bulk Modulus (GPa) = 46.51606 69.57385 58.04496
# Shear Modulus (GPa) = 27.18141 33.20534 30.19338
#
# Velocity S-wave (km/s) = 3.55982 3.93456 3.75187
# Velocity P-wave (km/s) = 6.21150 7.28541 6.76978
#
# Compressibility (1/GPa) = 0.02149795
#
# Stress axis : x y z
#
# Youngs Moduli (GPa) = 88.22658 93.22627 38.37647
#
# Poissons Ratio (x) = 0.40197 0.08355
# Poissons Ratio (y) = 0.38042 0.26178
# Poissons Ratio (z) = 0.19209 0.63593
#
# Static dielectric constant tensor:
#      x y z
#    x 4.416580 0.068560 0.346340 
#    y 0.068560 4.457460 0.056940 
#    z 0.346340 0.056940 3.608180 
# 
# 
# High freq. dielectric constant tensor:
#      x y z
#    x 1.852320 0.004620 0.013780 
#    y 0.004620 1.865970 0.007110 
#    z 0.013780 0.007110 1.805330 
# 
# From -- ./inp_files/314085.got.cif
#   From: 2010.06.25/outbox.cif.g09.slc.cpg/sg2_158_cif.got.tgz:314085.got - 2010.06.27 13:26:56.
