data_PCOD8040433
_publ_section_title
;
Structure prediction by ZEFSAII (Michael W. Deem and Ramdas Pophale) SiO2 
 PCOD8040433
Probable space group: P -1
;
_chemical_formula_sum "Si O2"
_cell_formula_units_Z 16
_cell_length_a 8.927565
_cell_length_b 8.388037
_cell_length_c 14.464736
_cell_angle_alpha 44.175738
_cell_angle_beta 81.089220
_cell_angle_gamma 73.996988
_cell_volume 724.095587
_symmetry_space_group_name_H-M "P -1"
_symmetry_group_IT_number 2
_symmetry_cell_setting 'triclinic'
loop_
_space_group_symop_operation_xyz
x,y,z
-x,-y,-z
loop_
_atom_site_type_symbol
_atom_site_label
_atom_site_fract_x
_atom_site_fract_y
_atom_site_fract_z
Si Si1 0.867716 0.105510 0.896634
Si Si2 0.128274 0.783006 0.356027
Si Si3 0.118131 0.074268 0.527038
Si Si4 0.357141 0.399251 0.583686
Si Si5 0.631994 0.398642 0.307655
Si Si6 0.691697 0.610055 0.713776
Si Si7 0.598320 0.945880 0.754212
Si Si8 0.371418 0.184848 0.991034
O O1 0.923194 0.185688 0.758806
O O2 0.756540 0.340427 0.853161
O O3 0.788694 0.891945 0.974851
O O4 0.000000 0.000000 0.000000
O O5 0.206819 0.506299 0.488246
O O6 0.968055 0.869766 0.390451
O O7 0.259990 0.922200 0.313233
O O8 0.173308 0.298336 0.389112
O O9 0.269066 0.862405 0.611462
O O10 0.000000 0.000000 0.500000
O O11 0.500000 0.500000 0.500000
O O12 0.309263 0.479219 0.660362
O O13 0.424713 0.118066 0.685366
O O14 0.451868 0.385658 0.344759
O O15 0.647202 0.551695 0.152593
O O16 0.627028 0.760778 0.746587
O O17 0.588818 0.812000 0.906252
O O18 0.500000 0.000000 0.000000
#
# Coordination Sequence:
#
# PCOD8040433 Si02
#       8
#     2   2   2   2   2   2   2   2
#     4  11  27  47  71  98 138 175 226 289 334 399
#     4  10  22  44  66  97 136 183 225 266 351 409
#     4  12  24  42  68 103 139 176 222 283 343 395
#     4  10  18  36  67  94 128 182 221 264 339 402
#     4  12  24  42  70  98 138 180 225 281 331 400
#     4  12  25  44  66 104 140 171 230 286 334 395
#     4  10  21  39  70  98 137 178 225 278 334 400
#     4  11  22  46  69  95 132 186 229 263 338 413
#
# _framework density 22.096530000000001
#
# number of rings (size 3 to 8) (size 9 to 14) (size 15 to 20)
#    0.000    1.000    5.000    2.625    1.750    3.000 
#    2.250    3.750    0.000    0.000    0.000    0.000 
#    0.000    0.000    0.000    0.000    0.000    0.000 
#
# Total GULP energy -198394.679605 kJ/mol
# GULP energy per Si atom -12399.667475 kJ/mol
# Density = 2.204624 g / cm^3
# Si number density = 22.096530 Si / 1000 Ang^3
#
#
#
# Elastic Constant Matrix: (Units=GPa)
#
#
# Indices 1 2 3 4 5 6 
#
# 1 87.4276 24.5528 47.5187 1.7472 19.2081 -6.7331
# 2 24.5528 113.4851 29.2021 11.4877 15.2541 -9.5101
# 3 47.5187 29.2021 121.6921 8.6812 16.5971 -1.0801
# 4 1.7472 11.4877 8.6812 44.2290 -3.3253 1.8862
# 5 19.2081 15.2541 16.5971 -3.3253 43.9820 -3.0335
# 6 -6.7331 -9.5101 -1.0801 1.8862 -3.0335 34.5000
#
#
#
# Elastic Compliance Matrix: (Units=1/GPa)
#
#
# Indices 1 2 3 4 5 6 
#
# 1 0.015768 -0.001340 -0.005260 0.000345 -0.004262 0.002150
# 2 -0.001340 0.010265 -0.001392 -0.002631 -0.002479 0.002450
# 3 -0.005260 -0.001392 0.010923 -0.001643 -0.001543 -0.001114
# 4 0.000345 -0.002631 -0.001643 0.023907 0.003069 -0.001746
# 5 -0.004262 -0.002479 -0.001543 0.003069 0.026312 0.000582
# 6 0.002150 0.002450 -0.001114 -0.001746 0.000582 0.030192
#
#
# Mechanical properties :
#
#
# Convention : Reuss Voigt Hill
#
# Bulk Modulus (GPa) = 47.68291 58.35023 53.01657
# Shear Modulus (GPa) = 35.62692 39.29762 37.46227
#
# Velocity S-wave (km/s) = 4.01974 4.22174 4.12198
# Velocity P-wave (km/s) = 6.57044 7.08720 6.83371
#
# Compressibility (1/GPa) = 0.02097187
#
# Stress axis : x y z
#
# Youngs Moduli (GPa) = 63.41821 97.42000 91.54756
#
# Poissons Ratio (x) = 0.13053 0.48154
# Poissons Ratio (y) = 0.08497 0.12747
# Poissons Ratio (z) = 0.33358 0.13565
#
# Static dielectric constant tensor:
#      x y z
#    x 4.031840 -0.016700 -0.069200 
#    y -0.016700 6.746790 -2.002700 
#    z -0.069200 -2.002700 6.241410 
# 
# 
# High freq. dielectric constant tensor:
#      x y z
#    x 1.860400 -0.004610 0.004070 
#    y -0.004610 1.874740 0.003390 
#    z 0.004070 0.003390 1.876090 
# 
# From -- ./inp_files/494249.got.cif
#   From: 2010.06.25/outbox.cif.g09.slc.cpg/sg2_248_cif.got.tgz:494249.got - 2010.06.27 13:26:56.
