data_PCOD8040929
_publ_section_title
;
Structure prediction by ZEFSAII (Michael W. Deem and Ramdas Pophale) SiO2 
 PCOD8040929
Probable space group: P -1
;
_chemical_formula_sum "Si O2"
_cell_formula_units_Z 16
_cell_length_a 20.906454
_cell_length_b 8.400797
_cell_length_c 11.247650
_cell_angle_alpha 39.762185
_cell_angle_beta 137.398333
_cell_angle_gamma 138.877055
_cell_volume 770.914304
_symmetry_space_group_name_H-M "P -1"
_symmetry_group_IT_number 2
_symmetry_cell_setting 'triclinic'
loop_
_space_group_symop_operation_xyz
x,y,z
-x,-y,-z
loop_
_atom_site_type_symbol
_atom_site_label
_atom_site_fract_x
_atom_site_fract_y
_atom_site_fract_z
Si Si1 0.607264 0.774950 0.360343
Si Si2 0.232510 0.243249 0.597165
Si Si3 0.371121 0.393500 0.261167
Si Si4 0.810047 0.931335 0.107005
Si Si5 0.249810 0.824573 0.324733
Si Si6 0.975832 0.078808 0.634810
Si Si7 0.725135 0.381549 0.179979
Si Si8 0.902646 0.319930 0.586860
O O1 0.678082 0.789999 0.335738
O O2 0.486999 0.605469 0.258064
O O3 0.638463 0.630407 0.595666
O O4 0.627337 0.087004 0.243034
O O5 0.207277 0.041663 0.792561
O O6 0.273274 0.559582 0.513974
O O7 0.125666 0.159259 0.426522
O O8 0.351233 0.098973 0.345217
O O9 0.289070 0.507051 0.033819
O O10 0.731919 0.614606 0.149118
O O11 0.930504 0.010658 0.194304
O O12 0.781906 0.143894 0.871502
O O13 0.159618 0.802672 0.307427
O O14 0.952597 0.122105 0.717043
O O15 0.009697 0.371023 0.444424
O O16 0.830068 0.336546 0.366906
#
# Coordination Sequence:
#
# PCOD8040929 Si02
#       8
#     2   2   2   2   2   2   2   2
#     4  11  22  38  62  89 114 148 191 246 284 334
#     4  12  22  39  57  84 126 151 183 237 291 338
#     4  10  22  39  63  88 110 148 201 234 286 341
#     4  10  23  37  60  84 117 157 193 227 289 346
#     4  11  22  40  58  84 119 157 187 237 284 344
#     4  10  20  37  60  86 111 155 194 235 280 339
#     4  10  18  40  61  83 113 152 187 243 280 334
#     4  10  19  38  63  83 115 152 192 238 286 326
#
# _framework density 20.754577999999999
#
# number of rings (size 3 to 8) (size 9 to 14) (size 15 to 20)
#    0.000    1.500    5.000    0.750    0.000    2.500 
#    0.000    3.750    0.000    0.000    0.000    0.000 
#    0.000    0.000    0.000    0.000    0.000    0.000 
#
# Total GULP energy -198315.672705 kJ/mol
# GULP energy per Si atom -12394.729544 kJ/mol
# Density = 2.070734 g / cm^3
# Si number density = 20.754578 Si / 1000 Ang^3
#
#
#
# Elastic Constant Matrix: (Units=GPa)
#
#
# Indices 1 2 3 4 5 6 
#
# 1 85.9233 9.0328 34.6364 7.6099 -9.4249 4.5646
# 2 9.0328 99.0758 1.2763 -3.7469 2.4348 14.5772
# 3 34.6364 1.2763 80.2336 -0.2728 -15.6605 0.5590
# 4 7.6099 -3.7469 -0.2728 19.0542 1.7283 -3.0542
# 5 -9.4249 2.4348 -15.6605 1.7283 18.1705 0.8975
# 6 4.5646 14.5772 0.5590 -3.0542 0.8975 17.6674
#
#
#
# Elastic Compliance Matrix: (Units=1/GPa)
#
#
# Indices 1 2 3 4 5 6 
#
# 1 0.015462 -0.001066 -0.005863 -0.007548 0.004047 -0.004440
# 2 -0.001066 0.011608 -0.000011 0.001436 -0.001811 -0.008962
# 3 -0.005863 -0.000011 0.017271 0.001636 0.011657 0.000668
# 4 -0.007548 0.001436 0.001636 0.058406 -0.008808 0.011258
# 5 0.004047 -0.001811 0.011657 -0.008808 0.068504 -0.004922
# 6 -0.004440 -0.008962 0.000668 0.011258 -0.004922 0.067318
#
#
# Mechanical properties :
#
#
# Convention : Reuss Voigt Hill
#
# Bulk Modulus (GPa) = 32.82747 39.45817 36.14282
# Shear Modulus (GPa) = 19.04032 25.66422 22.35227
#
# Velocity S-wave (km/s) = 3.03215 3.52029 3.28530
# Velocity P-wave (km/s) = 5.30188 5.96459 5.64297
#
# Compressibility (1/GPa) = 0.03046229
#
# Stress axis : x y z
#
# Youngs Moduli (GPa) = 64.67512 86.14777 57.90096
#
# Poissons Ratio (x) = 0.09181 0.33945
# Poissons Ratio (y) = 0.06893 0.00063
# Poissons Ratio (z) = 0.37917 0.00093
#
# Static dielectric constant tensor:
#      x y z
#    x 3.478430 0.030030 -0.203640 
#    y 0.030030 4.053270 0.023180 
#    z -0.203640 0.023180 3.680320 
# 
# 
# High freq. dielectric constant tensor:
#      x y z
#    x 1.786990 0.001800 -0.018020 
#    y 0.001800 1.827930 -0.000740 
#    z -0.018020 -0.000740 1.795640 
# 
# From -- ./inp_files/306338.got.cif
#   From: 2010.06.25/outbox.cif.g09.slc.cpg/sg2_154_cif.got.tgz:306338.got - 2010.06.27 13:26:56.
