data_PCOD8040243
_publ_section_title
;
Structure prediction by ZEFSAII (Michael W. Deem and Ramdas Pophale) SiO2 
 PCOD8040243
Probable space group: P -1
;
_chemical_formula_sum "Si O2"
_cell_formula_units_Z 14
_cell_length_a 8.470826
_cell_length_b 18.159599
_cell_length_c 10.844767
_cell_angle_alpha 34.152591
_cell_angle_beta 138.937745
_cell_angle_gamma 125.956987
_cell_volume 612.120657
_symmetry_space_group_name_H-M "P -1"
_symmetry_group_IT_number 2
_symmetry_cell_setting 'triclinic'
loop_
_space_group_symop_operation_xyz
x,y,z
-x,-y,-z
loop_
_atom_site_type_symbol
_atom_site_label
_atom_site_fract_x
_atom_site_fract_y
_atom_site_fract_z
Si Si1 0.496397 0.926349 0.267479
Si Si2 0.841806 0.862224 0.350990
Si Si3 0.307471 0.685098 0.588101
Si Si4 0.805360 0.431340 0.822780
Si Si5 0.693390 0.162891 0.184435
Si Si6 0.782411 0.688987 0.325113
Si Si7 0.331694 0.500192 0.080377
O O1 0.661567 0.837381 0.391299
O O2 0.395250 0.831509 0.440972
O O3 0.672938 0.028024 0.285930
O O4 0.257143 0.000306 0.961188
O O5 0.839338 0.741292 0.423362
O O6 0.117297 0.865512 0.554038
O O7 0.438181 0.604197 0.664517
O O8 0.022146 0.687771 0.386090
O O9 0.366234 0.624718 0.840563
O O10 0.698876 0.541805 0.507038
O O11 0.676989 0.452579 0.850431
O O12 0.766386 0.280020 0.972502
O O13 0.091104 0.435710 0.991344
O O14 0.423652 0.217359 0.997104
#
# Coordination Sequence:
#
# PCOD8040243 Si02
#       7
#     2   2   2   2   2   2   2
#     4  10  22  38  59  85 114 147 188 235 280 332
#     4  10  21  39  59  83 111 150 195 231 275 330
#     4  10  19  37  56  84 119 146 185 233 282 336
#     4  10  18  36  59  85 112 143 193 237 274 331
#     4  11  21  35  59  87 113 147 190 233 278 332
#     4  10  22  37  59  85 113 150 188 232 281 330
#     4   9  19  34  63  86 107 151 189 230 285 330
#
# _framework density 22.871306000000001
#
# number of rings (size 3 to 8) (size 9 to 14) (size 15 to 20)
#    0.000    2.000    0.000    5.143    0.000    2.286 
#    0.000    7.143    0.000    5.143    0.000    0.000 
#    0.000    0.000    0.000    0.000    0.000    0.000 
#
# Total GULP energy -173541.378474 kJ/mol
# GULP energy per Si atom -12395.812748 kJ/mol
# Density = 2.281925 g / cm^3
# Si number density = 22.871306 Si / 1000 Ang^3
#
#
#
# Elastic Constant Matrix: (Units=GPa)
#
#
# Indices 1 2 3 4 5 6 
#
# 1 119.3087 45.6469 46.2460 -12.9921 9.3161 20.2547
# 2 45.6469 113.0258 60.8708 -8.3489 -9.7300 20.4005
# 3 46.2460 60.8708 116.0471 10.3416 14.4873 17.3933
# 4 -12.9921 -8.3489 10.3416 47.5781 13.9839 -6.3160
# 5 9.3161 -9.7300 14.4873 13.9839 32.2527 -9.6062
# 6 20.2547 20.4005 17.3933 -6.3160 -9.6062 14.8071
#
#
#
# Elastic Compliance Matrix: (Units=1/GPa)
#
#
# Indices 1 2 3 4 5 6 
#
# 1 0.015253 -0.002937 0.000838 0.004546 -0.015326 -0.025806
# 2 -0.002937 0.015287 -0.007383 0.000874 0.007456 -0.003161
# 3 0.000838 -0.007383 0.018177 -0.003435 -0.016426 -0.024448
# 4 0.004546 0.000874 -0.003435 0.026425 -0.010679 0.000955
# 5 -0.015326 0.007456 -0.016426 -0.010679 0.070980 0.071480
# 6 -0.025806 -0.003161 -0.024448 0.000955 0.071480 0.182690
#
#
# Mechanical properties :
#
#
# Convention : Reuss Voigt Hill
#
# Bulk Modulus (GPa) = 33.60999 72.65656 53.13327
# Shear Modulus (GPa) = 13.97845 31.96877 22.97361
#
# Velocity S-wave (km/s) = 2.47488 3.74273 3.17278
# Velocity P-wave (km/s) = 4.78476 7.10731 6.05837
#
# Compressibility (1/GPa) = 0.02975306
#
# Stress axis : x y z
#
# Youngs Moduli (GPa) = 65.55935 65.41554 55.01488
#
# Poissons Ratio (x) = 0.19214 -0.04611
# Poissons Ratio (y) = 0.19257 0.40616
# Poissons Ratio (z) = -0.05494 0.48295
#
# Static dielectric constant tensor:
#      x y z
#    x 4.055010 0.243790 0.305980 
#    y 0.243790 4.027100 -0.118060 
#    z 0.305980 -0.118060 4.309180 
# 
# 
# High freq. dielectric constant tensor:
#      x y z
#    x 1.884660 0.021150 0.025170 
#    y 0.021150 1.894410 -0.008370 
#    z 0.025170 -0.008370 1.916780 
# 
# From -- ./inp_files/405327.got.cif
#   From: 2010.06.25/outbox.cif.g09.slc.cpg/sg2_203_cif.got.tgz:405327.got - 2010.06.27 13:26:56.
