data_PCOD8040181
_publ_section_title
;
Structure prediction by ZEFSAII (Michael W. Deem and Ramdas Pophale) SiO2 
 PCOD8040181
Probable space group: P -1
;
_chemical_formula_sum "Si O2"
_cell_formula_units_Z 16
_cell_length_a 9.619298
_cell_length_b 7.694929
_cell_length_c 11.495316
_cell_angle_alpha 72.830714
_cell_angle_beta 57.099216
_cell_angle_gamma 62.968259
_cell_volume 635.034629
_symmetry_space_group_name_H-M "P -1"
_symmetry_group_IT_number 2
_symmetry_cell_setting 'triclinic'
loop_
_space_group_symop_operation_xyz
x,y,z
-x,-y,-z
loop_
_atom_site_type_symbol
_atom_site_label
_atom_site_fract_x
_atom_site_fract_y
_atom_site_fract_z
Si Si1 0.627506 0.195696 0.444577
Si Si2 0.174189 0.073522 0.406304
Si Si3 0.319430 0.637308 0.001645
Si Si4 0.701358 0.712009 0.034386
Si Si5 0.559586 0.731263 0.701673
Si Si6 0.301810 0.429556 0.687666
Si Si7 0.718859 0.082282 0.848541
Si Si8 0.135910 0.558210 0.502443
O O1 0.523260 0.131463 0.400888
O O2 0.502040 0.290435 0.592672
O O3 0.700250 0.354656 0.324265
O O4 0.787715 0.017977 0.463673
O O5 0.309839 0.189179 0.300778
O O6 0.963024 0.209670 0.474179
O O7 0.198739 0.927099 0.315369
O O8 0.217667 0.499101 0.027264
O O9 0.385021 0.747154 0.849230
O O10 0.500000 0.500000 0.000000
O O11 0.207397 0.791357 0.120878
O O12 0.753467 0.666627 0.155692
O O13 0.491866 0.811613 0.088100
O O14 0.785699 0.862145 0.915400
O O15 0.677313 0.510453 0.642302
O O16 0.172604 0.446529 0.632207
O O17 0.000000 0.500000 0.500000
#
# Coordination Sequence:
#
# PCOD8040181 Si02
#       8
#     2   2   2   2   2   2   2   2
#     4  10  20  32  57  87 111 152 193 254 297 335
#     4  11  20  37  56  85 122 154 196 240 292 358
#     4  10  20  33  58  89 119 151 189 254 295 342
#     4  10  18  36  56  87 117 152 192 251 293 341
#     4  10  19  36  57  89 117 149 200 241 301 352
#     4  10  19  35  56  82 118 151 198 241 298 350
#     4  10  21  34  58  90 119 152 200 239 295 351
#     4   9  22  38  55  81 120 161 191 237 299 360
#
# _framework density 25.195478999999999
#
# number of rings (size 3 to 8) (size 9 to 14) (size 15 to 20)
#    0.000    2.000    2.500    2.625    0.000    0.500 
#    0.000    0.625    0.000    0.750    0.000    0.000 
#    0.000    0.000    0.000    0.000    0.000    0.000 
#
# Total GULP energy -198225.585224 kJ/mol
# GULP energy per Si atom -12389.099076 kJ/mol
# Density = 2.513813 g / cm^3
# Si number density = 25.195479 Si / 1000 Ang^3
#
#
#
# Elastic Constant Matrix: (Units=GPa)
#
#
# Indices 1 2 3 4 5 6 
#
# 1 69.3822 21.9055 34.0887 3.3717 26.3617 3.1660
# 2 21.9055 99.6907 45.5440 7.2859 15.0339 -6.2556
# 3 34.0887 45.5440 104.3865 3.2059 36.5459 2.0712
# 4 3.3717 7.2859 3.2059 43.8841 4.2865 14.8237
# 5 26.3617 15.0339 36.5459 4.2865 33.1782 -2.0546
# 6 3.1660 -6.2556 2.0712 14.8237 -2.0546 33.9128
#
#
#
# Elastic Compliance Matrix: (Units=1/GPa)
#
#
# Indices 1 2 3 4 5 6 
#
# 1 0.021626 -0.002609 -0.000193 0.001819 -0.016288 -0.004270
# 2 -0.002609 0.013507 -0.006316 -0.003601 0.003680 0.004918
# 3 -0.000193 -0.006316 0.018859 0.003100 -0.018454 -0.004772
# 4 0.001819 -0.003601 0.003100 0.028490 -0.007773 -0.013948
# 5 -0.016288 0.003680 -0.018454 -0.007773 0.063400 0.010565
# 6 -0.004270 0.004918 -0.004772 -0.013948 0.010565 0.037821
#
#
# Mechanical properties :
#
#
# Convention : Reuss Voigt Hill
#
# Bulk Modulus (GPa) = 27.96710 52.94841 40.45775
# Shear Modulus (GPa) = 23.38010 33.65643 28.51827
#
# Velocity S-wave (km/s) = 3.04953 3.65884 3.36799
# Velocity P-wave (km/s) = 4.85012 6.23780 5.58721
#
# Compressibility (1/GPa) = 0.03575630
#
# Stress axis : x y z
#
# Youngs Moduli (GPa) = 46.23982 74.03703 53.02581
#
# Poissons Ratio (x) = 0.19313 0.01023
# Poissons Ratio (y) = 0.12062 0.33493
# Poissons Ratio (z) = 0.00892 0.46765
#
# Static dielectric constant tensor:
#      x y z
#    x 4.280710 0.195360 0.537930 
#    y 0.195360 5.279090 0.239710 
#    z 0.537930 0.239710 4.455450 
# 
# 
# High freq. dielectric constant tensor:
#      x y z
#    x 1.977760 0.011890 0.035440 
#    y 0.011890 2.003610 -0.007810 
#    z 0.035440 -0.007810 1.997400 
# 
# From -- ./inp_files/414650.got.cif
#   From: 2010.06.25/outbox.cif.g09.slc.cpg/sg2_208_cif.got.tgz:414650.got - 2010.06.27 13:26:56.
