data_PCOD8040302
_publ_section_title
;
Structure prediction by ZEFSAII (Michael W. Deem and Ramdas Pophale) SiO2 
 PCOD8040302
Probable space group: P -1
;
_chemical_formula_sum "Si O2"
_cell_formula_units_Z 12
_cell_length_a 8.204882
_cell_length_b 14.994533
_cell_length_c 9.861597
_cell_angle_alpha 142.906228
_cell_angle_beta 116.414826
_cell_angle_gamma 81.418809
_cell_volume 605.995786
_symmetry_space_group_name_H-M "P -1"
_symmetry_group_IT_number 2
_symmetry_cell_setting 'triclinic'
loop_
_space_group_symop_operation_xyz
x,y,z
-x,-y,-z
loop_
_atom_site_type_symbol
_atom_site_label
_atom_site_fract_x
_atom_site_fract_y
_atom_site_fract_z
Si Si1 0.191847 0.104737 0.363023
Si Si2 0.180933 0.207472 0.199134
Si Si3 0.724511 0.565095 0.705339
Si Si4 0.506415 0.995108 0.227020
Si Si5 0.200383 0.144942 0.716693
Si Si6 0.611961 0.226139 0.322952
O O1 0.191736 0.227067 0.390140
O O2 0.371380 0.046573 0.340925
O O3 0.213786 0.193214 0.621777
O O4 0.987245 0.955734 0.106293
O O5 0.150028 0.354765 0.287484
O O6 0.382995 0.203036 0.209897
O O7 0.500000 0.500000 0.500000
O O8 0.763407 0.411042 0.588555
O O9 0.778068 0.696590 0.002291
O O10 0.655230 0.150065 0.386116
O O11 0.622586 0.911642 0.255153
O O12 0.359299 0.871202 0.914257
O O13 0.000000 0.000000 0.500000
#
# Coordination Sequence:
#
# PCOD8040302 Si02
#       6
#     2   2   2   2   2   2
#     4  10  20  32  56  86 113 140 184 231 272 323
#     4   9  17  35  56  80 109 148 182 218 269 334
#     4  10  18  36  61  80 107 148 191 218 265 337
#     4  10  19  34  56  84 111 143 183 228 276 324
#     4  12  21  36  60  82 110 146 191 224 271 330
#     4   9  18  35  60  79 107 151 187 217 269 335
#
# _framework density 19.802118
#
# number of rings (size 3 to 8) (size 9 to 14) (size 15 to 20)
#    0.000    2.000    5.000    0.500    0.000    0.000 
#    0.000    9.167    0.000    0.000    0.000    0.000 
#    0.000    0.000    0.000    0.000    0.000    0.000 
#
# Total GULP energy -148703.312397 kJ/mol
# GULP energy per Si atom -12391.942700 kJ/mol
# Density = 1.975705 g / cm^3
# Si number density = 19.802118 Si / 1000 Ang^3
#
#
#
# Elastic Constant Matrix: (Units=GPa)
#
#
# Indices 1 2 3 4 5 6 
#
# 1 33.2398 19.4582 18.5237 -2.3902 -4.4766 14.2933
# 2 19.4582 158.0639 64.9919 6.6379 -16.7861 26.3908
# 3 18.5237 64.9919 113.7898 2.6562 -15.3623 19.0497
# 4 -2.3902 6.6379 2.6562 39.7700 3.1263 -3.2564
# 5 -4.4766 -16.7861 -15.3623 3.1263 20.8309 -5.0877
# 6 14.2933 26.3908 19.0497 -3.2564 -5.0877 28.0615
#
#
#
# Elastic Compliance Matrix: (Units=1/GPa)
#
#
# Indices 1 2 3 4 5 6 
#
# 1 0.039854 -0.000680 -0.003063 0.001197 0.001379 -0.017192
# 2 -0.000680 0.009344 -0.003780 -0.002077 0.003572 -0.005469
# 3 -0.003063 -0.003780 0.012598 -0.001010 0.005095 -0.002630
# 4 0.001197 -0.002077 -0.001010 0.026373 -0.005102 0.004164
# 5 0.001379 0.003572 0.005095 -0.005102 0.056212 0.002079
# 6 -0.017192 -0.005469 -0.002630 0.004164 0.002079 0.052182
#
#
# Mechanical properties :
#
#
# Convention : Reuss Voigt Hill
#
# Bulk Modulus (GPa) = 21.39067 56.78235 39.08651
# Shear Modulus (GPa) = 22.00794 31.20711 26.60753
#
# Velocity S-wave (km/s) = 3.33737 3.97413 3.66959
# Velocity P-wave (km/s) = 5.06719 7.05659 6.14296
#
# Compressibility (1/GPa) = 0.04674936
#
# Stress axis : x y z
#
# Youngs Moduli (GPa) = 25.09167 107.01888 79.38048
#
# Poissons Ratio (x) = 0.07279 0.24314
# Poissons Ratio (y) = 0.01707 0.30006
# Poissons Ratio (z) = 0.07685 0.40454
#
# Static dielectric constant tensor:
#      x y z
#    x 3.371310 0.180140 -0.029670 
#    y 0.180140 4.459500 0.088150 
#    z -0.029670 0.088150 3.482110 
# 
# 
# High freq. dielectric constant tensor:
#      x y z
#    x 1.746660 0.016100 -0.001510 
#    y 0.016100 1.790100 -0.004440 
#    z -0.001510 -0.004440 1.748170 
# 
# From -- ./inp_files/145468.got.cif
#   From: 2010.06.25/outbox.cif.g09.slc.cpg/sg2_73_cif.got.tgz:145468.got - 2010.06.27 13:26:56.
