data_PCOD8040724
_publ_section_title
;
Structure prediction by ZEFSAII (Michael W. Deem and Ramdas Pophale) SiO2 
 PCOD8040724
Probable space group: P -1
;
_chemical_formula_sum "Si O2"
_cell_formula_units_Z 16
_cell_length_a 15.098350
_cell_length_b 8.509998
_cell_length_c 12.458485
_cell_angle_alpha 142.863555
_cell_angle_beta 121.320142
_cell_angle_gamma 54.683297
_cell_volume 782.882579
_symmetry_space_group_name_H-M "P -1"
_symmetry_group_IT_number 2
_symmetry_cell_setting 'triclinic'
loop_
_space_group_symop_operation_xyz
x,y,z
-x,-y,-z
loop_
_atom_site_type_symbol
_atom_site_label
_atom_site_fract_x
_atom_site_fract_y
_atom_site_fract_z
Si Si1 0.216978 0.854963 0.711063
Si Si2 0.120383 0.482145 0.039752
Si Si3 0.947894 0.316859 0.111191
Si Si4 0.234199 0.568581 0.785152
Si Si5 0.567495 0.189387 0.105723
Si Si6 0.472129 0.239540 0.698177
Si Si7 0.847035 0.474802 0.680399
Si Si8 0.666686 0.015255 0.855498
O O1 0.187619 0.707605 0.717704
O O2 0.349241 0.759651 0.724583
O O3 0.154659 0.789969 0.532729
O O4 0.183937 0.176163 0.879525
O O5 0.169010 0.575506 0.229855
O O6 0.117572 0.671337 0.036556
O O7 0.000000 0.500000 0.000000
O O8 0.865151 0.492447 0.247507
O O9 0.041643 0.458858 0.235348
O O10 0.000000 0.000000 0.000000
O O11 0.344951 0.312369 0.694621
O O12 0.264292 0.775533 0.000218
O O13 0.499712 0.492353 0.183287
O O14 0.500000 0.000000 0.000000
O O15 0.644258 0.007175 0.963237
O O16 0.500000 0.000000 0.500000
O O17 0.550209 0.122301 0.783249
O O18 0.742048 0.718175 0.702210
#
# Coordination Sequence:
#
# PCOD8040724 Si02
#       8
#     2   2   2   2   2   2   2   2
#     4  10  21  40  64  89 123 165 213 256 322 383
#     4  10  21  39  63  83 125 166 209 254 323 379
#     4  11  22  39  65  92 125 164 214 267 312 386
#     4  10  19  38  61  92 125 167 212 256 318 382
#     4  10  21  39  64  89 125 168 215 264 315 383
#     4  10  21  38  62  92 129 169 213 264 325 388
#     4  11  21  41  66  91 125 172 209 261 323 382
#     4  10  18  38  62  86 125 167 205 254 323 381
#
# _framework density 20.437291999999999
#
# number of rings (size 3 to 8) (size 9 to 14) (size 15 to 20)
#    0.000    2.000    3.750    3.750    0.000    4.500 
#    0.000    5.000    2.750    0.000    0.000    0.000 
#    0.000    0.000    0.000    0.000    0.000    0.000 
#
# Total GULP energy -198221.744174 kJ/mol
# GULP energy per Si atom -12388.859011 kJ/mol
# Density = 2.039078 g / cm^3
# Si number density = 20.437292 Si / 1000 Ang^3
#
#
#
# Elastic Constant Matrix: (Units=GPa)
#
#
# Indices 1 2 3 4 5 6 
#
# 1 105.2008 44.7308 33.6608 1.1170 -4.3340 7.8186
# 2 44.7308 123.6407 39.8527 -18.0403 -10.4039 -2.5772
# 3 33.6608 39.8527 110.3881 -25.3170 -5.0824 5.7418
# 4 1.1170 -18.0403 -25.3170 26.6885 -6.9245 -2.4393
# 5 -4.3340 -10.4039 -5.0824 -6.9245 24.9097 2.2566
# 6 7.8186 -2.5772 5.7418 -2.4393 2.2566 26.1832
#
#
#
# Elastic Compliance Matrix: (Units=1/GPa)
#
#
# Indices 1 2 3 4 5 6 
#
# 1 0.013324 -0.005119 -0.004227 -0.009147 -0.002848 -0.004162
# 2 -0.005119 0.012156 -0.000375 0.010085 0.006626 0.003176
# 3 -0.004227 -0.000375 0.014265 0.014989 0.006280 -0.001047
# 4 -0.009147 0.010085 0.014989 0.065383 0.023446 0.004508
# 5 -0.002848 0.006626 0.006280 0.023446 0.050400 -0.002034
# 6 -0.004162 0.003176 -0.001047 0.004508 -0.002034 0.040573
#
#
# Mechanical properties :
#
#
# Convention : Reuss Voigt Hill
#
# Bulk Modulus (GPa) = 49.25582 63.96869 56.61226
# Shear Modulus (GPa) = 22.49120 30.28864 26.38992
#
# Velocity S-wave (km/s) = 3.32097 3.85389 3.59731
# Velocity P-wave (km/s) = 6.23365 7.15341 6.70931
#
# Compressibility (1/GPa) = 0.02030217
#
# Stress axis : x y z
#
# Youngs Moduli (GPa) = 75.05328 82.26481 70.10393
#
# Poissons Ratio (x) = 0.42110 0.29635
# Poissons Ratio (y) = 0.38418 0.02628
# Poissons Ratio (z) = 0.31728 0.03084
#
# Static dielectric constant tensor:
#      x y z
#    x 4.067010 -0.261020 0.016630 
#    y -0.261020 4.052310 -0.316770 
#    z 0.016630 -0.316770 3.787660 
# 
# 
# High freq. dielectric constant tensor:
#      x y z
#    x 1.780290 -0.018070 -0.014060 
#    y -0.018070 1.811290 -0.009290 
#    z -0.014060 -0.009290 1.785100 
# 
# From -- ./inp_files/460879.got.cif
#   From: 2010.06.25/outbox.cif.g09.slc.cpg/sg2_231_cif.got.tgz:460879.got - 2010.06.27 13:26:56.
