data_PCOD8040540
_publ_section_title
;
Structure prediction by ZEFSAII (Michael W. Deem and Ramdas Pophale) SiO2 
 PCOD8040540
Probable space group: P -1
;
_chemical_formula_sum "Si O2"
_cell_formula_units_Z 14
_cell_length_a 12.896158
_cell_length_b 26.403649
_cell_length_c 16.296076
_cell_angle_alpha 164.192862
_cell_angle_beta 29.466913
_cell_angle_gamma 149.605201
_cell_volume 730.658378
_symmetry_space_group_name_H-M "P -1"
_symmetry_group_IT_number 2
_symmetry_cell_setting 'triclinic'
loop_
_space_group_symop_operation_xyz
x,y,z
-x,-y,-z
loop_
_atom_site_type_symbol
_atom_site_label
_atom_site_fract_x
_atom_site_fract_y
_atom_site_fract_z
Si Si1 0.967978 0.947599 0.104326
Si Si2 0.395482 0.886893 0.638346
Si Si3 0.562973 0.882805 0.196240
Si Si4 0.814887 0.830181 0.335419
Si Si5 0.646477 0.470459 0.988128
Si Si6 0.850547 0.648210 0.855867
Si Si7 0.168462 0.655194 0.169191
O O1 0.803679 0.845064 0.986988
O O2 0.210721 0.954069 0.921399
O O3 0.940042 0.161889 0.466545
O O4 0.916886 0.838111 0.053656
O O5 0.608922 0.923062 0.602078
O O6 0.327337 0.664799 0.317986
O O7 0.450241 0.003405 0.699477
O O8 0.384716 0.691138 0.019887
O O9 0.500000 0.000000 0.500000
O O10 0.753081 0.684256 0.225479
O O11 0.883899 0.714917 0.030873
O O12 0.000000 0.000000 0.500000
O O13 0.775569 0.409484 0.880407
O O14 0.393481 0.451046 0.150966
O O15 0.000000 0.500000 0.500000
O O16 0.000000 0.500000 0.000000
#
# Coordination Sequence:
#
# PCOD8040540 Si02
#       7
#     2   2   2   2   2   2   2
#     4  11  21  39  65  93 117 156 209 255 297 364
#     4  11  21  40  65  90 120 158 209 252 303 366
#     4  10  18  37  61  89 113 156 201 243 296 360
#     4  11  25  41  61  92 125 164 202 262 312 357
#     4  11  21  40  63  87 123 162 208 245 305 375
#     4  11  22  43  67  90 119 165 214 252 298 373
#     4  11  23  38  60  93 126 162 195 249 314 363
#
# _framework density 19.160800999999999
#
# number of rings (size 3 to 8) (size 9 to 14) (size 15 to 20)
#    0.000    1.143    4.286    6.429    4.000    0.000 
#    2.571    2.143    0.000    0.000    0.000    0.000 
#    0.000    0.000    0.000    0.000    0.000    0.000 
#
# Total GULP energy -173590.001377 kJ/mol
# GULP energy per Si atom -12399.285813 kJ/mol
# Density = 1.911719 g / cm^3
# Si number density = 19.160801 Si / 1000 Ang^3
#
#
#
# Elastic Constant Matrix: (Units=GPa)
#
#
# Indices 1 2 3 4 5 6 
#
# 1 106.5021 73.3103 57.4731 10.8399 -15.4931 12.3590
# 2 73.3103 159.2832 68.3782 12.4567 -5.0702 5.8634
# 3 57.4731 68.3782 102.4058 -10.9158 -16.1656 11.6430
# 4 10.8399 12.4567 -10.9158 33.5559 3.5937 -4.3049
# 5 -15.4931 -5.0702 -16.1656 3.5937 26.8136 8.9000
# 6 12.3590 5.8634 11.6430 -4.3049 8.9000 47.9499
#
#
#
# Elastic Compliance Matrix: (Units=1/GPa)
#
#
# Indices 1 2 3 4 5 6 
#
# 1 0.018767 -0.004952 -0.006053 -0.007817 0.009011 -0.005136
# 2 -0.004952 0.011246 -0.006059 -0.003826 -0.004493 0.001863
# 3 -0.006053 -0.006059 0.019634 0.009483 0.006883 -0.002893
# 4 -0.007817 -0.003826 0.009483 0.038106 -0.006208 0.004753
# 5 0.009011 -0.004493 0.006883 -0.006208 0.051110 -0.013488
# 6 -0.005136 0.001863 -0.002893 0.004753 -0.013488 0.025584
#
#
# Mechanical properties :
#
#
# Convention : Reuss Voigt Hill
#
# Bulk Modulus (GPa) = 64.43504 85.16826 74.80165
# Shear Modulus (GPa) = 24.54018 32.93251 28.73635
#
# Velocity S-wave (km/s) = 3.58264 4.15027 3.87686
# Velocity P-wave (km/s) = 7.12849 8.21657 7.69179
#
# Compressibility (1/GPa) = 0.01551951
#
# Stress axis : x y z
#
# Youngs Moduli (GPa) = 53.28496 88.92241 50.93178
#
# Poissons Ratio (x) = 0.44033 0.30830
# Poissons Ratio (y) = 0.26386 0.30858
# Poissons Ratio (z) = 0.32254 0.53876
#
# Static dielectric constant tensor:
#      x y z
#    x 3.692520 0.125730 -0.173460 
#    y 0.125730 4.012020 -0.080580 
#    z -0.173460 -0.080580 3.498180 
# 
# 
# High freq. dielectric constant tensor:
#      x y z
#    x 1.749770 -0.005970 -0.027670 
#    y -0.005970 1.764760 0.000510 
#    z -0.027670 0.000510 1.723080 
# 
# From -- ./inp_files/177670.got.cif
#   From: 2010.06.25/outbox.cif.g09.slc.cpg/sg2_89_cif.got.tgz:177670.got - 2010.06.27 13:26:56.
