data_PCOD8040857
_publ_section_title
;
Structure prediction by ZEFSAII (Michael W. Deem and Ramdas Pophale) SiO2 
 PCOD8040857
Probable space group: P -1
;
_chemical_formula_sum "Si O2"
_cell_formula_units_Z 14
_cell_length_a 8.162656
_cell_length_b 8.726025
_cell_length_c 9.925576
_cell_angle_alpha 61.288299
_cell_angle_beta 81.108761
_cell_angle_gamma 81.877602
_cell_volume 610.763610
_symmetry_space_group_name_H-M "P -1"
_symmetry_group_IT_number 2
_symmetry_cell_setting 'triclinic'
loop_
_space_group_symop_operation_xyz
x,y,z
-x,-y,-z
loop_
_atom_site_type_symbol
_atom_site_label
_atom_site_fract_x
_atom_site_fract_y
_atom_site_fract_z
Si Si1 0.650268 0.462707 0.188882
Si Si2 0.471232 0.990265 0.204337
Si Si3 0.345369 0.679588 0.028586
Si Si4 0.956842 0.857855 0.393143
Si Si5 0.212372 0.255631 0.774139
Si Si6 0.743535 0.127433 0.475752
Si Si7 0.162501 0.956638 0.090205
O O1 0.719802 0.434406 0.039278
O O2 0.780351 0.574539 0.205981
O O3 0.637232 0.281936 0.347159
O O4 0.465653 0.559697 0.162733
O O5 0.602076 0.823286 0.244498
O O6 0.370356 0.963611 0.365198
O O7 0.350821 0.999338 0.086028
O O8 0.557224 0.171355 0.122191
O O9 0.188887 0.762086 0.100940
O O10 0.880999 0.705919 0.374652
O O11 0.094139 0.788565 0.514400
O O12 0.052898 0.979119 0.227784
O O13 0.805017 0.975960 0.427259
O O14 0.103158 0.108269 0.924053
#
# Coordination Sequence:
#
# PCOD8040857 Si02
#       7
#     2   2   2   2   2   2   2
#     4  11  22  36  60  93 124 142 191 258 297 331
#     4  10  19  38  66  86 114 156 201 237 283 358
#     4  10  20  38  64  92 115 148 197 249 294 337
#     4  10  23  40  61  81 121 165 198 227 284 368
#     4  11  20  36  62  92 117 152 196 244 293 341
#     4  10  23  42  60  87 118 158 198 237 291 347
#     4  10  18  39  63  88 112 160 197 239 280 364
#
# _framework density 22.922124
#
# number of rings (size 3 to 8) (size 9 to 14) (size 15 to 20)
#    0.000    1.714    2.857    3.000    0.000    3.429 
#    0.000    2.857    3.143    0.000    0.000    0.000 
#    0.000    0.000    0.000    0.000    0.000    0.000 
#
# Total GULP energy -173551.888463 kJ/mol
# GULP energy per Si atom -12396.563462 kJ/mol
# Density = 2.286995 g / cm^3
# Si number density = 22.922124 Si / 1000 Ang^3
#
#
#
# Elastic Constant Matrix: (Units=GPa)
#
#
# Indices 1 2 3 4 5 6 
#
# 1 58.0393 30.3990 26.7913 8.0186 9.8229 -1.2714
# 2 30.3990 101.2808 39.9086 24.5415 4.1444 5.3299
# 3 26.7913 39.9086 86.8002 6.1382 13.1046 -12.7320
# 4 8.0186 24.5415 6.1382 39.8433 -1.6022 11.1302
# 5 9.8229 4.1444 13.1046 -1.6022 40.5992 17.0002
# 6 -1.2714 5.3299 -12.7320 11.1302 17.0002 42.5389
#
#
#
# Elastic Compliance Matrix: (Units=1/GPa)
#
#
# Indices 1 2 3 4 5 6 
#
# 1 0.022563 -0.004895 -0.003374 -0.002012 -0.005148 0.002862
# 2 -0.004895 0.015328 -0.005930 -0.006553 0.002601 -0.003167
# 3 -0.003374 -0.005930 0.018176 -0.001603 -0.008684 0.009972
# 4 -0.002012 -0.006553 -0.001603 0.033334 0.007834 -0.011572
# 5 -0.005148 0.002601 -0.008684 0.007834 0.037075 -0.019945
# 6 0.002862 -0.003167 0.009972 -0.011572 -0.019945 0.037974
#
#
# Mechanical properties :
#
#
# Convention : Reuss Voigt Hill
#
# Bulk Modulus (GPa) = 36.14323 48.92422 42.53373
# Shear Modulus (GPa) = 24.74379 34.53105 29.63742
#
# Velocity S-wave (km/s) = 3.28910 3.88551 3.59968
# Velocity P-wave (km/s) = 5.49784 6.44357 5.98940
#
# Compressibility (1/GPa) = 0.02766770
#
# Stress axis : x y z
#
# Youngs Moduli (GPa) = 44.32017 65.24214 55.01774
#
# Poissons Ratio (x) = 0.31935 0.18565
# Poissons Ratio (y) = 0.21694 0.32626
# Poissons Ratio (z) = 0.14955 0.38690
#
# Static dielectric constant tensor:
#      x y z
#    x 4.457030 0.082650 0.370960 
#    y 0.082650 4.069110 0.323340 
#    z 0.370960 0.323340 4.024020 
# 
# 
# High freq. dielectric constant tensor:
#      x y z
#    x 1.919170 0.000570 0.025840 
#    y 0.000570 1.893690 0.033500 
#    z 0.025840 0.033500 1.896710 
# 
# From -- ./inp_files/156577.got.cif
#   From: 2010.06.25/outbox.cif.g09.slc.cpg/sg2_79_cif.got.tgz:156577.got - 2010.06.27 13:26:56.
