data_PCOD8040001
_publ_section_title
;
Structure prediction by ZEFSAII (Michael W. Deem and Ramdas Pophale) SiO2 
 PCOD8040001
Probable space group: P -1
;
_chemical_formula_sum "Si O2"
_cell_formula_units_Z 16
_cell_length_a 11.628997
_cell_length_b 13.500065
_cell_length_c 21.979802
_cell_angle_alpha 32.357492
_cell_angle_beta 147.559663
_cell_angle_gamma 125.737528
_cell_volume 885.308608
_symmetry_space_group_name_H-M "P -1"
_symmetry_group_IT_number 2
_symmetry_cell_setting 'triclinic'
loop_
_space_group_symop_operation_xyz
x,y,z
-x,-y,-z
loop_
_atom_site_type_symbol
_atom_site_label
_atom_site_fract_x
_atom_site_fract_y
_atom_site_fract_z
Si Si1 0.374700 0.577312 0.089999
Si Si2 0.375839 0.929561 0.710791
Si Si3 0.120270 0.819081 0.959378
Si Si4 0.645103 0.609103 0.298541
Si Si5 0.773177 0.662260 0.940847
Si Si6 0.067772 0.246826 0.729198
Si Si7 0.340710 0.290947 0.939195
Si Si8 0.911941 0.337834 0.277619
O O1 0.600974 0.482337 0.287664
O O2 0.440281 0.693442 0.005336
O O3 0.143630 0.742897 0.938849
O O4 0.315557 0.399505 0.128951
O O5 0.252427 0.778233 0.740297
O O6 0.547541 0.860580 0.764494
O O7 0.541225 0.892727 0.863407
O O8 0.188650 0.169777 0.496477
O O9 0.989435 0.066427 0.776383
O O10 0.389040 0.746969 0.144639
O O11 0.981917 0.725074 0.986842
O O12 0.749788 0.758989 0.239404
O O13 0.824052 0.459329 0.506065
O O14 0.882404 0.467243 0.136054
O O15 0.179223 0.230006 0.854285
O O16 0.170197 0.510844 0.779851
#
# Coordination Sequence:
#
# PCOD8040001 Si02
#       8
#     2   2   2   2   2   2   2   2
#     4   9  18  36  54  84 113 143 174 223 277 323
#     4  10  20  36  58  85 104 141 192 226 272 327
#     4  10  22  34  56  81 117 152 175 213 277 338
#     4   8  20  35  53  78 113 140 188 225 252 320
#     4  11  19  38  56  80 121 143 172 230 275 329
#     4  10  19  38  55  80 110 150 184 226 264 316
#     4  10  18  35  61  80 112 136 183 239 268 312
#     4  10  20  36  57  84 107 142 185 231 276 313
#
# _framework density 18.072794999999999
#
# number of rings (size 3 to 8) (size 9 to 14) (size 15 to 20)
#    0.750    1.500    2.500    1.500    0.000    2.000 
#    6.750    3.125    0.000    4.500    0.000    0.000 
#    0.000    0.000    0.000    0.000    0.000    0.000 
#
# Total GULP energy -198314.280327 kJ/mol
# GULP energy per Si atom -12394.642520 kJ/mol
# Density = 1.803166 g / cm^3
# Si number density = 18.072795 Si / 1000 Ang^3
#
#
#
# Elastic Constant Matrix: (Units=GPa)
#
#
# Indices 1 2 3 4 5 6 
#
# 1 86.0610 39.0820 33.2090 -10.3887 6.2779 0.2578
# 2 39.0820 61.1451 18.5751 0.7956 -6.5822 4.1921
# 3 33.2090 18.5751 86.8423 -3.1677 2.5118 -6.0232
# 4 -10.3887 0.7956 -3.1677 19.3826 -7.0631 -2.0401
# 5 6.2779 -6.5822 2.5118 -7.0631 16.6609 2.5279
# 6 0.2578 4.1921 -6.0232 -2.0401 2.5279 30.4687
#
#
#
# Elastic Compliance Matrix: (Units=1/GPa)
#
#
# Indices 1 2 3 4 5 6 
#
# 1 0.021058 -0.013368 -0.004486 0.007850 -0.009529 0.002090
# 2 -0.013368 0.027523 -0.001736 -0.003503 0.015528 -0.005540
# 3 -0.004486 -0.001736 0.013856 -0.000364 -0.001714 0.003134
# 4 0.007850 -0.003503 -0.000364 0.064412 0.022597 0.002782
# 5 -0.009529 0.015528 -0.001714 0.022597 0.080734 -0.007580
# 6 0.002090 -0.005540 0.003134 0.002782 -0.007580 0.035000
#
#
# Mechanical properties :
#
#
# Convention : Reuss Voigt Hill
#
# Bulk Modulus (GPa) = 42.99992 46.19786 44.59889
# Shear Modulus (GPa) = 17.27024 22.84792 20.05908
#
# Velocity S-wave (km/s) = 3.09462 3.55944 3.33514
# Velocity P-wave (km/s) = 6.05088 6.52000 6.28982
#
# Compressibility (1/GPa) = 0.02325586
#
# Stress axis : x y z
#
# Youngs Moduli (GPa) = 47.48821 36.33296 72.17194
#
# Poissons Ratio (x) = 0.48569 0.32379
# Poissons Ratio (y) = 0.63481 0.12531
# Poissons Ratio (z) = 0.21305 0.06308
#
# Static dielectric constant tensor:
#      x y z
#    x 3.242940 -0.087110 0.082090 
#    y -0.087110 3.174160 0.101610 
#    z 0.082090 0.101610 3.236470 
# 
# 
# High freq. dielectric constant tensor:
#      x y z
#    x 1.691290 -0.006220 0.005010 
#    y -0.006220 1.687910 0.007180 
#    z 0.005010 0.007180 1.688400 
# 
# From -- ./inp_files/610446.got.cif
#   From: 2010.06.25/outbox.cif.g09.slc.cpg/sg2_306_cif.got.tgz:610446.got - 2010.06.27 13:26:56.
