data_PCOD8040143
_publ_section_title
;
Structure prediction by ZEFSAII (Michael W. Deem and Ramdas Pophale) SiO2 
 PCOD8040143
Probable space group: P -1
;
_chemical_formula_sum "Si O2"
_cell_formula_units_Z 14
_cell_length_a 16.149380
_cell_length_b 9.123349
_cell_length_c 15.483925
_cell_angle_alpha 144.846721
_cell_angle_beta 23.707610
_cell_angle_gamma 132.647524
_cell_volume 502.579419
_symmetry_space_group_name_H-M "P -1"
_symmetry_group_IT_number 2
_symmetry_cell_setting 'triclinic'
loop_
_space_group_symop_operation_xyz
x,y,z
-x,-y,-z
loop_
_atom_site_type_symbol
_atom_site_label
_atom_site_fract_x
_atom_site_fract_y
_atom_site_fract_z
Si Si1 0.012045 0.485223 0.323504
Si Si2 0.219169 0.278208 0.712233
Si Si3 0.253518 0.059470 0.320866
Si Si4 0.812715 0.075683 0.284285
Si Si5 0.965497 0.078850 0.382817
Si Si6 0.429228 0.756557 0.769462
Si Si7 0.632709 0.517198 0.143226
O O1 0.910378 0.256750 0.343896
O O2 0.102153 0.602492 0.378233
O O3 0.819452 0.728675 0.584093
O O4 0.194515 0.374175 0.021399
O O5 0.426353 0.346516 0.504800
O O6 0.228450 0.189412 0.762201
O O7 0.212162 0.994022 0.541429
O O8 0.000000 0.500000 0.000000
O O9 0.044045 0.062390 0.580828
O O10 0.428917 0.140506 0.249627
O O11 0.370770 0.763422 0.029983
O O12 0.595270 0.258121 0.537838
O O13 0.000000 0.000000 0.000000
O O14 0.206557 0.980028 0.063493
O O15 0.337887 0.535652 0.803741
#
# Coordination Sequence:
#
# PCOD8040143 Si02
#       7
#     2   2   2   2   2   2   2
#     4  11  21  40  71 107 138 163 226 276 328 397
#     4  11  28  47  63  91 137 183 226 271 336 402
#     4  10  18  35  67 111 136 167 215 272 332 398
#     4  12  28  46  66  94 136 181 225 283 327 391
#     4  10  21  39  69 103 130 174 218 272 331 397
#     4  11  19  36  70  98 131 173 217 269 331 394
#     4  11  20  37  71 103 131 170 225 273 328 389
#
# _framework density 27.856293000000001
#
# number of rings (size 3 to 8) (size 9 to 14) (size 15 to 20)
#    0.000    1.143    4.286    3.000    2.000    2.857 
#    0.000   10.000    0.000    0.000    0.000    0.000 
#    0.000    0.000    0.000    0.000    0.000    0.000 
#
# Total GULP energy -173554.849856 kJ/mol
# GULP energy per Si atom -12396.774990 kJ/mol
# Density = 2.779289 g / cm^3
# Si number density = 27.856293 Si / 1000 Ang^3
#
#
#
# Elastic Constant Matrix: (Units=GPa)
#
#
# Indices 1 2 3 4 5 6 
#
# 1 62.2923 22.3930 33.4609 -9.0573 13.1400 8.6292
# 2 22.3930 192.6804 58.4352 -26.9261 9.4538 10.5167
# 3 33.4609 58.4352 192.6968 -35.8863 0.0162 -18.1429
# 4 -9.0573 -26.9261 -35.8863 43.0684 -8.0589 -4.8116
# 5 13.1400 9.4538 0.0162 -8.0589 42.6291 -1.2999
# 6 8.6292 10.5167 -18.1429 -4.8116 -1.2999 42.2223
#
#
#
# Elastic Compliance Matrix: (Units=1/GPa)
#
#
# Indices 1 2 3 4 5 6 
#
# 1 0.020636 -0.000653 -0.004270 -0.001583 -0.006705 -0.006277
# 2 -0.000653 0.006166 -0.001546 0.002066 -0.000832 -0.001857
# 3 -0.004270 -0.001546 0.008032 0.005994 0.002957 0.005483
# 4 -0.001583 0.002066 0.005994 0.030990 0.006072 0.006103
# 5 -0.006705 -0.000832 0.002957 0.006072 0.026989 0.004371
# 6 -0.006277 -0.001857 0.005483 0.006103 0.004371 0.028616
#
#
# Mechanical properties :
#
#
# Convention : Reuss Voigt Hill
#
# Bulk Modulus (GPa) = 45.67394 75.13862 60.40628
# Shear Modulus (GPa) = 35.29433 47.80932 41.55182
#
# Velocity S-wave (km/s) = 3.56338 4.14730 3.86638
# Velocity P-wave (km/s) = 5.77599 7.06864 6.45476
#
# Compressibility (1/GPa) = 0.02189432
#
# Stress axis : x y z
#
# Youngs Moduli (GPa) = 48.45987 162.18903 124.49797
#
# Poissons Ratio (x) = 0.10586 0.53166
# Poissons Ratio (y) = 0.03163 0.19253
# Poissons Ratio (z) = 0.20695 0.25082
#
# Static dielectric constant tensor:
#      x y z
#    x 5.623510 0.739930 0.685750 
#    y 0.739930 6.139660 -0.400590 
#    z 0.685750 -0.400590 5.116890 
# 
# 
# High freq. dielectric constant tensor:
#      x y z
#    x 2.148110 0.045170 0.040220 
#    y 0.045170 2.164970 -0.018890 
#    z 0.040220 -0.018890 2.123510 
# 
# From -- ./inp_files/427782.got.cif
#   From: 2010.06.25/outbox.cif.g09.slc.cpg/sg2_214_cif.got.tgz:427782.got - 2010.06.27 13:26:56.
