data_PCOD8040575
_publ_section_title
;
Structure prediction by ZEFSAII (Michael W. Deem and Ramdas Pophale) SiO2 
 PCOD8040575
Probable space group: P -1
;
_chemical_formula_sum "Si O2"
_cell_formula_units_Z 16
_cell_length_a 8.950455
_cell_length_b 20.479666
_cell_length_c 12.029971
_cell_angle_alpha 137.919717
_cell_angle_beta 138.384279
_cell_angle_gamma 73.245907
_cell_volume 785.875058
_symmetry_space_group_name_H-M "P -1"
_symmetry_group_IT_number 2
_symmetry_cell_setting 'triclinic'
loop_
_space_group_symop_operation_xyz
x,y,z
-x,-y,-z
loop_
_atom_site_type_symbol
_atom_site_label
_atom_site_fract_x
_atom_site_fract_y
_atom_site_fract_z
Si Si1 0.298778 0.841366 0.520622
Si Si2 0.772205 0.858718 0.897932
Si Si3 0.459076 0.589925 0.372614
Si Si4 0.051802 0.584342 0.974179
Si Si5 0.931722 0.568925 0.630699
Si Si6 0.960391 0.938406 0.515093
Si Si7 0.569244 0.166845 0.799545
Si Si8 0.701396 0.992528 0.746212
O O1 0.461600 0.824269 0.684022
O O2 0.126911 0.880467 0.536563
O O3 0.559513 0.953807 0.738617
O O4 0.101122 0.713596 0.183432
O O5 0.709574 0.729099 0.723498
O O6 0.953819 0.920603 0.960922
O O7 0.950474 0.954794 0.214358
O O8 0.613264 0.524437 0.373157
O O9 0.223301 0.523604 0.251774
O O10 0.317531 0.589196 0.175444
O O11 0.993999 0.551737 0.770507
O O12 0.000000 0.500000 0.500000
O O13 0.132907 0.706876 0.878951
O O14 0.636774 0.829441 0.224522
O O15 0.000000 0.000000 0.500000
O O16 0.606847 0.067854 0.734893
O O17 0.429234 0.130678 0.553171
#
# Coordination Sequence:
#
# PCOD8040575 Si02
#       8
#     2   2   2   2   2   2   2   2
#     4  11  21  38  63  88 120 160 200 246 304 366
#     4  10  22  38  61  89 120 157 200 248 301 368
#     4  10  23  45  67  90 125 161 212 261 305 366
#     4  10  24  44  66  92 122 166 209 259 309 363
#     4  12  25  41  66  92 124 165 212 255 311 373
#     4  11  23  35  58  89 125 158 191 250 304 358
#     4  10  21  37  56  91 121 154 199 248 304 357
#     4  10  18  37  63  84 120 154 198 249 294 368
#
# _framework density 20.359469000000001
#
# number of rings (size 3 to 8) (size 9 to 14) (size 15 to 20)
#    0.000    1.500    3.750    1.125    3.500    1.500 
#    0.000    0.000    0.000    0.000    0.000    0.000 
#    0.000    0.000    0.000    0.000    0.000    0.000 
#
# Total GULP energy -198247.834676 kJ/mol
# GULP energy per Si atom -12390.489667 kJ/mol
# Density = 2.031313 g / cm^3
# Si number density = 20.359469 Si / 1000 Ang^3
#
#
#
# Elastic Constant Matrix: (Units=GPa)
#
#
# Indices 1 2 3 4 5 6 
#
# 1 93.6308 28.5132 34.7599 3.6013 6.8462 -0.6494
# 2 28.5132 68.3682 24.2792 -1.0145 -2.0208 -4.6210
# 3 34.7599 24.2792 76.0086 3.8544 6.5287 -2.0936
# 4 3.6013 -1.0145 3.8544 29.9037 2.1212 6.5896
# 5 6.8462 -2.0208 6.5287 2.1212 31.0457 -0.9349
# 6 -0.6494 -4.6210 -2.0936 6.5896 -0.9349 36.2100
#
#
#
# Elastic Compliance Matrix: (Units=1/GPa)
#
#
# Indices 1 2 3 4 5 6 
#
# 1 0.013949 -0.004226 -0.004797 -0.000942 -0.002292 -0.000454
# 2 -0.004226 0.018073 -0.004094 0.001025 0.002956 0.001884
# 3 -0.004797 -0.004094 0.016988 -0.001699 -0.002647 0.000614
# 4 -0.000942 0.001025 -0.001699 0.035375 -0.001980 -0.006473
# 5 -0.002292 0.002956 -0.002647 -0.001980 0.033643 0.001412
# 6 -0.000454 0.001884 0.000614 -0.006473 0.001412 0.029099
#
#
# Mechanical properties :
#
#
# Convention : Reuss Voigt Hill
#
# Bulk Modulus (GPa) = 43.90728 45.90134 44.90431
# Shear Modulus (GPa) = 27.63145 29.46223 28.54684
#
# Velocity S-wave (km/s) = 3.68799 3.80821 3.74858
# Velocity P-wave (km/s) = 6.30459 6.47541 6.39057
#
# Compressibility (1/GPa) = 0.02277527
#
# Stress axis : x y z
#
# Youngs Moduli (GPa) = 71.69104 55.33060 58.86399
#
# Poissons Ratio (x) = 0.23384 0.28236
# Poissons Ratio (y) = 0.30299 0.24101
# Poissons Ratio (z) = 0.34389 0.22654
#
# Static dielectric constant tensor:
#      x y z
#    x 3.992400 0.119530 0.659940 
#    y 0.119530 3.309250 -0.725400 
#    z 0.659940 -0.725400 2.746380 
# 
# 
# High freq. dielectric constant tensor:
#      x y z
#    x 1.794610 -0.002830 0.025190 
#    y -0.002830 1.798650 -0.000680 
#    z 0.025190 -0.000680 1.790790 
# 
# From -- ./inp_files/180352.got.cif
#   From: 2010.06.25/outbox.cif.g09.slc.cpg/sg2_91_cif.got.tgz:180352.got - 2010.06.27 13:26:56.
