data_PCOD8040354
_publ_section_title
;
Structure prediction by ZEFSAII (Michael W. Deem and Ramdas Pophale) SiO2 
 PCOD8040354
Probable space group: P -1
;
_chemical_formula_sum "Si O2"
_cell_formula_units_Z 16
_cell_length_a 8.397819
_cell_length_b 20.177985
_cell_length_c 8.980273
_cell_angle_alpha 44.994052
_cell_angle_beta 47.893862
_cell_angle_gamma 51.202545
_cell_volume 763.786213
_symmetry_space_group_name_H-M "P -1"
_symmetry_group_IT_number 2
_symmetry_cell_setting 'triclinic'
loop_
_space_group_symop_operation_xyz
x,y,z
-x,-y,-z
loop_
_atom_site_type_symbol
_atom_site_label
_atom_site_fract_x
_atom_site_fract_y
_atom_site_fract_z
Si Si1 0.510614 0.107196 0.640190
Si Si2 0.957411 0.797936 0.065551
Si Si3 0.908910 0.172293 0.392897
Si Si4 0.433108 0.786096 0.866703
Si Si5 0.621053 0.928689 0.666577
Si Si6 0.144190 0.396460 0.518725
Si Si7 0.616298 0.589039 0.932036
Si Si8 0.624553 0.381323 0.256586
O O1 0.274011 0.137928 0.821565
O O2 0.498786 0.173509 0.395929
O O3 0.705096 0.124082 0.597855
O O4 0.567982 0.991333 0.752516
O O5 0.975753 0.683660 0.234255
O O6 0.976099 0.833864 0.830434
O O7 0.165098 0.811542 0.010129
O O8 0.110214 0.109652 0.471233
O O9 0.823282 0.284359 0.327000
O O10 0.522551 0.835061 0.873783
O O11 0.553351 0.668777 0.977437
O O12 0.500000 0.000000 0.500000
O O13 0.173385 0.399700 0.315216
O O14 0.389499 0.370888 0.484571
O O15 0.000000 0.500000 0.500000
O O16 0.398677 0.608412 0.926611
O O17 0.674114 0.478655 0.137604
#
# Coordination Sequence:
#
# PCOD8040354 Si02
#       8
#     2   2   2   2   2   2   2   2
#     4  10  19  38  58  86 100 144 193 228 283 314
#     4  11  18  31  61  80 118 137 178 241 268 321
#     4  11  20  38  56  86 112 137 191 237 270 320
#     4  10  19  37  53  83 116 147 183 219 271 337
#     4  10  24  40  60  74 110 157 184 228 283 329
#     4  10  15  25  50  88 114 140 171 222 277 317
#     4   9  15  30  52  84 117 136 184 213 267 339
#     4   9  16  29  53  86 113 135 185 223 266 324
#
# _framework density 20.948270999999998
#
# number of rings (size 3 to 8) (size 9 to 14) (size 15 to 20)
#    0.750    1.250    5.000    1.875    0.000    1.000 
#    0.000    3.125    0.000    0.000    0.000    3.500 
#    0.000    0.000    0.000    0.000    0.000    0.000 
#
# Total GULP energy -198282.301893 kJ/mol
# GULP energy per Si atom -12392.643868 kJ/mol
# Density = 2.090059 g / cm^3
# Si number density = 20.948271 Si / 1000 Ang^3
#
#
#
# Elastic Constant Matrix: (Units=GPa)
#
#
# Indices 1 2 3 4 5 6 
#
# 1 63.3907 63.4452 25.7710 -8.2633 -27.5585 -2.9442
# 2 63.4452 199.3827 41.4422 -4.7979 -30.7498 -1.0989
# 3 25.7710 41.4422 68.7003 12.6470 -25.7264 6.0063
# 4 -8.2633 -4.7979 12.6470 38.2736 0.6322 -17.5943
# 5 -27.5585 -30.7498 -25.7264 0.6322 24.6507 -8.3300
# 6 -2.9442 -1.0989 6.0063 -17.5943 -8.3300 29.2004
#
#
#
# Elastic Compliance Matrix: (Units=1/GPa)
#
#
# Indices 1 2 3 4 5 6 
#
# 1 0.063143 -0.006943 -0.001795 0.034588 0.075697 0.048909
# 2 -0.006943 0.007599 -0.002260 0.000206 -0.000650 -0.000010
# 3 -0.001795 -0.002260 0.028247 -0.014178 0.022219 -0.008281
# 4 0.034588 0.000206 -0.014178 0.063658 0.041638 0.056646
# 5 0.075697 -0.000650 0.022219 0.041638 0.172650 0.077378
# 6 0.048909 -0.000010 -0.008281 0.056646 0.077378 0.097085
#
#
# Mechanical properties :
#
#
# Convention : Reuss Voigt Hill
#
# Bulk Modulus (GPa) = 12.98816 65.86559 39.42688
# Shear Modulus (GPa) = 10.41571 31.81264 21.11417
#
# Velocity S-wave (km/s) = 2.23224 3.90119 3.17822
# Velocity P-wave (km/s) = 3.58573 7.19740 5.68595
#
# Compressibility (1/GPa) = 0.07699318
#
# Stress axis : x y z
#
# Youngs Moduli (GPa) = 15.83707 131.59153 35.40171
#
# Poissons Ratio (x) = 0.91368 0.06353
# Poissons Ratio (y) = 0.10996 0.08002
# Poissons Ratio (z) = 0.02842 0.29743
#
# Static dielectric constant tensor:
#      x y z
#    x 3.617970 0.203680 -0.492190 
#    y 0.203680 4.086040 -0.217370 
#    z -0.492190 -0.217370 3.735080 
# 
# 
# High freq. dielectric constant tensor:
#      x y z
#    x 1.766620 0.002270 -0.036790 
#    y 0.002270 1.844890 -0.007770 
#    z -0.036790 -0.007770 1.800740 
# 
# From -- ./inp_files/406191.got.cif
#   From: 2010.06.25/outbox.cif.g09.slc.cpg/sg2_204_cif.got.tgz:406191.got - 2010.06.27 13:26:56.
