data_PCOD8040360
_publ_section_title
;
Structure prediction by ZEFSAII (Michael W. Deem and Ramdas Pophale) SiO2 
 PCOD8040360
Probable space group: P -1
;
_chemical_formula_sum "Si O2"
_cell_formula_units_Z 16
_cell_length_a 19.856723
_cell_length_b 13.121150
_cell_length_c 9.141966
_cell_angle_alpha 82.429204
_cell_angle_beta 124.013547
_cell_angle_gamma 47.918361
_cell_volume 831.225599
_symmetry_space_group_name_H-M "P -1"
_symmetry_group_IT_number 2
_symmetry_cell_setting 'triclinic'
loop_
_space_group_symop_operation_xyz
x,y,z
-x,-y,-z
loop_
_atom_site_type_symbol
_atom_site_label
_atom_site_fract_x
_atom_site_fract_y
_atom_site_fract_z
Si Si1 0.007907 0.009548 0.182190
Si Si2 0.964808 0.796581 0.786846
Si Si3 0.351195 0.370651 0.508322
Si Si4 0.244441 0.016166 0.231241
Si Si5 0.100734 0.685635 0.410922
Si Si6 0.734653 0.841931 0.001911
Si Si7 0.419578 0.478920 0.392515
Si Si8 0.032799 0.619672 0.600420
O O1 0.114621 0.994938 0.345169
O O2 0.802530 0.255515 0.965874
O O3 0.117729 0.789251 0.433913
O O4 0.000000 0.000000 0.000000
O O5 0.183259 0.541403 0.155581
O O6 0.946052 0.772621 0.608081
O O7 0.826517 0.888809 0.706999
O O8 0.274041 0.449076 0.564136
O O9 0.436092 0.388616 0.576958
O O10 0.514942 0.097753 0.738545
O O11 0.457104 0.722904 0.542563
O O12 0.241117 0.132183 0.131309
O O13 0.102484 0.102623 0.954136
O O14 0.119516 0.607339 0.602595
O O15 0.795759 0.653656 0.096380
O O16 0.861660 0.753850 0.293322
O O17 0.500000 0.500000 0.500000
#
# Coordination Sequence:
#
# PCOD8040360 Si02
#       8
#     2   2   2   2   2   2   2   2
#     4  11  17  31  54  82 107 139 178 216 256 319
#     4  10  20  34  54  85 107 135 178 227 259 307
#     4   9  19  33  56  81 101 135 190 217 250 320
#     4   9  17  31  54  79 102 137 183 215 257 311
#     4  10  18  33  53  77 108 145 174 209 265 328
#     4   9  20  39  55  76 104 145 180 219 264 320
#     4  10  15  25  51  82 100 131 173 222 248 299
#     4  10  22  37  54  75 112 143 174 219 276 309
#
# _framework density 19.248688000000001
#
# number of rings (size 3 to 8) (size 9 to 14) (size 15 to 20)
#    0.000    2.250    5.000    0.000    0.000    2.000 
#    0.000    3.750    0.000    1.500    0.000    0.000 
#    0.000    0.000    0.000    0.000    0.000    0.000 
#
# Total GULP energy -198336.833037 kJ/mol
# GULP energy per Si atom -12396.052065 kJ/mol
# Density = 1.920488 g / cm^3
# Si number density = 19.248688 Si / 1000 Ang^3
#
#
#
# Elastic Constant Matrix: (Units=GPa)
#
#
# Indices 1 2 3 4 5 6 
#
# 1 120.9474 67.0859 30.0388 -8.6763 -18.5016 -19.0322
# 2 67.0859 110.7135 17.6939 -3.0316 -13.1823 -12.6991
# 3 30.0388 17.6939 20.1932 -11.6660 0.2460 -5.8508
# 4 -8.6763 -3.0316 -11.6660 26.5844 -4.9931 -1.8488
# 5 -18.5016 -13.1823 0.2460 -4.9931 24.1233 -9.3429
# 6 -19.0322 -12.6991 -5.8508 -1.8488 -9.3429 36.4315
#
#
#
# Elastic Compliance Matrix: (Units=1/GPa)
#
#
# Indices 1 2 3 4 5 6 
#
# 1 0.022168 -0.006193 -0.025234 -0.000559 0.017574 0.009848
# 2 -0.006193 0.013862 -0.002972 -0.000969 0.003408 0.001944
# 3 -0.025234 -0.002972 0.112884 0.038665 -0.013158 0.002498
# 4 -0.000559 -0.000969 0.038665 0.058073 0.015510 0.012504
# 5 0.017574 0.003408 -0.013158 0.015510 0.070659 0.027163
# 6 0.009848 0.001944 0.002498 0.012504 0.027163 0.041273
#
#
# Mechanical properties :
#
#
# Convention : Reuss Voigt Hill
#
# Bulk Modulus (GPa) = 12.48176 53.49903 32.99040
# Shear Modulus (GPa) = 12.06498 26.56355 19.31426
#
# Velocity S-wave (km/s) = 2.50630 3.71889 3.17110
# Velocity P-wave (km/s) = 3.85668 6.80398 5.53028
#
# Compressibility (1/GPa) = 0.08011689
#
# Stress axis : x y z
#
# Youngs Moduli (GPa) = 45.10966 72.13882 8.85863
#
# Poissons Ratio (x) = 0.44677 0.22354
# Poissons Ratio (y) = 0.27937 0.02633
# Poissons Ratio (z) = 1.13829 0.21439
#
# Static dielectric constant tensor:
#      x y z
#    x 3.837890 -0.026460 0.000140 
#    y -0.026460 3.410610 -0.378680 
#    z 0.000140 -0.378680 3.248850 
# 
# 
# High freq. dielectric constant tensor:
#      x y z
#    x 1.763990 -0.004990 -0.000880 
#    y -0.004990 1.738050 -0.033950 
#    z -0.000880 -0.033950 1.706990 
# 
# From -- ./inp_files/169751.got.cif
#   From: 2010.06.25/outbox.cif.g09.slc.cpg/sg2_85_cif.got.tgz:169751.got - 2010.06.27 13:26:56.
