data_PCOD8040765
_publ_section_title
;
Structure prediction by ZEFSAII (Michael W. Deem and Ramdas Pophale) SiO2 
 PCOD8040765
Probable space group: P -1
;
_chemical_formula_sum "Si O2"
_cell_formula_units_Z 16
_cell_length_a 7.935287
_cell_length_b 20.235198
_cell_length_c 14.264775
_cell_angle_alpha 156.589397
_cell_angle_beta 127.645761
_cell_angle_gamma 52.585630
_cell_volume 712.478946
_symmetry_space_group_name_H-M "P -1"
_symmetry_group_IT_number 2
_symmetry_cell_setting 'triclinic'
loop_
_space_group_symop_operation_xyz
x,y,z
-x,-y,-z
loop_
_atom_site_type_symbol
_atom_site_label
_atom_site_fract_x
_atom_site_fract_y
_atom_site_fract_z
Si Si1 0.266436 0.451254 0.362979
Si Si2 0.217528 0.017504 0.546067
Si Si3 0.876556 0.615140 0.339067
Si Si4 0.818635 0.655665 0.164505
Si Si5 0.175600 0.109944 0.170747
Si Si6 0.853493 0.319319 0.220246
Si Si7 0.489106 0.133845 0.950185
Si Si8 0.666212 0.330353 0.970882
O O1 0.500000 0.500000 0.500000
O O2 0.155580 0.500472 0.491793
O O3 0.126552 0.551605 0.363777
O O4 0.291763 0.253306 0.089403
O O5 0.160504 0.183904 0.681754
O O6 0.399564 0.030156 0.701502
O O7 0.304800 0.859130 0.304264
O O8 0.000000 0.000000 0.500000
O O9 0.852778 0.704541 0.347095
O O10 0.780403 0.751977 0.559187
O O11 0.742661 0.457579 0.087089
O O12 0.580979 0.607346 0.004557
O O13 0.000000 0.500000 0.000000
O O14 0.086262 0.202902 0.165364
O O15 0.403549 0.986724 0.085605
O O16 0.000000 0.000000 0.000000
O O17 0.663619 0.234521 0.092950
O O18 0.819202 0.343939 0.130480
#
# Coordination Sequence:
#
# PCOD8040765 Si02
#       8
#     2   2   2   2   2   2   2   2
#     4   9  19  37  64  94 127 181 215 273 327 402
#     4  12  26  44  70  98 136 181 229 278 343 411
#     4  11  24  42  67  95 137 175 225 280 333 401
#     4  12  26  43  68 102 133 180 227 281 346 402
#     4   9  20  36  63  98 125 169 218 269 327 396
#     4   9  20  37  64  94 126 176 220 263 339 397
#     4  10  18  38  65  91 130 170 221 273 332 390
#     4  12  25  44  68 100 138 180 227 281 339 414
#
# _framework density 22.456804000000002
#
# number of rings (size 3 to 8) (size 9 to 14) (size 15 to 20)
#    0.000    1.500    1.250    4.500    5.250    3.000 
#    0.000    0.000    2.750    2.250    0.000    0.000 
#    0.000    0.000    0.000    0.000    0.000    0.000 
#
# Total GULP energy -198350.378116 kJ/mol
# GULP energy per Si atom -12396.898632 kJ/mol
# Density = 2.240569 g / cm^3
# Si number density = 22.456804 Si / 1000 Ang^3
#
#
#
# Elastic Constant Matrix: (Units=GPa)
#
#
# Indices 1 2 3 4 5 6 
#
# 1 56.5782 41.3067 14.0650 7.6873 -4.2053 0.8619
# 2 41.3067 158.9003 38.8479 -9.7316 -5.1846 -8.9345
# 3 14.0650 38.8479 110.3151 -3.9839 -9.1372 -6.4424
# 4 7.6873 -9.7316 -3.9839 35.5046 3.5117 -8.7128
# 5 -4.2053 -5.1846 -9.1372 3.5117 33.8393 5.6440
# 6 0.8619 -8.9345 -6.4424 -8.7128 5.6440 27.5035
#
#
#
# Elastic Compliance Matrix: (Units=1/GPa)
#
#
# Indices 1 2 3 4 5 6 
#
# 1 0.024781 -0.007027 -0.001126 -0.009556 0.003883 -0.007147
# 2 -0.007027 0.009128 -0.001975 0.005057 -0.001299 0.004591
# 3 -0.001126 -0.001975 0.010203 0.001084 0.001911 0.001735
# 4 -0.009556 0.005057 0.001084 0.036029 -0.006346 0.014912
# 5 0.003883 -0.001299 0.001911 -0.006346 0.032472 -0.008770
# 6 -0.007147 0.004591 0.001735 0.014912 -0.008770 0.045005
#
#
# Mechanical properties :
#
#
# Convention : Reuss Voigt Hill
#
# Bulk Modulus (GPa) = 41.91928 57.13698 49.52813
# Shear Modulus (GPa) = 26.90691 34.80774 30.85733
#
# Velocity S-wave (km/s) = 3.46520 3.94126 3.71087
# Velocity P-wave (km/s) = 5.89214 6.79777 6.36109
#
# Compressibility (1/GPa) = 0.02385537
#
# Stress axis : x y z
#
# Youngs Moduli (GPa) = 40.35419 109.54828 98.01182
#
# Poissons Ratio (x) = 0.76979 0.11034
# Poissons Ratio (y) = 0.28357 0.19362
# Poissons Ratio (z) = 0.04543 0.21641
#
# Static dielectric constant tensor:
#      x y z
#    x 3.925510 -0.307930 -0.268730 
#    y -0.307930 4.543460 0.257100 
#    z -0.268730 0.257100 4.697670 
# 
# 
# High freq. dielectric constant tensor:
#      x y z
#    x 1.867260 -0.017570 0.001910 
#    y -0.017570 1.903730 -0.002170 
#    z 0.001910 -0.002170 1.896720 
# 
# From -- ./inp_files/221668.got.cif
#   From: 2010.06.25/outbox.cif.g09.slc.cpg/sg2_111_cif.got.tgz:221668.got - 2010.06.27 13:26:56.
