data_PCOD8040694
_publ_section_title
;
Structure prediction by ZEFSAII (Michael W. Deem and Ramdas Pophale) SiO2 
 PCOD8040694
Probable space group: P -1
;
_chemical_formula_sum "Si O2"
_cell_formula_units_Z 16
_cell_length_a 9.323572
_cell_length_b 8.660342
_cell_length_c 17.165569
_cell_angle_alpha 53.432546
_cell_angle_beta 118.254472
_cell_angle_gamma 134.680704
_cell_volume 787.920984
_symmetry_space_group_name_H-M "P -1"
_symmetry_group_IT_number 2
_symmetry_cell_setting 'triclinic'
loop_
_space_group_symop_operation_xyz
x,y,z
-x,-y,-z
loop_
_atom_site_type_symbol
_atom_site_label
_atom_site_fract_x
_atom_site_fract_y
_atom_site_fract_z
Si Si1 0.226823 0.675631 0.702941
Si Si2 0.660655 0.218171 0.868803
Si Si3 0.024626 0.028058 0.627879
Si Si4 0.742778 0.019566 0.087112
Si Si5 0.634723 0.127585 0.715697
Si Si6 0.912031 0.315499 0.180474
Si Si7 0.020511 0.180458 0.743817
Si Si8 0.152697 0.343261 0.427350
O O1 0.173526 0.593028 0.805801
O O2 0.205732 0.462546 0.713722
O O3 0.071720 0.722098 0.614207
O O4 0.454022 0.914620 0.681451
O O5 0.574568 0.084981 0.804032
O O6 0.844850 0.494841 0.819721
O O7 0.482573 0.200699 0.876367
O O8 0.739449 0.088237 0.976705
O O9 0.838289 0.812400 0.592326
O O10 0.147643 0.936561 0.724210
O O11 0.953237 0.109008 0.657783
O O12 0.176390 0.258456 0.542902
O O13 0.810353 0.251958 0.088167
O O14 0.906647 0.965957 0.153681
O O15 0.676471 0.374959 0.623499
O O16 0.830230 0.130186 0.756584
#
# Coordination Sequence:
#
# PCOD8040694 Si02
#       8
#     2   2   2   2   2   2   2   2
#     4  10  20  37  56  81 120 157 185 226 288 343
#     4  11  20  38  61  84 110 152 194 233 287 338
#     4   9  18  36  62  85 113 148 189 241 281 329
#     4  10  23  36  61  86 112 143 200 243 273 337
#     4  11  21  38  60  81 121 158 186 226 294 341
#     4  10  18  38  60  81 115 152 187 237 287 335
#     4  10  22  39  56  86 118 149 185 243 283 334
#     4   9  19  39  60  84 114 152 190 235 282 335
#
# _framework density 20.306605000000001
#
# number of rings (size 3 to 8) (size 9 to 14) (size 15 to 20)
#    0.000    2.000    5.000    0.375    0.000    4.500 
#    0.000   11.250    0.000    0.000    0.000    0.000 
#    0.000    0.000    0.000    0.000    0.000    0.000 
#
# Total GULP energy -198307.763346 kJ/mol
# GULP energy per Si atom -12394.235209 kJ/mol
# Density = 2.026039 g / cm^3
# Si number density = 20.306605 Si / 1000 Ang^3
#
#
#
# Elastic Constant Matrix: (Units=GPa)
#
#
# Indices 1 2 3 4 5 6 
#
# 1 52.9774 27.5734 27.3807 -9.0813 -4.3061 -7.9453
# 2 27.5734 106.1692 27.2775 -7.8897 3.0420 0.8595
# 3 27.3807 27.2775 98.7606 -1.1456 -9.3043 -7.4684
# 4 -9.0813 -7.8897 -1.1456 20.7878 -0.2443 -2.7042
# 5 -4.3061 3.0420 -9.3043 -0.2443 16.5922 1.3235
# 6 -7.9453 0.8595 -7.4684 -2.7042 1.3235 33.5324
#
#
#
# Elastic Compliance Matrix: (Units=1/GPa)
#
#
# Indices 1 2 3 4 5 6 
#
# 1 0.027338 -0.005194 -0.005101 0.010545 0.004853 0.006133
# 2 -0.005194 0.011640 -0.002320 0.001742 -0.004620 -0.001723
# 3 -0.005101 -0.002320 0.012834 -0.002161 0.006163 0.001292
# 4 0.010545 0.001742 -0.002161 0.054088 0.001501 0.006275
# 5 0.004853 -0.004620 0.006163 0.001501 0.065841 0.000163
# 6 0.006133 -0.001723 0.001292 0.006275 0.000163 0.032107
#
#
# Mechanical properties :
#
#
# Convention : Reuss Voigt Hill
#
# Bulk Modulus (GPa) = 37.62220 46.93004 42.27612
# Shear Modulus (GPa) = 21.01380 25.89419 23.45399
#
# Velocity S-wave (km/s) = 3.22036 3.57481 3.40221
# Velocity P-wave (km/s) = 5.69165 6.34034 6.02474
#
# Compressibility (1/GPa) = 0.02658005
#
# Stress axis : x y z
#
# Youngs Moduli (GPa) = 36.57917 85.91156 77.91892
#
# Poissons Ratio (x) = 0.44626 0.39748
# Poissons Ratio (y) = 0.19001 0.18078
# Poissons Ratio (z) = 0.18660 0.19933
#
# Static dielectric constant tensor:
#      x y z
#    x 3.442060 -0.220510 -0.168270 
#    y -0.220510 3.897890 0.121690 
#    z -0.168270 0.121690 3.651340 
# 
# 
# High freq. dielectric constant tensor:
#      x y z
#    x 1.763110 -0.004320 -0.011760 
#    y -0.004320 1.800490 0.007960 
#    z -0.011760 0.007960 1.786750 
# 
# From -- ./inp_files/197057.got.cif
#   From: 2010.06.25/outbox.cif.g09.slc.cpg/sg2_99_cif.got.tgz:197057.got - 2010.06.27 13:26:56.
