data_PCOD8040988
_publ_section_title
;
Structure prediction by ZEFSAII (Michael W. Deem and Ramdas Pophale) SiO2 
 PCOD8040988
Probable space group: P -1
;
_chemical_formula_sum "Si O2"
_cell_formula_units_Z 14
_cell_length_a 10.595364
_cell_length_b 16.259641
_cell_length_c 10.743149
_cell_angle_alpha 144.732534
_cell_angle_beta 109.953086
_cell_angle_gamma 47.022149
_cell_volume 672.616304
_symmetry_space_group_name_H-M "P -1"
_symmetry_group_IT_number 2
_symmetry_cell_setting 'triclinic'
loop_
_space_group_symop_operation_xyz
x,y,z
-x,-y,-z
loop_
_atom_site_type_symbol
_atom_site_label
_atom_site_fract_x
_atom_site_fract_y
_atom_site_fract_z
Si Si1 0.012995 0.339832 0.873932
Si Si2 0.198446 0.681453 0.559119
Si Si3 0.136826 0.215117 0.280725
Si Si4 0.128994 0.998873 0.343586
Si Si5 0.932448 0.421678 0.218099
Si Si6 0.377545 0.777585 0.912996
Si Si7 0.277388 0.622236 0.055432
O O1 0.806246 0.405806 0.890259
O O2 0.069344 0.326303 0.020469
O O3 0.167408 0.120385 0.576560
O O4 0.000000 0.500000 0.000000
O O5 0.250934 0.761810 0.774357
O O6 0.388959 0.441008 0.281956
O O7 0.049605 0.687928 0.580074
O O8 0.086715 0.837774 0.595950
O O9 0.176933 0.346731 0.492960
O O10 0.082471 0.244831 0.154300
O O11 0.333769 0.966117 0.068553
O O12 0.136340 0.870642 0.292000
O O13 0.309010 0.833412 0.101977
O O14 0.747955 0.456777 0.174899
O O15 0.500000 0.500000 0.000000
#
# Coordination Sequence:
#
# PCOD8040988 Si02
#       7
#     2   2   2   2   2   2   2
#     4  10  22  41  65  93 127 173 214 262 328 380
#     4  10  21  36  62  92 128 163 218 267 318 381
#     4  10  18  41  63  91 128 171 208 268 323 383
#     4  11  21  40  65  89 131 170 212 263 325 381
#     4   9  21  37  67  88 133 170 211 263 328 374
#     4  10  21  35  63  96 125 167 219 262 323 384
#     4  10  23  41  62  97 129 172 218 265 312 387
#
# _framework density 20.814242
#
# number of rings (size 3 to 8) (size 9 to 14) (size 15 to 20)
#    0.857    1.143    0.000    5.571    2.000    0.000 
#    0.000    6.429    0.000    0.000    0.000    0.000 
#    0.000    0.000    0.000    0.000    0.000    0.000 
#
# Total GULP energy -173466.932023 kJ/mol
# GULP energy per Si atom -12390.495144 kJ/mol
# Density = 2.076687 g / cm^3
# Si number density = 20.814242 Si / 1000 Ang^3
#
#
#
# Elastic Constant Matrix: (Units=GPa)
#
#
# Indices 1 2 3 4 5 6 
#
# 1 92.8903 55.8185 49.6522 15.1226 13.2328 17.5123
# 2 55.8185 112.7964 58.6820 7.1870 0.2358 6.8259
# 3 49.6522 58.6820 137.1333 4.4010 5.5906 -0.5971
# 4 15.1226 7.1870 4.4010 43.7403 1.9136 5.0506
# 5 13.2328 0.2358 5.5906 1.9136 39.7753 2.8329
# 6 17.5123 6.8259 -0.5971 5.0506 2.8329 22.0061
#
#
#
# Elastic Compliance Matrix: (Units=1/GPa)
#
#
# Indices 1 2 3 4 5 6 
#
# 1 0.021338 -0.007232 -0.004345 -0.003989 -0.005309 -0.013257
# 2 -0.007232 0.014239 -0.003593 0.000308 0.002754 0.000816
# 3 -0.004345 -0.003593 0.010422 0.000507 -0.000363 0.004785
# 4 -0.003989 0.000308 0.000507 0.024422 0.000260 -0.002546
# 5 -0.005309 0.002754 -0.000363 0.000260 0.026942 -0.000167
# 6 -0.013257 0.000816 0.004785 -0.002546 -0.000167 0.056474
#
#
# Mechanical properties :
#
#
# Convention : Reuss Voigt Hill
#
# Bulk Modulus (GPa) = 63.85630 74.56951 69.21290
# Shear Modulus (GPa) = 26.39957 33.01547 29.70752
#
# Velocity S-wave (km/s) = 3.56524 3.98703 3.78202
# Velocity P-wave (km/s) = 6.90606 7.55640 7.23854
#
# Compressibility (1/GPa) = 0.01566016
#
# Stress axis : x y z
#
# Youngs Moduli (GPa) = 46.86404 70.23019 95.94829
#
# Poissons Ratio (x) = 0.50788 0.41687
# Poissons Ratio (y) = 0.33891 0.34477
# Poissons Ratio (z) = 0.20361 0.25236
#
# Static dielectric constant tensor:
#      x y z
#    x 3.507100 0.231580 0.222090 
#    y 0.231580 3.890590 -0.111590 
#    z 0.222090 -0.111590 3.984130 
# 
# 
# High freq. dielectric constant tensor:
#      x y z
#    x 1.790120 0.021950 0.019460 
#    y 0.021950 1.814270 -0.012280 
#    z 0.019460 -0.012280 1.828320 
# 
# From -- ./inp_files/437112.got.cif
#   From: 2010.06.25/outbox.cif.g09.slc.cpg/sg2_219_cif.got.tgz:437112.got - 2010.06.27 13:26:56.
