data_PCOD8040173
_publ_section_title
;
Structure prediction by ZEFSAII (Michael W. Deem and Ramdas Pophale) SiO2 
 PCOD8040173
Probable space group: P -1
;
_chemical_formula_sum "Si O2"
_cell_formula_units_Z 16
_cell_length_a 18.820656
_cell_length_b 9.471816
_cell_length_c 11.090597
_cell_angle_alpha 73.022805
_cell_angle_beta 64.241469
_cell_angle_gamma 29.181550
_cell_volume 850.809633
_symmetry_space_group_name_H-M "P -1"
_symmetry_group_IT_number 2
_symmetry_cell_setting 'triclinic'
loop_
_space_group_symop_operation_xyz
x,y,z
-x,-y,-z
loop_
_atom_site_type_symbol
_atom_site_label
_atom_site_fract_x
_atom_site_fract_y
_atom_site_fract_z
Si Si1 0.156960 0.297115 0.992812
Si Si2 0.236177 0.370683 0.447147
Si Si3 0.768270 0.880452 0.661430
Si Si4 0.650515 0.502831 0.636855
Si Si5 0.024428 0.315236 0.763284
Si Si6 0.350624 0.763692 0.128229
Si Si7 0.702238 0.918582 0.300013
Si Si8 0.100515 0.043920 0.554642
O O1 0.270614 0.178878 0.835012
O O2 0.000000 0.500000 0.000000
O O3 0.106210 0.501608 0.080309
O O4 0.219084 0.044125 0.068266
O O5 0.296599 0.150637 0.361813
O O6 0.346200 0.335804 0.355975
O O7 0.258918 0.277481 0.589972
O O8 0.054597 0.708955 0.475513
O O9 0.798163 0.970497 0.530949
O O10 0.940004 0.566205 0.670623
O O11 0.635674 0.139810 0.795181
O O12 0.696032 0.318276 0.758887
O O13 0.481278 0.737260 0.644740
O O14 0.784627 0.275119 0.490105
O O15 0.187474 0.119426 0.742269
O O16 0.058043 0.110164 0.713306
O O17 0.500000 0.500000 0.000000
#
# Coordination Sequence:
#
# PCOD8040173 Si02
#       8
#     2   2   2   2   2   2   2   2
#     4   9  19  32  57  82  98 145 184 222 254 316
#     4  11  20  37  54  82 111 144 185 214 272 334
#     4   9  17  33  61  78  99 145 191 223 254 316
#     4  11  24  32  53  87 115 142 166 231 290 310
#     4   9  16  32  57  79  99 137 194 222 248 316
#     4  10  19  38  55  80 108 136 188 226 264 317
#     4  11  19  34  54  82 114 141 177 222 272 329
#     4  10  18  36  56  80 103 143 187 232 259 304
#
# _framework density 18.805617000000002
#
# number of rings (size 3 to 8) (size 9 to 14) (size 15 to 20)
#    0.000    2.000    3.750    1.500    1.750    0.500 
#    0.000    0.625    0.000    0.750    0.000    0.000 
#    0.000    0.000    0.000    0.000    0.000    0.000 
#
# Total GULP energy -198210.517165 kJ/mol
# GULP energy per Si atom -12388.157323 kJ/mol
# Density = 1.876281 g / cm^3
# Si number density = 18.805617 Si / 1000 Ang^3
#
#
#
# Elastic Constant Matrix: (Units=GPa)
#
#
# Indices 1 2 3 4 5 6 
#
# 1 78.5881 38.4045 36.2161 -3.9384 7.2524 5.5122
# 2 38.4045 88.4370 47.3422 7.8989 10.4391 -9.5421
# 3 36.2161 47.3422 103.2250 3.1014 23.6365 1.7240
# 4 -3.9384 7.8989 3.1014 31.8619 4.0791 3.1379
# 5 7.2524 10.4391 23.6365 4.0791 23.6131 -0.8020
# 6 5.5122 -9.5421 1.7240 3.1379 -0.8020 23.0044
#
#
#
# Elastic Compliance Matrix: (Units=1/GPa)
#
#
# Indices 1 2 3 4 5 6 
#
# 1 0.018860 -0.007999 -0.002820 0.005502 -0.000669 -0.008399
# 2 -0.007999 0.020082 -0.006857 -0.006713 0.002000 0.011746
# 3 -0.002820 -0.006857 0.016929 0.001842 -0.013508 -0.004159
# 4 0.005502 -0.006713 0.001842 0.035362 -0.006991 -0.009308
# 5 -0.000669 0.002000 -0.013508 -0.006991 0.056567 0.004928
# 6 -0.008399 0.011746 -0.004159 -0.009308 0.004928 0.052108
#
#
# Mechanical properties :
#
#
# Convention : Reuss Voigt Hill
#
# Bulk Modulus (GPa) = 48.73409 57.13065 52.93237
# Shear Modulus (GPa) = 20.65275 25.58170 23.11722
#
# Velocity S-wave (km/s) = 3.31754 3.69226 3.50990
# Velocity P-wave (km/s) = 6.37539 6.97298 6.68087
#
# Compressibility (1/GPa) = 0.02051952
#
# Stress axis : x y z
#
# Youngs Moduli (GPa) = 53.02305 49.79498 59.07124
#
# Poissons Ratio (x) = 0.39831 0.16659
# Poissons Ratio (y) = 0.42413 0.40502
# Poissons Ratio (z) = 0.14953 0.34142
#
# Static dielectric constant tensor:
#      x y z
#    x 3.365360 0.145400 0.677010 
#    y 0.145400 3.534390 0.402310 
#    z 0.677010 0.402310 4.070910 
# 
# 
# High freq. dielectric constant tensor:
#      x y z
#    x 1.696750 -0.004400 0.032330 
#    y -0.004400 1.729530 0.013980 
#    z 0.032330 0.013980 1.727260 
# 
# From -- ./inp_files/244173.got.cif
#   From: 2010.06.25/outbox.cif.g09.slc.cpg/sg2_123_cif.got.tgz:244173.got - 2010.06.27 13:26:56.
