data_PCOD8040815
_publ_section_title
;
Structure prediction by ZEFSAII (Michael W. Deem and Ramdas Pophale) SiO2 
 PCOD8040815
Probable space group: P -1
;
_chemical_formula_sum "Si O2"
_cell_formula_units_Z 14
_cell_length_a 8.938084
_cell_length_b 17.503588
_cell_length_c 15.874444
_cell_angle_alpha 156.631524
_cell_angle_beta 41.642364
_cell_angle_gamma 138.411705
_cell_volume 636.237877
_symmetry_space_group_name_H-M "P -1"
_symmetry_group_IT_number 2
_symmetry_cell_setting 'triclinic'
loop_
_space_group_symop_operation_xyz
x,y,z
-x,-y,-z
loop_
_atom_site_type_symbol
_atom_site_label
_atom_site_fract_x
_atom_site_fract_y
_atom_site_fract_z
Si Si1 0.159401 0.908719 0.640421
Si Si2 0.414283 0.938383 0.882527
Si Si3 0.088535 0.311680 0.802344
Si Si4 0.139884 0.192888 0.185551
Si Si5 0.113121 0.045351 0.367754
Si Si6 0.099822 0.297633 0.137716
Si Si7 0.556221 0.390404 0.782621
O O1 0.390368 0.826347 0.441365
O O2 0.996133 0.761364 0.627779
O O3 0.028016 0.924066 0.624584
O O4 0.219880 0.125014 0.877163
O O5 0.613208 0.870769 0.678248
O O6 0.179844 0.765491 0.813283
O O7 0.500000 0.000000 0.000000
O O8 0.378073 0.140694 0.060438
O O9 0.043292 0.172059 0.599445
O O10 0.356082 0.375617 0.782794
O O11 0.948273 0.187648 0.814502
O O12 0.000000 0.500000 0.000000
O O13 0.177165 0.359384 0.265338
O O14 0.000000 0.000000 0.000000
O O15 0.198428 0.487464 0.232293
O O16 0.500000 0.500000 0.000000
#
# Coordination Sequence:
#
# PCOD8040815 Si02
#       7
#     2   2   2   2   2   2   2
#     4  10  21  43  66  95 126 172 215 260 330 379
#     4  10  18  38  69  97 124 170 213 261 327 378
#     4  11  28  45  64  97 128 172 222 266 319 385
#     4   8  18  35  61  95 126 157 209 257 318 382
#     4  11  23  44  70  91 132 171 215 268 322 382
#     4  10  23  41  66  99 132 166 211 269 321 385
#     4  12  27  43  65  94 133 173 219 266 316 389
#
# _framework density 22.004348
#
# number of rings (size 3 to 8) (size 9 to 14) (size 15 to 20)
#    0.000    2.000    2.857    1.714    8.000    4.000 
#    0.000    0.714    0.000    0.000    0.000    0.000 
#    0.000    0.000    0.000    0.000    0.000    0.000 
#
# Total GULP energy -173433.818646 kJ/mol
# GULP energy per Si atom -12388.129903 kJ/mol
# Density = 2.195426 g / cm^3
# Si number density = 22.004348 Si / 1000 Ang^3
#
#
#
# Elastic Constant Matrix: (Units=GPa)
#
#
# Indices 1 2 3 4 5 6 
#
# 1 174.0953 48.4563 47.3167 -10.3320 -3.6840 -10.6092
# 2 48.4563 116.7290 24.8541 0.5221 -7.0426 -6.6408
# 3 47.3167 24.8541 96.1882 -9.6699 -19.2469 -6.0252
# 4 -10.3320 0.5221 -9.6699 24.3363 1.5804 3.1015
# 5 -3.6840 -7.0426 -19.2469 1.5804 38.9607 -13.8487
# 6 -10.6092 -6.6408 -6.0252 3.1015 -13.8487 35.1234
#
#
#
# Elastic Compliance Matrix: (Units=1/GPa)
#
#
# Indices 1 2 3 4 5 6 
#
# 1 0.007370 -0.002465 -0.002958 0.001991 -0.001056 0.000660
# 2 -0.002465 0.010049 -0.001122 -0.002057 0.001767 0.001842
# 3 -0.002958 -0.001122 0.014338 0.003415 0.007950 0.004187
# 4 0.001991 -0.002057 0.003415 0.043913 -0.001596 -0.003709
# 5 -0.001056 0.001767 0.007950 -0.001596 0.035377 0.015469
# 6 0.000660 0.001842 0.004187 -0.003709 0.015469 0.036164
#
#
# Mechanical properties :
#
#
# Convention : Reuss Voigt Hill
#
# Bulk Modulus (GPa) = 53.57024 69.80743 61.68883
# Shear Modulus (GPa) = 30.02566 37.44313 33.73439
#
# Velocity S-wave (km/s) = 3.69797 4.12955 3.91970
# Velocity P-wave (km/s) = 6.52927 7.38450 6.97002
#
# Compressibility (1/GPa) = 0.01866708
#
# Stress axis : x y z
#
# Youngs Moduli (GPa) = 135.68410 99.50778 69.74492
#
# Poissons Ratio (x) = 0.24524 0.20634
# Poissons Ratio (y) = 0.33440 0.07827
# Poissons Ratio (z) = 0.40142 0.11167
#
# Static dielectric constant tensor:
#      x y z
#    x 4.413850 -0.697420 0.037490 
#    y -0.697420 4.557150 -0.178060 
#    z 0.037490 -0.178060 3.859880 
# 
# 
# High freq. dielectric constant tensor:
#      x y z
#    x 1.883930 -0.018770 -0.000070 
#    y -0.018770 1.855790 -0.017650 
#    z -0.000070 -0.017650 1.856020 
# 
# From -- ./inp_files/562703.got.cif
#   From: 2010.06.25/outbox.cif.g09.slc.cpg/sg2_282_cif.got.tgz:562703.got - 2010.06.27 13:26:56.
