data_PCOD8040397
_publ_section_title
;
Structure prediction by ZEFSAII (Michael W. Deem and Ramdas Pophale) SiO2 
 PCOD8040397
Probable space group: P -1
;
_chemical_formula_sum "Si O2"
_cell_formula_units_Z 16
_cell_length_a 6.946552
_cell_length_b 10.547529
_cell_length_c 14.628578
_cell_angle_alpha 136.317821
_cell_angle_beta 63.723215
_cell_angle_gamma 115.915358
_cell_volume 651.836985
_symmetry_space_group_name_H-M "P -1"
_symmetry_group_IT_number 2
_symmetry_cell_setting 'triclinic'
loop_
_space_group_symop_operation_xyz
x,y,z
-x,-y,-z
loop_
_atom_site_type_symbol
_atom_site_label
_atom_site_fract_x
_atom_site_fract_y
_atom_site_fract_z
Si Si1 0.312090 0.678826 0.555350
Si Si2 0.087218 0.437619 0.746264
Si Si3 0.372421 0.527362 0.131982
Si Si4 0.948079 0.113349 0.484349
Si Si5 0.753815 0.186907 0.175776
Si Si6 0.258920 0.184564 0.102853
Si Si7 0.173777 0.267648 0.357724
Si Si8 0.584109 0.793351 0.375421
O O1 0.388442 0.797646 0.693876
O O2 0.319014 0.462472 0.462308
O O3 0.462099 0.746785 0.472768
O O4 0.067207 0.699941 0.598176
O O5 0.870065 0.481328 0.862552
O O6 0.985381 0.332266 0.618515
O O7 0.251396 0.630767 0.789919
O O8 0.204939 0.308477 0.718561
O O9 0.389291 0.362842 0.114497
O O10 0.456162 0.721684 0.271622
O O11 0.500000 0.500000 0.000000
O O12 0.126121 0.107975 0.363551
O O13 0.693345 0.020195 0.461051
O O14 0.000000 0.000000 0.500000
O O15 0.002303 0.175773 0.140984
O O16 0.653604 0.997624 0.045114
O O17 0.304621 0.198592 0.209592
#
# Coordination Sequence:
#
# PCOD8040397 Si02
#       8
#     2   2   2   2   2   2   2   2
#     4  10  19  34  65  95 119 169 221 268 325 378
#     4  10  22  42  62  92 132 167 214 277 321 386
#     4  11  24  42  66  90 131 176 215 270 331 392
#     4  10  22  39  60  95 134 170 212 272 329 385
#     4   9  18  35  61  91 127 166 212 268 323 379
#     4   9  19  36  61  93 124 165 221 262 321 389
#     4  10  18  36  64  90 128 168 215 271 320 381
#     4  11  24  40  64  98 128 169 223 266 331 391
#
# _framework density 24.546011
#
# number of rings (size 3 to 8) (size 9 to 14) (size 15 to 20)
#    0.000    2.000    2.500    0.750    0.000    8.000 
#    0.000    1.875    0.000    0.000    0.000    0.000 
#    0.000    0.000    0.000    0.000    0.000    0.000 
#
# Total GULP energy -198305.778045 kJ/mol
# GULP energy per Si atom -12394.111128 kJ/mol
# Density = 2.449014 g / cm^3
# Si number density = 24.546011 Si / 1000 Ang^3
#
#
#
# Elastic Constant Matrix: (Units=GPa)
#
#
# Indices 1 2 3 4 5 6 
#
# 1 30.4002 7.9806 7.9084 -9.1448 3.2000 7.0264
# 2 7.9806 158.2893 78.8649 -15.3446 3.6800 6.0843
# 3 7.9084 78.8649 155.6134 -18.6108 7.8773 8.3199
# 4 -9.1448 -15.3446 -18.6108 58.9442 5.0321 2.7295
# 5 3.2000 3.6800 7.8773 5.0321 26.7198 -7.7159
# 6 7.0264 6.0843 8.3199 2.7295 -7.7159 26.4077
#
#
#
# Elastic Compliance Matrix: (Units=1/GPa)
#
#
# Indices 1 2 3 4 5 6 
#
# 1 0.039688 -0.000747 0.000582 0.007705 -0.010436 -0.014417
# 2 -0.000747 0.008528 -0.004141 0.000842 -0.000198 -0.000606
# 3 0.000582 -0.004141 0.009142 0.002364 -0.003616 -0.003382
# 4 0.007705 0.000842 0.002364 0.020116 -0.007631 -0.007298
# 5 -0.010436 -0.000198 -0.003616 -0.007631 0.046501 0.018337
# 6 -0.014417 -0.000606 -0.003382 -0.007298 0.018337 0.049021
#
#
# Mechanical properties :
#
#
# Convention : Reuss Voigt Hill
#
# Bulk Modulus (GPa) = 20.51472 59.31231 39.91351
# Shear Modulus (GPa) = 25.27103 39.05096 32.16099
#
# Velocity S-wave (km/s) = 3.21212 3.99297 3.62364
# Velocity P-wave (km/s) = 4.70455 6.74349 5.81409
#
# Compressibility (1/GPa) = 0.04874549
#
# Stress axis : x y z
#
# Youngs Moduli (GPa) = 25.19679 117.26332 109.38751
#
# Poissons Ratio (x) = 0.08765 -0.06371
# Poissons Ratio (y) = 0.01883 0.45296
# Poissons Ratio (z) = -0.01468 0.48557
#
# Static dielectric constant tensor:
#      x y z
#    x 4.637790 0.327180 0.060280 
#    y 0.327180 4.745680 0.139240 
#    z 0.060280 0.139240 4.972310 
# 
# 
# High freq. dielectric constant tensor:
#      x y z
#    x 1.985520 0.008210 -0.006790 
#    y 0.008210 1.972530 0.004710 
#    z -0.006790 0.004710 1.971560 
# 
# From -- ./inp_files/500960.got.cif
#   From: 2010.06.25/outbox.cif.g09.slc.cpg/sg2_251_cif.got.tgz:500960.got - 2010.06.27 13:26:56.
