data_PCOD8040524
_publ_section_title
;
Structure prediction by ZEFSAII (Michael W. Deem and Ramdas Pophale) SiO2 
 PCOD8040524
Probable space group: P -1
;
_chemical_formula_sum "Si O2"
_cell_formula_units_Z 16
_cell_length_a 8.866308
_cell_length_b 9.456580
_cell_length_c 14.958630
_cell_angle_alpha 44.688765
_cell_angle_beta 93.733610
_cell_angle_gamma 108.902968
_cell_volume 808.324816
_symmetry_space_group_name_H-M "P -1"
_symmetry_group_IT_number 2
_symmetry_cell_setting 'triclinic'
loop_
_space_group_symop_operation_xyz
x,y,z
-x,-y,-z
loop_
_atom_site_type_symbol
_atom_site_label
_atom_site_fract_x
_atom_site_fract_y
_atom_site_fract_z
Si Si1 0.849881 0.952379 0.947350
Si Si2 0.100997 0.616452 0.179176
Si Si3 0.718434 0.506052 0.218352
Si Si4 0.552036 0.125526 0.244735
Si Si5 0.484926 0.190985 0.470580
Si Si6 0.815084 0.376806 0.014725
Si Si7 0.764245 0.799847 0.825085
Si Si8 0.157054 0.184602 0.381744
O O1 0.887902 0.910908 0.863834
O O2 0.811853 0.172053 0.848194
O O3 0.706858 0.731140 0.081508
O O4 0.000000 0.000000 0.000000
O O5 0.172007 0.710337 0.042998
O O6 0.150986 0.418558 0.293665
O O7 0.904026 0.525477 0.216553
O O8 0.608059 0.313718 0.236280
O O9 0.633980 0.427204 0.348286
O O10 0.391091 0.138857 0.187577
O O11 0.510294 0.882671 0.393149
O O12 0.702231 0.168100 0.162412
O O13 0.312681 0.199931 0.437010
O O14 0.500000 0.000000 0.500000
O O15 0.720506 0.541040 0.941251
O O16 0.000000 0.500000 0.000000
O O17 0.839430 0.881191 0.693004
O O18 0.000000 0.000000 0.500000
#
# Coordination Sequence:
#
# PCOD8040524 Si02
#       8
#     2   2   2   2   2   2   2   2
#     4  10  21  40  60  86 120 162 197 237 298 362
#     4  10  22  36  60  90 119 152 197 249 303 337
#     4  10  18  37  61  82 120 156 200 239 293 359
#     4  11  20  35  60  92 116 152 205 244 289 355
#     4  10  20  35  58  88 118 157 190 244 301 349
#     4  11  20  34  57  91 118 145 194 259 294 331
#     4  11  22  36  63  87 117 154 205 240 293 354
#     4  11  22  37  61  94 121 146 200 257 294 339
#
# _framework density 19.794021999999998
#
# number of rings (size 3 to 8) (size 9 to 14) (size 15 to 20)
#    0.000    1.500    5.000    2.625    1.750    0.000 
#    0.000    3.125    0.000    1.500    0.000    0.000 
#    0.000    0.000    0.000    0.000    0.000    0.000 
#
# Total GULP energy -198227.890274 kJ/mol
# GULP energy per Si atom -12389.243142 kJ/mol
# Density = 1.974897 g / cm^3
# Si number density = 19.794022 Si / 1000 Ang^3
#
#
#
# Elastic Constant Matrix: (Units=GPa)
#
#
# Indices 1 2 3 4 5 6 
#
# 1 106.1555 17.5235 55.5555 2.1889 1.0790 -5.0972
# 2 17.5235 72.5661 29.9599 -2.8589 -3.8922 -4.8716
# 3 55.5555 29.9599 152.8818 0.4511 -20.1116 -5.5323
# 4 2.1889 -2.8589 0.4511 27.9805 -3.9143 4.9670
# 5 1.0790 -3.8922 -20.1116 -3.9143 36.9026 3.9682
# 6 -5.0972 -4.8716 -5.5323 4.9670 3.9682 18.7887
#
#
#
# Elastic Compliance Matrix: (Units=1/GPa)
#
#
# Indices 1 2 3 4 5 6 
#
# 1 0.012214 -0.001134 -0.004563 -0.002009 -0.003493 0.002945
# 2 -0.001134 0.015308 -0.002478 0.001259 0.000155 0.002566
# 3 -0.004563 -0.002478 0.009337 0.000735 0.005081 -0.000399
# 4 -0.002009 0.001259 0.000735 0.038896 0.005959 -0.011543
# 5 -0.003493 0.000155 0.005081 0.005959 0.031438 -0.007627
# 6 0.002945 0.002566 -0.000399 -0.011543 -0.007627 0.059233
#
#
# Mechanical properties :
#
#
# Convention : Reuss Voigt Hill
#
# Bulk Modulus (GPa) = 48.76368 59.74235 54.25302
# Shear Modulus (GPa) = 26.36965 31.97199 29.17082
#
# Velocity S-wave (km/s) = 3.65389 4.02336 3.84307
# Velocity P-wave (km/s) = 6.51846 7.19936 6.86735
#
# Compressibility (1/GPa) = 0.02050706
#
# Stress axis : x y z
#
# Youngs Moduli (GPa) = 81.87458 65.32639 107.10464
#
# Poissons Ratio (x) = 0.07410 0.48873
# Poissons Ratio (y) = 0.09287 0.26542
# Poissons Ratio (z) = 0.37360 0.16189
#
# Static dielectric constant tensor:
#      x y z
#    x 3.552590 -0.157640 -0.265280 
#    y -0.157640 3.517580 -0.161260 
#    z -0.265280 -0.161260 4.112700 
# 
# 
# High freq. dielectric constant tensor:
#      x y z
#    x 1.768440 -0.003830 0.002690 
#    y -0.003830 1.732810 0.003220 
#    z 0.002690 0.003220 1.789660 
# 
# From -- ./inp_files/215926.got.cif
#   From: 2010.06.25/outbox.cif.g09.slc.cpg/sg2_108_cif.got.tgz:215926.got - 2010.06.27 13:26:56.
