data_PCOD8040266
_publ_section_title
;
Structure prediction by ZEFSAII (Michael W. Deem and Ramdas Pophale) SiO2 
 PCOD8040266
Probable space group: P -1
;
_chemical_formula_sum "Si O2"
_cell_formula_units_Z 16
_cell_length_a 6.786892
_cell_length_b 18.446793
_cell_length_c 7.514921
_cell_angle_alpha 67.481281
_cell_angle_beta 98.643140
_cell_angle_gamma 64.802018
_cell_volume 729.057492
_symmetry_space_group_name_H-M "P -1"
_symmetry_group_IT_number 2
_symmetry_cell_setting 'triclinic'
loop_
_space_group_symop_operation_xyz
x,y,z
-x,-y,-z
loop_
_atom_site_type_symbol
_atom_site_label
_atom_site_fract_x
_atom_site_fract_y
_atom_site_fract_z
Si Si1 0.795170 0.101706 0.552404
Si Si2 0.942087 0.803422 0.437709
Si Si3 0.266506 0.609775 0.494260
Si Si4 0.879282 0.105947 0.167795
Si Si5 0.494983 0.415956 0.808968
Si Si6 0.498376 0.174626 0.771996
Si Si7 0.187547 0.339327 0.800839
Si Si8 0.987260 0.256564 0.108922
O O1 0.004451 0.116031 0.625157
O O2 0.732489 0.129949 0.310400
O O3 0.573817 0.168073 0.582868
O O4 0.882845 0.994464 0.693546
O O5 0.160535 0.708463 0.479766
O O6 0.890915 0.782492 0.648712
O O7 0.713612 0.844312 0.242678
O O8 0.400855 0.524290 0.732138
O O9 0.446261 0.602347 0.376169
O O10 0.062368 0.598120 0.388102
O O11 0.950380 0.181460 0.070164
O O12 0.719556 0.103983 0.989711
O O13 0.285351 0.398739 0.847192
O O14 0.730736 0.349800 0.015376
O O15 0.388169 0.276486 0.742248
O O16 0.161432 0.275707 0.003303
#
# Coordination Sequence:
#
# PCOD8040266 Si02
#       8
#     2   2   2   2   2   2   2   2
#     4  10  23  43  61  86 123 152 202 245 295 352
#     4  10  23  39  57  91 118 152 199 253 287 352
#     4   9  20  35  57  87 119 147 205 243 287 358
#     4  10  22  43  61  87 120 160 194 247 294 355
#     4  10  18  36  60  83 114 165 188 242 303 345
#     4  11  22  37  63  86 116 159 196 240 301 345
#     4  10  20  35  59  86 118 156 198 238 296 353
#     4  10  22  38  58  86 124 152 200 244 294 352
#
# _framework density 21.946142999999999
#
# number of rings (size 3 to 8) (size 9 to 14) (size 15 to 20)
#    0.000    2.000    1.250    1.500    5.250    1.000 
#    2.250    2.500    0.000    0.000    0.000    0.000 
#    0.000    0.000    0.000    0.000    0.000    0.000 
#
# Total GULP energy -198329.517587 kJ/mol
# GULP energy per Si atom -12395.594849 kJ/mol
# Density = 2.189619 g / cm^3
# Si number density = 21.946143 Si / 1000 Ang^3
#
#
#
# Elastic Constant Matrix: (Units=GPa)
#
#
# Indices 1 2 3 4 5 6 
#
# 1 83.5069 23.0960 29.4697 -7.9059 -10.0062 0.8667
# 2 23.0960 62.0061 17.2441 1.2403 -13.4844 -5.3900
# 3 29.4697 17.2441 51.0805 -7.9855 -1.3687 7.3415
# 4 -7.9059 1.2403 -7.9855 28.6367 4.6761 -3.3762
# 5 -10.0062 -13.4844 -1.3687 4.6761 28.1668 4.3700
# 6 0.8667 -5.3900 7.3415 -3.3762 4.3700 28.9556
#
#
#
# Elastic Compliance Matrix: (Units=1/GPa)
#
#
# Indices 1 2 3 4 5 6 
#
# 1 0.016249 -0.003023 -0.008065 0.001874 0.003516 0.000684
# 2 -0.003023 0.021465 -0.006532 -0.004612 0.009055 0.003838
# 3 -0.008065 -0.006532 0.028201 0.005867 -0.004548 -0.006754
# 4 0.001874 -0.004612 0.005867 0.039023 -0.008262 0.003395
# 5 0.003516 0.009055 -0.004548 -0.008262 0.042969 -0.004715
# 6 0.000684 0.003838 -0.006754 0.003395 -0.004715 0.038050
#
#
# Mechanical properties :
#
#
# Convention : Reuss Voigt Hill
#
# Bulk Modulus (GPa) = 32.60010 37.35703 34.97856
# Shear Modulus (GPa) = 21.60558 25.60407 23.60483
#
# Velocity S-wave (km/s) = 3.14105 3.41937 3.28316
# Velocity P-wave (km/s) = 5.29545 5.71389 5.50864
#
# Compressibility (1/GPa) = 0.03067475
#
# Stress axis : x y z
#
# Youngs Moduli (GPa) = 61.54260 46.58712 35.45964
#
# Poissons Ratio (x) = 0.14083 0.28598
# Poissons Ratio (y) = 0.18604 0.23163
# Poissons Ratio (z) = 0.49634 0.30432
#
# Static dielectric constant tensor:
#      x y z
#    x 3.830140 -0.029110 -0.032370 
#    y -0.029110 3.869010 0.008490 
#    z -0.032370 0.008490 3.818510 
# 
# 
# High freq. dielectric constant tensor:
#      x y z
#    x 1.857660 -0.001700 -0.001530 
#    y -0.001700 1.853050 -0.003690 
#    z -0.001530 -0.003690 1.853180 
# 
# From -- ./inp_files/141263.got.cif
#   From: 2010.06.25/outbox.cif.g09.slc.cpg/sg2_71_cif.got.tgz:141263.got - 2010.06.27 13:26:56.
