data_PCOD8040147
_publ_section_title
;
Structure prediction by ZEFSAII (Michael W. Deem and Ramdas Pophale) SiO2 
 PCOD8040147
Probable space group: P -1
;
_chemical_formula_sum "Si O2"
_cell_formula_units_Z 12
_cell_length_a 20.004882
_cell_length_b 12.682536
_cell_length_c 16.669067
_cell_angle_alpha 154.423130
_cell_angle_beta 158.313056
_cell_angle_gamma 23.577568
_cell_volume 587.709519
_symmetry_space_group_name_H-M "P -1"
_symmetry_group_IT_number 2
_symmetry_cell_setting 'triclinic'
loop_
_space_group_symop_operation_xyz
x,y,z
-x,-y,-z
loop_
_atom_site_type_symbol
_atom_site_label
_atom_site_fract_x
_atom_site_fract_y
_atom_site_fract_z
Si Si1 0.129654 0.710785 0.901227
Si Si2 0.719233 0.225135 0.053945
Si Si3 0.209533 0.228674 0.869478
Si Si4 0.063626 0.615453 0.469053
Si Si5 0.234305 0.357969 0.323090
Si Si6 0.489887 0.384429 0.197898
O O1 0.001785 0.543767 0.648035
O O2 0.149454 0.774768 0.875568
O O3 0.354695 0.534935 0.072375
O O4 0.000000 0.000000 0.000000
O O5 0.684592 0.958420 0.830754
O O6 0.500000 0.500000 0.000000
O O7 0.845027 0.211629 0.265033
O O8 0.136435 0.172402 0.661779
O O9 0.003837 0.440474 0.836049
O O10 0.339206 0.932481 0.855521
O O11 0.350757 0.374681 0.109766
O O12 0.233308 0.386613 0.439117
O O13 0.392088 0.452255 0.527089
#
# Coordination Sequence:
#
# PCOD8040147 Si02
#       6
#     2   2   2   2   2   2
#     4  11  21  39  63  87 122 167 195 251 307 355
#     4  12  24  37  58  93 123 161 205 244 303 366
#     4   8  19  39  62  89 116 161 201 249 305 354
#     4   9  21  39  59  84 120 158 200 248 299 351
#     4  10  21  39  62  89 120 162 198 253 303 349
#     4  10  18  35  68  86 116 161 207 239 305 365
#
# _framework density 20.41825
#
# number of rings (size 3 to 8) (size 9 to 14) (size 15 to 20)
#    1.000    1.000    1.667    2.000    2.333    1.333 
#    3.000    0.833    0.000    6.000    0.000    0.000 
#    0.000    0.000    0.000    0.000    0.000    0.000 
#
# Total GULP energy -148736.757226 kJ/mol
# GULP energy per Si atom -12394.729769 kJ/mol
# Density = 2.037178 g / cm^3
# Si number density = 20.418250 Si / 1000 Ang^3
#
#
#
# Elastic Constant Matrix: (Units=GPa)
#
#
# Indices 1 2 3 4 5 6 
#
# 1 43.6512 28.7601 42.7509 2.4279 3.8212 -2.3417
# 2 28.7601 131.0231 64.4903 4.6658 -0.2495 5.4641
# 3 42.7509 64.4903 148.8843 9.6206 24.7451 -5.1375
# 4 2.4279 4.6658 9.6206 29.8451 -2.4503 2.2308
# 5 3.8212 -0.2495 24.7451 -2.4503 31.2820 2.1616
# 6 -2.3417 5.4641 -5.1375 2.2308 2.1616 28.1727
#
#
#
# Elastic Compliance Matrix: (Units=1/GPa)
#
#
# Indices 1 2 3 4 5 6 
#
# 1 0.033225 -0.003134 -0.008618 0.000670 0.002680 0.001539
# 2 -0.003134 0.010752 -0.004670 0.000715 0.004467 -0.003597
# 3 -0.008618 -0.004670 0.013266 -0.003945 -0.010042 0.003691
# 4 0.000670 0.000715 -0.003945 0.035417 0.006100 -0.004075
# 5 0.002680 0.004467 -0.010042 0.006100 0.040516 -0.006067
# 6 0.001539 -0.003597 0.003691 -0.004075 -0.006067 0.037782
#
#
# Mechanical properties :
#
#
# Convention : Reuss Voigt Hill
#
# Bulk Modulus (GPa) = 40.98792 66.17346 53.58069
# Shear Modulus (GPa) = 23.59203 30.36380 26.97791
#
# Velocity S-wave (km/s) = 3.40286 3.86047 3.63886
# Velocity P-wave (km/s) = 5.96297 7.23535 6.62975
#
# Compressibility (1/GPa) = 0.02439743
#
# Stress axis : x y z
#
# Youngs Moduli (GPa) = 30.09771 93.00687 75.38269
#
# Poissons Ratio (x) = 0.29148 0.64968
# Poissons Ratio (y) = 0.09432 0.35205
# Poissons Ratio (z) = 0.25940 0.43436
#
# Static dielectric constant tensor:
#      x y z
#    x 3.112680 0.053470 0.296310 
#    y 0.053470 3.641470 -0.150940 
#    z 0.296310 -0.150940 3.673470 
# 
# 
# High freq. dielectric constant tensor:
#      x y z
#    x 1.773460 0.005170 0.029670 
#    y 0.005170 1.796250 -0.012510 
#    z 0.029670 -0.012510 1.793830 
# 
# From -- ./inp_files/260928.got.cif
#   From: 2010.06.25/outbox.cif.g09.slc.cpg/sg2_131_cif.got.tgz:260928.got - 2010.06.27 13:26:56.
