data_PCOD8040110
_publ_section_title
;
Structure prediction by ZEFSAII (Michael W. Deem and Ramdas Pophale) SiO2 
 PCOD8040110
Probable space group: P -1
;
_chemical_formula_sum "Si O2"
_cell_formula_units_Z 14
_cell_length_a 17.921638
_cell_length_b 8.240781
_cell_length_c 8.871887
_cell_angle_alpha 90.251185
_cell_angle_beta 154.455051
_cell_angle_gamma 83.643539
_cell_volume 547.420063
_symmetry_space_group_name_H-M "P -1"
_symmetry_group_IT_number 2
_symmetry_cell_setting 'triclinic'
loop_
_space_group_symop_operation_xyz
x,y,z
-x,-y,-z
loop_
_atom_site_type_symbol
_atom_site_label
_atom_site_fract_x
_atom_site_fract_y
_atom_site_fract_z
Si Si1 0.070351 0.802518 0.624102
Si Si2 0.254076 0.192974 0.149405
Si Si3 0.488310 0.863471 0.644127
Si Si4 0.665619 0.309318 0.395950
Si Si5 0.984191 0.820002 0.790490
Si Si6 0.698983 0.112429 0.173771
Si Si7 0.197925 0.382776 0.359144
O O1 0.263090 0.765548 0.891599
O O2 0.075734 0.727082 0.802896
O O3 0.000000 0.000000 0.500000
O O4 0.933652 0.729745 0.272942
O O5 0.411403 0.217545 0.324097
O O6 0.261363 0.291712 0.316669
O O7 0.294037 0.990017 0.251770
O O8 0.464937 0.711268 0.705764
O O9 0.594320 0.982502 0.921899
O O10 0.596660 0.226537 0.123234
O O11 0.662378 0.502683 0.353228
O O12 0.867948 0.208410 0.809102
O O13 0.812468 0.749543 0.528949
O O14 0.894738 0.014631 0.594768
O O15 0.000000 0.500000 0.000000
#
# Coordination Sequence:
#
# PCOD8040110 Si02
#       7
#     2   2   2   2   2   2   2
#     4  10  18  35  64  92 118 150 208 259 298 347
#     4  11  22  41  66  90 129 156 205 258 305 365
#     4  11  23  38  67  94 124 159 204 255 312 358
#     4  11  23  39  61  89 126 164 205 245 310 369
#     4  10  20  38  65  90 118 158 213 256 300 349
#     4  11  21  39  64  95 120 158 209 261 300 357
#     4  10  23  43  62  88 123 170 206 248 303 365
#
# _framework density 25.574508000000002
#
# number of rings (size 3 to 8) (size 9 to 14) (size 15 to 20)
#    0.000    1.429    2.857    5.143    2.000    0.571 
#    0.000    9.286    0.000    0.000    0.000    0.000 
#    0.000    0.000    0.000    0.000    0.000    0.000 
#
# Total GULP energy -173497.133931 kJ/mol
# GULP energy per Si atom -12392.652424 kJ/mol
# Density = 2.551630 g / cm^3
# Si number density = 25.574508 Si / 1000 Ang^3
#
#
#
# Elastic Constant Matrix: (Units=GPa)
#
#
# Indices 1 2 3 4 5 6 
#
# 1 231.7052 64.9209 5.1664 28.7088 -2.4396 13.0286
# 2 64.9209 57.5652 -0.8321 17.9937 1.0559 -0.1552
# 3 5.1664 -0.8321 62.7154 23.2043 -6.0250 1.2297
# 4 28.7088 17.9937 23.2043 30.4789 -2.4903 6.7385
# 5 -2.4396 1.0559 -6.0250 -2.4903 34.8504 4.0074
# 6 13.0286 -0.1552 1.2297 6.7385 4.0074 25.1499
#
#
#
# Elastic Compliance Matrix: (Units=1/GPa)
#
#
# Indices 1 2 3 4 5 6 
#
# 1 0.006675 -0.007181 -0.000042 -0.001199 0.000975 -0.003334
# 2 -0.007181 0.032193 0.008308 -0.020888 -0.002630 0.009528
# 3 -0.000042 0.008308 0.025482 -0.025302 0.001730 0.005331
# 4 -0.001199 -0.020888 -0.025302 0.069646 0.003156 -0.017434
# 5 0.000975 -0.002630 0.001730 0.003156 0.030085 -0.006245
# 6 -0.003334 0.009528 0.005331 -0.017434 -0.006245 0.046953
#
#
# Mechanical properties :
#
#
# Convention : Reuss Voigt Hill
#
# Bulk Modulus (GPa) = 15.03324 54.49959 34.76641
# Shear Modulus (GPa) = 21.64147 36.94455 29.29301
#
# Velocity S-wave (km/s) = 2.91213 3.80489 3.38805
# Velocity P-wave (km/s) = 4.14708 6.37647 5.37855
#
# Compressibility (1/GPa) = 0.06651927
#
# Stress axis : x y z
#
# Youngs Moduli (GPa) = 149.81227 31.06256 39.24340
#
# Poissons Ratio (x) = 0.22305 0.00167
# Poissons Ratio (y) = 1.07575 -0.32602
# Poissons Ratio (z) = 0.00636 -0.25806
#
# Static dielectric constant tensor:
#      x y z
#    x 6.184220 0.417590 0.363080 
#    y 0.417590 4.376140 0.020230 
#    z 0.363080 0.020230 4.892110 
# 
# 
# High freq. dielectric constant tensor:
#      x y z
#    x 2.047990 0.008210 0.001140 
#    y 0.008210 1.970420 0.009380 
#    z 0.001140 0.009380 2.026720 
# 
# From -- ./inp_files/239469.got.cif
#   From: 2010.06.25/outbox.cif.g09.slc.cpg/sg2_120_cif.got.tgz:239469.got - 2010.06.27 13:26:56.
