data_PCOD8040089
_publ_section_title
;
Structure prediction by ZEFSAII (Michael W. Deem and Ramdas Pophale) SiO2 
 PCOD8040089
Probable space group: P -1
;
_chemical_formula_sum "Si O2"
_cell_formula_units_Z 16
_cell_length_a 11.018576
_cell_length_b 16.253579
_cell_length_c 9.330280
_cell_angle_alpha 37.035035
_cell_angle_beta 123.900566
_cell_angle_gamma 104.297803
_cell_volume 766.834218
_symmetry_space_group_name_H-M "P -1"
_symmetry_group_IT_number 2
_symmetry_cell_setting 'triclinic'
loop_
_space_group_symop_operation_xyz
x,y,z
-x,-y,-z
loop_
_atom_site_type_symbol
_atom_site_label
_atom_site_fract_x
_atom_site_fract_y
_atom_site_fract_z
Si Si1 0.588645 0.134234 0.615536
Si Si2 0.358426 0.295686 0.661758
Si Si3 0.134019 0.339973 0.949183
Si Si4 0.690837 0.182900 0.901505
Si Si5 0.398287 0.430080 0.941658
Si Si6 0.657326 0.879252 0.841828
Si Si7 0.713779 0.863349 0.421350
Si Si8 0.785689 0.433106 0.639784
O O1 0.679582 0.197518 0.699686
O O2 0.460905 0.092562 0.683810
O O3 0.715583 0.984513 0.834275
O O4 0.498909 0.250961 0.266820
O O5 0.522459 0.283034 0.719887
O O6 0.274781 0.215315 0.615721
O O7 0.250264 0.472253 0.367826
O O8 0.384941 0.230802 0.930129
O O9 0.227147 0.450814 0.870068
O O10 0.946066 0.435237 0.669710
O O11 0.205129 0.217960 0.039976
O O12 0.149563 0.252004 0.230331
O O13 0.807875 0.261754 0.920147
O O14 0.750232 0.011049 0.225392
O O15 0.364619 0.492834 0.671523
O O16 0.500000 0.500000 0.000000
O O17 0.500000 0.000000 0.500000
#
# Coordination Sequence:
#
# PCOD8040089 Si02
#       8
#     2   2   2   2   2   2   2   2
#     4  10  18  35  63  92 115 155 212 264 296 357
#     4  11  21  37  64  92 123 165 216 251 308 374
#     4  11  25  41  64  89 132 166 203 257 326 363
#     4  11  20  38  63  92 123 160 215 257 305 363
#     4  11  21  38  63  89 120 165 209 249 308 372
#     4  12  18  35  66  93 115 161 218 257 300 372
#     4  10  20  39  65  88 119 169 208 255 306 367
#     4  12  25  39  61  95 135 165 197 265 320 373
#
# _framework density 20.865006000000001
#
# number of rings (size 3 to 8) (size 9 to 14) (size 15 to 20)
#    0.000    1.000    7.500    1.500    0.000    1.000 
#    0.000    0.625    2.750    0.000    0.000    0.000 
#    0.000    0.000    0.000    0.000    0.000    0.000 
#
# Total GULP energy -198273.143169 kJ/mol
# GULP energy per Si atom -12392.071448 kJ/mol
# Density = 2.081752 g / cm^3
# Si number density = 20.865006 Si / 1000 Ang^3
#
#
#
# Elastic Constant Matrix: (Units=GPa)
#
#
# Indices 1 2 3 4 5 6 
#
# 1 69.6843 57.9344 14.9673 -10.3648 2.5422 4.7767
# 2 57.9344 136.9252 39.6188 -25.2183 2.6122 0.6478
# 3 14.9673 39.6188 57.3357 -0.9727 -11.6156 0.1896
# 4 -10.3648 -25.2183 -0.9727 33.7777 -0.4761 -11.2637
# 5 2.5422 2.6122 -11.6156 -0.4761 31.8003 -5.5448
# 6 4.7767 0.6478 0.1896 -11.2637 -5.5448 35.1864
#
#
#
# Elastic Compliance Matrix: (Units=1/GPa)
#
#
# Indices 1 2 3 4 5 6 
#
# 1 0.022591 -0.010070 0.000765 -0.001811 -0.001368 -0.003681
# 2 -0.010070 0.015965 -0.008843 0.009800 -0.002928 0.003796
# 3 0.000765 -0.008843 0.025230 -0.005617 0.009737 -0.000341
# 4 -0.001811 0.009800 -0.005617 0.040580 0.000182 0.013115
# 5 -0.001368 -0.002928 0.009737 0.000182 0.036399 0.005981
# 6 -0.003681 0.003796 -0.000341 0.013115 0.005981 0.033992
#
#
# Mechanical properties :
#
#
# Convention : Reuss Voigt Hill
#
# Bulk Modulus (GPa) = 36.37457 54.33182 45.35320
# Shear Modulus (GPa) = 22.70497 30.24785 26.47641
#
# Velocity S-wave (km/s) = 3.30234 3.81161 3.56608
# Velocity P-wave (km/s) = 5.65789 6.74295 6.22411
#
# Compressibility (1/GPa) = 0.02749174
#
# Stress axis : x y z
#
# Youngs Moduli (GPa) = 44.26576 62.63614 39.63507
#
# Poissons Ratio (x) = 0.63073 -0.03033
# Poissons Ratio (y) = 0.44575 0.35048
# Poissons Ratio (z) = -0.03387 0.55387
#
# Static dielectric constant tensor:
#      x y z
#    x 3.406420 -0.079960 -0.217880 
#    y -0.079960 4.293750 -0.163340 
#    z -0.217880 -0.163340 3.873400 
# 
# 
# High freq. dielectric constant tensor:
#      x y z
#    x 1.770970 -0.007120 -0.024570 
#    y -0.007120 1.832480 -0.010460 
#    z -0.024570 -0.010460 1.819410 
# 
# From -- ./inp_files/271619.got.cif
#   From: 2010.06.25/outbox.cif.g09.slc.cpg/sg2_136_cif.got.tgz:271619.got - 2010.06.27 13:26:56.
