data_PCOD8040541
_publ_section_title
;
Structure prediction by ZEFSAII (Michael W. Deem and Ramdas Pophale) SiO2 
 PCOD8040541
Probable space group: P -1
;
_chemical_formula_sum "Si O2"
_cell_formula_units_Z 14
_cell_length_a 8.633771
_cell_length_b 9.176177
_cell_length_c 12.144836
_cell_angle_alpha 119.826732
_cell_angle_beta 77.889304
_cell_angle_gamma 133.099581
_cell_volume 596.502618
_symmetry_space_group_name_H-M "P -1"
_symmetry_group_IT_number 2
_symmetry_cell_setting 'triclinic'
loop_
_space_group_symop_operation_xyz
x,y,z
-x,-y,-z
loop_
_atom_site_type_symbol
_atom_site_label
_atom_site_fract_x
_atom_site_fract_y
_atom_site_fract_z
Si Si1 0.802234 0.752941 0.989175
Si Si2 0.756222 0.425452 0.292238
Si Si3 0.811273 0.388896 0.756157
Si Si4 0.636843 0.545293 0.158940
Si Si5 0.403815 0.159544 0.598564
Si Si6 0.065256 0.156175 0.443766
Si Si7 0.328564 0.050550 0.317521
O O1 0.799197 0.554084 0.883564
O O2 0.579755 0.679779 0.954193
O O3 0.800491 0.749337 0.121613
O O4 0.000000 0.000000 0.000000
O O5 0.756567 0.487453 0.188269
O O6 0.774948 0.582090 0.442317
O O7 0.529513 0.168752 0.249991
O O8 0.961283 0.448697 0.283107
O O9 0.604844 0.202774 0.637186
O O10 0.809895 0.222065 0.771927
O O11 0.558486 0.620290 0.290836
O O12 0.418778 0.152882 0.463894
O O13 0.164990 0.933500 0.598624
O O14 0.182801 0.108922 0.325238
O O15 0.000000 0.000000 0.500000
#
# Coordination Sequence:
#
# PCOD8040541 Si02
#       7
#     2   2   2   2   2   2   2
#     4  10  25  48  68  88 116 168 226 267 323 370
#     4  12  23  38  64 102 133 173 204 252 323 387
#     4  11  24  42  62  95 134 168 212 272 314 366
#     4  10  22  43  68  91 125 165 216 268 308 377
#     4  10  20  40  64  92 136 173 202 260 315 371
#     4  10  18  37  61  90 137 172 207 246 304 384
#     4  11  22  38  62  98 138 168 209 250 318 390
#
# _framework density 23.470139
#
# number of rings (size 3 to 8) (size 9 to 14) (size 15 to 20)
#    0.000    1.429    5.714    0.857    0.000    6.857 
#    2.571    1.429    0.000    0.000    0.000    0.000 
#    0.000    0.000    0.000    0.000    0.000    0.000 
#
# Total GULP energy -173449.925053 kJ/mol
# GULP energy per Si atom -12389.280361 kJ/mol
# Density = 2.341672 g / cm^3
# Si number density = 23.470139 Si / 1000 Ang^3
#
#
#
# Elastic Constant Matrix: (Units=GPa)
#
#
# Indices 1 2 3 4 5 6 
#
# 1 140.3833 37.6976 25.0884 -8.1843 -0.7029 31.6304
# 2 37.6976 115.3341 27.4294 -6.9546 1.4559 29.6620
# 3 25.0884 27.4294 62.2260 0.7899 3.7690 -5.7596
# 4 -8.1843 -6.9546 0.7899 21.9021 1.9505 -3.5779
# 5 -0.7029 1.4559 3.7690 1.9505 26.5351 5.0822
# 6 31.6304 29.6620 -5.7596 -3.5779 5.0822 36.5263
#
#
#
# Elastic Compliance Matrix: (Units=1/GPa)
#
#
# Indices 1 2 3 4 5 6 
#
# 1 0.010561 0.000867 -0.005866 0.002377 0.002989 -0.010958
# 2 0.000867 0.013809 -0.007870 0.002569 0.002748 -0.013336
# 3 -0.005866 -0.007870 0.023758 -0.002436 -0.005946 0.015805
# 4 0.002377 0.002569 -0.002436 0.047852 -0.003370 0.000627
# 5 0.002989 0.002748 -0.005946 -0.003370 0.040964 -0.011788
# 6 -0.010958 -0.013336 0.015805 0.000627 -0.011788 0.051890
#
#
# Mechanical properties :
#
#
# Convention : Reuss Voigt Hill
#
# Bulk Modulus (GPa) = 44.66083 55.37490 50.01787
# Shear Modulus (GPa) = 22.51881 32.17456 27.34668
#
# Velocity S-wave (km/s) = 3.10089 3.70655 3.41716
# Velocity P-wave (km/s) = 5.64719 6.47788 6.07675
#
# Compressibility (1/GPa) = 0.02239098
#
# Stress axis : x y z
#
# Youngs Moduli (GPa) = 94.68491 72.41730 42.09025
#
# Poissons Ratio (x) = -0.06276 0.24689
# Poissons Ratio (y) = -0.08206 0.33124
# Poissons Ratio (z) = 0.55539 0.56991
#
# Static dielectric constant tensor:
#      x y z
#    x 5.014070 0.314940 0.132120 
#    y 0.314940 3.933540 0.101160 
#    z 0.132120 0.101160 4.071370 
# 
# 
# High freq. dielectric constant tensor:
#      x y z
#    x 1.944170 0.023850 0.000310 
#    y 0.023850 1.902860 0.012230 
#    z 0.000310 0.012230 1.905050 
# 
# From -- ./inp_files/383227.got.cif
#   From: 2010.06.25/outbox.cif.g09.slc.cpg/sg2_192_cif.got.tgz:383227.got - 2010.06.27 13:26:56.
