data_PCOD8040011
_publ_section_title
;
Structure prediction by ZEFSAII (Michael W. Deem and Ramdas Pophale) SiO2 
 PCOD8040011
Probable space group: P -1
;
_chemical_formula_sum "Si O2"
_cell_formula_units_Z 16
_cell_length_a 10.277090
_cell_length_b 18.611570
_cell_length_c 15.958766
_cell_angle_alpha 21.527196
_cell_angle_beta 132.331112
_cell_angle_gamma 121.233891
_cell_volume 759.709387
_symmetry_space_group_name_H-M "P -1"
_symmetry_group_IT_number 2
_symmetry_cell_setting 'triclinic'
loop_
_space_group_symop_operation_xyz
x,y,z
-x,-y,-z
loop_
_atom_site_type_symbol
_atom_site_label
_atom_site_fract_x
_atom_site_fract_y
_atom_site_fract_z
Si Si1 0.273225 0.560958 0.920424
Si Si2 0.585549 0.141771 0.432034
Si Si3 0.105133 0.398600 0.370196
Si Si4 0.476044 0.366589 0.378302
Si Si5 0.816652 0.014767 0.826419
Si Si6 0.614333 0.401703 0.740942
Si Si7 0.414644 0.037019 0.803567
Si Si8 0.148768 0.150056 0.810328
O O1 0.416275 0.351234 0.164317
O O2 0.328864 0.545776 0.059090
O O3 0.279964 0.779888 0.651628
O O4 0.063113 0.566946 0.806099
O O5 0.710143 0.986909 0.727724
O O6 0.500000 0.000000 0.500000
O O7 0.174909 0.592092 0.182037
O O8 0.051047 0.370301 0.475051
O O9 0.281383 0.174860 0.670287
O O10 0.688595 0.247963 0.559330
O O11 0.495103 0.467909 0.365941
O O12 0.384734 0.189261 0.543936
O O13 0.023265 0.009120 0.895563
O O14 0.842075 0.825046 0.110789
O O15 0.500000 0.500000 0.500000
O O16 0.639758 0.160487 0.027109
O O17 0.635349 0.969849 0.000140
#
# Coordination Sequence:
#
# PCOD8040011 Si02
#       8
#     2   2   2   2   2   2   2   2
#     4  10  22  41  61  87 124 161 211 241 297 370
#     4  10  21  40  63  88 122 164 201 251 302 355
#     4  11  22  39  62  86 123 168 198 252 300 354
#     4   9  22  40  62  86 122 160 198 255 304 356
#     4   9  19  36  62  91 115 159 200 245 307 361
#     4  11  23  38  61  92 119 157 206 251 305 363
#     4  10  22  38  61  87 122 159 202 251 305 351
#     4  10  18  35  61  86 120 157 201 241 305 362
#
# _framework density 21.060684999999999
#
# number of rings (size 3 to 8) (size 9 to 14) (size 15 to 20)
#    0.000    2.000    2.500    0.375    3.500    6.000 
#    0.000    1.875    0.000    0.000    0.000    0.000 
#    0.000    0.000    0.000    0.000    0.000    0.000 
#
# Total GULP energy -198237.437086 kJ/mol
# GULP energy per Si atom -12389.839818 kJ/mol
# Density = 2.101275 g / cm^3
# Si number density = 21.060685 Si / 1000 Ang^3
#
#
#
# Elastic Constant Matrix: (Units=GPa)
#
#
# Indices 1 2 3 4 5 6 
#
# 1 78.7893 54.0067 34.3013 9.2727 -9.2212 14.4627
# 2 54.0067 144.0932 48.9907 11.8504 -9.9078 7.7612
# 3 34.3013 48.9907 68.5975 9.6145 -17.7623 -1.1129
# 4 9.2727 11.8504 9.6145 44.1951 2.9604 -8.6212
# 5 -9.2212 -9.9078 -17.7623 2.9604 19.7760 11.6046
# 6 14.4627 7.7612 -1.1129 -8.6212 11.6046 38.2418
#
#
#
# Elastic Compliance Matrix: (Units=1/GPa)
#
#
# Indices 1 2 3 4 5 6 
#
# 1 0.022282 -0.005085 -0.003492 -0.005929 0.013111 -0.012812
# 2 -0.005085 0.010601 -0.005482 -0.000427 -0.001990 0.000120
# 3 -0.003492 -0.005482 0.027424 -0.006521 0.024575 -0.005696
# 4 -0.005929 -0.000427 -0.006521 0.029987 -0.022564 0.015747
# 5 0.013111 -0.001990 0.024575 -0.022564 0.105083 -0.040814
# 6 -0.012812 0.000120 -0.005696 0.015747 -0.040814 0.046740
#
#
# Mechanical properties :
#
#
# Convention : Reuss Voigt Hill
#
# Bulk Modulus (GPa) = 31.06650 62.89749 46.98199
# Shear Modulus (GPa) = 17.79573 30.72135 24.25854
#
# Velocity S-wave (km/s) = 2.91000 3.82344 3.39756
# Velocity P-wave (km/s) = 5.10625 7.03003 6.14390
#
# Compressibility (1/GPa) = 0.03218902
#
# Stress axis : x y z
#
# Youngs Moduli (GPa) = 44.87952 94.32629 36.46404
#
# Poissons Ratio (x) = 0.47963 0.12734
# Poissons Ratio (y) = 0.22820 0.19991
# Poissons Ratio (z) = 0.15673 0.51713
#
# Static dielectric constant tensor:
#      x y z
#    x 4.080330 0.090740 -0.339400 
#    y 0.090740 3.635730 0.217950 
#    z -0.339400 0.217950 3.893840 
# 
# 
# High freq. dielectric constant tensor:
#      x y z
#    x 1.836360 0.008830 -0.024190 
#    y 0.008830 1.804190 0.026410 
#    z -0.024190 0.026410 1.813450 
# 
# From -- ./inp_files/570562.got.cif
#   From: 2010.06.25/outbox.cif.g09.slc.cpg/sg2_286_cif.got.tgz:570562.got - 2010.06.27 13:26:56.
