data_PCOD8040446
_publ_section_title
;
Structure prediction by ZEFSAII (Michael W. Deem and Ramdas Pophale) SiO2 
 PCOD8040446
Probable space group: P -1
;
_chemical_formula_sum "Si O2"
_cell_formula_units_Z 14
_cell_length_a 24.336554
_cell_length_b 14.651353
_cell_length_c 15.754335
_cell_angle_alpha 31.191011
_cell_angle_beta 19.728620
_cell_angle_gamma 20.261938
_cell_volume 638.118807
_symmetry_space_group_name_H-M "P -1"
_symmetry_group_IT_number 2
_symmetry_cell_setting 'triclinic'
loop_
_space_group_symop_operation_xyz
x,y,z
-x,-y,-z
loop_
_atom_site_type_symbol
_atom_site_label
_atom_site_fract_x
_atom_site_fract_y
_atom_site_fract_z
Si Si1 0.138224 0.999215 0.646804
Si Si2 0.574877 0.559453 0.067136
Si Si3 0.982908 0.228712 0.103055
Si Si4 0.572986 0.254644 0.050436
Si Si5 0.772405 0.781141 0.397657
Si Si6 0.498965 0.707068 0.506962
Si Si7 0.178660 0.346765 0.281161
O O1 0.260925 0.074695 0.365748
O O2 0.158818 0.819157 0.696494
O O3 0.280670 0.834793 0.657076
O O4 0.848264 0.268043 0.874291
O O5 0.439615 0.510775 0.349739
O O6 0.420159 0.743252 0.063122
O O7 0.587436 0.718503 0.985543
O O8 0.760631 0.538072 0.214073
O O9 0.166202 0.182559 0.810403
O O10 0.150789 0.026018 0.098382
O O11 0.363115 0.292730 0.359510
O O12 0.500000 0.500000 0.000000
O O13 0.036348 0.537895 0.254391
O O14 0.583993 0.057780 0.504914
O O15 0.000000 0.500000 0.500000
#
# Coordination Sequence:
#
# PCOD8040446 Si02
#       7
#     2   2   2   2   2   2   2
#     4  11  19  42  65  95 126 163 212 260 314 366
#     4  11  20  39  69  93 119 174 208 256 317 364
#     4  12  27  40  63 101 127 168 209 255 320 376
#     4  12  23  44  68  90 127 169 214 255 311 382
#     4  12  22  44  69  89 128 169 209 261 314 371
#     4  12  24  41  67  96 131 160 210 267 313 372
#     4  10  18  36  70  93 118 167 218 253 311 369
#
# _framework density 21.939489999999999
#
# number of rings (size 3 to 8) (size 9 to 14) (size 15 to 20)
#    0.000    0.571    8.571    2.143    0.000    1.143 
#    0.000    7.143    0.000    0.000    0.000    0.000 
#    0.000    0.000    0.000    0.000    0.000    0.000 
#
# Total GULP energy -173643.974422 kJ/mol
# GULP energy per Si atom -12403.141030 kJ/mol
# Density = 2.188955 g / cm^3
# Si number density = 21.939490 Si / 1000 Ang^3
#
#
#
# Elastic Constant Matrix: (Units=GPa)
#
#
# Indices 1 2 3 4 5 6 
#
# 1 102.9486 56.0521 56.4564 -3.2815 -8.5163 -10.6989
# 2 56.0521 91.7930 55.4652 -14.1516 10.0250 -4.5983
# 3 56.4564 55.4652 70.4454 -16.7677 -10.8757 15.2278
# 4 -3.2815 -14.1516 -16.7677 39.6650 9.4936 -4.5312
# 5 -8.5163 10.0250 -10.8757 9.4936 27.8586 -8.4797
# 6 -10.6989 -4.5983 15.2278 -4.5312 -8.4797 42.3211
#
#
#
# Elastic Compliance Matrix: (Units=1/GPa)
#
#
# Indices 1 2 3 4 5 6 
#
# 1 0.025370 -0.004878 -0.020225 -0.008709 0.008845 0.014001
# 2 -0.004878 0.034262 -0.026843 0.007210 -0.024307 0.008050
# 3 -0.020225 -0.026843 0.061624 0.007769 0.016982 -0.025968
# 4 -0.008709 0.007210 0.007769 0.033461 -0.014716 -0.003580
# 5 0.008845 -0.024307 0.016982 -0.014716 0.060200 0.003971
# 6 0.014001 0.008050 -0.025968 -0.003580 0.003971 0.037799
#
#
# Mechanical properties :
#
#
# Convention : Reuss Voigt Hill
#
# Bulk Modulus (GPa) = 57.59485 66.79271 62.19378
# Shear Modulus (GPa) = 13.79706 28.44983 21.12345
#
# Velocity S-wave (km/s) = 2.51045 3.60494 3.10628
# Velocity P-wave (km/s) = 5.89167 6.91647 6.42454
#
# Compressibility (1/GPa) = 0.01736266
#
# Stress axis : x y z
#
# Youngs Moduli (GPa) = 39.41672 29.18657 16.22754
#
# Poissons Ratio (x) = 0.14238 0.32820
# Poissons Ratio (y) = 0.19229 0.43560
# Poissons Ratio (z) = 0.79720 0.78347
#
# Static dielectric constant tensor:
#      x y z
#    x 4.233580 -0.034200 -0.275040 
#    y -0.034200 4.155830 -0.473200 
#    z -0.275040 -0.473200 3.976810 
# 
# 
# High freq. dielectric constant tensor:
#      x y z
#    x 1.866630 -0.010750 -0.009430 
#    y -0.010750 1.862520 -0.023480 
#    z -0.009430 -0.023480 1.847560 
# 
# From -- ./inp_files/260909.got.cif
#   From: 2010.06.25/outbox.cif.g09.slc.cpg/sg2_131_cif.got.tgz:260909.got - 2010.06.27 13:26:56.
