data_PCOD8040756
_publ_section_title
;
Structure prediction by ZEFSAII (Michael W. Deem and Ramdas Pophale) SiO2 
 PCOD8040756
Probable space group: P -1
;
_chemical_formula_sum "Si O2"
_cell_formula_units_Z 16
_cell_length_a 11.192215
_cell_length_b 20.569155
_cell_length_c 13.779215
_cell_angle_alpha 30.282203
_cell_angle_beta 148.520154
_cell_angle_gamma 146.743646
_cell_volume 773.033258
_symmetry_space_group_name_H-M "P -1"
_symmetry_group_IT_number 2
_symmetry_cell_setting 'triclinic'
loop_
_space_group_symop_operation_xyz
x,y,z
-x,-y,-z
loop_
_atom_site_type_symbol
_atom_site_label
_atom_site_fract_x
_atom_site_fract_y
_atom_site_fract_z
Si Si1 0.032687 0.851805 0.480323
Si Si2 0.049641 0.454054 0.939546
Si Si3 0.169411 0.157859 0.943786
Si Si4 0.200450 0.205892 0.312123
Si Si5 0.363012 0.150085 0.292535
Si Si6 0.298758 0.685970 0.966411
Si Si7 0.931316 0.301518 0.474298
Si Si8 0.713815 0.958610 0.248391
O O1 0.107261 0.764030 0.725799
O O2 0.935316 0.758262 0.438090
O O3 0.815526 0.896815 0.309200
O O4 0.283008 0.985679 0.462467
O O5 0.237811 0.566624 0.996965
O O6 0.008600 0.534392 0.711407
O O7 0.192175 0.354412 0.139936
O O8 0.774907 0.381263 0.890743
O O9 0.031826 0.265649 0.690665
O O10 0.206189 0.172668 0.065175
O O11 0.420870 0.207180 0.990539
O O12 0.000000 0.000000 0.000000
O O13 0.324425 0.222145 0.271419
O O14 0.357976 0.155102 0.566301
O O15 0.919166 0.097263 0.255054
O O16 0.644000 0.214831 0.372870
O O17 0.500000 0.000000 0.000000
#
# Coordination Sequence:
#
# PCOD8040756 Si02
#       8
#     2   2   2   2   2   2   2   2
#     4  10  18  38  64  91 125 159 208 276 315 379
#     4  10  21  43  65  92 132 174 215 260 328 396
#     4  12  23  40  66  98 130 168 219 280 325 370
#     4  10  23  42  64  89 133 179 208 266 325 389
#     4  11  22  40  62  92 133 170 220 262 328 385
#     4  10  21  39  70  95 126 169 217 266 328 387
#     4  11  23  39  64  98 127 167 219 266 329 382
#     4  10  22  41  64  96 127 164 224 265 324 385
#
# _framework density 20.697686000000001
#
# number of rings (size 3 to 8) (size 9 to 14) (size 15 to 20)
#    0.000    1.500    5.000    1.125    0.000    4.000 
#    2.250    0.625    0.000    0.000    0.000    0.000 
#    0.000    0.000    0.000    0.000    0.000    0.000 
#
# Total GULP energy -198304.526187 kJ/mol
# GULP energy per Si atom -12394.032887 kJ/mol
# Density = 2.065058 g / cm^3
# Si number density = 20.697686 Si / 1000 Ang^3
#
#
#
# Elastic Constant Matrix: (Units=GPa)
#
#
# Indices 1 2 3 4 5 6 
#
# 1 93.9203 37.6156 60.8682 -4.6639 -12.3914 1.0936
# 2 37.6156 60.5620 52.4397 -1.4567 4.6151 6.2713
# 3 60.8682 52.4397 180.8898 -10.4966 -10.2646 -12.1138
# 4 -4.6639 -1.4567 -10.4966 30.8747 -5.3273 1.5945
# 5 -12.3914 4.6151 -10.2646 -5.3273 32.6169 -3.6235
# 6 1.0936 6.2713 -12.1138 1.5945 -3.6235 25.1004
#
#
#
# Elastic Compliance Matrix: (Units=1/GPa)
#
#
# Indices 1 2 3 4 5 6 
#
# 1 0.016954 -0.009093 -0.002407 0.002546 0.007530 0.001297
# 2 -0.009093 0.030959 -0.007688 -0.004000 -0.012304 -0.012571
# 3 -0.002407 -0.007688 0.009456 0.002884 0.004402 0.007041
# 4 0.002546 -0.004000 0.002884 0.034930 0.008286 0.001258
# 5 0.007530 -0.012304 0.004402 0.008286 0.039109 0.009990
# 6 0.001297 -0.012571 0.007041 0.001258 0.009990 0.047685
#
#
# Mechanical properties :
#
#
# Convention : Reuss Voigt Hill
#
# Bulk Modulus (GPa) = 52.64861 70.80212 61.72536
# Shear Modulus (GPa) = 22.34145 30.01497 26.17821
#
# Velocity S-wave (km/s) = 3.28901 3.81223 3.56025
# Velocity P-wave (km/s) = 6.31788 7.32526 6.84014
#
# Compressibility (1/GPa) = 0.01899385
#
# Stress axis : x y z
#
# Youngs Moduli (GPa) = 58.98398 32.30029 105.75849
#
# Poissons Ratio (x) = 0.29370 0.25456
# Poissons Ratio (y) = 0.53633 0.81303
# Poissons Ratio (z) = 0.14197 0.24831
#
# Static dielectric constant tensor:
#      x y z
#    x 3.754740 0.110460 -0.301420 
#    y 0.110460 3.638980 -0.234990 
#    z -0.301420 -0.234990 3.935310 
# 
# 
# High freq. dielectric constant tensor:
#      x y z
#    x 1.809160 0.006530 -0.014140 
#    y 0.006530 1.789920 -0.016750 
#    z -0.014140 -0.016750 1.815630 
# 
# From -- ./inp_files/524070.got.cif
#   From: 2010.06.25/outbox.cif.g09.slc.cpg/sg2_263_cif.got.tgz:524070.got - 2010.06.27 13:26:56.
