data_PCOD8040601
_publ_section_title
;
Structure prediction by ZEFSAII (Michael W. Deem and Ramdas Pophale) SiO2 
 PCOD8040601
Probable space group: P -1
;
_chemical_formula_sum "Si O2"
_cell_formula_units_Z 16
_cell_length_a 32.926899
_cell_length_b 16.645868
_cell_length_c 9.693149
_cell_angle_alpha 144.246907
_cell_angle_beta 145.318883
_cell_angle_gamma 16.305830
_cell_volume 840.455932
_symmetry_space_group_name_H-M "P -1"
_symmetry_group_IT_number 2
_symmetry_cell_setting 'triclinic'
loop_
_space_group_symop_operation_xyz
x,y,z
-x,-y,-z
loop_
_atom_site_type_symbol
_atom_site_label
_atom_site_fract_x
_atom_site_fract_y
_atom_site_fract_z
Si Si1 0.537551 0.303839 0.741613
Si Si2 0.157841 0.949959 0.911680
Si Si3 0.920869 0.836715 0.520851
Si Si4 0.232738 0.703286 0.485642
Si Si5 0.606717 0.289101 0.628535
Si Si6 0.878075 0.694609 0.813024
Si Si7 0.833658 0.754539 0.341215
Si Si8 0.927649 0.303189 0.985869
O O1 0.414381 0.396358 0.561862
O O2 0.515693 0.377193 0.622437
O O3 0.708396 0.963370 0.772715
O O4 0.500000 0.500000 0.000000
O O5 0.177950 0.827326 0.659918
O O6 0.313608 0.703834 0.089013
O O7 0.035025 0.085196 0.853037
O O8 0.109230 0.188296 0.076303
O O9 0.076111 0.514078 0.442155
O O10 0.810840 0.895949 0.343066
O O11 0.967810 0.848724 0.800175
O O12 0.832466 0.073378 0.490056
O O13 0.179076 0.644315 0.208609
O O14 0.500000 0.500000 0.500000
O O15 0.724553 0.975449 0.469583
O O16 0.000000 0.500000 0.000000
O O17 0.000000 0.500000 0.500000
O O18 0.821309 0.612663 0.078011
#
# Coordination Sequence:
#
# PCOD8040601 Si02
#       8
#     2   2   2   2   2   2   2   2
#     4  11  21  37  58  88 122 153 195 242 300 359
#     4  11  20  39  59  90 119 156 198 250 296 358
#     4  11  20  38  63  91 112 158 211 245 281 355
#     4  12  24  38  59  91 127 157 189 251 309 351
#     4  11  21  36  61  91 114 149 206 252 291 340
#     4  11  20  37  65  91 114 150 211 252 289 344
#     4  10  18  37  64  84 114 151 206 246 280 346
#     4  11  22  38  62  89 122 159 200 243 300 356
#
# _framework density 19.037285000000001
#
# number of rings (size 3 to 8) (size 9 to 14) (size 15 to 20)
#    0.000    1.000    7.500    3.750    0.000    0.000 
#    0.000    2.500    0.000    1.500    0.000    0.000 
#    0.000    0.000    0.000    0.000    0.000    0.000 
#
# Total GULP energy -198324.075722 kJ/mol
# GULP energy per Si atom -12395.254733 kJ/mol
# Density = 1.899396 g / cm^3
# Si number density = 19.037285 Si / 1000 Ang^3
#
#
#
# Elastic Constant Matrix: (Units=GPa)
#
#
# Indices 1 2 3 4 5 6 
#
# 1 96.0122 41.4096 45.7755 -0.0037 -10.5377 -12.2994
# 2 41.4096 89.8763 34.1208 -5.4746 -8.5831 -3.5769
# 3 45.7755 34.1208 83.7944 -0.2654 -6.6485 2.1853
# 4 -0.0037 -5.4746 -0.2654 30.5915 -1.6039 -8.3416
# 5 -10.5377 -8.5831 -6.6485 -1.6039 41.8395 2.0167
# 6 -12.2994 -3.5769 2.1853 -8.3416 2.0167 35.6996
#
#
#
# Elastic Compliance Matrix: (Units=1/GPa)
#
#
# Indices 1 2 3 4 5 6 
#
# 1 0.016824 -0.004490 -0.007363 0.000839 0.001895 0.005886
# 2 -0.004490 0.014868 -0.003498 0.002911 0.001439 0.000756
# 3 -0.007363 -0.003498 0.017518 -0.001646 0.000359 -0.004364
# 4 0.000839 0.002911 -0.001646 0.035712 0.001485 0.008942
# 5 0.001895 0.001439 0.000359 0.001485 0.024801 -0.000279
# 6 0.005886 0.000756 -0.004364 0.008942 -0.000279 0.032488
#
#
# Mechanical properties :
#
#
# Convention : Reuss Voigt Hill
#
# Bulk Modulus (GPa) = 54.02984 56.92164 55.47574
# Shear Modulus (GPa) = 27.92037 31.51792 29.71914
#
# Velocity S-wave (km/s) = 3.83380 4.07331 3.95536
# Velocity P-wave (km/s) = 6.93109 7.21716 7.07557
#
# Compressibility (1/GPa) = 0.01850829
#
# Stress axis : x y z
#
# Youngs Moduli (GPa) = 59.43757 67.25951 57.08542
#
# Poissons Ratio (x) = 0.30200 0.42032
# Poissons Ratio (y) = 0.26688 0.19966
# Poissons Ratio (z) = 0.43764 0.23525
#
# Static dielectric constant tensor:
#      x y z
#    x 3.923870 -0.143630 0.084230 
#    y -0.143630 3.996880 -1.104960 
#    z 0.084230 -1.104960 5.198570 
# 
# 
# High freq. dielectric constant tensor:
#      x y z
#    x 1.744040 -0.009420 -0.028150 
#    y -0.009420 1.731900 0.000080 
#    z -0.028150 0.000080 1.729220 
# 
# From -- ./inp_files/358893.got.cif
#   From: 2010.06.25/outbox.cif.g09.slc.cpg/sg2_180_cif.got.tgz:358893.got - 2010.06.27 13:26:56.
