data_PCOD8040327
_publ_section_title
;
Structure prediction by ZEFSAII (Michael W. Deem and Ramdas Pophale) SiO2 
 PCOD8040327
Probable space group: P -1
;
_chemical_formula_sum "Si O2"
_cell_formula_units_Z 14
_cell_length_a 9.071778
_cell_length_b 11.197093
_cell_length_c 9.001412
_cell_angle_alpha 69.759669
_cell_angle_beta 59.191833
_cell_angle_gamma 100.582392
_cell_volume 658.827992
_symmetry_space_group_name_H-M "P -1"
_symmetry_group_IT_number 2
_symmetry_cell_setting 'triclinic'
loop_
_space_group_symop_operation_xyz
x,y,z
-x,-y,-z
loop_
_atom_site_type_symbol
_atom_site_label
_atom_site_fract_x
_atom_site_fract_y
_atom_site_fract_z
Si Si1 0.793478 0.540438 0.956449
Si Si2 0.413930 0.391043 0.725582
Si Si3 0.272550 0.985885 0.809605
Si Si4 0.799899 0.286495 0.202308
Si Si5 0.636892 0.229365 0.620749
Si Si6 0.890625 0.807020 0.238888
Si Si7 0.036091 0.369508 0.479323
O O1 0.813604 0.582165 0.755494
O O2 0.976413 0.651485 0.905030
O O3 0.611622 0.544800 0.131508
O O4 0.772123 0.380664 0.046043
O O5 0.500000 0.500000 0.500000
O O6 0.556717 0.321600 0.716717
O O7 0.207503 0.270918 0.829452
O O8 0.288709 0.877278 0.730832
O O9 0.475055 0.066553 0.757331
O O10 0.214532 0.095687 0.702121
O O11 0.114818 0.903647 0.051998
O O12 0.688052 0.298254 0.400269
O O13 0.830098 0.241060 0.593206
O O14 0.865528 0.689336 0.425943
O O15 0.000000 0.500000 0.500000
#
# Coordination Sequence:
#
# PCOD8040327 Si02
#       7
#     2   2   2   2   2   2   2
#     4  10  21  35  65  91 120 158 204 249 311 355
#     4  11  19  38  64  90 118 157 210 255 290 363
#     4  10  20  38  64  86 119 164 211 239 293 368
#     4  10  18  36  61  93 114 156 207 251 290 363
#     4  10  22  35  62  90 121 157 204 249 298 356
#     4  10  22  38  62  89 121 163 199 248 308 360
#     4  11  23  41  61  93 128 157 195 258 315 354
#
# _framework density 21.249856999999999
#
# number of rings (size 3 to 8) (size 9 to 14) (size 15 to 20)
#    0.000    1.714    2.857    2.143    2.000    0.571 
#    0.000    5.714    6.286    0.000    0.000    0.000 
#    0.000    0.000    0.000    0.000    0.000    0.000 
#
# Total GULP energy -173564.700421 kJ/mol
# GULP energy per Si atom -12397.478602 kJ/mol
# Density = 2.120149 g / cm^3
# Si number density = 21.249857 Si / 1000 Ang^3
#
#
#
# Elastic Constant Matrix: (Units=GPa)
#
#
# Indices 1 2 3 4 5 6 
#
# 1 59.4593 20.5740 21.2125 5.3361 5.4776 -6.5682
# 2 20.5740 117.1723 30.0583 9.8800 1.2538 -18.6475
# 3 21.2125 30.0583 96.0273 17.1692 -0.6521 -13.0747
# 4 5.3361 9.8800 17.1692 38.3174 0.5102 -7.9642
# 5 5.4776 1.2538 -0.6521 0.5102 34.0813 -12.5163
# 6 -6.5682 -18.6475 -13.0747 -7.9642 -12.5163 24.6374
#
#
#
# Elastic Compliance Matrix: (Units=1/GPa)
#
#
# Indices 1 2 3 4 5 6 
#
# 1 0.019202 -0.002467 -0.003447 -0.000527 -0.003189 -0.000368
# 2 -0.002467 0.010637 -0.001674 -0.000031 0.002900 0.007967
# 3 -0.003447 -0.001674 0.013090 -0.003982 0.002706 0.004848
# 4 -0.000527 -0.000031 -0.003982 0.029745 0.002777 0.008749
# 5 -0.003189 0.002900 0.002706 0.002777 0.038243 0.023107
# 6 -0.000368 0.007967 0.004848 0.008749 0.023107 0.063660
#
#
# Mechanical properties :
#
#
# Convention : Reuss Voigt Hill
#
# Bulk Modulus (GPa) = 36.03436 46.26094 41.14765
# Shear Modulus (GPa) = 25.12498 32.79482 28.95990
#
# Velocity S-wave (km/s) = 3.44228 3.93274 3.69565
# Velocity P-wave (km/s) = 5.72654 6.51454 6.13321
#
# Compressibility (1/GPa) = 0.02775129
#
# Stress axis : x y z
#
# Youngs Moduli (GPa) = 52.07756 94.01331 76.39655
#
# Poissons Ratio (x) = 0.23197 0.26333
# Poissons Ratio (y) = 0.12849 0.12792
# Poissons Ratio (z) = 0.17951 0.15741
#
# Static dielectric constant tensor:
#      x y z
#    x 3.629800 0.047530 -0.275850 
#    y 0.047530 3.892440 -0.074170 
#    z -0.275850 -0.074170 3.840260 
# 
# 
# High freq. dielectric constant tensor:
#      x y z
#    x 1.811030 0.000670 -0.025920 
#    y 0.000670 1.834370 -0.003200 
#    z -0.025920 -0.003200 1.834150 
# 
# From -- ./inp_files/175437.got.cif
#   From: 2010.06.25/outbox.cif.g09.slc.cpg/sg2_88_cif.got.tgz:175437.got - 2010.06.27 13:26:56.
