data_PCOD8040560
_publ_section_title
;
Structure prediction by ZEFSAII (Michael W. Deem and Ramdas Pophale) SiO2 
 PCOD8040560
Probable space group: P -1
;
_chemical_formula_sum "Si O2"
_cell_formula_units_Z 16
_cell_length_a 25.194593
_cell_length_b 10.424395
_cell_length_c 22.143386
_cell_angle_alpha 153.730749
_cell_angle_beta 165.667851
_cell_angle_gamma 27.976254
_cell_volume 631.696769
_symmetry_space_group_name_H-M "P -1"
_symmetry_group_IT_number 2
_symmetry_cell_setting 'triclinic'
loop_
_space_group_symop_operation_xyz
x,y,z
-x,-y,-z
loop_
_atom_site_type_symbol
_atom_site_label
_atom_site_fract_x
_atom_site_fract_y
_atom_site_fract_z
Si Si1 0.233286 0.817661 0.863669
Si Si2 0.524478 0.342292 0.053437
Si Si3 0.323858 0.280421 0.251442
Si Si4 0.833941 0.912830 0.395569
Si Si5 0.080078 0.772334 0.130542
Si Si6 0.879701 0.374888 0.134240
Si Si7 0.947325 0.534746 0.759654
Si Si8 0.435063 0.189435 0.611099
O O1 0.321739 0.521309 0.870072
O O2 0.973543 0.859418 0.588974
O O3 0.308328 0.823216 0.878786
O O4 0.314514 0.085446 0.099790
O O5 0.418349 0.099354 0.872390
O O6 0.638658 0.556746 0.313417
O O7 0.114415 0.256212 0.050548
O O8 0.534978 0.139610 0.464090
O O9 0.304652 0.618241 0.347059
O O10 0.917832 0.658081 0.333328
O O11 0.853296 0.227501 0.521943
O O12 0.045801 0.585332 0.954147
O O13 0.082152 0.114768 0.261221
O O14 0.872984 0.452971 0.088963
O O15 0.662210 0.247170 0.857945
O O16 0.747219 0.791258 0.633387
#
# Coordination Sequence:
#
# PCOD8040560 Si02
#       8
#     2   2   2   2   2   2   2   2
#     4  10  18  37  62  89 122 160 201 251 306 365
#     4   9  20  34  59  92 126 156 197 253 314 359
#     4   9  19  40  65  85 122 165 200 253 312 349
#     4  11  22  37  61  96 121 160 203 254 303 366
#     4  10  21  41  65  90 121 166 209 251 304 369
#     4  10  23  40  62  91 128 164 198 255 314 358
#     4  12  23  39  65  92 123 164 212 247 299 376
#     4   9  21  40  63  90 128 159 197 259 309 360
#
# _framework density 25.328607999999999
#
# number of rings (size 3 to 8) (size 9 to 14) (size 15 to 20)
#    0.000    2.000    1.250    2.625    0.000    5.000 
#    0.000    0.625    0.000    0.000    0.000    0.000 
#    0.000    0.000    0.000    0.000    0.000    0.000 
#
# Total GULP energy -198345.895292 kJ/mol
# GULP energy per Si atom -12396.618456 kJ/mol
# Density = 2.527096 g / cm^3
# Si number density = 25.328608 Si / 1000 Ang^3
#
#
#
# Elastic Constant Matrix: (Units=GPa)
#
#
# Indices 1 2 3 4 5 6 
#
# 1 -60.3978 139.7176 25.1013 -26.4549 156.3948 -56.8492
# 2 139.7176 46.9662 15.6387 37.4200 -103.7365 52.4731
# 3 25.1013 15.6387 47.3825 9.1989 -24.5449 11.6768
# 4 -26.4549 37.4200 9.1989 35.1624 61.4374 -16.8310
# 5 156.3948 -103.7365 -24.5449 61.4374 -144.4703 61.1645
# 6 -56.8492 52.4731 11.6768 -16.8310 61.1645 14.6694
#
#
#
# Elastic Compliance Matrix: (Units=1/GPa)
#
#
# Indices 1 2 3 4 5 6 
#
# 1 0.013837 -0.004465 0.003054 -0.009436 0.013563 -0.000214
# 2 -0.004465 0.011694 -0.007513 0.004371 -0.011021 -0.002186
# 3 0.003054 -0.007513 0.024258 -0.002425 0.003828 0.000660
# 4 -0.009436 0.004371 -0.002425 0.023509 -0.004633 -0.003987
# 5 0.013563 -0.011021 0.003828 -0.004633 0.017523 0.010557
# 6 -0.000214 -0.002186 0.000660 -0.003987 0.010557 0.026044
#
#
# Mechanical properties :
#
#
# Convention : Reuss Voigt Hill
#
# Bulk Modulus (GPa) = 31.30890 43.87400 37.59145
# Shear Modulus (GPa) = 34.39757 -28.69481 2.85138
#
# Velocity S-wave (km/s) = 3.68917 -3.36951 1.06217
# Velocity P-wave (km/s) = 5.52581 1.49043 4.04697
#
# Compressibility (1/GPa) = 0.03193980
#
# Stress axis : x y z
#
# Youngs Moduli (GPa) = 72.27224 85.51245 41.22407
#
# Poissons Ratio (x) = 0.38183 -0.12590
# Poissons Ratio (y) = 0.32271 0.30972
# Poissons Ratio (z) = -0.22072 0.64247
#
# Static dielectric constant tensor:
#      x y z
#    x 4.687920 0.078480 0.157030 
#    y 0.078480 5.017390 -0.085710 
#    z 0.157030 -0.085710 4.149010 
# 
# 
# High freq. dielectric constant tensor:
#      x y z
#    x 2.022470 0.007610 0.017520 
#    y 0.007610 2.019930 -0.005750 
#    z 0.017520 -0.005750 1.998590 
# 
# From -- ./inp_files/601971.got.cif
#   From: 2010.06.25/outbox.cif.g09.slc.cpg/sg2_301_cif.got.tgz:601971.got - 2010.06.27 13:26:56.
