data_PCOD8040339
_publ_section_title
;
Structure prediction by ZEFSAII (Michael W. Deem and Ramdas Pophale) SiO2 
 PCOD8040339
Probable space group: P -1
;
_chemical_formula_sum "Si O2"
_cell_formula_units_Z 16
_cell_length_a 10.732815
_cell_length_b 9.203080
_cell_length_c 14.954100
_cell_angle_alpha 101.243876
_cell_angle_beta 114.900038
_cell_angle_gamma 128.280180
_cell_volume 807.958080
_symmetry_space_group_name_H-M "P -1"
_symmetry_group_IT_number 2
_symmetry_cell_setting 'triclinic'
loop_
_space_group_symop_operation_xyz
x,y,z
-x,-y,-z
loop_
_atom_site_type_symbol
_atom_site_label
_atom_site_fract_x
_atom_site_fract_y
_atom_site_fract_z
Si Si1 0.954941 0.184298 0.131965
Si Si2 0.174446 0.166500 0.323652
Si Si3 0.645587 0.421926 0.467188
Si Si4 0.363943 0.745214 0.736718
Si Si5 0.522891 0.197818 0.033300
Si Si6 0.939085 0.470625 0.666170
Si Si7 0.970290 0.704628 0.201774
Si Si8 0.853404 0.229059 0.920751
O O1 0.131625 0.209936 0.219454
O O2 0.017596 0.396130 0.216507
O O3 0.935025 0.186592 0.019234
O O4 0.716766 0.934119 0.075016
O O5 0.399210 0.261954 0.399606
O O6 0.184831 0.301222 0.420059
O O7 0.974531 0.881862 0.252336
O O8 0.671432 0.406092 0.369227
O O9 0.712616 0.330359 0.531956
O O10 0.401756 0.684667 0.831191
O O11 0.141162 0.654911 0.675713
O O12 0.586587 0.036818 0.825376
O O13 0.725274 0.435483 0.063615
O O14 0.500000 0.000000 0.000000
O O15 0.920321 0.290710 0.680853
O O16 0.122695 0.829464 0.174176
O O17 0.000000 0.500000 0.000000
#
# Coordination Sequence:
#
# PCOD8040339 Si02
#       8
#     2   2   2   2   2   2   2   2
#     4  10  20  37  59  85 118 158 178 230 303 349
#     4  10  23  39  57  81 120 156 195 233 289 343
#     4  10  21  41  58  79 114 162 198 234 280 344
#     4  10  19  35  59  89 110 150 190 236 293 338
#     4  10  18  36  62  86 119 146 182 238 298 344
#     4  10  20  36  63  83 113 151 196 239 291 326
#     4  11  20  36  58  93 114 147 194 243 285 341
#     4  11  20  33  60  93 118 138 192 244 283 343
#
# _framework density 19.803007999999998
#
# number of rings (size 3 to 8) (size 9 to 14) (size 15 to 20)
#    0.000    1.750    5.000    1.125    0.000    1.500 
#    0.000    2.500    0.000    0.000    0.000    0.000 
#    0.000    0.000    0.000    0.000    0.000    0.000 
#
# Total GULP energy -198209.113382 kJ/mol
# GULP energy per Si atom -12388.069586 kJ/mol
# Density = 1.975794 g / cm^3
# Si number density = 19.803008 Si / 1000 Ang^3
#
#
#
# Elastic Constant Matrix: (Units=GPa)
#
#
# Indices 1 2 3 4 5 6 
#
# 1 64.9541 36.6595 41.5201 -6.3555 2.8579 2.9176
# 2 36.6595 106.4323 36.6850 6.6880 0.9231 -10.5735
# 3 41.5201 36.6850 100.2545 -10.0522 0.9951 -8.8346
# 4 -6.3555 6.6880 -10.0522 25.8320 -0.3291 -4.1295
# 5 2.8579 0.9231 0.9951 -0.3291 40.3815 2.5687
# 6 2.9176 -10.5735 -8.8346 -4.1295 2.5687 30.4519
#
#
#
# Elastic Compliance Matrix: (Units=1/GPa)
#
#
# Indices 1 2 3 4 5 6 
#
# 1 0.025067 -0.006704 -0.008121 0.003691 -0.000977 -0.006503
# 2 -0.006704 0.013197 -0.002246 -0.005325 -0.000061 0.003856
# 3 -0.008121 -0.002246 0.015141 0.005292 -0.000029 0.005111
# 4 0.003691 -0.005325 0.005292 0.043903 -0.000250 0.005308
# 5 -0.000977 -0.000061 -0.000029 -0.000250 0.024965 -0.002076
# 6 -0.006503 0.003856 0.005111 0.005308 -0.002076 0.037178
#
#
# Mechanical properties :
#
#
# Convention : Reuss Voigt Hill
#
# Bulk Modulus (GPa) = 51.91589 55.70778 53.81184
# Shear Modulus (GPa) = 24.99809 29.78485 27.39147
#
# Velocity S-wave (km/s) = 3.55679 3.88242 3.72317
# Velocity P-wave (km/s) = 6.56816 6.94908 6.76130
#
# Compressibility (1/GPa) = 0.01926193
#
# Stress axis : x y z
#
# Youngs Moduli (GPa) = 39.89333 75.77379 66.04461
#
# Poissons Ratio (x) = 0.50800 0.53638
# Poissons Ratio (y) = 0.26745 0.14834
# Poissons Ratio (z) = 0.32399 0.17019
#
# Static dielectric constant tensor:
#      x y z
#    x 3.702670 0.137180 -0.023760 
#    y 0.137180 3.521150 0.135770 
#    z -0.023760 0.135770 3.881760 
# 
# 
# High freq. dielectric constant tensor:
#      x y z
#    x 1.759390 0.005720 -0.000890 
#    y 0.005720 1.745350 0.011170 
#    z -0.000890 0.011170 1.784410 
# 
# From -- ./inp_files/271033.got.cif
#   From: 2010.06.25/outbox.cif.g09.slc.cpg/sg2_136_cif.got.tgz:271033.got - 2010.06.27 13:26:56.
