data_PCOD8040298
_publ_section_title
;
Structure prediction by ZEFSAII (Michael W. Deem and Ramdas Pophale) SiO2 
 PCOD8040298
Probable space group: P -1
;
_chemical_formula_sum "Si O2"
_cell_formula_units_Z 16
_cell_length_a 11.903324
_cell_length_b 17.582414
_cell_length_c 19.146480
_cell_angle_alpha 21.779865
_cell_angle_beta 124.989307
_cell_angle_gamma 138.648029
_cell_volume 848.183388
_symmetry_space_group_name_H-M "P -1"
_symmetry_group_IT_number 2
_symmetry_cell_setting 'triclinic'
loop_
_space_group_symop_operation_xyz
x,y,z
-x,-y,-z
loop_
_atom_site_type_symbol
_atom_site_label
_atom_site_fract_x
_atom_site_fract_y
_atom_site_fract_z
Si Si1 0.038009 0.678149 0.427881
Si Si2 0.642581 0.422409 0.074217
Si Si3 0.310356 0.331782 0.979267
Si Si4 0.294772 0.043813 0.818148
Si Si5 0.693345 0.222101 0.447938
Si Si6 0.982137 0.575456 0.708613
Si Si7 0.000004 0.433031 0.977675
Si Si8 0.738929 0.523530 0.557844
O O1 0.186086 0.702265 0.505121
O O2 0.000000 0.500000 0.500000
O O3 0.835240 0.500893 0.547956
O O4 0.137701 0.003597 0.166346
O O5 0.745767 0.676159 0.953242
O O6 0.516074 0.118484 0.332302
O O7 0.514412 0.423631 0.974894
O O8 0.807416 0.498813 0.020325
O O9 0.334838 0.562815 0.745443
O O10 0.518538 0.201433 0.764793
O O11 0.280250 0.260662 0.653127
O O12 0.197887 0.908004 0.821660
O O13 0.166405 0.777069 0.055677
O O14 0.807133 0.258027 0.390071
O O15 0.876395 0.651762 0.567111
O O16 0.010371 0.634281 0.752977
O O17 0.000000 0.500000 0.000000
#
# Coordination Sequence:
#
# PCOD8040298 Si02
#       8
#     2   2   2   2   2   2   2   2
#     4  10  22  35  53  83 115 142 176 226 285 321
#     4  10  20  34  58  85 108 141 187 222 271 318
#     4  10  19  34  57  83 109 141 183 230 264 322
#     4   9  20  34  57  80 105 140 188 223 267 314
#     4  10  19  35  60  85 105 142 187 226 268 324
#     4   9  19  34  57  85 105 137 186 222 270 318
#     4  10  21  37  54  78 120 147 168 223 278 327
#     4  10  18  36  61  77 101 144 189 230 256 320
#
# _framework density 18.863845000000001
#
# number of rings (size 3 to 8) (size 9 to 14) (size 15 to 20)
#    0.750    1.500    1.250    2.250    0.000    3.500 
#    0.000    0.625    5.500    0.000    0.000    0.000 
#    0.000    0.000    0.000    0.000    0.000    0.000 
#
# Total GULP energy -198270.225069 kJ/mol
# GULP energy per Si atom -12391.889067 kJ/mol
# Density = 1.882091 g / cm^3
# Si number density = 18.863845 Si / 1000 Ang^3
#
#
#
# Elastic Constant Matrix: (Units=GPa)
#
#
# Indices 1 2 3 4 5 6 
#
# 1 109.4595 60.2041 17.7019 -4.4889 5.7269 1.9349
# 2 60.2041 82.7296 24.2570 -4.7179 1.0659 -0.0385
# 3 17.7019 24.2570 73.9847 3.3725 10.2149 6.2509
# 4 -4.4889 -4.7179 3.3725 31.5692 1.1799 5.3741
# 5 5.7269 1.0659 10.2149 1.1799 16.5740 -0.5184
# 6 1.9349 -0.0385 6.2509 5.3741 -0.5184 40.4741
#
#
#
# Elastic Compliance Matrix: (Units=1/GPa)
#
#
# Indices 1 2 3 4 5 6 
#
# 1 0.015674 -0.011531 0.000810 0.000796 -0.005263 -0.001059
# 2 -0.011531 0.022117 -0.005490 0.001820 0.005855 0.001254
# 3 0.000810 -0.005490 0.016831 -0.001686 -0.010260 -0.002551
# 4 0.000796 0.001820 -0.001686 0.033022 -0.001835 -0.004184
# 5 -0.005263 0.005855 -0.010260 -0.001835 0.068324 0.002961
# 6 -0.001059 0.001254 -0.002551 -0.004184 0.002961 0.025746
#
#
# Mechanical properties :
#
#
# Convention : Reuss Voigt Hill
#
# Bulk Modulus (GPa) = 45.04208 52.27777 48.65992
# Shear Modulus (GPa) = 22.56958 28.65753 25.61356
#
# Velocity S-wave (km/s) = 3.46272 3.90189 3.68885
# Velocity P-wave (km/s) = 6.31795 6.93347 6.63286
#
# Compressibility (1/GPa) = 0.02220146
#
# Stress axis : x y z
#
# Youngs Moduli (GPa) = 63.80147 45.21312 59.41294
#
# Poissons Ratio (x) = 0.52135 -0.04814
# Poissons Ratio (y) = 0.73569 0.32617
# Poissons Ratio (z) = -0.05170 0.24822
#
# Static dielectric constant tensor:
#      x y z
#    x 3.228630 0.316210 -0.044370 
#    y 0.316210 3.496710 0.009500 
#    z -0.044370 0.009500 3.532060 
# 
# 
# High freq. dielectric constant tensor:
#      x y z
#    x 1.709220 0.033040 -0.005910 
#    y 0.033040 1.732010 0.004590 
#    z -0.005910 0.004590 1.730070 
# 
# From -- ./inp_files/595819.got.cif
#   From: 2010.06.25/outbox.cif.g09.slc.cpg/sg2_298_cif.got.tgz:595819.got - 2010.06.27 13:26:56.
