data_PCOD8040420
_publ_section_title
;
Structure prediction by ZEFSAII (Michael W. Deem and Ramdas Pophale) SiO2 
 PCOD8040420
Probable space group: P -1
;
_chemical_formula_sum "Si O2"
_cell_formula_units_Z 16
_cell_length_a 9.913101
_cell_length_b 12.051485
_cell_length_c 11.543865
_cell_angle_alpha 124.693711
_cell_angle_beta 101.506909
_cell_angle_gamma 52.913562
_cell_volume 882.567209
_symmetry_space_group_name_H-M "P -1"
_symmetry_group_IT_number 2
_symmetry_cell_setting 'triclinic'
loop_
_space_group_symop_operation_xyz
x,y,z
-x,-y,-z
loop_
_atom_site_type_symbol
_atom_site_label
_atom_site_fract_x
_atom_site_fract_y
_atom_site_fract_z
Si Si1 0.746217 0.744667 0.110769
Si Si2 0.572339 0.079425 0.413148
Si Si3 0.667598 0.448469 0.152935
Si Si4 0.445041 0.740450 0.109248
Si Si5 0.942938 0.435813 0.551322
Si Si6 0.020355 0.553413 0.855385
Si Si7 0.412849 0.446474 0.536656
Si Si8 0.731757 0.930835 0.586837
O O1 0.600771 0.715863 0.047457
O O2 0.868292 0.625073 0.165273
O O3 0.654653 0.938510 0.243607
O O4 0.861172 0.703897 0.993437
O O5 0.542188 0.243885 0.452799
O O6 0.388976 0.129521 0.455969
O O7 0.702923 0.012156 0.503735
O O8 0.522979 0.625165 0.169577
O O9 0.630931 0.465514 0.293132
O O10 0.859535 0.392979 0.130661
O O11 0.657453 0.303201 0.014779
O O12 0.309240 0.934555 0.241851
O O13 0.933427 0.530102 0.720451
O O14 0.755852 0.492937 0.526033
O O15 0.000000 0.500000 0.500000
O O16 0.070668 0.232222 0.463817
O O17 0.500000 0.500000 0.500000
#
# Coordination Sequence:
#
# PCOD8040420 Si02
#       8
#     2   2   2   2   2   2   2   2
#     4   9  19  34  62  90 114 148 201 253 284 333
#     4  10  18  38  63  89 117 153 204 249 284 342
#     4  10  19  38  58  85 120 160 191 236 300 352
#     4   9  19  34  62  88 116 152 198 243 291 347
#     4  12  22  39  63  89 118 159 200 241 300 355
#     4  10  19  36  59  90 118 150 195 248 293 343
#     4  12  26  41  59  87 127 161 190 244 308 358
#     4  10  18  36  66  91 111 152 212 245 279 349
#
# _framework density 18.128931000000001
#
# number of rings (size 3 to 8) (size 9 to 14) (size 15 to 20)
#    0.000    1.750    5.000    0.000    1.750    0.000 
#    2.250    3.125    0.000    0.000    0.000    0.000 
#    0.000    0.000    0.000    0.000    0.000    0.000 
#
# Total GULP energy -198430.456666 kJ/mol
# GULP energy per Si atom -12401.903542 kJ/mol
# Density = 1.808767 g / cm^3
# Si number density = 18.128931 Si / 1000 Ang^3
#
#
#
# Elastic Constant Matrix: (Units=GPa)
#
#
# Indices 1 2 3 4 5 6 
#
# 1 129.4375 58.3475 71.3304 -10.1665 -2.8439 7.4920
# 2 58.3475 106.2655 54.6193 3.1748 1.0420 2.0015
# 3 71.3304 54.6193 126.8283 -13.2541 2.2746 1.7987
# 4 -10.1665 3.1748 -13.2541 29.2256 -0.5183 3.7721
# 5 -2.8439 1.0420 2.2746 -0.5183 32.4263 -3.4119
# 6 7.4920 2.0015 1.7987 3.7721 -3.4119 27.7188
#
#
#
# Elastic Compliance Matrix: (Units=1/GPa)
#
#
# Indices 1 2 3 4 5 6 
#
# 1 0.013021 -0.004647 -0.004966 0.003210 0.001362 -0.003131
# 2 -0.004647 0.014173 -0.004033 -0.005140 -0.000544 0.001127
# 3 -0.004966 -0.004033 0.012909 0.004540 -0.001135 0.000038
# 4 0.003210 -0.005140 0.004540 0.038733 0.000111 -0.006048
# 5 0.001362 -0.000544 -0.001135 0.000111 0.031436 0.003599
# 6 -0.003131 0.001127 0.000038 -0.006048 0.003599 0.038105
#
#
# Mechanical properties :
#
#
# Convention : Reuss Voigt Hill
#
# Bulk Modulus (GPa) = 78.07028 81.23621 79.65324
# Shear Modulus (GPa) = 27.78709 29.75643 28.77176
#
# Velocity S-wave (km/s) = 3.91928 4.05579 3.98812
# Velocity P-wave (km/s) = 7.97737 8.17558 8.07708
#
# Compressibility (1/GPa) = 0.01280897
#
# Stress axis : x y z
#
# Youngs Moduli (GPa) = 76.80171 70.55810 77.46471
#
# Poissons Ratio (x) = 0.32788 0.38471
# Poissons Ratio (y) = 0.35689 0.31245
# Poissons Ratio (z) = 0.38142 0.28460
#
# Static dielectric constant tensor:
#      x y z
#    x 3.218120 0.002990 0.008050 
#    y 0.002990 3.307100 -0.011590 
#    z 0.008050 -0.011590 3.339540 
# 
# 
# High freq. dielectric constant tensor:
#      x y z
#    x 1.690820 -0.003090 -0.000430 
#    y -0.003090 1.692860 -0.000070 
#    z -0.000430 -0.000070 1.711130 
# 
# From -- ./inp_files/190014.got.cif
#   From: 2010.06.25/outbox.cif.g09.slc.cpg/sg2_96_cif.got.tgz:190014.got - 2010.06.27 13:26:56.
