data_PCOD8040306
_publ_section_title
;
Structure prediction by ZEFSAII (Michael W. Deem and Ramdas Pophale) SiO2 
 PCOD8040306
Probable space group: P -1
;
_chemical_formula_sum "Si O2"
_cell_formula_units_Z 14
_cell_length_a 12.589392
_cell_length_b 9.359768
_cell_length_c 9.183779
_cell_angle_alpha 114.930363
_cell_angle_beta 113.209415
_cell_angle_gamma 109.456509
_cell_volume 722.215493
_symmetry_space_group_name_H-M "P -1"
_symmetry_group_IT_number 2
_symmetry_cell_setting 'triclinic'
loop_
_space_group_symop_operation_xyz
x,y,z
-x,-y,-z
loop_
_atom_site_type_symbol
_atom_site_label
_atom_site_fract_x
_atom_site_fract_y
_atom_site_fract_z
Si Si1 0.146739 0.161634 0.822822
Si Si2 0.336391 0.614189 0.119056
Si Si3 0.535689 0.029844 0.863646
Si Si4 0.177521 0.053514 0.488923
Si Si5 0.655658 0.125253 0.557829
Si Si6 0.582201 0.610443 0.389530
Si Si7 0.647435 0.793405 0.813398
O O1 0.979130 0.058143 0.714970
O O2 0.167604 0.050292 0.657389
O O3 0.223930 0.387931 0.916777
O O4 0.208865 0.139686 0.994883
O O5 0.388598 0.748314 0.058577
O O6 0.259500 0.666939 0.220488
O O7 0.477701 0.660966 0.294261
O O8 0.383056 0.872787 0.631139
O O9 0.647464 0.979924 0.869369
O O10 0.500000 0.000000 0.000000
O O11 0.249479 0.955077 0.419343
O O12 0.278050 0.283424 0.593650
O O13 0.500000 0.000000 0.500000
O O14 0.643243 0.697864 0.619514
O O15 0.494729 0.374369 0.241447
#
# Coordination Sequence:
#
# PCOD8040306 Si02
#       7
#     2   2   2   2   2   2   2
#     4  10  25  38  58  87 119 159 193 231 286 356
#     4  10  20  39  59  87 114 150 200 232 289 344
#     4  11  20  31  58  90 114 143 187 250 288 331
#     4  11  21  40  61  81 120 161 192 230 291 348
#     4  10  18  36  61  84 109 152 191 239 283 336
#     4  10  19  36  62  81 113 152 191 242 279 344
#     4  10  21  35  56  91 115 139 195 243 289 333
#
# _framework density 19.384796000000001
#
# number of rings (size 3 to 8) (size 9 to 14) (size 15 to 20)
#    0.000    1.714    4.286    1.714    2.000    2.286 
#    0.000    0.000    3.143    2.571    0.000    0.000 
#    0.000    0.000    0.000    0.000    0.000    0.000 
#
# Total GULP energy -173495.099342 kJ/mol
# GULP energy per Si atom -12392.507096 kJ/mol
# Density = 1.934068 g / cm^3
# Si number density = 19.384796 Si / 1000 Ang^3
#
#
#
# Elastic Constant Matrix: (Units=GPa)
#
#
# Indices 1 2 3 4 5 6 
#
# 1 93.6234 17.9970 36.6643 0.8015 15.5322 -1.0497
# 2 17.9970 77.6038 18.1363 -9.6673 16.3594 -7.3957
# 3 36.6643 18.1363 82.2458 -11.8914 17.2413 -1.1222
# 4 0.8015 -9.6673 -11.8914 33.0147 -1.6118 -4.2076
# 5 15.5322 16.3594 17.2413 -1.6118 29.8159 0.6059
# 6 -1.0497 -7.3957 -1.1222 -4.2076 0.6059 25.6051
#
#
#
# Elastic Compliance Matrix: (Units=1/GPa)
#
#
# Indices 1 2 3 4 5 6 
#
# 1 0.013712 -0.001648 -0.005526 -0.003036 -0.003195 -0.000579
# 2 -0.001648 0.016112 -0.000441 0.004938 -0.007573 0.005558
# 3 -0.005526 -0.000441 0.016945 0.005991 -0.006385 0.001524
# 4 -0.003036 0.004938 0.005991 0.034763 -0.002862 0.007345
# 5 -0.003195 -0.007573 -0.006385 -0.002862 0.042979 -0.004086
# 6 -0.000579 0.005558 0.001524 0.007345 -0.004086 0.042007
#
#
# Mechanical properties :
#
#
# Convention : Reuss Voigt Hill
#
# Bulk Modulus (GPa) = 31.70722 44.34092 38.02407
# Shear Modulus (GPa) = 26.00629 29.73216 27.86923
#
# Velocity S-wave (km/s) = 3.66673 3.92061 3.79579
# Velocity P-wave (km/s) = 5.85823 6.58928 6.23448
#
# Compressibility (1/GPa) = 0.03153855
#
# Stress axis : x y z
#
# Youngs Moduli (GPa) = 72.93100 62.06385 59.01515
#
# Poissons Ratio (x) = 0.10229 0.32612
# Poissons Ratio (y) = 0.12020 0.02603
# Poissons Ratio (z) = 0.40302 0.02737
#
# Static dielectric constant tensor:
#      x y z
#    x 3.476120 -0.149530 -0.220390 
#    y -0.149530 3.766050 0.053990 
#    z -0.220390 0.053990 3.808500 
# 
# 
# High freq. dielectric constant tensor:
#      x y z
#    x 1.733980 -0.009690 -0.015070 
#    y -0.009690 1.750740 -0.012070 
#    z -0.015070 -0.012070 1.756720 
# 
# From -- ./inp_files/154235.got.cif
#   From: 2010.06.25/outbox.cif.g09.slc.cpg/sg2_78_cif.got.tgz:154235.got - 2010.06.27 13:26:56.
