data_PCOD8040712
_publ_section_title
;
Structure prediction by ZEFSAII (Michael W. Deem and Ramdas Pophale) SiO2 
 PCOD8040712
Probable space group: P -1
;
_chemical_formula_sum "Si O2"
_cell_formula_units_Z 16
_cell_length_a 14.564676
_cell_length_b 9.718472
_cell_length_c 12.268230
_cell_angle_alpha 69.351042
_cell_angle_beta 149.105336
_cell_angle_gamma 96.879021
_cell_volume 771.589754
_symmetry_space_group_name_H-M "P -1"
_symmetry_group_IT_number 2
_symmetry_cell_setting 'triclinic'
loop_
_space_group_symop_operation_xyz
x,y,z
-x,-y,-z
loop_
_atom_site_type_symbol
_atom_site_label
_atom_site_fract_x
_atom_site_fract_y
_atom_site_fract_z
Si Si1 0.880463 0.778735 0.647501
Si Si2 0.032550 0.232091 0.020604
Si Si3 0.757344 0.130444 0.660295
Si Si4 0.050492 0.016072 0.669074
Si Si5 0.956853 0.538681 0.221520
Si Si6 0.531879 0.009717 0.901081
Si Si7 0.178117 0.702892 0.514440
Si Si8 0.555085 0.718594 0.857784
O O1 0.934273 0.708721 0.843087
O O2 0.978303 0.643240 0.696060
O O3 0.649610 0.849476 0.375957
O O4 0.959523 0.918211 0.678162
O O5 0.186142 0.053652 0.203151
O O6 0.816213 0.225335 0.792072
O O7 0.072721 0.350955 0.944969
O O8 0.884467 0.159348 0.681761
O O9 0.533331 0.202673 0.372651
O O10 0.280046 0.949963 0.939505
O O11 0.000000 0.000000 0.500000
O O12 0.947119 0.205090 0.535611
O O13 0.121355 0.555646 0.463159
O O14 0.762896 0.584498 0.082948
O O15 0.566395 0.845188 0.921300
O O16 0.500000 0.000000 0.000000
O O17 0.411448 0.639695 0.785687
#
# Coordination Sequence:
#
# PCOD8040712 Si02
#       8
#     2   2   2   2   2   2   2   2
#     4  12  24  44  59  98 132 159 212 264 310 373
#     4  10  18  38  61  91 130 170 200 256 310 363
#     4   8  17  33  63  86 119 160 214 248 285 359
#     4  12  22  41  70  90 117 164 213 268 312 356
#     4  11  24  36  65  92 136 170 194 254 328 370
#     4  12  23  41  70  94 117 163 220 261 309 371
#     4   9  18  39  60  89 125 160 206 256 301 365
#     4  10  19  40  62  93 123 165 216 253 296 382
#
# _framework density 20.736408000000001
#
# number of rings (size 3 to 8) (size 9 to 14) (size 15 to 20)
#    0.750    0.750    6.250    0.375    0.000    1.500 
#    2.250    3.125    0.000    3.000    0.000    0.000 
#    0.000    0.000    0.000    0.000    0.000    0.000 
#
# Total GULP energy -198251.675739 kJ/mol
# GULP energy per Si atom -12390.729734 kJ/mol
# Density = 2.068921 g / cm^3
# Si number density = 20.736408 Si / 1000 Ang^3
#
#
#
# Elastic Constant Matrix: (Units=GPa)
#
#
# Indices 1 2 3 4 5 6 
#
# 1 50.1159 17.0058 32.0608 9.5668 16.6857 -17.9843
# 2 17.0058 108.7388 44.5605 13.4382 14.2618 -32.8285
# 3 32.0608 44.5605 109.6143 28.5928 28.3872 -12.9490
# 4 9.5668 13.4382 28.5928 31.5196 -3.5921 -0.5673
# 5 16.6857 14.2618 28.3872 -3.5921 38.5951 2.5529
# 6 -17.9843 -32.8285 -12.9490 -0.5673 2.5529 32.6023
#
#
#
# Elastic Compliance Matrix: (Units=1/GPa)
#
#
# Indices 1 2 3 4 5 6 
#
# 1 0.040661 0.009358 -0.000918 -0.017661 -0.024194 0.033076
# 2 0.009358 0.018473 -0.001574 -0.010255 -0.012251 0.023919
# 3 -0.000918 -0.001574 0.019754 -0.018642 -0.015727 0.006662
# 4 -0.017661 -0.010255 -0.018642 0.061585 0.032784 -0.028968
# 5 -0.024194 -0.012251 -0.015727 0.032784 0.057889 -0.035891
# 6 0.033076 0.023919 0.006662 -0.028968 -0.035891 0.077956
#
#
# Mechanical properties :
#
#
# Convention : Reuss Voigt Hill
#
# Bulk Modulus (GPa) = 10.79657 50.63590 30.71624
# Shear Modulus (GPa) = 17.03828 32.19953 24.61890
#
# Velocity S-wave (km/s) = 2.86957 3.94484 3.44936
# Velocity P-wave (km/s) = 4.02457 6.72464 5.54157
#
# Compressibility (1/GPa) = 0.09262198
#
# Stress axis : x y z
#
# Youngs Moduli (GPa) = 24.59364 54.13280 50.62367
#
# Poissons Ratio (x) = -0.50659 0.04645
# Poissons Ratio (y) = -0.23016 0.07966
# Poissons Ratio (z) = 0.02257 0.08518
#
# Static dielectric constant tensor:
#      x y z
#    x 3.210980 -0.253660 -0.025040 
#    y -0.253660 3.604410 0.355170 
#    z -0.025040 0.355170 3.869670 
# 
# 
# High freq. dielectric constant tensor:
#      x y z
#    x 1.790570 -0.009320 -0.003390 
#    y -0.009320 1.805370 0.027370 
#    z -0.003390 0.027370 1.814250 
# 
# From -- ./inp_files/447564.got.cif
#   From: 2010.06.25/outbox.cif.g09.slc.cpg/sg2_224_cif.got.tgz:447564.got - 2010.06.27 13:26:56.
