data_PCOD8040968
_publ_section_title
;
Structure prediction by ZEFSAII (Michael W. Deem and Ramdas Pophale) SiO2 
 PCOD8040968
Probable space group: P -1
;
_chemical_formula_sum "Si O2"
_cell_formula_units_Z 14
_cell_length_a 15.017911
_cell_length_b 10.214885
_cell_length_c 9.651324
_cell_angle_alpha 41.647652
_cell_angle_beta 124.690726
_cell_angle_gamma 135.711199
_cell_volume 685.167902
_symmetry_space_group_name_H-M "P -1"
_symmetry_group_IT_number 2
_symmetry_cell_setting 'triclinic'
loop_
_space_group_symop_operation_xyz
x,y,z
-x,-y,-z
loop_
_atom_site_type_symbol
_atom_site_label
_atom_site_fract_x
_atom_site_fract_y
_atom_site_fract_z
Si Si1 0.634701 0.233341 0.630577
Si Si2 0.765173 0.994146 0.498853
Si Si3 0.997779 0.270183 0.647303
Si Si4 0.381374 0.786717 0.860431
Si Si5 0.284864 0.451217 0.791460
Si Si6 0.620044 0.489510 0.666175
Si Si7 0.240078 0.001227 0.200681
O O1 0.618974 0.366692 0.380983
O O2 0.675413 0.404834 0.661278
O O3 0.506632 0.988662 0.736301
O O4 0.745320 0.183961 0.729065
O O5 0.731107 0.745775 0.607623
O O6 0.701520 0.970281 0.614549
O O7 0.707058 0.110435 0.257227
O O8 0.919542 0.157199 0.522560
O O9 0.138105 0.320973 0.715245
O O10 0.000000 0.500000 0.500000
O O11 0.911663 0.093303 0.837391
O O12 0.299644 0.571348 0.856284
O O13 0.420963 0.697686 0.099195
O O14 0.315511 0.249715 0.994242
O O15 0.500000 0.500000 0.500000
#
# Coordination Sequence:
#
# PCOD8040968 Si02
#       7
#     2   2   2   2   2   2   2
#     4  12  26  38  63 100 129 161 217 266 308 369
#     4  10  22  41  66  95 122 172 213 248 320 383
#     4  10  18  40  68  97 125 161 214 263 316 365
#     4  12  23  41  65  92 128 173 208 256 315 386
#     4  12  22  40  70  97 129 162 215 269 308 368
#     4  12  27  44  61  91 133 177 205 252 325 389
#     4  10  23  38  66  98 123 165 211 265 308 367
#
# _framework density 20.432946999999999
#
# number of rings (size 3 to 8) (size 9 to 14) (size 15 to 20)
#    0.857    0.000    7.143    1.286    2.000    0.571 
#    0.000    0.714    0.000    4.286    0.000    0.000 
#    0.000    0.000    0.000    0.000    0.000    0.000 
#
# Total GULP energy -173499.905679 kJ/mol
# GULP energy per Si atom -12392.850406 kJ/mol
# Density = 2.038644 g / cm^3
# Si number density = 20.432947 Si / 1000 Ang^3
#
#
#
# Elastic Constant Matrix: (Units=GPa)
#
#
# Indices 1 2 3 4 5 6 
#
# 1 53.8974 33.6755 21.9491 8.0376 5.9280 -15.0322
# 2 33.6755 122.2502 32.9442 -7.9262 8.7300 -14.3907
# 3 21.9491 32.9442 139.1266 -9.8505 -2.2716 -7.1226
# 4 8.0376 -7.9262 -9.8505 33.0688 1.5372 7.4207
# 5 5.9280 8.7300 -2.2716 1.5372 21.2379 0.1989
# 6 -15.0322 -14.3907 -7.1226 7.4207 0.1989 32.4306
#
#
#
# Elastic Compliance Matrix: (Units=1/GPa)
#
#
# Indices 1 2 3 4 5 6 
#
# 1 0.030062 -0.006175 -0.003579 -0.012589 -0.005449 0.013322
# 2 -0.006175 0.010797 -0.001333 0.003654 -0.003129 0.000819
# 3 -0.003579 -0.001333 0.008269 0.003174 0.002212 -0.001174
# 4 -0.012589 0.003654 0.003174 0.037867 -0.000275 -0.012180
# 5 -0.005449 -0.003129 0.002212 -0.000275 0.050184 -0.003673
# 6 0.013322 0.000819 -0.001174 -0.012180 -0.003673 0.039925
#
#
# Mechanical properties :
#
#
# Convention : Reuss Voigt Hill
#
# Bulk Modulus (GPa) = 37.10092 54.71242 45.90667
# Shear Modulus (GPa) = 24.00823 32.46116 28.23469
#
# Velocity S-wave (km/s) = 3.43151 3.99013 3.72132
# Velocity P-wave (km/s) = 5.82213 6.93274 6.40157
#
# Compressibility (1/GPa) = 0.02695351
#
# Stress axis : x y z
#
# Youngs Moduli (GPa) = 33.26472 92.61832 120.93891
#
# Poissons Ratio (x) = 0.57196 0.43280
# Poissons Ratio (y) = 0.20543 0.16120
# Poissons Ratio (z) = 0.11904 0.12345
#
# Static dielectric constant tensor:
#      x y z
#    x 3.521140 0.069610 0.063270 
#    y 0.069610 3.911440 -0.148570 
#    z 0.063270 -0.148570 3.903090 
# 
# 
# High freq. dielectric constant tensor:
#      x y z
#    x 1.765280 0.000300 0.010400 
#    y 0.000300 1.807110 -0.021700 
#    z 0.010400 -0.021700 1.803820 
# 
# From -- ./inp_files/294275.got.cif
#   From: 2010.06.25/outbox.cif.g09.slc.cpg/sg2_148_cif.got.tgz:294275.got - 2010.06.27 13:26:56.
