data_PCOD8040134
_publ_section_title
;
Structure prediction by ZEFSAII (Michael W. Deem and Ramdas Pophale) SiO2 
 PCOD8040134
Probable space group: P -1
;
_chemical_formula_sum "Si O2"
_cell_formula_units_Z 16
_cell_length_a 9.234523
_cell_length_b 8.056514
_cell_length_c 12.901518
_cell_angle_alpha 105.103067
_cell_angle_beta 129.582335
_cell_angle_gamma 70.782970
_cell_volume 696.837694
_symmetry_space_group_name_H-M "P -1"
_symmetry_group_IT_number 2
_symmetry_cell_setting 'triclinic'
loop_
_space_group_symop_operation_xyz
x,y,z
-x,-y,-z
loop_
_atom_site_type_symbol
_atom_site_label
_atom_site_fract_x
_atom_site_fract_y
_atom_site_fract_z
Si Si1 0.015674 0.377091 0.086601
Si Si2 0.644852 0.601070 0.027592
Si Si3 0.256641 0.818058 0.577280
Si Si4 0.594725 0.866698 0.217818
Si Si5 0.274761 0.013483 0.409758
Si Si6 0.098608 0.298967 0.519006
Si Si7 0.395987 0.437319 0.233303
Si Si8 0.233032 0.830075 0.160984
O O1 0.861590 0.478001 0.117059
O O2 0.239780 0.354575 0.216751
O O3 0.956906 0.195370 0.993016
O O4 0.000000 0.500000 0.000000
O O5 0.632593 0.790172 0.106702
O O6 0.500000 0.500000 0.000000
O O7 0.587573 0.639434 0.888508
O O8 0.245858 0.876043 0.462629
O O9 0.400286 0.626381 0.625843
O O10 0.043154 0.812168 0.513150
O O11 0.338767 0.950705 0.711209
O O12 0.714853 0.720572 0.326832
O O13 0.371596 0.893266 0.151405
O O14 0.179331 0.973393 0.251388
O O15 0.500000 0.000000 0.500000
O O16 0.165619 0.211843 0.423652
O O17 0.000000 0.500000 0.500000
O O18 0.339704 0.648500 0.236573
#
# Coordination Sequence:
#
# PCOD8040134 Si02
#       8
#     2   2   2   2   2   2   2   2
#     4   8  18  34  58  90 118 153 206 252 301 365
#     4  10  18  35  66  88 118 168 210 252 318 366
#     4  11  25  40  61  92 129 162 210 265 309 373
#     4  11  20  39  64  90 125 164 207 262 314 365
#     4  11  22  42  67  92 125 168 206 254 330 367
#     4  11  25  43  64  93 128 163 213 261 311 383
#     4  10  22  39  58  93 127 159 216 258 301 378
#     4  10  18  38  66  86 123 165 203 260 312 372
#
# _framework density 22.960868999999999
#
# number of rings (size 3 to 8) (size 9 to 14) (size 15 to 20)
#    0.000    2.000    5.000    2.250    0.000    7.000 
#    2.250    0.625    0.000    0.000    0.000    0.000 
#    0.000    0.000    0.000    0.000    0.000    0.000 
#
# Total GULP energy -198341.497874 kJ/mol
# GULP energy per Si atom -12396.343617 kJ/mol
# Density = 2.290861 g / cm^3
# Si number density = 22.960869 Si / 1000 Ang^3
#
#
#
# Elastic Constant Matrix: (Units=GPa)
#
#
# Indices 1 2 3 4 5 6 
#
# 1 151.2793 11.6865 25.0610 22.6704 7.8592 -14.4864
# 2 11.6865 58.8919 -10.3963 15.3956 -13.5069 -11.6539
# 3 25.0610 -10.3963 44.6588 18.4919 -1.9684 -10.3590
# 4 22.6704 15.3956 18.4919 37.0319 -6.1083 1.1038
# 5 7.8592 -13.5069 -1.9684 -6.1083 39.0759 14.1244
# 6 -14.4864 -11.6539 -10.3590 1.1038 14.1244 34.3792
#
#
#
# Elastic Compliance Matrix: (Units=1/GPa)
#
#
# Indices 1 2 3 4 5 6 
#
# 1 0.008395 -0.001047 -0.002275 -0.004440 -0.004478 0.004479
# 2 -0.001047 0.030404 0.020706 -0.022386 0.002564 0.015769
# 3 -0.002275 0.020706 0.046678 -0.031703 -0.003091 0.022413
# 4 -0.004440 -0.022386 -0.031703 0.057151 0.009427 -0.024720
# 5 -0.004478 0.002564 -0.003091 0.009427 0.034657 -0.016490
# 6 0.004479 0.015769 0.022413 -0.024720 -0.016490 0.050643
#
#
# Mechanical properties :
#
#
# Convention : Reuss Voigt Hill
#
# Bulk Modulus (GPa) = 8.31636 34.17025 21.24331
# Shear Modulus (GPa) = 21.43698 37.32932 29.38315
#
# Velocity S-wave (km/s) = 3.05885 4.03647 3.58118
# Velocity P-wave (km/s) = 4.01314 6.05296 5.13535
#
# Compressibility (1/GPa) = 0.12024492
#
# Stress axis : x y z
#
# Youngs Moduli (GPa) = 119.11821 32.89050 21.42320
#
# Poissons Ratio (x) = 0.03445 0.04873
# Poissons Ratio (y) = 0.12475 -0.44358
# Poissons Ratio (z) = 0.27094 -0.68102
#
# Static dielectric constant tensor:
#      x y z
#    x 4.944970 -0.346480 0.480400 
#    y -0.346480 4.019700 0.227750 
#    z 0.480400 0.227750 4.372440 
# 
# 
# High freq. dielectric constant tensor:
#      x y z
#    x 1.920160 -0.008580 0.018210 
#    y -0.008580 1.895830 0.015970 
#    z 0.018210 0.015970 1.888120 
# 
# From -- ./inp_files/495498.got.cif
#   From: 2010.06.25/outbox.cif.g09.slc.cpg/sg2_248_cif.got.tgz:495498.got - 2010.06.27 13:26:56.
