data_PCOD8040908
_publ_section_title
;
Structure prediction by ZEFSAII (Michael W. Deem and Ramdas Pophale) SiO2 
 PCOD8040908
Probable space group: P -1
;
_chemical_formula_sum "Si O2"
_cell_formula_units_Z 12
_cell_length_a 13.332063
_cell_length_b 10.236928
_cell_length_c 13.926261
_cell_angle_alpha 33.124049
_cell_angle_beta 29.231212
_cell_angle_gamma 43.687144
_cell_volume 506.980199
_symmetry_space_group_name_H-M "P -1"
_symmetry_group_IT_number 2
_symmetry_cell_setting 'triclinic'
loop_
_space_group_symop_operation_xyz
x,y,z
-x,-y,-z
loop_
_atom_site_type_symbol
_atom_site_label
_atom_site_fract_x
_atom_site_fract_y
_atom_site_fract_z
Si Si1 0.052907 0.314392 0.818215
Si Si2 0.654085 0.445333 0.153342
Si Si3 0.415155 0.656739 0.059896
Si Si4 0.004921 0.165616 0.746025
Si Si5 0.974974 0.245923 0.315117
Si Si6 0.686542 0.060336 0.509572
O O1 0.144064 0.562083 0.635993
O O2 0.801641 0.317341 0.031433
O O3 0.113735 0.287834 0.672833
O O4 0.113102 0.083814 0.972579
O O5 0.466363 0.554815 0.185183
O O6 0.795011 0.648867 0.965082
O O7 0.570927 0.247942 0.421415
O O8 0.521135 0.921256 0.799119
O O9 0.500000 0.500000 0.000000
O O10 0.167982 0.665497 0.258085
O O11 0.186596 0.132444 0.538525
O O12 0.849782 0.211599 0.343440
O O13 0.000000 0.000000 0.500000
#
# Coordination Sequence:
#
# PCOD8040908 Si02
#       6
#     2   2   2   2   2   2
#     4   8  18  39  63  89 131 162 205 268 306 373
#     4   9  20  39  63  92 123 167 211 252 316 382
#     4  12  23  42  61  98 136 158 211 277 311 371
#     4  10  21  40  65  97 124 163 221 258 311 386
#     4  10  18  39  69  91 127 174 207 260 320 374
#     4  11  23  41  71  88 126 179 205 257 331 368
#
# _framework density 23.669564999999999
#
# number of rings (size 3 to 8) (size 9 to 14) (size 15 to 20)
#    1.000    1.000    3.333    0.500    0.000    1.333 
#    0.000    3.333    0.000    0.000    0.000    0.000 
#    0.000    0.000    0.000    0.000    0.000    0.000 
#
# Total GULP energy -148751.644954 kJ/mol
# GULP energy per Si atom -12395.970413 kJ/mol
# Density = 2.361569 g / cm^3
# Si number density = 23.669565 Si / 1000 Ang^3
#
#
#
# Elastic Constant Matrix: (Units=GPa)
#
#
# Indices 1 2 3 4 5 6 
#
# 1 113.7042 19.1580 25.7669 1.1772 28.5584 -9.6979
# 2 19.1580 64.9434 7.2781 -9.1541 17.9001 8.8899
# 3 25.7669 7.2781 73.3267 -10.2324 9.9438 -13.3186
# 4 1.1772 -9.1541 -10.2324 26.8276 -9.1234 4.0031
# 5 28.5584 17.9001 9.9438 -9.1234 30.0647 -9.3264
# 6 -9.6979 8.8899 -13.3186 4.0031 -9.3264 49.5822
#
#
#
# Elastic Compliance Matrix: (Units=1/GPa)
#
#
# Indices 1 2 3 4 5 6 
#
# 1 0.013016 -0.000831 -0.003716 -0.006561 -0.012680 -0.000159
# 2 -0.000831 0.020480 -0.000800 0.003591 -0.012102 -0.006616
# 3 -0.003716 -0.000800 0.016316 0.006114 0.001583 0.003603
# 4 -0.006561 0.003591 0.006114 0.046690 0.015911 -0.001062
# 5 -0.012680 -0.012102 0.001583 0.015911 0.059952 0.010107
# 6 -0.000159 -0.006616 0.003603 -0.001062 0.010107 0.024279
#
#
# Mechanical properties :
#
#
# Convention : Reuss Voigt Hill
#
# Bulk Modulus (GPa) = 25.56409 39.59780 32.58095
# Shear Modulus (GPa) = 24.45390 34.61298 29.53344
#
# Velocity S-wave (km/s) = 3.21773 3.82821 3.53617
# Velocity P-wave (km/s) = 4.96275 6.02544 5.51973
#
# Compressibility (1/GPa) = 0.03911736
#
# Stress axis : x y z
#
# Youngs Moduli (GPa) = 76.82794 48.82718 61.29013
#
# Poissons Ratio (x) = 0.04059 0.22776
# Poissons Ratio (y) = 0.06387 0.04904
# Poissons Ratio (z) = 0.28550 0.03906
#
# Static dielectric constant tensor:
#      x y z
#    x 4.101740 -0.029130 0.065330 
#    y -0.029130 4.151550 -0.327330 
#    z 0.065330 -0.327330 4.009220 
# 
# 
# High freq. dielectric constant tensor:
#      x y z
#    x 1.932470 -0.006760 0.007740 
#    y -0.006760 1.922650 -0.028470 
#    z 0.007740 -0.028470 1.934720 
# 
# From -- ./inp_files/413921.got.cif
#   From: 2010.06.25/outbox.cif.g09.slc.cpg/sg2_207_cif.got.tgz:413921.got - 2010.06.27 13:26:56.
