data_PCOD8040162
_publ_section_title
;
Structure prediction by ZEFSAII (Michael W. Deem and Ramdas Pophale) SiO2 
 PCOD8040162
Probable space group: P -1
;
_chemical_formula_sum "Si O2"
_cell_formula_units_Z 14
_cell_length_a 9.636768
_cell_length_b 17.458827
_cell_length_c 19.441272
_cell_angle_alpha 151.974060
_cell_angle_beta 27.689286
_cell_angle_gamma 138.238906
_cell_volume 704.548491
_symmetry_space_group_name_H-M "P -1"
_symmetry_group_IT_number 2
_symmetry_cell_setting 'triclinic'
loop_
_space_group_symop_operation_xyz
x,y,z
-x,-y,-z
loop_
_atom_site_type_symbol
_atom_site_label
_atom_site_fract_x
_atom_site_fract_y
_atom_site_fract_z
Si Si1 0.790965 0.864484 0.184195
Si Si2 0.095016 0.910536 0.287324
Si Si3 0.689432 0.323280 0.113859
Si Si4 0.675407 0.349914 0.481953
Si Si5 0.509835 0.981353 0.688373
Si Si6 0.033358 0.379924 0.480788
Si Si7 0.815489 0.164842 0.509505
O O1 0.518833 0.783586 0.272270
O O2 0.734480 0.897375 0.153751
O O3 0.810840 0.039701 0.349023
O O4 0.096860 0.735559 0.961210
O O5 0.788099 0.895058 0.450447
O O6 0.374758 0.911395 0.216811
O O7 0.165142 0.756059 0.083193
O O8 0.042899 0.081102 0.402246
O O9 0.644083 0.523123 0.284628
O O10 0.359276 0.270776 0.230572
O O11 0.640627 0.166134 0.328380
O O12 0.927599 0.425052 0.384539
O O13 0.776915 0.345512 0.513262
O O14 0.934275 0.328368 0.559082
#
# Coordination Sequence:
#
# PCOD8040162 Si02
#       7
#     2   2   2   2   2   2   2
#     4   9  17  29  56  79  96 135 181 213 249 299
#     4   9  20  32  55  80 104 137 174 212 260 305
#     4   9  19  34  53  84  99 128 188 211 250 302
#     4   9  19  34  54  74 107 142 168 206 268 306
#     4  10  18  36  54  75 112 137 165 214 269 306
#     4   9  18  34  53  73 111 135 170 212 262 303
#     4   9  16  32  52  76 102 137 173 210 255 307
#
# _framework density 19.870882000000002
#
# number of rings (size 3 to 8) (size 9 to 14) (size 15 to 20)
#    0.857    2.000    1.429    0.857    0.000    2.857 
#    0.000    1.429    3.143    2.571    0.000    0.000 
#    0.000    0.000    0.000    0.000    0.000    0.000 
#
# Total GULP energy -173486.707850 kJ/mol
# GULP energy per Si atom -12391.907704 kJ/mol
# Density = 1.982566 g / cm^3
# Si number density = 19.870882 Si / 1000 Ang^3
#
#
#
# Elastic Constant Matrix: (Units=GPa)
#
#
# Indices 1 2 3 4 5 6 
#
# 1 110.0572 22.2815 25.0496 5.0641 -35.1363 -1.3037
# 2 22.2815 78.5825 6.5648 -1.8710 -3.8763 -23.6881
# 3 25.0496 6.5648 52.7027 1.1301 -30.7109 -0.9208
# 4 5.0641 -1.8710 1.1301 11.6702 -2.1383 -5.2032
# 5 -35.1363 -3.8763 -30.7109 -2.1383 33.7986 -0.5593
# 6 -1.3037 -23.6881 -0.9208 -5.2032 -0.5593 27.4017
#
#
#
# Elastic Compliance Matrix: (Units=1/GPa)
#
#
# Indices 1 2 3 4 5 6 
#
# 1 0.015488 -0.005375 0.004473 -0.006584 0.019056 -0.004621
# 2 -0.005375 0.020633 -0.002404 0.014062 -0.004183 0.020085
# 3 0.004473 -0.002404 0.041963 0.001754 0.042626 0.000748
# 4 -0.006584 0.014062 0.001754 0.105560 0.003570 0.032019
# 5 0.019056 -0.004183 0.042626 0.003570 0.087895 0.001194
# 6 -0.004621 0.020085 0.000748 0.032019 0.001194 0.059767
#
#
# Mechanical properties :
#
#
# Convention : Reuss Voigt Hill
#
# Bulk Modulus (GPa) = 13.99150 38.79267 26.39209
# Shear Modulus (GPa) = 13.82200 27.07054 20.44627
#
# Velocity S-wave (km/s) = 2.64027 3.69497 3.21121
# Velocity P-wave (km/s) = 4.04366 6.14561 5.20191
#
# Compressibility (1/GPa) = 0.07147194
#
# Stress axis : x y z
#
# Youngs Moduli (GPa) = 64.56510 48.46533 23.83070
#
# Poissons Ratio (x) = 0.26049 -0.10658
# Poissons Ratio (y) = 0.34703 0.05729
# Poissons Ratio (z) = -0.28877 0.11650
#
# Static dielectric constant tensor:
#      x y z
#    x 3.577320 -0.127490 -0.385440 
#    y -0.127490 3.452770 -0.108080 
#    z -0.385440 -0.108080 3.245870 
# 
# 
# High freq. dielectric constant tensor:
#      x y z
#    x 1.769490 -0.012060 -0.035510 
#    y -0.012060 1.763020 -0.008630 
#    z -0.035510 -0.008630 1.737880 
# 
# From -- ./inp_files/497990.got.cif
#   From: 2010.06.25/outbox.cif.g09.slc.cpg/sg2_249_cif.got.tgz:497990.got - 2010.06.27 13:26:56.
