data_PCOD8040689
_publ_section_title
;
Structure prediction by ZEFSAII (Michael W. Deem and Ramdas Pophale) SiO2 
 PCOD8040689
Probable space group: P -1
;
_chemical_formula_sum "Si O2"
_cell_formula_units_Z 14
_cell_length_a 10.502005
_cell_length_b 11.928612
_cell_length_c 9.690286
_cell_angle_alpha 53.217023
_cell_angle_beta 44.273836
_cell_angle_gamma 75.609042
_cell_volume 642.504273
_symmetry_space_group_name_H-M "P -1"
_symmetry_group_IT_number 2
_symmetry_cell_setting 'triclinic'
loop_
_space_group_symop_operation_xyz
x,y,z
-x,-y,-z
loop_
_atom_site_type_symbol
_atom_site_label
_atom_site_fract_x
_atom_site_fract_y
_atom_site_fract_z
Si Si1 0.318646 0.555652 0.865310
Si Si2 0.228553 0.096330 0.878012
Si Si3 0.084590 0.634036 0.656084
Si Si4 0.810851 0.617682 0.653560
Si Si5 0.650049 0.147845 0.512027
Si Si6 0.182781 0.067478 0.618653
Si Si7 0.280775 0.424980 0.548603
O O1 0.339164 0.727859 0.704796
O O2 0.487775 0.517102 0.682562
O O3 0.332283 0.517524 0.045612
O O4 0.111745 0.452952 0.042533
O O5 0.432468 0.091832 0.783955
O O6 0.206418 0.258428 0.784476
O O7 0.222472 0.039873 0.767094
O O8 0.049281 0.992057 0.181623
O O9 0.200466 0.785270 0.529949
O O10 0.221074 0.531330 0.621830
O O11 0.023186 0.666033 0.525120
O O12 0.819670 0.567134 0.527106
O O13 0.735129 0.759184 0.609580
O O14 0.704325 0.013309 0.504547
#
# Coordination Sequence:
#
# PCOD8040689 Si02
#       7
#     2   2   2   2   2   2   2
#     4   9  21  35  57  85 105 143 185 224 275 316
#     4   9  21  36  60  84 102 148 189 220 274 315
#     4  10  22  34  55  86 111 146 177 222 281 318
#     4   9  21  38  55  84 110 144 184 222 277 318
#     4  11  21  37  58  83 112 142 185 221 272 332
#     4  10  20  40  57  78 115 142 182 232 263 323
#     4  10  18  38  59  81 111 139 187 234 259 321
#
# _framework density 21.789736999999999
#
# number of rings (size 3 to 8) (size 9 to 14) (size 15 to 20)
#    0.857    1.429    0.000    2.571    0.000    4.000 
#    2.571    0.714    0.000    0.000    0.000    0.000 
#    0.000    0.000    0.000    0.000    0.000    0.000 
#
# Total GULP energy -173527.246809 kJ/mol
# GULP energy per Si atom -12394.803343 kJ/mol
# Density = 2.174014 g / cm^3
# Si number density = 21.789737 Si / 1000 Ang^3
#
#
#
# Elastic Constant Matrix: (Units=GPa)
#
#
# Indices 1 2 3 4 5 6 
#
# 1 61.3877 18.3275 13.6752 5.0941 -13.4685 -11.0620
# 2 18.3275 93.6879 -6.9586 4.7629 -6.2712 -7.2794
# 3 13.6752 -6.9586 62.7768 1.9782 -10.2063 -11.0151
# 4 5.0941 4.7629 1.9782 19.6806 -2.9860 -5.2042
# 5 -13.4685 -6.2712 -10.2063 -2.9860 26.5370 -3.7175
# 6 -11.0620 -7.2794 -11.0151 -5.2042 -3.7175 17.8163
#
#
#
# Elastic Compliance Matrix: (Units=1/GPa)
#
#
# Indices 1 2 3 4 5 6 
#
# 1 0.022784 -0.002396 -0.000295 0.000959 0.013237 0.016027
# 2 -0.002396 0.012201 0.003662 -0.000393 0.003937 0.006468
# 3 -0.000295 0.003662 0.021388 0.003622 0.011881 0.018074
# 4 0.000959 -0.000393 0.003622 0.057819 0.011366 0.021935
# 5 0.013237 0.003937 0.011881 0.011366 0.055679 0.032111
# 6 0.016027 0.006468 0.018074 0.021935 0.032111 0.093004
#
#
# Mechanical properties :
#
#
# Convention : Reuss Voigt Hill
#
# Bulk Modulus (GPa) = 17.14853 29.77119 23.45986
# Shear Modulus (GPa) = 17.83350 25.66066 21.74708
#
# Velocity S-wave (km/s) = 2.86394 3.43541 3.16261
# Velocity P-wave (km/s) = 4.33858 5.42482 4.91182
#
# Compressibility (1/GPa) = 0.05831402
#
# Stress axis : x y z
#
# Youngs Moduli (GPa) = 43.89101 81.96354 46.75426
#
# Poissons Ratio (x) = 0.19641 0.01378
# Poissons Ratio (y) = 0.10518 -0.17120
# Poissons Ratio (z) = 0.01294 -0.30013
#
# Static dielectric constant tensor:
#      x y z
#    x 3.912520 -0.112800 -0.236850 
#    y -0.112800 3.549910 -0.052220 
#    z -0.236850 -0.052220 3.845370 
# 
# 
# High freq. dielectric constant tensor:
#      x y z
#    x 1.854620 -0.009960 -0.020160 
#    y -0.009960 1.840850 -0.000710 
#    z -0.020160 -0.000710 1.842880 
# 
# From -- ./inp_files/257292.got.cif
#   From: 2010.06.25/outbox.cif.g09.slc.cpg/sg2_129_cif.got.tgz:257292.got - 2010.06.27 13:26:56.
