data_PCOD8040779
_publ_section_title
;
Structure prediction by ZEFSAII (Michael W. Deem and Ramdas Pophale) SiO2 
 PCOD8040779
Probable space group: P -1
;
_chemical_formula_sum "Si O2"
_cell_formula_units_Z 16
_cell_length_a 11.918733
_cell_length_b 12.027967
_cell_length_c 11.756686
_cell_angle_alpha 131.378674
_cell_angle_beta 54.324226
_cell_angle_gamma 144.139257
_cell_volume 736.529737
_symmetry_space_group_name_H-M "P -1"
_symmetry_group_IT_number 2
_symmetry_cell_setting 'triclinic'
loop_
_space_group_symop_operation_xyz
x,y,z
-x,-y,-z
loop_
_atom_site_type_symbol
_atom_site_label
_atom_site_fract_x
_atom_site_fract_y
_atom_site_fract_z
Si Si1 0.234239 0.194821 0.438824
Si Si2 0.702348 0.567709 0.220396
Si Si3 0.869721 0.432468 0.137219
Si Si4 0.949791 0.181919 0.988381
Si Si5 0.105886 0.849545 0.403929
Si Si6 0.921624 0.633122 0.724556
Si Si7 0.305019 0.288213 0.213919
Si Si8 0.272334 0.819851 0.491971
O O1 0.308934 0.320651 0.596795
O O2 0.359255 0.322587 0.340162
O O3 0.028823 0.109117 0.461581
O O4 0.230681 0.011716 0.334880
O O5 0.690528 0.396001 0.173106
O O6 0.903552 0.733328 0.145309
O O7 0.529276 0.458279 0.155779
O O8 0.986477 0.614701 0.284710
O O9 0.000000 0.500000 0.000000
O O10 0.821986 0.237475 0.089386
O O11 0.068539 0.277200 0.100098
O O12 0.803193 0.937105 0.918711
O O13 0.236894 0.912855 0.477162
O O14 0.812044 0.653949 0.712206
O O15 0.790686 0.390057 0.652799
O O16 0.139508 0.762144 0.640215
O O17 0.500000 0.000000 0.500000
#
# Coordination Sequence:
#
# PCOD8040779 Si02
#       8
#     2   2   2   2   2   2   2   2
#     4  10  20  38  65  95 129 161 205 270 317 370
#     4  10  24  38  66  98 123 173 212 258 318 374
#     4   9  18  38  61  86 128 162 202 257 312 368
#     4  11  23  43  63  89 132 174 208 260 317 370
#     4  10  18  38  66  91 121 166 205 259 325 367
#     4  11  26  45  65  93 132 167 208 267 313 376
#     4  12  24  41  64  97 131 165 217 259 312 380
#     4  11  25  44  69  94 123 168 214 259 319 380
#
# _framework density 21.723493999999999
#
# number of rings (size 3 to 8) (size 9 to 14) (size 15 to 20)
#    0.000    1.500    2.500    3.750    1.750    2.000 
#    2.250    0.000    0.000    0.000    0.000    0.000 
#    0.000    0.000    0.000    0.000    0.000    0.000 
#
# Total GULP energy -198232.920476 kJ/mol
# GULP energy per Si atom -12389.557530 kJ/mol
# Density = 2.167405 g / cm^3
# Si number density = 21.723494 Si / 1000 Ang^3
#
#
#
# Elastic Constant Matrix: (Units=GPa)
#
#
# Indices 1 2 3 4 5 6 
#
# 1 127.1999 54.4532 29.5509 17.1699 3.0896 4.4509
# 2 54.4532 78.1560 21.3974 20.9631 -1.7909 5.8535
# 3 29.5509 21.3974 92.6231 14.8494 7.9399 0.2527
# 4 17.1699 20.9631 14.8494 24.5030 -8.3433 1.9246
# 5 3.0896 -1.7909 7.9399 -8.3433 32.0188 3.3940
# 6 4.4509 5.8535 0.2527 1.9246 3.3940 43.2761
#
#
#
# Elastic Compliance Matrix: (Units=1/GPa)
#
#
# Indices 1 2 3 4 5 6 
#
# 1 0.011588 -0.007279 -0.001668 -0.001380 -0.001469 -0.000021
# 2 -0.007279 0.021692 -0.000392 -0.013570 -0.001367 -0.001472
# 3 -0.001668 -0.000392 0.013238 -0.008447 -0.005445 0.000950
# 4 -0.001380 -0.013570 -0.008447 0.065046 0.018665 -0.002330
# 5 -0.001469 -0.001367 -0.005445 0.018665 0.037875 -0.003433
# 6 -0.000021 -0.001472 0.000950 -0.002330 -0.003433 0.023676
#
#
# Mechanical properties :
#
#
# Convention : Reuss Voigt Hill
#
# Bulk Modulus (GPa) = 35.92029 56.53135 46.22582
# Shear Modulus (GPa) = 24.86668 32.79810 28.83239
#
# Velocity S-wave (km/s) = 3.38700 3.88983 3.64709
# Velocity P-wave (km/s) = 5.64507 6.80103 6.24983
#
# Compressibility (1/GPa) = 0.02783942
#
# Stress axis : x y z
#
# Youngs Moduli (GPa) = 86.29689 46.09934 75.54208
#
# Poissons Ratio (x) = 0.33554 0.12602
# Poissons Ratio (y) = 0.62813 0.02963
# Poissons Ratio (z) = 0.14397 0.01808
#
# Static dielectric constant tensor:
#      x y z
#    x 4.239460 -0.271140 -0.220000 
#    y -0.271140 4.020140 0.027890 
#    z -0.220000 0.027890 3.842940 
# 
# 
# High freq. dielectric constant tensor:
#      x y z
#    x 1.862160 -0.012460 -0.000740 
#    y -0.012460 1.842600 0.009550 
#    z -0.000740 0.009550 1.848290 
# 
# From -- ./inp_files/426678.got.cif
#   From: 2010.06.25/outbox.cif.g09.slc.cpg/sg2_214_cif.got.tgz:426678.got - 2010.06.27 13:26:56.
