data_PCOD8040102
_publ_section_title
;
Structure prediction by ZEFSAII (Michael W. Deem and Ramdas Pophale) SiO2 
 PCOD8040102
Probable space group: P -1
;
_chemical_formula_sum "Si O2"
_cell_formula_units_Z 14
_cell_length_a 11.969658
_cell_length_b 16.389038
_cell_length_c 12.806705
_cell_angle_alpha 24.914415
_cell_angle_beta 144.511797
_cell_angle_gamma 137.337265
_cell_volume 614.356694
_symmetry_space_group_name_H-M "P -1"
_symmetry_group_IT_number 2
_symmetry_cell_setting 'triclinic'
loop_
_space_group_symop_operation_xyz
x,y,z
-x,-y,-z
loop_
_atom_site_type_symbol
_atom_site_label
_atom_site_fract_x
_atom_site_fract_y
_atom_site_fract_z
Si Si1 0.367039 0.026676 0.689495
Si Si2 0.266124 0.637365 0.749040
Si Si3 0.585726 0.347462 0.384394
Si Si4 0.907067 0.025581 0.644936
Si Si5 0.779165 0.340970 0.915757
Si Si6 0.837325 0.742268 0.566469
Si Si7 0.915676 0.365833 0.761040
O O1 0.550932 0.134170 0.656025
O O2 0.316584 0.126748 0.644007
O O3 0.197329 0.050528 0.449373
O O4 0.385881 0.799083 0.998883
O O5 0.371631 0.685314 0.666303
O O6 0.234786 0.843569 0.543419
O O7 0.062317 0.538318 0.691325
O O8 0.401361 0.492548 0.088956
O O9 0.764848 0.441686 0.471212
O O10 0.089610 0.152781 0.604176
O O11 0.978571 0.825820 0.985375
O O12 0.718970 0.556629 0.653076
O O13 0.802495 0.312834 0.842337
O O14 0.986712 0.301456 0.171334
#
# Coordination Sequence:
#
# PCOD8040102 Si02
#       7
#     2   2   2   2   2   2   2
#     4  11  21  39  61 102 133 173 210 270 331 401
#     4  11  25  50  66  95 132 181 220 275 326 393
#     4  11  27  45  68  96 139 171 222 275 332 384
#     4  11  21  39  74  94 132 176 222 267 330 385
#     4  10  19  33  65  94 134 167 214 261 330 385
#     4  10  18  35  64 100 127 181 211 259 329 403
#     4  12  22  46  69 101 128 176 223 277 319 393
#
# _framework density 22.788063000000001
#
# number of rings (size 3 to 8) (size 9 to 14) (size 15 to 20)
#    0.000    1.143    5.714    1.286    4.000    1.714 
#    2.571    0.714    0.000    0.000    0.000    0.000 
#    0.000    0.000    0.000    0.000    0.000    0.000 
#
# Total GULP energy -173580.016408 kJ/mol
# GULP energy per Si atom -12398.572601 kJ/mol
# Density = 2.273620 g / cm^3
# Si number density = 22.788063 Si / 1000 Ang^3
#
#
#
# Elastic Constant Matrix: (Units=GPa)
#
#
# Indices 1 2 3 4 5 6 
#
# 1 84.9681 17.8943 15.4941 -7.3395 4.3475 -9.7064
# 2 17.8943 83.6896 42.5666 -16.9575 21.9986 -9.7715
# 3 15.4941 42.5666 58.0497 -4.4886 9.9668 -11.4448
# 4 -7.3395 -16.9575 -4.4886 28.7477 -3.9089 4.9174
# 5 4.3475 21.9986 9.9668 -3.9089 15.9312 -3.4439
# 6 -9.7064 -9.7715 -11.4448 4.9174 -3.4439 32.2057
#
#
#
# Elastic Compliance Matrix: (Units=1/GPa)
#
#
# Indices 1 2 3 4 5 6 
#
# 1 0.012810 -0.001123 -0.002001 0.001903 0.000326 0.002553
# 2 -0.001123 0.030131 -0.016349 0.011343 -0.028678 -0.001805
# 3 -0.002001 -0.016349 0.029794 -0.006002 0.004395 0.006411
# 4 0.001903 0.011343 -0.006002 0.041395 -0.003307 -0.004792
# 5 0.000326 -0.028678 0.004395 -0.003307 0.099610 0.004115
# 6 0.002553 -0.001805 0.006411 -0.004792 0.004115 0.034722
#
#
# Mechanical properties :
#
#
# Convention : Reuss Voigt Hill
#
# Bulk Modulus (GPa) = 29.59614 42.06860 35.83237
# Shear Modulus (GPa) = 16.74079 25.42705 21.08392
#
# Velocity S-wave (km/s) = 2.71335 3.34399 3.04504
# Velocity P-wave (km/s) = 4.77829 5.78019 5.30296
#
# Compressibility (1/GPa) = 0.03378819
#
# Stress axis : x y z
#
# Youngs Moduli (GPa) = 78.06445 33.18885 33.56329
#
# Poissons Ratio (x) = 0.03728 0.06716
# Poissons Ratio (y) = 0.08769 0.54873
# Poissons Ratio (z) = 0.15620 0.54261
#
# Static dielectric constant tensor:
#      x y z
#    x 3.978930 0.017600 -0.162160 
#    y 0.017600 4.168450 -0.232000 
#    z -0.162160 -0.232000 4.007650 
# 
# 
# High freq. dielectric constant tensor:
#      x y z
#    x 1.887410 -0.001240 -0.010620 
#    y -0.001240 1.903820 -0.012370 
#    z -0.010620 -0.012370 1.883940 
# 
# From -- ./inp_files/426224.got.cif
#   From: 2010.06.25/outbox.cif.g09.slc.cpg/sg2_214_cif.got.tgz:426224.got - 2010.06.27 13:26:56.
