data_PCOD8040792
_publ_section_title
;
Structure prediction by ZEFSAII (Michael W. Deem and Ramdas Pophale) SiO2 
 PCOD8040792
Probable space group: P -1
;
_chemical_formula_sum "Si O2"
_cell_formula_units_Z 16
_cell_length_a 14.700092
_cell_length_b 18.025020
_cell_length_c 12.166841
_cell_angle_alpha 28.823991
_cell_angle_beta 46.921457
_cell_angle_gamma 28.798644
_cell_volume 697.123067
_symmetry_space_group_name_H-M "P -1"
_symmetry_group_IT_number 2
_symmetry_cell_setting 'triclinic'
loop_
_space_group_symop_operation_xyz
x,y,z
-x,-y,-z
loop_
_atom_site_type_symbol
_atom_site_label
_atom_site_fract_x
_atom_site_fract_y
_atom_site_fract_z
Si Si1 0.672242 0.422065 0.023801
Si Si2 0.851826 0.062418 0.780086
Si Si3 0.241549 0.521711 0.651467
Si Si4 0.962507 0.510652 0.290391
Si Si5 0.363202 0.020069 0.907405
Si Si6 0.633272 0.821633 0.519457
Si Si7 0.782184 0.138296 0.495863
Si Si8 0.997765 0.345271 0.134100
O O1 0.637240 0.634732 0.756001
O O2 0.500000 0.500000 0.000000
O O3 0.640047 0.396148 0.210813
O O4 0.904209 0.155371 0.143210
O O5 0.753733 0.303486 0.612661
O O6 0.727488 0.164478 0.634278
O O7 0.789033 0.969259 0.018528
O O8 0.075890 0.602344 0.604950
O O9 0.172462 0.591307 0.747351
O O10 0.451977 0.227101 0.852329
O O11 0.145445 0.313486 0.480574
O O12 0.756087 0.746816 0.218091
O O13 0.044917 0.571086 0.066597
O O14 0.453654 0.025106 0.721902
O O15 0.500000 0.000000 0.500000
O O16 0.000000 0.000000 0.500000
O O17 0.797252 0.959677 0.647152
O O18 0.000000 0.500000 0.000000
#
# Coordination Sequence:
#
# PCOD8040792 Si02
#       8
#     2   2   2   2   2   2   2   2
#     4  11  25  43  71 103 140 183 232 282 348 414
#     4  11  23  44  70  99 142 182 227 290 351 406
#     4  11  24  40  69 105 135 177 241 281 335 419
#     4  11  23  44  66 100 142 181 224 289 349 400
#     4  12  25  46  69 100 142 186 225 285 356 411
#     4  12  28  47  72  99 139 186 237 277 350 429
#     4  10  18  38  67  93 135 176 221 277 349 387
#     4  10  19  35  67  99 133 173 229 281 329 395
#
# _framework density 22.951471000000002
#
# number of rings (size 3 to 8) (size 9 to 14) (size 15 to 20)
#    0.000    1.000    5.000    2.625    3.500    2.000 
#    2.250    0.625    0.000    0.000    0.000    0.000 
#    0.000    0.000    0.000    0.000    0.000    0.000 
#
# Total GULP energy -198222.718218 kJ/mol
# GULP energy per Si atom -12388.919889 kJ/mol
# Density = 2.289923 g / cm^3
# Si number density = 22.951471 Si / 1000 Ang^3
#
#
#
# Elastic Constant Matrix: (Units=GPa)
#
#
# Indices 1 2 3 4 5 6 
#
# 1 114.1131 25.7287 56.6241 -5.0200 -9.7033 -5.3547
# 2 25.7287 71.8142 22.3794 -0.7741 -5.5156 8.6351
# 3 56.6241 22.3794 124.6050 0.2428 -18.1066 2.7874
# 4 -5.0200 -0.7741 0.2428 38.2318 1.0500 1.9478
# 5 -9.7033 -5.5156 -18.1066 1.0500 35.8238 -9.4252
# 6 -5.3547 8.6351 2.7874 1.9478 -9.4252 28.0944
#
#
#
# Elastic Compliance Matrix: (Units=1/GPa)
#
#
# Indices 1 2 3 4 5 6 
#
# 1 0.012307 -0.003267 -0.004895 0.001327 0.001428 0.004223
# 2 -0.003267 0.016163 -0.001377 0.000212 -0.000590 -0.005667
# 3 -0.004895 -0.001377 0.011091 -0.000842 0.004041 -0.000196
# 4 0.001327 0.000212 -0.000842 0.026479 -0.001340 -0.002014
# 5 0.001428 -0.000590 0.004041 -0.001340 0.033267 0.011306
# 6 0.004223 -0.005667 -0.000196 -0.002014 0.011306 0.042093
#
#
# Mechanical properties :
#
#
# Convention : Reuss Voigt Hill
#
# Bulk Modulus (GPa) = 48.82785 57.77741 53.30263
# Shear Modulus (GPa) = 29.88527 34.15000 32.01764
#
# Velocity S-wave (km/s) = 3.61239 3.86154 3.73904
# Velocity P-wave (km/s) = 6.22251 6.71643 6.47418
#
# Compressibility (1/GPa) = 0.02048011
#
# Stress axis : x y z
#
# Youngs Moduli (GPa) = 81.25454 61.86958 90.16723
#
# Poissons Ratio (x) = 0.20216 0.44140
# Poissons Ratio (y) = 0.26549 0.12420
# Poissons Ratio (z) = 0.39777 0.08522
#
# Static dielectric constant tensor:
#      x y z
#    x 4.031590 0.144950 -0.164030 
#    y 0.144950 4.194810 0.282000 
#    z -0.164030 0.282000 5.836370 
# 
# 
# High freq. dielectric constant tensor:
#      x y z
#    x 1.894060 0.004580 -0.020360 
#    y 0.004580 1.895040 0.004740 
#    z -0.020360 0.004740 1.913840 
# 
# From -- ./inp_files/456902.got.cif
#   From: 2010.06.25/outbox.cif.g09.slc.cpg/sg2_229_cif.got.tgz:456902.got - 2010.06.27 13:26:56.
