data_PCOD8040570
_publ_section_title
;
Structure prediction by ZEFSAII (Michael W. Deem and Ramdas Pophale) SiO2 
 PCOD8040570
Probable space group: P -1
;
_chemical_formula_sum "Si O2"
_cell_formula_units_Z 16
_cell_length_a 10.860198
_cell_length_b 13.375668
_cell_length_c 13.273053
_cell_angle_alpha 30.901533
_cell_angle_beta 43.914922
_cell_angle_gamma 49.791196
_cell_volume 684.741899
_symmetry_space_group_name_H-M "P -1"
_symmetry_group_IT_number 2
_symmetry_cell_setting 'triclinic'
loop_
_space_group_symop_operation_xyz
x,y,z
-x,-y,-z
loop_
_atom_site_type_symbol
_atom_site_label
_atom_site_fract_x
_atom_site_fract_y
_atom_site_fract_z
Si Si1 0.526753 0.580088 0.111108
Si Si2 0.161964 0.501583 0.324676
Si Si3 0.208585 0.688792 0.932691
Si Si4 0.178321 0.078944 0.709865
Si Si5 0.153033 0.295716 0.938180
Si Si6 0.215793 0.025560 0.963732
Si Si7 0.398240 0.059783 0.150855
Si Si8 0.392477 0.601163 0.569284
O O1 0.319954 0.629841 0.160360
O O2 0.519793 0.470108 0.316758
O O3 0.618772 0.440911 0.092115
O O4 0.635699 0.777405 0.880810
O O5 0.108537 0.596180 0.167113
O O6 0.239332 0.278557 0.454733
O O7 0.000000 0.500000 0.500000
O O8 0.059666 0.709211 0.913422
O O9 0.266850 0.901893 0.744103
O O10 0.253619 0.063637 0.791757
O O11 0.961704 0.089863 0.822423
O O12 0.188733 0.237071 0.851012
O O13 0.199580 0.514734 0.747945
O O14 0.272267 0.130141 0.072535
O O15 0.389234 0.917185 0.011344
O O16 0.366851 0.835763 0.385727
O O17 0.500000 0.500000 0.500000
#
# Coordination Sequence:
#
# PCOD8040570 Si02
#       8
#     2   2   2   2   2   2   2   2
#     4  11  27  44  67  98 140 175 218 274 336 400
#     4  12  24  41  72 103 128 173 230 277 328 393
#     4  11  26  47  62  96 142 182 217 269 335 399
#     4  10  22  38  65  95 132 177 218 273 331 394
#     4  10  23  39  63  93 136 175 220 273 331 392
#     4  10  18  37  62  97 136 167 211 280 342 377
#     4  11  22  40  65  97 133 174 217 277 339 388
#     4  11  24  40  69 103 128 167 226 277 330 396
#
# _framework density 23.366468999999999
#
# number of rings (size 3 to 8) (size 9 to 14) (size 15 to 20)
#    0.000    1.250    1.250    5.250    3.500    5.500 
#    0.000    1.250    0.000    0.000    0.000    0.000 
#    0.000    0.000    0.000    0.000    0.000    0.000 
#
# Total GULP energy -198230.007095 kJ/mol
# GULP energy per Si atom -12389.375443 kJ/mol
# Density = 2.331329 g / cm^3
# Si number density = 23.366469 Si / 1000 Ang^3
#
#
#
# Elastic Constant Matrix: (Units=GPa)
#
#
# Indices 1 2 3 4 5 6 
#
# 1 127.3203 31.8004 35.8043 -3.7650 -9.0434 -11.1506
# 2 31.8004 97.3575 29.7497 -19.3865 1.4934 0.9837
# 3 35.8043 29.7497 88.6123 -41.8763 2.5399 4.4343
# 4 -3.7650 -19.3865 -41.8763 50.7052 2.5513 -7.9715
# 5 -9.0434 1.4934 2.5399 2.5513 27.7767 -2.9340
# 6 -11.1506 0.9837 4.4343 -7.9715 -2.9340 27.0302
#
#
#
# Elastic Compliance Matrix: (Units=1/GPa)
#
#
# Indices 1 2 3 4 5 6 
#
# 1 0.010925 -0.002780 -0.006164 -0.004858 0.005218 0.004753
# 2 -0.002780 0.012293 -0.001310 0.003414 -0.001820 -0.000570
# 3 -0.006164 -0.001310 0.023015 0.018097 -0.005869 -0.001571
# 4 -0.004858 0.003414 0.018097 0.036722 -0.006259 0.005053
# 5 0.005218 -0.001820 -0.005869 -0.006259 0.039504 0.005624
# 6 0.004753 -0.000570 -0.001571 0.005053 0.005624 0.041336
#
#
# Mechanical properties :
#
#
# Convention : Reuss Voigt Hill
#
# Bulk Modulus (GPa) = 38.87297 56.44432 47.65865
# Shear Modulus (GPa) = 25.92305 35.49813 30.71059
#
# Velocity S-wave (km/s) = 3.33440 3.90191 3.62926
# Velocity P-wave (km/s) = 5.61218 6.67146 6.16462
#
# Compressibility (1/GPa) = 0.02572482
#
# Stress axis : x y z
#
# Youngs Moduli (GPa) = 91.52963 81.34497 43.45047
#
# Poissons Ratio (x) = 0.22618 0.26784
# Poissons Ratio (y) = 0.25449 0.05690
# Poissons Ratio (z) = 0.56421 0.10653
#
# Static dielectric constant tensor:
#      x y z
#    x 4.549720 0.055440 -0.265500 
#    y 0.055440 4.326750 -0.402770 
#    z -0.265500 -0.402770 4.012490 
# 
# 
# High freq. dielectric constant tensor:
#      x y z
#    x 1.946200 0.003230 -0.016390 
#    y 0.003230 1.926460 -0.034500 
#    z -0.016390 -0.034500 1.892010 
# 
# From -- ./inp_files/522095.got.cif
#   From: 2010.06.25/outbox.cif.g09.slc.cpg/sg2_262_cif.got.tgz:522095.got - 2010.06.27 13:26:56.
