data_PCOD8040073
_publ_section_title
;
Structure prediction by ZEFSAII (Michael W. Deem and Ramdas Pophale) SiO2 
 PCOD8040073
Probable space group: P -1
;
_chemical_formula_sum "Si O2"
_cell_formula_units_Z 14
_cell_length_a 7.430224
_cell_length_b 13.429636
_cell_length_c 9.299549
_cell_angle_alpha 92.918619
_cell_angle_beta 128.319539
_cell_angle_gamma 123.856814
_cell_volume 479.844401
_symmetry_space_group_name_H-M "P -1"
_symmetry_group_IT_number 2
_symmetry_cell_setting 'triclinic'
loop_
_space_group_symop_operation_xyz
x,y,z
-x,-y,-z
loop_
_atom_site_type_symbol
_atom_site_label
_atom_site_fract_x
_atom_site_fract_y
_atom_site_fract_z
Si Si1 0.245664 0.048340 0.998540
Si Si2 0.338132 0.234893 0.481250
Si Si3 0.727526 0.039112 0.355750
Si Si4 0.643869 0.616484 0.204687
Si Si5 0.374222 0.734560 0.023524
Si Si6 0.237026 0.815999 0.307602
Si Si7 0.729778 0.630386 0.787018
O O1 0.486773 0.216562 0.070163
O O2 0.994222 0.939109 0.735757
O O3 0.480159 0.029896 0.142656
O O4 0.000000 0.000000 0.000000
O O5 0.675609 0.275117 0.668069
O O6 0.412840 0.336843 0.397263
O O7 0.143841 0.207059 0.537991
O O8 0.620053 0.889941 0.250795
O O9 0.595174 0.995671 0.457682
O O10 0.386806 0.627467 0.080464
O O11 0.592436 0.540639 0.325462
O O12 0.056825 0.773104 0.375209
O O13 0.500000 0.500000 0.000000
O O14 0.973247 0.634690 0.819621
O O15 0.951652 0.750821 0.038156
#
# Coordination Sequence:
#
# PCOD8040073 Si02
#       7
#     2   2   2   2   2   2   2
#     4  11  20  34  61  90 118 151 188 238 300 350
#     4  11  20  38  62  89 115 159 187 240 297 347
#     4  10  19  39  59  87 120 148 192 240 291 357
#     4  10  22  37  59  86 118 159 197 240 287 334
#     4  10  18  35  63  84 112 157 198 231 289 351
#     4  10  21  36  60  90 118 149 197 243 287 344
#     4  10  20  39  62  81 117 158 200 235 287 344
#
# _framework density 29.176124999999999
#
# number of rings (size 3 to 8) (size 9 to 14) (size 15 to 20)
#    0.000    1.714    4.286    2.571    2.000    0.571 
#    0.000    9.286    0.000    6.857    0.000    0.000 
#    0.000    0.000    0.000    0.000    0.000    0.000 
#
# Total GULP energy -173462.478509 kJ/mol
# GULP energy per Si atom -12390.177036 kJ/mol
# Density = 2.910972 g / cm^3
# Si number density = 29.176125 Si / 1000 Ang^3
#
#
#
# Elastic Constant Matrix: (Units=GPa)
#
#
# Indices 1 2 3 4 5 6 
#
# 1 159.3384 65.5634 20.2640 -5.4338 2.3169 52.0736
# 2 65.5634 226.9170 37.9549 -2.0122 1.7972 45.9921
# 3 20.2640 37.9549 65.4696 -9.2903 -5.0113 6.0146
# 4 -5.4338 -2.0122 -9.2903 49.7975 3.1150 -0.0682
# 5 2.3169 1.7972 -5.0113 3.1150 34.9272 -7.8508
# 6 52.0736 45.9921 6.0146 -0.0682 -7.8508 60.6876
#
#
#
# Elastic Compliance Matrix: (Units=1/GPa)
#
#
# Indices 1 2 3 4 5 6 
#
# 1 0.009397 -0.000849 -0.001806 0.000807 -0.002614 -0.007578
# 2 -0.000849 0.005896 -0.002979 -0.000324 -0.001462 -0.003634
# 3 -0.001806 -0.002979 0.017981 0.002844 0.003147 0.002435
# 4 0.000807 -0.000324 0.002844 0.020791 -0.001691 -0.000925
# 5 -0.002614 -0.001462 0.003147 -0.001691 0.031068 0.007057
# 6 -0.007578 -0.003634 0.002435 -0.000925 0.007057 0.026404
#
#
# Mechanical properties :
#
#
# Convention : Reuss Voigt Hill
#
# Bulk Modulus (GPa) = 45.44268 77.69887 61.57077
# Shear Modulus (GPa) = 38.41988 50.94532 44.68260
#
# Velocity S-wave (km/s) = 3.63275 4.18321 3.91766
# Velocity P-wave (km/s) = 5.76237 7.07256 6.45081
#
# Compressibility (1/GPa) = 0.02200575
#
# Stress axis : x y z
#
# Youngs Moduli (GPa) = 106.41507 169.61270 55.61463
#
# Poissons Ratio (x) = 0.14406 0.10041
# Poissons Ratio (y) = 0.09038 0.16568
# Poissons Ratio (z) = 0.19214 0.50530
#
# Static dielectric constant tensor:
#      x y z
#    x 6.055710 0.634370 0.132800 
#    y 0.634370 6.258640 0.248310 
#    z 0.132800 0.248310 5.000730 
# 
# 
# High freq. dielectric constant tensor:
#      x y z
#    x 2.233510 0.021020 -0.018980 
#    y 0.021020 2.222420 0.000570 
#    z -0.018980 0.000570 2.171310 
# 
# From -- ./inp_files/254419.got.cif
#   From: 2010.06.25/outbox.cif.g09.slc.cpg/sg2_128_cif.got.tgz:254419.got - 2010.06.27 13:26:56.
