data_PCOD8040923
_publ_section_title
;
Structure prediction by ZEFSAII (Michael W. Deem and Ramdas Pophale) SiO2 
 PCOD8040923
Probable space group: P -1
;
_chemical_formula_sum "Si O2"
_cell_formula_units_Z 14
_cell_length_a 8.761479
_cell_length_b 19.511149
_cell_length_c 11.927604
_cell_angle_alpha 34.758395
_cell_angle_beta 140.691002
_cell_angle_gamma 136.584605
_cell_volume 712.814212
_symmetry_space_group_name_H-M "P -1"
_symmetry_group_IT_number 2
_symmetry_cell_setting 'triclinic'
loop_
_space_group_symop_operation_xyz
x,y,z
-x,-y,-z
loop_
_atom_site_type_symbol
_atom_site_label
_atom_site_fract_x
_atom_site_fract_y
_atom_site_fract_z
Si Si1 0.510224 0.634170 0.370251
Si Si2 0.810426 0.777005 0.968269
Si Si3 0.581948 0.231693 0.071799
Si Si4 0.201724 0.628838 0.423166
Si Si5 0.560872 0.367522 0.215231
Si Si6 0.202103 0.002122 0.206274
Si Si7 0.914439 0.266601 0.411273
O O1 0.500000 0.500000 0.500000
O O2 0.370783 0.619650 0.426794
O O3 0.793238 0.711174 0.441992
O O4 0.376188 0.706986 0.108951
O O5 0.618135 0.712675 0.045230
O O6 0.678042 0.735098 0.830014
O O7 0.867363 0.926270 0.818560
O O8 0.065776 0.737430 0.178414
O O9 0.469652 0.081622 0.203047
O O10 0.844127 0.265597 0.241214
O O11 0.385216 0.665971 0.582626
O O12 0.000000 0.500000 0.500000
O O13 0.807865 0.369217 0.279201
O O14 0.500000 0.500000 0.000000
O O15 0.222227 0.866016 0.433655
O O16 0.000000 0.000000 0.000000
#
# Coordination Sequence:
#
# PCOD8040923 Si02
#       7
#     2   2   2   2   2   2   2
#     4  12  26  39  62  93 130 170 213 269 321 373
#     4   9  21  38  64  94 119 163 214 252 312 381
#     4   9  21  39  65  97 123 159 213 260 319 372
#     4  12  23  41  62  85 129 170 215 260 318 383
#     4  11  22  37  65  91 126 167 209 255 316 385
#     4  10  18  39  74  95 128 162 218 265 312 383
#     4  11  22  42  66  97 128 166 213 268 315 374
#
# _framework density 19.640460999999998
#
# number of rings (size 3 to 8) (size 9 to 14) (size 15 to 20)
#    0.857    0.571    2.857    3.857    2.000    1.714 
#    0.000    0.714    0.000    1.714    0.000    0.000 
#    0.000    0.000    0.000    0.000    0.000    0.000 
#
# Total GULP energy -173533.356968 kJ/mol
# GULP energy per Si atom -12395.239783 kJ/mol
# Density = 1.959576 g / cm^3
# Si number density = 19.640461 Si / 1000 Ang^3
#
#
#
# Elastic Constant Matrix: (Units=GPa)
#
#
# Indices 1 2 3 4 5 6 
#
# 1 83.2695 34.3943 37.2890 4.2944 -13.1219 -11.2081
# 2 34.3943 113.0625 50.3917 10.7905 -15.5409 -21.4361
# 3 37.2890 50.3917 101.8234 20.0249 -7.0011 -4.9356
# 4 4.2944 10.7905 20.0249 44.4091 -11.9329 -9.7479
# 5 -13.1219 -15.5409 -7.0011 -11.9329 31.0656 -2.5945
# 6 -11.2081 -21.4361 -4.9356 -9.7479 -2.5945 21.2770
#
#
#
# Elastic Compliance Matrix: (Units=1/GPa)
#
#
# Indices 1 2 3 4 5 6 
#
# 1 0.017723 0.000889 -0.006938 0.006733 0.010033 0.012930
# 2 0.000889 0.017077 -0.008398 0.007102 0.011456 0.020376
# 3 -0.006938 -0.008398 0.017313 -0.010395 -0.008383 -0.013884
# 4 0.006733 0.007102 -0.010395 0.036291 0.020282 0.027390
# 5 0.010033 0.011456 -0.008383 0.020282 0.050594 0.030343
# 6 0.012930 0.020376 -0.013884 0.027390 0.030343 0.087366
#
#
# Mechanical properties :
#
#
# Convention : Reuss Voigt Hill
#
# Bulk Modulus (GPa) = 43.06895 60.25615 51.66255
# Shear Modulus (GPa) = 19.01149 31.08903 25.05026
#
# Velocity S-wave (km/s) = 3.11461 3.98289 3.57521
# Velocity P-wave (km/s) = 5.90852 7.20399 6.58818
#
# Compressibility (1/GPa) = 0.02321858
#
# Stress axis : x y z
#
# Youngs Moduli (GPa) = 56.42350 58.55681 57.76050
#
# Poissons Ratio (x) = -0.05203 0.40072
# Poissons Ratio (y) = -0.05014 0.48509
# Poissons Ratio (z) = 0.39145 0.49178
#
# Static dielectric constant tensor:
#      x y z
#    x 3.277220 -0.183440 0.019520 
#    y -0.183440 3.808500 0.173180 
#    z 0.019520 0.173180 3.650340 
# 
# 
# High freq. dielectric constant tensor:
#      x y z
#    x 1.727910 -0.018210 0.005620 
#    y -0.018210 1.777690 0.018420 
#    z 0.005620 0.018420 1.772360 
# 
# From -- ./inp_files/405329.got.cif
#   From: 2010.06.25/outbox.cif.g09.slc.cpg/sg2_203_cif.got.tgz:405329.got - 2010.06.27 13:26:56.
