data_PCOD8040476
_publ_section_title
;
Structure prediction by ZEFSAII (Michael W. Deem and Ramdas Pophale) SiO2 
 PCOD8040476
Probable space group: P -1
;
_chemical_formula_sum "Si O2"
_cell_formula_units_Z 16
_cell_length_a 9.250385
_cell_length_b 16.612363
_cell_length_c 16.479563
_cell_angle_alpha 31.585126
_cell_angle_beta 48.878991
_cell_angle_gamma 34.879979
_cell_volume 751.310193
_symmetry_space_group_name_H-M "P -1"
_symmetry_group_IT_number 2
_symmetry_cell_setting 'triclinic'
loop_
_space_group_symop_operation_xyz
x,y,z
-x,-y,-z
loop_
_atom_site_type_symbol
_atom_site_label
_atom_site_fract_x
_atom_site_fract_y
_atom_site_fract_z
Si Si1 0.074754 0.315982 0.387250
Si Si2 0.701636 0.851353 0.726822
Si Si3 0.912535 0.165076 0.322050
Si Si4 0.800897 0.310767 0.763932
Si Si5 0.390053 0.311251 0.410792
Si Si6 0.977755 0.021956 0.729704
Si Si7 0.743149 0.117367 0.099268
Si Si8 0.510344 0.626348 0.321715
O O1 0.231217 0.214883 0.334033
O O2 0.236796 0.341218 0.362639
O O3 0.037014 0.170062 0.566445
O O4 0.797367 0.541434 0.281999
O O5 0.547268 0.789678 0.873526
O O6 0.960529 0.739625 0.780002
O O7 0.520818 0.097180 0.589506
O O8 0.605881 0.324194 0.294405
O O9 0.019208 0.071001 0.274841
O O10 0.000000 0.000000 0.500000
O O11 0.797046 0.496235 0.624651
O O12 0.562784 0.399170 0.717787
O O13 0.773273 0.235151 0.922883
O O14 0.065577 0.126543 0.780918
O O15 0.698140 0.139200 0.772458
O O16 0.186700 0.852873 0.862942
O O17 0.500000 0.500000 0.500000
#
# Coordination Sequence:
#
# PCOD8040476 Si02
#       8
#     2   2   2   2   2   2   2   2
#     4  11  19  36  58  91 122 148 198 250 291 334
#     4  11  21  35  62  87 118 158 197 243 292 346
#     4  10  20  33  57  90 123 150 192 254 291 334
#     4  10  23  42  59  86 125 152 194 243 296 348
#     4  11  21  34  60  87 119 151 196 250 281 338
#     4  10  18  37  58  86 118 160 194 234 301 347
#     4  10  22  42  61  83 120 165 188 235 303 361
#     4   9  21  35  60  86 115 155 193 241 293 345
#
# _framework density 21.296132
#
# number of rings (size 3 to 8) (size 9 to 14) (size 15 to 20)
#    0.000    1.750    3.750    1.875    5.250    1.500 
#    0.000    6.250    0.000    4.500    0.000    0.000 
#    0.000    0.000    0.000    0.000    0.000    0.000 
#
# Total GULP energy -198328.407487 kJ/mol
# GULP energy per Si atom -12395.525468 kJ/mol
# Density = 2.124766 g / cm^3
# Si number density = 21.296132 Si / 1000 Ang^3
#
#
#
# Elastic Constant Matrix: (Units=GPa)
#
#
# Indices 1 2 3 4 5 6 
#
# 1 140.6874 22.2827 14.3000 9.1406 27.2971 -1.3297
# 2 22.2827 59.5617 13.4607 6.6036 5.8320 6.0517
# 3 14.3000 13.4607 22.9234 15.2648 12.8556 1.3194
# 4 9.1406 6.6036 15.2648 27.8847 4.7709 2.1222
# 5 27.2971 5.8320 12.8556 4.7709 23.0933 8.3960
# 6 -1.3297 6.0517 1.3194 2.1222 8.3960 47.9137
#
#
#
# Elastic Compliance Matrix: (Units=1/GPa)
#
#
# Indices 1 2 3 4 5 6 
#
# 1 0.010306 -0.003815 0.006871 -0.003846 -0.015509 0.003467
# 2 -0.003815 0.021407 -0.019218 0.005271 0.010282 -0.004316
# 3 0.006871 -0.019218 0.122896 -0.054833 -0.065106 0.013071
# 4 -0.003846 0.005271 -0.054833 0.062409 0.023052 -0.006066
# 5 -0.015509 0.010282 -0.065106 0.023052 0.097050 -0.017963
# 6 0.003467 -0.004316 0.013071 -0.006066 -0.017963 0.024569
#
#
# Mechanical properties :
#
#
# Convention : Reuss Voigt Hill
#
# Bulk Modulus (GPa) = 8.17776 35.91768 22.04772
# Shear Modulus (GPa) = 12.14408 31.32027 21.73218
#
# Velocity S-wave (km/s) = 2.39058 3.83913 3.19795
# Velocity P-wave (km/s) = 3.38647 6.04602 4.90013
#
# Compressibility (1/GPa) = 0.12228285
#
# Stress axis : x y z
#
# Youngs Moduli (GPa) = 97.03415 46.71307 8.13697
#
# Poissons Ratio (x) = 0.17823 -0.05591
# Poissons Ratio (y) = 0.37023 0.15638
# Poissons Ratio (z) = -0.66669 0.89774
#
# Static dielectric constant tensor:
#      x y z
#    x 3.022310 1.653000 -0.780290 
#    y 1.653000 1.033170 1.615620 
#    z -0.780290 1.615620 2.571140 
# 
# 
# High freq. dielectric constant tensor:
#      x y z
#    x 1.843560 -0.005240 0.024450 
#    y -0.005240 1.847520 0.009860 
#    z 0.024450 0.009860 1.789690 
# 
# From -- ./inp_files/205688.got.cif
#   From: 2010.06.25/outbox.cif.g09.slc.cpg/sg2_103_cif.got.tgz:205688.got - 2010.06.27 13:26:56.
