data_PCOD8040290
_publ_section_title
;
Structure prediction by ZEFSAII (Michael W. Deem and Ramdas Pophale) SiO2 
 PCOD8040290
Probable space group: P -1
;
_chemical_formula_sum "Si O2"
_cell_formula_units_Z 14
_cell_length_a 12.390901
_cell_length_b 11.544601
_cell_length_c 12.245120
_cell_angle_alpha 88.855934
_cell_angle_beta 134.765752
_cell_angle_gamma 127.203771
_cell_volume 689.820790
_symmetry_space_group_name_H-M "P -1"
_symmetry_group_IT_number 2
_symmetry_cell_setting 'triclinic'
loop_
_space_group_symop_operation_xyz
x,y,z
-x,-y,-z
loop_
_atom_site_type_symbol
_atom_site_label
_atom_site_fract_x
_atom_site_fract_y
_atom_site_fract_z
Si Si1 0.796367 0.295752 0.134614
Si Si2 0.315736 0.261451 0.984004
Si Si3 0.545603 0.906643 0.893847
Si Si4 0.357466 0.128994 0.675830
Si Si5 0.768985 0.038270 0.639832
Si Si6 0.327217 0.772525 0.504293
Si Si7 0.227099 0.277992 0.676567
O O1 0.692894 0.254180 0.183714
O O2 0.113266 0.531543 0.351641
O O3 0.629019 0.268559 0.931197
O O4 0.768635 0.143464 0.085165
O O5 0.306787 0.267883 0.847594
O O6 0.065997 0.170016 0.864776
O O7 0.300858 0.118205 0.009589
O O8 0.601474 0.496783 0.226787
O O9 0.410113 0.858328 0.684556
O O10 0.297507 0.228692 0.634787
O O11 0.393073 0.118752 0.575172
O O12 0.096299 0.895950 0.548713
O O13 0.809104 0.201112 0.648351
O O14 0.595774 0.902896 0.627365
#
# Coordination Sequence:
#
# PCOD8040290 Si02
#       7
#     2   2   2   2   2   2   2
#     4  11  23  40  64  92 124 161 198 256 312 356
#     4  10  20  38  62  89 121 160 201 253 308 354
#     4  11  24  40  62  93 125 157 204 255 304 367
#     4  10  18  36  60  93 120 152 207 256 294 365
#     4  10  23  41  64  88 125 161 211 247 291 372
#     4  11  24  44  61  90 126 167 202 247 301 366
#     4   9  19  33  61  93 121 152 203 258 309 345
#
# _framework density 20.295127999999998
#
# number of rings (size 3 to 8) (size 9 to 14) (size 15 to 20)
#    0.000    1.714    2.857    1.286    4.000    3.429 
#    2.571    0.714    0.000    0.000    0.000    0.000 
#    0.000    0.000    0.000    0.000    0.000    0.000 
#
# Total GULP energy -173659.076095 kJ/mol
# GULP energy per Si atom -12404.219721 kJ/mol
# Density = 2.024894 g / cm^3
# Si number density = 20.295128 Si / 1000 Ang^3
#
#
#
# Elastic Constant Matrix: (Units=GPa)
#
#
# Indices 1 2 3 4 5 6 
#
# 1 97.3725 39.2624 31.5943 14.2692 -0.4255 -5.1437
# 2 39.2624 81.3550 30.9615 17.1132 2.3792 -4.9670
# 3 31.5943 30.9615 66.9181 17.4063 -2.5457 5.7565
# 4 14.2692 17.1132 17.4063 30.4356 -4.2096 -3.3639
# 5 -0.4255 2.3792 -2.5457 -4.2096 30.2803 -6.4283
# 6 -5.1437 -4.9670 5.7565 -3.3639 -6.4283 31.0259
#
#
#
# Elastic Compliance Matrix: (Units=1/GPa)
#
#
# Indices 1 2 3 4 5 6 
#
# 1 0.013829 -0.004704 -0.004253 -0.001073 0.000551 0.002327
# 2 -0.004704 0.017662 -0.004901 -0.005001 -0.002143 0.001971
# 3 -0.004253 -0.004901 0.022015 -0.008629 -0.000424 -0.006598
# 4 -0.001073 -0.005001 -0.008629 0.042822 0.007033 0.006722
# 5 0.000551 -0.002143 -0.000424 0.007033 0.035845 0.008016
# 6 0.002327 0.001971 -0.006598 0.006722 0.008016 0.036546
#
#
# Mechanical properties :
#
#
# Convention : Reuss Voigt Hill
#
# Bulk Modulus (GPa) = 38.77392 49.92020 44.34706
# Shear Modulus (GPa) = 24.38647 27.93686 26.16166
#
# Velocity S-wave (km/s) = 3.47016 3.71419 3.59425
# Velocity P-wave (km/s) = 5.93317 6.56080 6.25486
#
# Compressibility (1/GPa) = 0.02579053
#
# Stress axis : x y z
#
# Youngs Moduli (GPa) = 72.31199 56.61822 45.42331
#
# Poissons Ratio (x) = 0.26632 0.19318
# Poissons Ratio (y) = 0.34014 0.22263
# Poissons Ratio (z) = 0.30753 0.27750
#
# Static dielectric constant tensor:
#      x y z
#    x 3.711730 -0.095220 -0.143180 
#    y -0.095220 3.480210 0.100190 
#    z -0.143180 0.100190 3.616890 
# 
# 
# High freq. dielectric constant tensor:
#      x y z
#    x 1.796810 -0.015630 -0.008920 
#    y -0.015630 1.771700 0.006500 
#    z -0.008920 0.006500 1.788030 
# 
# From -- ./inp_files/260858.got.cif
#   From: 2010.06.25/outbox.cif.g09.slc.cpg/sg2_131_cif.got.tgz:260858.got - 2010.06.27 13:26:56.
