data_PCOD8040004
_publ_section_title
;
Structure prediction by ZEFSAII (Michael W. Deem and Ramdas Pophale) SiO2 
 PCOD8040004
Probable space group: P -1
;
_chemical_formula_sum "Si O2"
_cell_formula_units_Z 16
_cell_length_a 14.168178
_cell_length_b 11.622394
_cell_length_c 11.773112
_cell_angle_alpha 48.552337
_cell_angle_beta 81.002278
_cell_angle_gamma 119.002389
_cell_volume 871.145292
_symmetry_space_group_name_H-M "P -1"
_symmetry_group_IT_number 2
_symmetry_cell_setting 'triclinic'
loop_
_space_group_symop_operation_xyz
x,y,z
-x,-y,-z
loop_
_atom_site_type_symbol
_atom_site_label
_atom_site_fract_x
_atom_site_fract_y
_atom_site_fract_z
Si Si1 0.699697 0.721617 0.933170
Si Si2 0.536733 0.734209 0.110541
Si Si3 0.474959 0.225584 0.657957
Si Si4 0.597202 0.070857 0.699975
Si Si5 0.624562 0.849651 0.670078
Si Si6 0.815402 0.610349 0.322900
Si Si7 0.279677 0.165571 0.559896
Si Si8 0.021581 0.071270 0.136947
O O1 0.715660 0.852883 0.736603
O O2 0.860609 0.835325 0.848301
O O3 0.667230 0.779339 0.015048
O O4 0.558592 0.424004 0.131428
O O5 0.580204 0.846447 0.154028
O O6 0.366176 0.433997 0.331752
O O7 0.534129 0.875349 0.934906
O O8 0.657695 0.515991 0.423986
O O9 0.365971 0.203731 0.626879
O O10 0.466363 0.039817 0.731573
O O11 0.627261 0.025548 0.603753
O O12 0.762023 0.364614 0.513792
O O13 0.714817 0.951401 0.466917
O O14 0.887483 0.717289 0.114329
O O15 0.936693 0.815932 0.262807
O O16 0.100140 0.970410 0.751992
#
# Coordination Sequence:
#
# PCOD8040004 Si02
#       8
#     2   2   2   2   2   2   2   2
#     4   9  20  35  61  83 107 155 183 236 275 327
#     4  10  18  35  61  84 112 139 197 233 273 329
#     4  10  20  34  58  89 110 145 190 229 281 324
#     4   9  20  38  60  82 114 149 187 232 277 329
#     4   9  19  39  58  79 110 148 203 222 266 335
#     4   9  21  35  57  82 118 147 179 227 291 335
#     4  11  21  33  61  87 108 152 189 236 268 328
#     4  11  21  36  55  86 120 143 185 232 288 333
#
# _framework density 18.366627000000001
#
# number of rings (size 3 to 8) (size 9 to 14) (size 15 to 20)
#    0.750    1.500    1.250    3.000    3.500    1.000 
#    0.000    3.125    5.500    0.000    0.000    0.000 
#    0.000    0.000    0.000    0.000    0.000    0.000 
#
# Total GULP energy -198320.839513 kJ/mol
# GULP energy per Si atom -12395.052470 kJ/mol
# Density = 1.832482 g / cm^3
# Si number density = 18.366627 Si / 1000 Ang^3
#
#
#
# Elastic Constant Matrix: (Units=GPa)
#
#
# Indices 1 2 3 4 5 6 
#
# 1 93.0803 39.9138 44.6979 -8.4028 -9.0123 10.1844
# 2 39.9138 99.1444 29.2844 8.2994 -2.2544 -6.0410
# 3 44.6979 29.2844 77.0844 4.4955 0.5872 -0.6493
# 4 -8.4028 8.2994 4.4955 23.8260 -7.1837 -0.3679
# 5 -9.0123 -2.2544 0.5872 -7.1837 27.0087 -7.0254
# 6 10.1844 -6.0410 -0.6493 -0.3679 -7.0254 32.9994
#
#
#
# Elastic Compliance Matrix: (Units=1/GPa)
#
#
# Indices 1 2 3 4 5 6 
#
# 1 0.022021 -0.007002 -0.011109 0.015045 0.009413 -0.006125
# 2 -0.007002 0.013982 -0.000746 -0.007780 -0.002139 0.004164
# 3 -0.011109 -0.000746 0.020306 -0.009288 -0.006085 0.002292
# 4 0.015045 -0.007780 -0.009288 0.057601 0.019515 -0.001453
# 5 0.009413 -0.002139 -0.006085 0.019515 0.047086 0.006825
# 6 -0.006125 0.004164 0.002292 -0.001453 0.006825 0.034438
#
#
# Mechanical properties :
#
#
# Convention : Reuss Voigt Hill
#
# Bulk Modulus (GPa) = 53.78601 55.23346 54.50974
# Shear Modulus (GPa) = 20.89025 27.12770 24.00898
#
# Velocity S-wave (km/s) = 3.37620 3.84736 3.61945
# Velocity P-wave (km/s) = 6.67432 7.06217 6.87098
#
# Compressibility (1/GPa) = 0.01859220
#
# Stress axis : x y z
#
# Youngs Moduli (GPa) = 45.41211 71.52019 49.24774
#
# Poissons Ratio (x) = 0.50080 0.54711
# Poissons Ratio (y) = 0.31799 0.03676
# Poissons Ratio (z) = 0.50450 0.05338
#
# Static dielectric constant tensor:
#      x y z
#    x 3.181790 -0.179510 -0.031200 
#    y -0.179510 3.426660 0.126110 
#    z -0.031200 0.126110 3.318200 
# 
# 
# High freq. dielectric constant tensor:
#      x y z
#    x 1.697380 -0.012780 0.000980 
#    y -0.012780 1.711960 0.017270 
#    z 0.000980 0.017270 1.698980 
# 
# From -- ./inp_files/449777.got.cif
#   From: 2010.06.25/outbox.cif.g09.slc.cpg/sg2_225_cif.got.tgz:449777.got - 2010.06.27 13:26:56.
