data_PCOD8040998
_publ_section_title
;
Structure prediction by ZEFSAII (Michael W. Deem and Ramdas Pophale) SiO2 
 PCOD8040998
Probable space group: P -1
;
_chemical_formula_sum "Si O2"
_cell_formula_units_Z 14
_cell_length_a 8.844110
_cell_length_b 15.200371
_cell_length_c 20.073134
_cell_angle_alpha 148.053341
_cell_angle_beta 29.868332
_cell_angle_gamma 145.193488
_cell_volume 672.843045
_symmetry_space_group_name_H-M "P -1"
_symmetry_group_IT_number 2
_symmetry_cell_setting 'triclinic'
loop_
_space_group_symop_operation_xyz
x,y,z
-x,-y,-z
loop_
_atom_site_type_symbol
_atom_site_label
_atom_site_fract_x
_atom_site_fract_y
_atom_site_fract_z
Si Si1 0.251871 0.372223 0.062295
Si Si2 0.606388 0.714364 0.901636
Si Si3 0.255079 0.005949 0.803403
Si Si4 0.434343 0.626145 0.661409
Si Si5 0.258192 0.099046 0.519184
Si Si6 0.363248 0.505245 0.371694
Si Si7 0.695769 0.023993 0.771704
O O1 0.400884 0.374253 0.080255
O O2 0.946818 0.438435 0.224000
O O3 0.500000 0.500000 0.000000
O O4 0.142597 0.175528 0.946549
O O5 0.504757 0.559927 0.787149
O O6 0.963740 0.836491 0.825589
O O7 0.364951 0.829992 0.062058
O O8 0.436697 0.973307 0.646011
O O9 0.511342 0.043752 0.788515
O O10 0.500000 0.500000 0.500000
O O11 0.622726 0.618395 0.651744
O O12 0.556261 0.828618 0.725605
O O13 0.393895 0.303862 0.581360
O O14 0.077409 0.068646 0.640130
O O15 0.000000 0.000000 0.500000
O O16 0.000000 0.500000 0.500000
#
# Coordination Sequence:
#
# PCOD8040998 Si02
#       7
#     2   2   2   2   2   2   2
#     4  11  24  40  67 103 129 176 226 273 320 398
#     4  11  21  44  66  90 142 172 213 272 341 390
#     4  10  18  41  67  90 133 174 217 261 332 395
#     4  12  24  41  67  97 133 174 231 268 322 403
#     4  10  22  40  67  94 126 176 223 260 327 400
#     4  12  26  43  67 100 134 177 216 280 340 382
#     4  10  21  39  64  96 126 177 219 266 323 395
#
# _framework density 20.807230000000001
#
# number of rings (size 3 to 8) (size 9 to 14) (size 15 to 20)
#    0.000    1.143    4.286    3.429    8.000    1.143 
#    0.000    0.714    0.000    0.000    0.000    0.000 
#    0.000    0.000    0.000    0.000    0.000    0.000 
#
# Total GULP energy -173568.584606 kJ/mol
# GULP energy per Si atom -12397.756043 kJ/mol
# Density = 2.075987 g / cm^3
# Si number density = 20.807230 Si / 1000 Ang^3
#
#
#
# Elastic Constant Matrix: (Units=GPa)
#
#
# Indices 1 2 3 4 5 6 
#
# 1 81.1068 34.1498 54.1573 3.4267 1.3100 -12.6148
# 2 34.1498 121.1273 54.7250 -8.3592 3.9338 -7.3550
# 3 54.1573 54.7250 190.7453 -8.0324 10.0880 -7.1620
# 4 3.4267 -8.3592 -8.0324 43.1287 -0.1454 7.9766
# 5 1.3100 3.9338 10.0880 -0.1454 26.4006 5.9864
# 6 -12.6148 -7.3550 -7.1620 7.9766 5.9864 21.2974
#
#
#
# Elastic Compliance Matrix: (Units=1/GPa)
#
#
# Indices 1 2 3 4 5 6 
#
# 1 0.018108 -0.002926 -0.004036 -0.004702 -0.001325 0.010492
# 2 -0.002926 0.010142 -0.001940 0.001706 -0.000773 0.000695
# 3 -0.004036 -0.001940 0.007090 0.001370 -0.002075 -0.000606
# 4 -0.004702 0.001706 0.001370 0.026430 0.002392 -0.012307
# 5 -0.001325 -0.000773 -0.002075 0.002392 0.042151 -0.014493
# 6 0.010492 0.000695 -0.000606 -0.012307 -0.014493 0.061888
#
#
# Mechanical properties :
#
#
# Convention : Reuss Voigt Hill
#
# Bulk Modulus (GPa) = 57.02642 75.44928 66.23785
# Shear Modulus (GPa) = 26.39088 34.82851 30.60969
#
# Velocity S-wave (km/s) = 3.56526 4.09573 3.83966
# Velocity P-wave (km/s) = 6.66443 7.66201 7.18057
#
# Compressibility (1/GPa) = 0.01753573
#
# Stress axis : x y z
#
# Youngs Moduli (GPa) = 55.22340 98.59575 141.04864
#
# Poissons Ratio (x) = 0.28853 0.56924
# Poissons Ratio (y) = 0.16160 0.27366
# Poissons Ratio (z) = 0.22287 0.19129
#
# Static dielectric constant tensor:
#      x y z
#    x 3.490150 -0.057260 0.159150 
#    y -0.057260 3.802090 -0.233560 
#    z 0.159150 -0.233560 4.939770 
# 
# 
# High freq. dielectric constant tensor:
#      x y z
#    x 1.770280 -0.004930 0.004380 
#    y -0.004930 1.818220 -0.003490 
#    z 0.004380 -0.003490 1.850210 
# 
# From -- ./inp_files/157132.got.cif
#   From: 2010.06.25/outbox.cif.g09.slc.cpg/sg2_79_cif.got.tgz:157132.got - 2010.06.27 13:26:56.
