data_PCOD8040123
_publ_section_title
;
Structure prediction by ZEFSAII (Michael W. Deem and Ramdas Pophale) SiO2 
 PCOD8040123
Probable space group: P -1
;
_chemical_formula_sum "Si O2"
_cell_formula_units_Z 16
_cell_length_a 11.782623
_cell_length_b 11.646462
_cell_length_c 11.821813
_cell_angle_alpha 53.672371
_cell_angle_beta 46.368299
_cell_angle_gamma 39.422122
_cell_volume 739.388485
_symmetry_space_group_name_H-M "P -1"
_symmetry_group_IT_number 2
_symmetry_cell_setting 'triclinic'
loop_
_space_group_symop_operation_xyz
x,y,z
-x,-y,-z
loop_
_atom_site_type_symbol
_atom_site_label
_atom_site_fract_x
_atom_site_fract_y
_atom_site_fract_z
Si Si1 0.304596 0.336528 0.304235
Si Si2 0.719966 0.209829 0.112338
Si Si3 0.814708 0.889805 0.839061
Si Si4 0.425457 0.240106 0.833371
Si Si5 0.102343 0.520573 0.730971
Si Si6 0.084327 0.928040 0.167943
Si Si7 0.031304 0.666423 0.451162
Si Si8 0.745307 0.522971 0.979041
O O1 0.515270 0.248759 0.271119
O O2 0.139321 0.544197 0.337094
O O3 0.338337 0.335065 0.148489
O O4 0.208403 0.234031 0.451197
O O5 0.732084 0.193779 0.975949
O O6 0.735003 0.363654 0.050884
O O7 0.890035 0.024194 0.166010
O O8 0.996104 0.720763 0.740713
O O9 0.663822 0.069821 0.757687
O O10 0.908510 0.929493 0.852129
O O11 0.688477 0.840245 0.015240
O O12 0.326464 0.367947 0.715276
O O13 0.399017 0.367171 0.879610
O O14 0.125188 0.537094 0.572591
O O15 0.971577 0.452512 0.889339
O O16 0.071325 0.811742 0.339045
#
# Coordination Sequence:
#
# PCOD8040123 Si02
#       8
#     2   2   2   2   2   2   2   2
#     4  10  21  39  61  88 117 162 202 241 305 372
#     4  11  22  36  64  94 116 155 207 253 307 358
#     4  10  21  38  59  92 123 154 204 258 298 348
#     4  10  20  36  64  93 115 159 207 249 302 358
#     4  10  21  40  60  85 126 166 197 244 303 367
#     4  11  23  39  59  92 127 152 197 265 304 352
#     4  10  23  41  58  84 128 162 196 245 307 367
#     4  10  18  35  65  89 116 152 203 259 296 353
#
# _framework density 21.639505
#
# number of rings (size 3 to 8) (size 9 to 14) (size 15 to 20)
#    0.000    1.750    1.250    4.125    1.750    2.000 
#    2.250    0.625    0.000    0.000    0.000    0.000 
#    0.000    0.000    0.000    0.000    0.000    0.000 
#
# Total GULP energy -198334.951923 kJ/mol
# GULP energy per Si atom -12395.934495 kJ/mol
# Density = 2.159025 g / cm^3
# Si number density = 21.639505 Si / 1000 Ang^3
#
#
#
# Elastic Constant Matrix: (Units=GPa)
#
#
# Indices 1 2 3 4 5 6 
#
# 1 111.2003 38.8024 31.6904 7.2694 3.6392 2.3000
# 2 38.8024 72.3467 20.5640 0.6457 -2.2105 -11.8621
# 3 31.6904 20.5640 62.8939 -1.7620 -2.4061 -6.0965
# 4 7.2694 0.6457 -1.7620 16.4899 -5.1461 -0.8430
# 5 3.6392 -2.2105 -2.4061 -5.1461 21.8597 1.9814
# 6 2.3000 -11.8621 -6.0965 -0.8430 1.9814 43.1373
#
#
#
# Elastic Compliance Matrix: (Units=1/GPa)
#
#
# Indices 1 2 3 4 5 6 
#
# 1 0.013504 -0.006286 -0.005474 -0.008042 -0.005095 -0.003145
# 2 -0.006286 0.018737 -0.002270 0.002969 0.002929 0.005090
# 3 -0.005474 -0.002270 0.019960 0.006031 0.004079 0.002419
# 4 -0.008042 0.002969 0.006031 0.070689 0.018707 0.002620
# 5 -0.005095 0.002929 0.004079 0.018707 0.051776 -0.000359
# 6 -0.003145 0.005090 0.002419 0.002620 -0.000359 0.025159
#
#
# Mechanical properties :
#
#
# Convention : Reuss Voigt Hill
#
# Bulk Modulus (GPa) = 41.42565 47.61720 44.52142
# Shear Modulus (GPa) = 21.19262 26.65631 23.92446
#
# Velocity S-wave (km/s) = 3.13285 3.51356 3.32865
# Velocity P-wave (km/s) = 5.68079 6.20586 5.94912
#
# Compressibility (1/GPa) = 0.02413963
#
# Stress axis : x y z
#
# Youngs Moduli (GPa) = 74.05280 53.37087 50.10104
#
# Poissons Ratio (x) = 0.33551 0.27425
# Poissons Ratio (y) = 0.46552 0.11373
# Poissons Ratio (z) = 0.40536 0.12116
#
# Static dielectric constant tensor:
#      x y z
#    x 4.082090 -0.060590 -0.045740 
#    y -0.060590 3.860440 0.071190 
#    z -0.045740 0.071190 3.735310 
# 
# 
# High freq. dielectric constant tensor:
#      x y z
#    x 1.865150 0.004200 0.001260 
#    y 0.004200 1.837930 0.002300 
#    z 0.001260 0.002300 1.821430 
# 
# From -- ./inp_files/425439.got.cif
#   From: 2010.06.25/outbox.cif.g09.slc.cpg/sg2_213_cif.got.tgz:425439.got - 2010.06.27 13:26:56.
