data_PCOD8040552
_publ_section_title
;
Structure prediction by ZEFSAII (Michael W. Deem and Ramdas Pophale) SiO2 
 PCOD8040552
Probable space group: P -1
;
_chemical_formula_sum "Si O2"
_cell_formula_units_Z 16
_cell_length_a 8.436831
_cell_length_b 6.921710
_cell_length_c 19.904010
_cell_angle_alpha 79.906133
_cell_angle_beta 64.807765
_cell_angle_gamma 121.242870
_cell_volume 772.495878
_symmetry_space_group_name_H-M "P -1"
_symmetry_group_IT_number 2
_symmetry_cell_setting 'triclinic'
loop_
_space_group_symop_operation_xyz
x,y,z
-x,-y,-z
loop_
_atom_site_type_symbol
_atom_site_label
_atom_site_fract_x
_atom_site_fract_y
_atom_site_fract_z
Si Si1 0.465043 0.426324 0.619491
Si Si2 0.374052 0.104481 0.534024
Si Si3 0.653001 0.901153 0.744873
Si Si4 0.155902 0.637665 0.828490
Si Si5 0.990651 0.225750 0.778386
Si Si6 0.888646 0.831364 0.596782
Si Si7 0.725900 0.624447 0.096260
Si Si8 0.042080 0.119835 0.092362
O O1 0.439697 0.214512 0.591311
O O2 0.538998 0.666821 0.547110
O O3 0.223083 0.288457 0.708349
O O4 0.662610 0.532532 0.634625
O O5 0.500000 0.000000 0.500000
O O6 0.092239 0.859390 0.595544
O O7 0.440340 0.880768 0.757613
O O8 0.812523 0.954389 0.650693
O O9 0.542175 0.624311 0.818597
O O10 0.813910 0.138256 0.754520
O O11 0.057031 0.482108 0.784929
O O12 0.110152 0.439339 0.906830
O O13 0.024590 0.739777 0.861225
O O14 0.870102 0.987170 0.867843
O O15 0.000000 0.000000 0.500000
O O16 0.815300 0.883955 0.103930
O O17 0.745757 0.670828 0.009880
#
# Coordination Sequence:
#
# PCOD8040552 Si02
#       8
#     2   2   2   2   2   2   2   2
#     4  10  20  39  58  78 119 147 181 240 290 334
#     4  10  22  37  60  86 108 146 193 236 284 345
#     4  10  20  39  56  84 119 151 190 243 288 340
#     4   9  20  37  58  83 115 152 195 236 282 341
#     4  11  21  37  57  85 120 155 187 236 294 338
#     4  10  19  37  62  80 112 152 183 234 294 334
#     4   8  19  36  62  82 119 152 191 237 296 328
#     4  10  18  37  62  85 113 159 191 237 286 347
#
# _framework density 20.712083
#
# number of rings (size 3 to 8) (size 9 to 14) (size 15 to 20)
#    0.750    1.500    2.500    0.375    0.000    2.000 
#    2.250    1.875    0.000    0.000    0.000    0.000 
#    0.000    0.000    0.000    0.000    0.000    0.000 
#
# Total GULP energy -198300.944954 kJ/mol
# GULP energy per Si atom -12393.809060 kJ/mol
# Density = 2.066494 g / cm^3
# Si number density = 20.712083 Si / 1000 Ang^3
#
#
#
# Elastic Constant Matrix: (Units=GPa)
#
#
# Indices 1 2 3 4 5 6 
#
# 1 66.5594 50.7571 7.7764 15.4627 2.1000 25.4519
# 2 50.7571 124.1338 21.5497 35.1626 -2.1395 15.0851
# 3 7.7764 21.5497 77.7408 17.8350 -7.4923 7.4906
# 4 15.4627 35.1626 17.8350 36.7459 4.3459 -1.1143
# 5 2.1000 -2.1395 -7.4923 4.3459 16.6797 6.9213
# 6 25.4519 15.0851 7.4906 -1.1143 6.9213 40.3332
#
#
#
# Elastic Compliance Matrix: (Units=1/GPa)
#
#
# Indices 1 2 3 4 5 6 
#
# 1 0.028790 -0.008210 0.003143 -0.006947 0.005523 -0.016820
# 2 -0.008210 0.015173 0.000284 -0.012110 0.007137 -0.002106
# 3 0.003143 0.000284 0.017295 -0.011866 0.013822 -0.008001
# 4 -0.006947 -0.012110 -0.011866 0.051126 -0.026409 0.017061
# 5 0.005523 0.007137 0.013822 -0.026409 0.083102 -0.023712
# 6 -0.016820 -0.002106 -0.008001 0.017061 -0.023712 0.042221
#
#
# Mechanical properties :
#
#
# Convention : Reuss Voigt Hill
#
# Bulk Modulus (GPa) = 19.34561 47.62227 33.48394
# Shear Modulus (GPa) = 18.90334 31.30849 25.10591
#
# Velocity S-wave (km/s) = 3.02432 3.89215 3.48535
# Velocity P-wave (km/s) = 4.64283 6.57578 5.69196
#
# Compressibility (1/GPa) = 0.05169131
#
# Stress axis : x y z
#
# Youngs Moduli (GPa) = 34.73483 65.90728 57.81874
#
# Poissons Ratio (x) = 0.54112 -0.18171
# Poissons Ratio (y) = 0.28519 -0.01644
# Poissons Ratio (z) = -0.10916 -0.01874
#
# Static dielectric constant tensor:
#      x y z
#    x 3.680020 0.481730 0.018100 
#    y 0.481730 3.778560 0.044970 
#    z 0.018100 0.044970 3.814690 
# 
# 
# High freq. dielectric constant tensor:
#      x y z
#    x 1.781560 0.025510 0.001020 
#    y 0.025510 1.804500 0.012170 
#    z 0.001020 0.012170 1.814660 
# 
# From -- ./inp_files/585198.got.cif
#   From: 2010.06.25/outbox.cif.g09.slc.cpg/sg2_293_cif.got.tgz:585198.got - 2010.06.27 13:26:56.
