data_PCOD8040825
_publ_section_title
;
Structure prediction by ZEFSAII (Michael W. Deem and Ramdas Pophale) SiO2 
 PCOD8040825
Probable space group: P -1
;
_chemical_formula_sum "Si O2"
_cell_formula_units_Z 14
_cell_length_a 8.265161
_cell_length_b 11.053044
_cell_length_c 10.012823
_cell_angle_alpha 97.259898
_cell_angle_beta 52.773712
_cell_angle_gamma 115.679829
_cell_volume 644.552854
_symmetry_space_group_name_H-M "P -1"
_symmetry_group_IT_number 2
_symmetry_cell_setting 'triclinic'
loop_
_space_group_symop_operation_xyz
x,y,z
-x,-y,-z
loop_
_atom_site_type_symbol
_atom_site_label
_atom_site_fract_x
_atom_site_fract_y
_atom_site_fract_z
Si Si1 0.496044 0.607042 0.123590
Si Si2 0.738020 0.106047 0.956479
Si Si3 0.159272 0.126461 0.134639
Si Si4 0.599576 0.562665 0.598662
Si Si5 0.131349 0.711605 0.333423
Si Si6 0.718716 0.061691 0.491348
Si Si7 0.563351 0.821494 0.726796
O O1 0.520475 0.555152 0.249260
O O2 0.262326 0.620781 0.227830
O O3 0.500000 0.500000 0.000000
O O4 0.714281 0.754303 0.019207
O O5 0.879125 0.212968 0.786733
O O6 0.870471 0.020121 0.927659
O O7 0.679112 0.176258 0.122935
O O8 0.500000 0.000000 0.000000
O O9 0.309543 0.164587 0.197032
O O10 0.919948 0.118971 0.291640
O O11 0.500000 0.500000 0.500000
O O12 0.515956 0.678177 0.668832
O O13 0.870186 0.617347 0.489139
O O14 0.262411 0.816615 0.403050
O O15 0.500000 0.000000 0.500000
O O16 0.722862 0.942023 0.564164
#
# Coordination Sequence:
#
# PCOD8040825 Si02
#       7
#     2   2   2   2   2   2   2
#     4  12  23  45  69  95 134 185 227 271 325 401
#     4  10  18  38  74  98 121 168 220 275 340 393
#     4  11  20  42  71  97 128 177 220 273 341 394
#     4  12  28  45  67  99 136 183 229 270 325 401
#     4  12  22  45  71  94 132 177 224 277 334 391
#     4  12  25  40  70 106 134 168 218 287 340 398
#     4  11  20  45  68  95 135 171 225 269 338 394
#
# _framework density 21.720486000000001
#
# number of rings (size 3 to 8) (size 9 to 14) (size 15 to 20)
#    0.000    0.571    8.571    1.714    2.000    0.000 
#    2.571    2.857    0.000    0.000    0.000    0.000 
#    0.000    0.000    0.000    0.000    0.000    0.000 
#
# Total GULP energy -173599.857159 kJ/mol
# GULP energy per Si atom -12399.989797 kJ/mol
# Density = 2.167105 g / cm^3
# Si number density = 21.720486 Si / 1000 Ang^3
#
#
#
# Elastic Constant Matrix: (Units=GPa)
#
#
# Indices 1 2 3 4 5 6 
#
# 1 59.3806 61.7236 53.2721 12.4823 5.9676 -3.9747
# 2 61.7236 137.6428 74.2451 18.8234 -0.1917 -22.1251
# 3 53.2721 74.2451 152.2244 0.1088 -4.0738 -11.6516
# 4 12.4823 18.8234 0.1088 45.8964 -18.5356 -3.4269
# 5 5.9676 -0.1917 -4.0738 -18.5356 33.9606 4.1693
# 6 -3.9747 -22.1251 -11.6516 -3.4269 4.1693 32.4279
#
#
#
# Elastic Compliance Matrix: (Units=1/GPa)
#
#
# Indices 1 2 3 4 5 6 
#
# 1 0.043121 -0.013718 -0.009311 -0.012563 -0.014788 -0.006846
# 2 -0.013718 0.016521 -0.002617 -0.002493 -0.000204 0.008413
# 3 -0.009311 -0.002617 0.011343 0.006168 0.006225 0.001000
# 4 -0.012563 -0.002493 0.006168 0.035139 0.022131 -0.000157
# 5 -0.014788 -0.000204 0.006225 0.022131 0.045262 -0.003195
# 6 -0.006846 0.008413 0.001000 -0.000157 -0.003195 0.036492
#
#
# Mechanical properties :
#
#
# Convention : Reuss Voigt Hill
#
# Bulk Modulus (GPa) = 50.77625 80.85882 65.81754
# Shear Modulus (GPa) = 20.34718 33.12410 26.73564
#
# Velocity S-wave (km/s) = 3.06400 3.90938 3.51222
# Velocity P-wave (km/s) = 5.99544 7.59510 6.84218
#
# Compressibility (1/GPa) = 0.01969425
#
# Stress axis : x y z
#
# Youngs Moduli (GPa) = 23.19047 60.52777 88.16136
#
# Poissons Ratio (x) = 0.83030 0.82085
# Poissons Ratio (y) = 0.31812 0.23073
# Poissons Ratio (z) = 0.21592 0.15841
#
# Static dielectric constant tensor:
#      x y z
#    x 3.866990 -0.536270 -0.732500 
#    y -0.536270 3.969920 1.117460 
#    z -0.732500 1.117460 4.137230 
# 
# 
# High freq. dielectric constant tensor:
#      x y z
#    x 1.827240 -0.025010 -0.003280 
#    y -0.025010 1.854460 0.002400 
#    z -0.003280 0.002400 1.878210 
# 
# From -- ./inp_files/188267.got.cif
#   From: 2010.06.25/outbox.cif.g09.slc.cpg/sg2_95_cif.got.tgz:188267.got - 2010.06.27 13:26:56.
