data_PCOD8040855
_publ_section_title
;
Structure prediction by ZEFSAII (Michael W. Deem and Ramdas Pophale) SiO2 
 PCOD8040855
Probable space group: P -1
;
_chemical_formula_sum "Si O2"
_cell_formula_units_Z 16
_cell_length_a 15.283009
_cell_length_b 9.857195
_cell_length_c 13.436086
_cell_angle_alpha 53.623996
_cell_angle_beta 73.114708
_cell_angle_gamma 118.381990
_cell_volume 844.719271
_symmetry_space_group_name_H-M "P -1"
_symmetry_group_IT_number 2
_symmetry_cell_setting 'triclinic'
loop_
_space_group_symop_operation_xyz
x,y,z
-x,-y,-z
loop_
_atom_site_type_symbol
_atom_site_label
_atom_site_fract_x
_atom_site_fract_y
_atom_site_fract_z
Si Si1 0.777098 0.400648 0.754362
Si Si2 0.847005 0.030982 0.601750
Si Si3 0.241730 0.257457 0.438216
Si Si4 0.128128 0.242061 0.150279
Si Si5 0.605446 0.521194 0.506701
Si Si6 0.062111 0.126877 0.813308
Si Si7 0.582998 0.100001 0.141984
Si Si8 0.761667 0.269552 0.598529
O O1 0.703448 0.466590 0.718969
O O2 0.800175 0.326343 0.679328
O O3 0.960249 0.693949 0.617075
O O4 0.649261 0.140090 0.994440
O O5 0.811583 0.165108 0.587869
O O6 0.730712 0.811310 0.639674
O O7 0.811719 0.839046 0.782762
O O8 0.368804 0.390967 0.423831
O O9 0.046194 0.955069 0.664599
O O10 0.270178 0.603169 0.964080
O O11 0.099617 0.162388 0.077385
O O12 0.500000 0.500000 0.500000
O O13 0.792454 0.787013 0.285636
O O14 0.499010 0.191587 0.657956
O O15 0.133862 0.423955 0.629581
O O16 0.000000 0.000000 0.000000
O O17 0.438928 0.019206 0.219199
#
# Coordination Sequence:
#
# PCOD8040855 Si02
#       8
#     2   2   2   2   2   2   2   2
#     4  11  18  36  65  87 119 162 190 232 309 364
#     4  11  20  35  61  95 124 147 199 243 299 352
#     4  10  18  39  63  83 121 160 193 240 292 363
#     4  10  19  38  63  87 119 158 195 241 293 365
#     4  10  23  43  60  84 116 157 208 247 282 350
#     4  10  22  44  61  79 118 169 202 234 294 350
#     4  11  21  38  62  89 119 156 193 245 310 348
#     4  11  23  36  58  93 129 150 190 256 294 351
#
# _framework density 18.941205
#
# number of rings (size 3 to 8) (size 9 to 14) (size 15 to 20)
#    0.000    1.500    7.500    1.500    0.000    1.500 
#    4.500    2.500    0.000    0.000    0.000    0.000 
#    0.000    0.000    0.000    0.000    0.000    0.000 
#
# Total GULP energy -198274.174982 kJ/mol
# GULP energy per Si atom -12392.135936 kJ/mol
# Density = 1.889809 g / cm^3
# Si number density = 18.941205 Si / 1000 Ang^3
#
#
#
# Elastic Constant Matrix: (Units=GPa)
#
#
# Indices 1 2 3 4 5 6 
#
# 1 115.6591 60.0621 17.8262 3.7167 2.5171 5.9169
# 2 60.0621 154.0827 40.0766 8.0832 10.9440 7.9230
# 3 17.8262 40.0766 69.3128 4.2188 2.9743 6.9871
# 4 3.7167 8.0832 4.2188 33.7108 5.6244 -1.8065
# 5 2.5171 10.9440 2.9743 5.6244 10.3422 -0.3111
# 6 5.9169 7.9230 6.9871 -1.8065 -0.3111 24.0279
#
#
#
# Elastic Compliance Matrix: (Units=1/GPa)
#
#
# Indices 1 2 3 4 5 6 
#
# 1 0.010930 -0.004248 -0.000291 -0.000582 0.002198 -0.001222
# 2 -0.004248 0.009868 -0.004144 -0.000069 -0.008213 -0.001114
# 3 -0.000291 -0.004144 0.017351 -0.001360 0.000094 -0.003708
# 4 -0.000582 -0.000069 -0.001360 0.032939 -0.017223 0.002815
# 5 0.002198 -0.008213 0.000094 -0.017223 0.114256 0.002324
# 6 -0.001222 -0.001114 -0.003708 0.002815 0.002324 0.043607
#
#
# Mechanical properties :
#
#
# Convention : Reuss Voigt Hill
#
# Bulk Modulus (GPa) = 48.11523 63.88716 56.00119
# Shear Modulus (GPa) = 19.74375 28.35547 24.04961
#
# Velocity S-wave (km/s) = 3.23208 3.87334 3.56715
# Velocity P-wave (km/s) = 6.27583 7.33526 6.82613
#
# Compressibility (1/GPa) = 0.02078344
#
# Stress axis : x y z
#
# Youngs Moduli (GPa) = 91.48996 101.33821 57.63389
#
# Poissons Ratio (x) = 0.43046 0.01676
# Poissons Ratio (y) = 0.38863 0.23885
# Poissons Ratio (z) = 0.02660 0.41997
#
# Static dielectric constant tensor:
#      x y z
#    x 3.487640 0.441840 0.028450 
#    y 0.441840 4.215150 0.161290 
#    z 0.028450 0.161290 3.465490 
# 
# 
# High freq. dielectric constant tensor:
#      x y z
#    x 1.717300 0.010000 -0.008650 
#    y 0.010000 1.747100 -0.009430 
#    z -0.008650 -0.009430 1.724450 
# 
# From -- ./inp_files/215822.got.cif
#   From: 2010.06.25/outbox.cif.g09.slc.cpg/sg2_108_cif.got.tgz:215822.got - 2010.06.27 13:26:56.
