data_PCOD8040861
_publ_section_title
;
Structure prediction by ZEFSAII (Michael W. Deem and Ramdas Pophale) SiO2 
 PCOD8040861
Probable space group: P -1
;
_chemical_formula_sum "Si O2"
_cell_formula_units_Z 12
_cell_length_a 9.263715
_cell_length_b 14.980725
_cell_length_c 11.094571
_cell_angle_alpha 26.630833
_cell_angle_beta 65.955533
_cell_angle_gamma 54.589262
_cell_volume 536.123940
_symmetry_space_group_name_H-M "P -1"
_symmetry_group_IT_number 2
_symmetry_cell_setting 'triclinic'
loop_
_space_group_symop_operation_xyz
x,y,z
-x,-y,-z
loop_
_atom_site_type_symbol
_atom_site_label
_atom_site_fract_x
_atom_site_fract_y
_atom_site_fract_z
Si Si1 0.603059 0.545632 0.013727
Si Si2 0.396111 0.864114 0.169586
Si Si3 0.940813 0.498302 0.851503
Si Si4 0.021341 0.802414 0.004733
Si Si5 0.386629 0.655063 0.180712
Si Si6 0.965105 0.205871 0.399137
O O1 0.722885 0.644278 0.791596
O O2 0.457500 0.713005 0.963082
O O3 0.749680 0.302162 0.325663
O O4 0.500000 0.500000 0.000000
O O5 0.403750 0.811434 0.088259
O O6 0.492661 0.620337 0.501048
O O7 0.180779 0.025892 0.081311
O O8 0.500000 0.000000 0.000000
O O9 0.963924 0.421955 0.795667
O O10 0.054225 0.268393 0.179672
O O11 0.024235 0.662714 0.642236
O O12 0.067103 0.931992 0.725397
O O13 0.173692 0.722393 0.154487
#
# Coordination Sequence:
#
# PCOD8040861 Si02
#       6
#     2   2   2   2   2   2
#     4  10  18  39  63  92 128 160 194 256 311 354
#     4  11  27  43  65  90 121 168 212 255 309 363
#     4   9  20  34  62  90 126 162 200 248 299 373
#     4  12  22  40  66  88 122 166 204 254 316 358
#     4  11  24  44  63  91 130 158 207 263 298 371
#     4   9  20  36  58  91 124 163 199 246 308 362
#
# _framework density 22.382885000000002
#
# number of rings (size 3 to 8) (size 9 to 14) (size 15 to 20)
#    1.000    0.667    3.333    1.000    2.333    2.000 
#    0.000    0.833    0.000    0.000    0.000    0.000 
#    0.000    0.000    0.000    0.000    0.000    0.000 
#
# Total GULP energy -148666.649020 kJ/mol
# GULP energy per Si atom -12388.887418 kJ/mol
# Density = 2.233194 g / cm^3
# Si number density = 22.382885 Si / 1000 Ang^3
#
#
#
# Elastic Constant Matrix: (Units=GPa)
#
#
# Indices 1 2 3 4 5 6 
#
# 1 178.7373 77.6092 40.3017 -16.0494 12.8460 25.8451
# 2 77.6092 138.1532 29.3797 -13.9815 -2.3986 12.5047
# 3 40.3017 29.3797 29.7745 -9.9820 -3.4325 4.1285
# 4 -16.0494 -13.9815 -9.9820 20.2507 2.1727 -2.7972
# 5 12.8460 -2.3986 -3.4325 2.1727 26.3052 -11.7540
# 6 25.8451 12.5047 4.1285 -2.7972 -11.7540 49.9442
#
#
#
# Elastic Compliance Matrix: (Units=1/GPa)
#
#
# Indices 1 2 3 4 5 6 
#
# 1 0.011700 -0.003408 -0.012447 0.001016 -0.010696 -0.006633
# 2 -0.003408 0.010390 -0.004792 0.001923 0.001876 0.000108
# 3 -0.012447 -0.004792 0.061475 0.016452 0.015488 0.007126
# 4 0.001016 0.001923 0.016452 0.059985 -0.003001 0.000286
# 5 -0.010696 0.001876 0.015488 -0.003001 0.052853 0.016056
# 6 -0.006633 0.000108 0.007126 0.000286 0.016056 0.026633
#
#
# Mechanical properties :
#
#
# Convention : Reuss Voigt Hill
#
# Bulk Modulus (GPa) = 23.65741 71.24958 47.45350
# Shear Modulus (GPa) = 17.95843 32.59165 25.27504
#
# Velocity S-wave (km/s) = 2.83561 3.82002 3.36402
# Velocity P-wave (km/s) = 4.61663 7.16645 6.02791
#
# Compressibility (1/GPa) = 0.04227005
#
# Stress axis : x y z
#
# Youngs Moduli (GPa) = 85.46767 96.24977 16.26681
#
# Poissons Ratio (x) = 0.32806 0.20247
# Poissons Ratio (y) = 0.29131 0.07795
# Poissons Ratio (z) = 1.06379 0.46125
#
# Static dielectric constant tensor:
#      x y z
#    x 4.205490 0.065950 0.093550 
#    y 0.065950 4.027150 -0.053190 
#    z 0.093550 -0.053190 3.740080 
# 
# 
# High freq. dielectric constant tensor:
#      x y z
#    x 1.898360 0.014350 0.008050 
#    y 0.014350 1.877840 -0.001810 
#    z 0.008050 -0.001810 1.840960 
# 
# From -- ./inp_files/395052.got.cif
#   From: 2010.06.25/outbox.cif.g09.slc.cpg/sg2_198_cif.got.tgz:395052.got - 2010.06.27 13:26:56.
