data_PCOD8041071
_publ_section_title
;
Structure prediction by ZEFSAII (Michael W. Deem and Ramdas Pophale) SiO2 
 PCOD8041071
Probable space group: P -1
;
_chemical_formula_sum "Si O2"
_cell_formula_units_Z 14
_cell_length_a 5.256519
_cell_length_b 13.035946
_cell_length_c 23.138002
_cell_angle_alpha 144.904596
_cell_angle_beta 73.792524
_cell_angle_gamma 93.146641
_cell_volume 831.002327
_symmetry_space_group_name_H-M "P -1"
_symmetry_group_IT_number 2
_symmetry_cell_setting 'triclinic'
loop_
_space_group_symop_operation_xyz
x,y,z
-x,-y,-z
loop_
_atom_site_type_symbol
_atom_site_label
_atom_site_fract_x
_atom_site_fract_y
_atom_site_fract_z
Si Si1 0.128967 0.789654 0.374139
Si Si2 0.551042 0.659253 0.195494
Si Si3 0.849390 0.718873 0.102231
Si Si4 0.608132 0.962302 0.910481
Si Si5 0.585140 0.268408 0.962515
Si Si6 0.859556 0.176278 0.131183
Si Si7 0.283697 0.422100 0.730235
O O1 0.255424 0.786670 0.299788
O O2 0.384460 0.677771 0.348873
O O3 0.890359 0.690751 0.344516
O O4 0.000000 0.000000 0.500000
O O5 0.674786 0.786574 0.203992
O O6 0.768747 0.576758 0.196463
O O7 0.500947 0.488530 0.083999
O O8 0.633068 0.765475 0.084648
O O9 0.096049 0.811066 0.119039
O O10 0.000000 0.500000 0.000000
O O11 0.433721 0.840642 0.834509
O O12 0.934200 0.836490 0.833326
O O13 0.564629 0.158258 0.971379
O O14 0.500000 0.000000 0.000000
O O15 0.815310 0.365570 0.186227
O O16 0.000000 0.000000 0.000000
#
# Coordination Sequence:
#
# PCOD8041071 Si02
#       7
#     2   2   2   2   2   2   2
#     4  10  22  35  52  75 105 135 177 217 257 301
#     4   9  21  30  54  68 104 138 172 205 256 295
#     4  10  21  32  46  71 102 138 182 200 238 307
#     4  10  20  30  46  67 103 134 170 199 242 295
#     4  11  21  32  47  72 107 142 170 203 243 304
#     4  10  19  30  47  73 101 132 170 196 244 318
#     4  10  21  32  54  73 106 138 168 206 267 297
#
# _framework density 16.847124000000001
#
# number of rings (size 3 to 8) (size 9 to 14) (size 15 to 20)
#    0.857    1.143    0.000    5.571   10.000    0.000 
#    0.000    0.000    0.000    0.000    0.000    0.000 
#    0.000   22.857    0.000    0.000    0.000    0.000 
#
# Total GULP energy -173449.568422 kJ/mol
# GULP energy per Si atom -12389.254887 kJ/mol
# Density = 1.680878 g / cm^3
# Si number density = 16.847124 Si / 1000 Ang^3
#
#
#
# Elastic Constant Matrix: (Units=GPa)
#
#
# Indices 1 2 3 4 5 6 
#
# 1 156.5823 36.0133 27.7366 6.5455 9.5094 -5.8369
# 2 36.0133 94.1632 24.3400 3.9659 -3.3797 -0.0403
# 3 27.7366 24.3400 65.8083 11.6450 -5.7672 2.1425
# 4 6.5455 3.9659 11.6450 17.2343 3.1664 -2.1927
# 5 9.5094 -3.3797 -5.7672 3.1664 17.0924 4.7824
# 6 -5.8369 -0.0403 2.1425 -2.1927 4.7824 29.1926
#
#
#
# Elastic Compliance Matrix: (Units=1/GPa)
#
#
# Indices 1 2 3 4 5 6 
#
# 1 0.008088 -0.002516 -0.003523 0.001653 -0.007390 0.003207
# 2 -0.002516 0.012539 -0.003203 -0.000436 0.003101 -0.000792
# 3 -0.003523 -0.003203 0.022050 -0.016000 0.013329 -0.005713
# 4 0.001653 -0.000436 -0.016000 0.073939 -0.023137 0.010848
# 5 -0.007390 0.003101 0.013329 -0.023137 0.076702 -0.016755
# 6 0.003207 -0.000792 -0.005713 0.010848 -0.016755 0.038874
#
#
# Mechanical properties :
#
#
# Convention : Reuss Voigt Hill
#
# Bulk Modulus (GPa) = 41.33159 54.74818 48.03989
# Shear Modulus (GPa) = 19.32429 27.93477 23.62953
#
# Velocity S-wave (km/s) = 3.39047 4.07644 3.74917
# Velocity P-wave (km/s) = 6.31772 7.39757 6.87887
#
# Compressibility (1/GPa) = 0.02419457
#
# Stress axis : x y z
#
# Youngs Moduli (GPa) = 123.63283 79.74863 45.35065
#
# Poissons Ratio (x) = 0.20067 0.15977
# Poissons Ratio (y) = 0.31110 0.14524
# Poissons Ratio (z) = 0.43556 0.25540
#
# Static dielectric constant tensor:
#      x y z
#    x 9.571800 0.064600 0.625440 
#    y 0.064600 3.353250 -0.104040 
#    z 0.625440 -0.104040 2.738530 
# 
# 
# High freq. dielectric constant tensor:
#      x y z
#    x 1.683960 0.001060 0.004440 
#    y 0.001060 1.640210 0.002850 
#    z 0.004440 0.002850 1.579230 
# 
# From -- ./inp_files/75476.got.cif
#   From: 2010.06.25/outbox.cif.g09.slc.cpg/sg2_38_cif.got.tgz:75476.got - 2010.06.27 13:26:56.
