data_PCOD8041751
_publ_section_title
;
Structure prediction by ZEFSAII (Michael W. Deem and Ramdas Pophale) SiO2 
 PCOD8041751
Probable space group: P -1
;
_chemical_formula_sum "Si O2"
_cell_formula_units_Z 16
_cell_length_a 15.961099
_cell_length_b 31.575885
_cell_length_c 9.645633
_cell_angle_alpha 148.511657
_cell_angle_beta 139.400343
_cell_angle_gamma 18.092245
_cell_volume 748.040777
_symmetry_space_group_name_H-M "P -1"
_symmetry_group_IT_number 2
_symmetry_cell_setting 'triclinic'
loop_
_space_group_symop_operation_xyz
x,y,z
-x,-y,-z
loop_
_atom_site_type_symbol
_atom_site_label
_atom_site_fract_x
_atom_site_fract_y
_atom_site_fract_z
Si Si1 0.003770 0.593695 0.270718
Si Si2 0.378478 0.777281 0.924399
Si Si3 0.902301 0.319595 0.908963
Si Si4 0.019144 0.078037 0.683097
Si Si5 0.830331 0.397188 0.736316
Si Si6 0.201639 0.757572 0.862652
Si Si7 0.403628 0.927558 0.528169
Si Si8 0.398182 0.669912 0.391766
O O1 0.729962 0.775131 0.524395
O O2 0.314308 0.442117 0.296446
O O3 0.971734 0.654552 0.250820
O O4 0.000000 0.500000 0.000000
O O5 0.162953 0.855975 0.983798
O O6 0.297987 0.802207 0.732519
O O7 0.381677 0.872162 0.221691
O O8 0.944870 0.344196 0.888199
O O9 0.696073 0.359046 0.728766
O O10 0.738977 0.471761 0.236617
O O11 0.204385 0.117519 0.781609
O O12 0.763896 0.236126 0.696136
O O13 0.008068 0.135914 0.972365
O O14 0.000000 0.000000 0.500000
O O15 0.317476 0.931888 0.575446
O O16 0.503871 0.604385 0.887410
O O17 0.854214 0.290346 0.428484
#
# Coordination Sequence:
#
# PCOD8041751 Si02
#       8
#     2   2   2   2   2   2   2   2
#     4   9  21  38  58  81 109 159 196 227 278 348
#     4  10  19  38  61  82 115 150 193 238 276 344
#     4  10  20  34  55  86 121 148 182 239 290 342
#     4  11  21  35  58  87 120 147 184 243 289 338
#     4  10  19  34  60  80 114 149 190 235 278 346
#     4  10  19  33  57  91 108 143 195 233 289 325
#     4  10  22  36  57  84 117 153 192 228 286 344
#     4  10  21  34  55  87 119 146 186 234 299 330
#
# _framework density 21.389208
#
# number of rings (size 3 to 8) (size 9 to 14) (size 15 to 20)
#    0.000    2.000    3.750    0.000    0.000    3.500 
#    0.000    2.500    0.000    6.750    0.000    0.000 
#    0.000    0.000    0.000    0.000    0.000    0.000 
#
# Total GULP energy -198211.799907 kJ/mol
# GULP energy per Si atom -12388.237494 kJ/mol
# Density = 2.134053 g / cm^3
# Si number density = 21.389208 Si / 1000 Ang^3
#
#
#
# Elastic Constant Matrix: (Units=GPa)
#
#
# Indices 1 2 3 4 5 6 
#
# 1 125.9727 27.8476 13.9132 12.2222 -17.4764 -2.5545
# 2 27.8476 45.7845 2.8100 16.4374 -14.8044 -3.3369
# 3 13.9132 2.8100 57.7900 5.8928 -26.1085 6.6768
# 4 12.2222 16.4374 5.8928 26.7618 -1.2800 -6.3271
# 5 -17.4764 -14.8044 -26.1085 -1.2800 38.5801 6.0321
# 6 -2.5545 -3.3369 6.6768 -6.3271 6.0321 27.3353
#
#
#
# Elastic Compliance Matrix: (Units=1/GPa)
#
#
# Indices 1 2 3 4 5 6 
#
# 1 0.009452 -0.004798 -0.001230 -0.001021 0.001572 0.000015
# 2 -0.004798 0.040335 0.013595 -0.026875 0.023206 -0.010187
# 3 -0.001230 0.013595 0.034452 -0.018122 0.030144 -0.017717
# 4 -0.001021 -0.026875 -0.018122 0.062081 -0.024226 0.020765
# 5 0.001572 0.023206 0.030144 -0.024226 0.058721 -0.022948
# 6 0.000015 -0.010187 -0.017717 0.020765 -0.022948 0.049538
#
#
# Mechanical properties :
#
#
# Convention : Reuss Voigt Hill
#
# Bulk Modulus (GPa) = 10.06296 35.40988 22.73642
# Shear Modulus (GPa) = 18.34405 30.86719 24.60562
#
# Velocity S-wave (km/s) = 2.93171 3.80296 3.39540
# Velocity P-wave (km/s) = 4.02179 5.98952 5.10143
#
# Compressibility (1/GPa) = 0.09937433
#
# Stress axis : x y z
#
# Youngs Moduli (GPa) = 105.79693 24.79246 29.02588
#
# Poissons Ratio (x) = 0.11895 0.03569
# Poissons Ratio (y) = 0.50758 -0.39461
# Poissons Ratio (z) = 0.13009 -0.33705
#
# Static dielectric constant tensor:
#      x y z
#    x 1.238940 -0.161160 2.823550 
#    y -0.161160 3.786610 0.555240 
#    z 2.823550 0.555240 0.562010 
# 
# 
# High freq. dielectric constant tensor:
#      x y z
#    x 1.842430 0.011200 -0.014510 
#    y 0.011200 1.801220 0.025230 
#    z -0.014510 0.025230 1.837260 
# 
# From -- ./inp_files/252672.got.cif
#   From: 2010.06.25/outbox.cif.g09.slc.cpg/sg2_127_cif.got.tgz:252672.got - 2010.06.27 13:26:56.
