data_PCOD8041756
_publ_section_title
;
Structure prediction by ZEFSAII (Michael W. Deem and Ramdas Pophale) SiO2 
 PCOD8041756
Probable space group: P -1
;
_chemical_formula_sum "Si O2"
_cell_formula_units_Z 16
_cell_length_a 12.215098
_cell_length_b 14.987442
_cell_length_c 11.071488
_cell_angle_alpha 61.981241
_cell_angle_beta 48.955174
_cell_angle_gamma 31.719431
_cell_volume 783.299523
_symmetry_space_group_name_H-M "P -1"
_symmetry_group_IT_number 2
_symmetry_cell_setting 'triclinic'
loop_
_space_group_symop_operation_xyz
x,y,z
-x,-y,-z
loop_
_atom_site_type_symbol
_atom_site_label
_atom_site_fract_x
_atom_site_fract_y
_atom_site_fract_z
Si Si1 0.974445 0.511416 0.369433
Si Si2 0.877697 0.677093 0.981931
Si Si3 0.748613 0.434569 0.495939
Si Si4 0.148529 0.986117 0.250847
Si Si5 0.385800 0.142087 0.711584
Si Si6 0.579226 0.831954 0.869926
Si Si7 0.874049 0.950897 0.505059
Si Si8 0.259253 0.617966 0.730579
O O1 0.251202 0.341840 0.219466
O O2 0.000000 0.500000 0.500000
O O3 0.789753 0.524456 0.457226
O O4 0.854324 0.687310 0.301870
O O5 0.649274 0.804388 0.158314
O O6 0.769673 0.774912 0.867312
O O7 0.000000 0.500000 0.000000
O O8 0.084211 0.636775 0.914893
O O9 0.514119 0.508571 0.683226
O O10 0.674150 0.479030 0.380396
O O11 0.000723 0.229726 0.461590
O O12 0.063423 0.920133 0.321568
O O13 0.225683 0.948161 0.359147
O O14 0.368097 0.891732 0.059874
O O15 0.898514 0.192036 0.290985
O O16 0.448562 0.986071 0.774662
O O17 0.624349 0.068679 0.533595
#
# Coordination Sequence:
#
# PCOD8041756 Si02
#       8
#     2   2   2   2   2   2   2   2
#     4  12  27  45  65  91 125 175 229 270 311 378
#     4  12  21  33  62 100 133 164 201 260 336 391
#     4  10  20  37  58  89 130 162 209 260 315 383
#     4  10  20  32  57  95 137 166 195 251 329 401
#     4  12  22  39  66  91 127 168 209 268 329 382
#     4  12  22  40  62  96 134 163 217 266 320 389
#     4  10  20  33  59  95 132 169 198 250 330 394
#     4  10  19  33  57  92 130 161 195 259 328 388
#
# _framework density 20.426414000000001
#
# number of rings (size 3 to 8) (size 9 to 14) (size 15 to 20)
#    0.000    1.000    6.250    1.875    1.750    2.500 
#    0.000    0.000    0.000    6.000    0.000    0.000 
#    0.000    0.000    0.000    0.000    0.000    0.000 
#
# Total GULP energy -198226.699300 kJ/mol
# GULP energy per Si atom -12389.168706 kJ/mol
# Density = 2.037992 g / cm^3
# Si number density = 20.426414 Si / 1000 Ang^3
#
#
#
# Elastic Constant Matrix: (Units=GPa)
#
#
# Indices 1 2 3 4 5 6 
#
# 1 47.4301 22.3034 40.3505 0.5932 -4.0443 -3.7894
# 2 22.3034 119.2818 41.2315 -7.9017 -0.0428 -5.6532
# 3 40.3505 41.2315 109.2863 7.5340 -19.4633 -7.1541
# 4 0.5932 -7.9017 7.5340 37.1579 -0.4466 -5.7790
# 5 -4.0443 -0.0428 -19.4633 -0.4466 36.4578 -4.2903
# 6 -3.7894 -5.6532 -7.1541 -5.7790 -4.2903 13.4870
#
#
#
# Elastic Compliance Matrix: (Units=1/GPa)
#
#
# Indices 1 2 3 4 5 6 
#
# 1 0.031533 -0.001751 -0.011375 0.001729 -0.002309 0.002099
# 2 -0.001751 0.010311 -0.003600 0.003367 -0.001732 0.002812
# 3 -0.011375 -0.003600 0.016755 -0.003022 0.008292 0.005526
# 4 0.001729 0.003367 -0.003022 0.030312 0.000537 0.013453
# 5 -0.002309 -0.001732 0.008292 0.000537 0.033231 0.013825
# 6 0.002099 0.002812 0.005526 0.013453 0.013825 0.089007
#
#
# Mechanical properties :
#
#
# Convention : Reuss Voigt Hill
#
# Bulk Modulus (GPa) = 39.76566 53.75213 46.75889
# Shear Modulus (GPa) = 19.76399 28.89473 24.32936
#
# Velocity S-wave (km/s) = 3.11395 3.76517 3.45494
# Velocity P-wave (km/s) = 5.69552 6.72860 6.23350
#
# Compressibility (1/GPa) = 0.02514733
#
# Stress axis : x y z
#
# Youngs Moduli (GPa) = 31.71232 96.98333 59.68278
#
# Poissons Ratio (x) = 0.16982 0.67890
# Poissons Ratio (y) = 0.05553 0.21487
# Poissons Ratio (z) = 0.36073 0.34915
#
# Static dielectric constant tensor:
#      x y z
#    x 3.303670 -0.010630 -0.394370 
#    y -0.010630 3.882850 0.178380 
#    z -0.394370 0.178380 3.819330 
# 
# 
# High freq. dielectric constant tensor:
#      x y z
#    x 1.736300 0.006520 -0.042490 
#    y 0.006520 1.817140 0.014860 
#    z -0.042490 0.014860 1.793910 
# 
# From -- ./inp_files/333659.got.cif
#   From: 2010.06.25/outbox.cif.g09.slc.cpg/sg2_167_cif.got.tgz:333659.got - 2010.06.27 13:26:56.
