data_PCOD8041309
_publ_section_title
;
Structure prediction by ZEFSAII (Michael W. Deem and Ramdas Pophale) SiO2 
 PCOD8041309
Probable space group: P -1
;
_chemical_formula_sum "Si O2"
_cell_formula_units_Z 12
_cell_length_a 11.221001
_cell_length_b 9.908204
_cell_length_c 9.198353
_cell_angle_alpha 43.053746
_cell_angle_beta 93.665820
_cell_angle_gamma 64.889193
_cell_volume 503.324000
_symmetry_space_group_name_H-M "P -1"
_symmetry_group_IT_number 2
_symmetry_cell_setting 'triclinic'
loop_
_space_group_symop_operation_xyz
x,y,z
-x,-y,-z
loop_
_atom_site_type_symbol
_atom_site_label
_atom_site_fract_x
_atom_site_fract_y
_atom_site_fract_z
Si Si1 0.450126 0.790019 0.737882
Si Si2 0.961169 0.312802 0.102437
Si Si3 0.776737 0.254687 0.342669
Si Si4 0.182508 0.440640 0.684604
Si Si5 0.161623 0.344226 0.447441
Si Si6 0.311268 0.169193 0.178364
O O1 0.303524 0.050577 0.617071
O O2 0.444350 0.887674 0.495367
O O3 0.406638 0.604539 0.845328
O O4 0.625434 0.669708 0.915170
O O5 0.884982 0.200595 0.255250
O O6 0.903496 0.404369 0.859322
O O7 0.883588 0.591686 0.969799
O O8 0.157019 0.038042 0.358277
O O9 0.776592 0.392224 0.377585
O O10 0.237056 0.361700 0.583878
O O11 0.986625 0.629737 0.537166
O O12 0.292240 0.156195 0.014152
#
# Coordination Sequence:
#
# PCOD8041309 Si02
#       6
#     2   2   2   2   2   2
#     4  10  19  34  56  76  98 131 172 208 245 295
#     4   9  18  32  52  74 101 130 166 206 247 291
#     4  10  19  32  53  78 100 128 169 213 247 286
#     4  10  21  34  51  76 104 133 166 205 252 296
#     4  10  20  35  52  73 104 137 165 201 250 304
#     4   9  19  34  54  76  99 133 170 204 247 301
#
# _framework density 23.841501000000001
#
# number of rings (size 3 to 8) (size 9 to 14) (size 15 to 20)
#    0.000    2.333    0.000    4.000    0.000    8.667 
#    0.000    1.667    0.000   10.000    0.000    0.000 
#    0.000    0.000    0.000    0.000    0.000    0.000 
#
# Total GULP energy -148683.676897 kJ/mol
# GULP energy per Si atom -12390.306408 kJ/mol
# Density = 2.378724 g / cm^3
# Si number density = 23.841501 Si / 1000 Ang^3
#
#
#
# Elastic Constant Matrix: (Units=GPa)
#
#
# Indices 1 2 3 4 5 6 
#
# 1 58.7638 36.7684 23.3708 6.2028 12.6322 26.2116
# 2 36.7684 126.6276 64.2311 38.3923 1.5232 21.2497
# 3 23.3708 64.2311 115.1303 38.3921 13.3993 14.6601
# 4 6.2028 38.3923 38.3921 50.8606 2.7779 2.0278
# 5 12.6322 1.5232 13.3993 2.7779 39.9664 1.3168
# 6 26.2116 21.2497 14.6601 2.0278 1.3168 30.9062
#
#
#
# Elastic Compliance Matrix: (Units=1/GPa)
#
#
# Indices 1 2 3 4 5 6 
#
# 1 0.033360 -0.006304 0.000246 0.001985 -0.009740 -0.023790
# 2 -0.006304 0.014446 -0.004693 -0.006704 0.003550 -0.002071
# 3 0.000246 -0.004693 0.014512 -0.007086 -0.004166 -0.003223
# 4 0.001985 -0.006704 -0.007086 0.029666 -0.000201 0.004349
# 5 -0.009740 0.003550 -0.004166 -0.000201 0.029159 0.006567
# 6 -0.023790 -0.002071 -0.003223 0.004349 0.006567 0.054920
#
#
# Mechanical properties :
#
#
# Convention : Reuss Voigt Hill
#
# Bulk Modulus (GPa) = 24.50034 61.02915 42.76475
# Shear Modulus (GPa) = 23.67759 36.09006 29.88383
#
# Velocity S-wave (km/s) = 3.15481 3.89491 3.54423
# Velocity P-wave (km/s) = 4.85480 6.77352 5.89278
#
# Compressibility (1/GPa) = 0.04081576
#
# Stress axis : x y z
#
# Youngs Moduli (GPa) = 29.97646 69.22454 68.90626
#
# Poissons Ratio (x) = 0.43636 -0.01696
# Poissons Ratio (y) = 0.18896 0.32341
# Poissons Ratio (z) = -0.00738 0.32490
#
# Static dielectric constant tensor:
#      x y z
#    x 4.889990 0.146580 0.013410 
#    y 0.146580 3.892870 0.123120 
#    z 0.013410 0.123120 5.025310 
# 
# 
# High freq. dielectric constant tensor:
#      x y z
#    x 1.990340 0.022300 0.007140 
#    y 0.022300 1.887760 0.001500 
#    z 0.007140 0.001500 2.003520 
# 
# From -- ./inp_files/148274.got.cif
#   From: 2010.06.25/outbox.cif.g09.slc.cpg/sg2_75_cif.got.tgz:148274.got - 2010.06.27 13:26:56.
