data_PCOD8041607
_publ_section_title
;
Structure prediction by ZEFSAII (Michael W. Deem and Ramdas Pophale) SiO2 
 PCOD8041607
Probable space group: P -1
;
_chemical_formula_sum "Si O2"
_cell_formula_units_Z 16
_cell_length_a 9.787350
_cell_length_b 12.602190
_cell_length_c 11.996819
_cell_angle_alpha 118.480542
_cell_angle_beta 127.418597
_cell_angle_gamma 42.137510
_cell_volume 787.505566
_symmetry_space_group_name_H-M "P -1"
_symmetry_group_IT_number 2
_symmetry_cell_setting 'triclinic'
loop_
_space_group_symop_operation_xyz
x,y,z
-x,-y,-z
loop_
_atom_site_type_symbol
_atom_site_label
_atom_site_fract_x
_atom_site_fract_y
_atom_site_fract_z
Si Si1 0.943609 0.212362 0.583473
Si Si2 0.639048 0.141807 0.452826
Si Si3 0.637296 0.698295 0.391699
Si Si4 0.366666 0.877587 0.137624
Si Si5 0.934518 0.101971 0.173089
Si Si6 0.860830 0.890950 0.143315
Si Si7 0.579872 0.908036 0.846699
Si Si8 0.072273 0.654161 0.572476
O O1 0.719097 0.233122 0.489161
O O2 0.895758 0.346940 0.546264
O O3 0.998817 0.230896 0.746432
O O4 0.154946 0.045167 0.550921
O O5 0.568098 0.179903 0.565530
O O6 0.420420 0.195476 0.300200
O O7 0.543849 0.736743 0.239002
O O8 0.737101 0.521961 0.377585
O O9 0.824648 0.716656 0.508739
O O10 0.488210 0.932855 0.162855
O O11 0.280432 0.818209 0.975453
O O12 0.154043 0.031425 0.173970
O O13 0.885015 0.235584 0.296136
O O14 0.982113 0.957953 0.195345
O O15 0.611490 0.043383 0.135644
O O16 0.822251 0.812448 0.982998
#
# Coordination Sequence:
#
# PCOD8041607 Si02
#       8
#     2   2   2   2   2   2   2   2
#     4  10  19  33  55  78 102 132 171 218 262 304
#     4  10  19  33  55  78 102 132 171 217 263 305
#     4  11  23  36  51  75 108 144 178 210 252 308
#     4  10  20  34  55  79 102 133 172 216 262 306
#     4  10  20  35  55  79 103 130 172 219 262 308
#     4   9  17  30  50  77 102 124 160 210 259 304
#     4   9  17  29  50  77 101 126 160 207 259 304
#     4  11  23  36  51  75 108 144 178 211 251 307
#
# _framework density 20.317316999999999
#
# number of rings (size 3 to 8) (size 9 to 14) (size 15 to 20)
#    0.000    2.000    0.000    6.000    0.000    2.500 
#    0.000    0.000    0.000    0.750    0.000    0.000 
#    0.000    6.000    0.000    0.000    0.000    0.000 
#
# Total GULP energy -198352.949312 kJ/mol
# GULP energy per Si atom -12397.059332 kJ/mol
# Density = 2.027107 g / cm^3
# Si number density = 20.317317 Si / 1000 Ang^3
#
#
#
# Elastic Constant Matrix: (Units=GPa)
#
#
# Indices 1 2 3 4 5 6 
#
# 1 91.8576 22.7017 34.8620 -6.7670 -3.1492 13.8377
# 2 22.7017 39.3665 47.1446 -19.7752 -1.8153 12.6436
# 3 34.8620 47.1446 154.8232 -16.4726 -0.4154 16.8380
# 4 -6.7670 -19.7752 -16.4726 24.4553 8.6777 -4.8038
# 5 -3.1492 -1.8153 -0.4154 8.6777 34.5841 -3.5026
# 6 13.8377 12.6436 16.8380 -4.8038 -3.5026 20.6374
#
#
#
# Elastic Compliance Matrix: (Units=1/GPa)
#
#
# Indices 1 2 3 4 5 6 
#
# 1 0.013430 -0.007502 -0.000685 -0.004215 0.001413 -0.004591
# 2 -0.007502 0.080828 -0.014896 0.053260 -0.012212 -0.022012
# 3 -0.000685 -0.014896 0.010605 -0.005347 0.000604 -0.000209
# 4 -0.004215 0.053260 -0.005347 0.084404 -0.019757 -0.009148
# 5 0.001413 -0.012212 0.000604 -0.019757 0.034100 0.007230
# 6 -0.004591 -0.022012 -0.000209 -0.009148 0.007230 0.064288
#
#
# Mechanical properties :
#
#
# Convention : Reuss Voigt Hill
#
# Bulk Modulus (GPa) = 17.03651 55.05156 36.04404
# Shear Modulus (GPa) = 14.14888 28.02463 21.08676
#
# Velocity S-wave (km/s) = 2.64179 3.71799 3.22510
# Velocity P-wave (km/s) = 4.20819 6.75173 5.62560
#
# Compressibility (1/GPa) = 0.05869746
#
# Stress axis : x y z
#
# Youngs Moduli (GPa) = 74.46013 12.37199 94.29957
#
# Poissons Ratio (x) = 0.09281 0.06460
# Poissons Ratio (y) = 0.55859 1.40464
# Poissons Ratio (z) = 0.05101 0.18429
#
# Static dielectric constant tensor:
#      x y z
#    x 3.866140 0.158640 0.011990 
#    y 0.158640 3.012940 -0.156070 
#    z 0.011990 -0.156070 4.209010 
# 
# 
# High freq. dielectric constant tensor:
#      x y z
#    x 1.817640 0.016710 0.001500 
#    y 0.016710 1.715380 -0.015780 
#    z 0.001500 -0.015780 1.818500 
# 
# From -- ./inp_files/271216.got.cif
#   From: 2010.06.25/outbox.cif.g09.slc.cpg/sg2_136_cif.got.tgz:271216.got - 2010.06.27 13:26:56.
