data_PCOD8041088
_publ_section_title
;
Structure prediction by ZEFSAII (Michael W. Deem and Ramdas Pophale) SiO2 
 PCOD8041088
Probable space group: P -1
;
_chemical_formula_sum "Si O2"
_cell_formula_units_Z 16
_cell_length_a 12.594348
_cell_length_b 13.442490
_cell_length_c 7.839456
_cell_angle_alpha 126.674651
_cell_angle_beta 50.641709
_cell_angle_gamma 129.565535
_cell_volume 748.322554
_symmetry_space_group_name_H-M "P -1"
_symmetry_group_IT_number 2
_symmetry_cell_setting 'triclinic'
loop_
_space_group_symop_operation_xyz
x,y,z
-x,-y,-z
loop_
_atom_site_type_symbol
_atom_site_label
_atom_site_fract_x
_atom_site_fract_y
_atom_site_fract_z
Si Si1 0.716741 0.630033 0.113850
Si Si2 0.568728 0.336314 0.070139
Si Si3 0.489322 0.142417 0.646919
Si Si4 0.567989 0.328732 0.448162
Si Si5 0.978585 0.140238 0.480600
Si Si6 0.027706 0.867037 0.152073
Si Si7 0.715925 0.622380 0.704907
Si Si8 0.156492 0.978282 0.817698
O O1 0.703999 0.483157 0.040320
O O2 0.591561 0.662203 0.370901
O O3 0.875490 0.746054 0.121902
O O4 0.687096 0.624094 0.936762
O O5 0.591045 0.289391 0.190097
O O6 0.408520 0.345483 0.235445
O O7 0.572334 0.228798 0.816228
O O8 0.568336 0.215915 0.466920
O O9 0.500000 0.000000 0.500000
O O10 0.310469 0.116423 0.802653
O O11 0.701698 0.473495 0.511545
O O12 0.846919 0.106653 0.437977
O O13 0.923284 0.170271 0.752368
O O14 0.121131 0.270484 0.405722
O O15 0.016389 0.010304 0.328817
O O16 0.153260 0.889882 0.899997
O O17 0.000000 0.000000 0.000000
#
# Coordination Sequence:
#
# PCOD8041088 Si02
#       8
#     2   2   2   2   2   2   2   2
#     4  11  18  33  59  91 123 154 194 256 312 353
#     4  11  21  36  58  85 120 160 202 249 303 361
#     4  12  26  42  60  88 123 163 205 247 300 361
#     4  11  21  36  58  85 120 160 202 249 303 361
#     4  10  19  30  50  83 119 149 183 233 295 357
#     4  10  19  30  50  83 119 149 183 233 295 357
#     4  11  18  33  59  91 123 154 194 256 312 353
#     4  10  20  35  58  82 114 152 195 241 294 349
#
# _framework density 21.381153999999999
#
# number of rings (size 3 to 8) (size 9 to 14) (size 15 to 20)
#    0.000    1.250    3.750    6.750    0.000    3.500 
#    0.000    0.000    0.000    3.000    0.000    3.500 
#    0.000    0.000    0.000    0.000    0.000    0.000 
#
# Total GULP energy -198274.665908 kJ/mol
# GULP energy per Si atom -12392.166619 kJ/mol
# Density = 2.133249 g / cm^3
# Si number density = 21.381154 Si / 1000 Ang^3
#
#
#
# Elastic Constant Matrix: (Units=GPa)
#
#
# Indices 1 2 3 4 5 6 
#
# 1 54.6812 34.8705 51.0653 -1.8520 37.6896 -8.3912
# 2 34.8705 154.7655 40.4031 3.1134 22.7464 -4.4857
# 3 51.0653 40.4031 69.6034 -11.3248 45.6426 -24.4023
# 4 -1.8520 3.1134 -11.3248 31.6325 -14.6303 3.0666
# 5 37.6896 22.7464 45.6426 -14.6303 49.3020 -5.6979
# 6 -8.3912 -4.4857 -24.4023 3.0666 -5.6979 31.2603
#
#
#
# Elastic Compliance Matrix: (Units=1/GPa)
#
#
# Indices 1 2 3 4 5 6 
#
# 1 0.086955 0.000357 -0.073083 -0.022247 -0.009418 -0.033192
# 2 0.000357 0.008254 -0.009657 -0.002048 0.003628 -0.005396
# 3 -0.073083 -0.009657 0.138502 0.013399 -0.055167 0.075744
# 4 -0.022247 -0.002048 0.013399 0.043731 0.018912 0.003351
# 5 -0.009418 0.003628 -0.055167 0.018912 0.078727 -0.032577
# 6 -0.033192 -0.005396 0.075744 0.003351 -0.032577 0.075166
#
#
# Mechanical properties :
#
#
# Convention : Reuss Voigt Hill
#
# Bulk Modulus (GPa) = 14.50467 59.08089 36.79278
# Shear Modulus (GPa) = 8.07647 32.61970 20.34808
#
# Velocity S-wave (km/s) = 1.94566 3.91017 3.08828
# Velocity P-wave (km/s) = 3.44180 6.93384 5.47376
#
# Compressibility (1/GPa) = 0.06894329
#
# Stress axis : x y z
#
# Youngs Moduli (GPa) = 11.50019 121.15959 7.22012
#
# Poissons Ratio (x) = -0.04323 0.52767
# Poissons Ratio (y) = -0.00410 0.06972
# Poissons Ratio (z) = 0.84047 1.17003
#
# Static dielectric constant tensor:
#      x y z
#    x 4.080230 -0.167140 1.194470 
#    y -0.167140 4.347290 -0.373190 
#    z 1.194470 -0.373190 4.440810 
# 
# 
# High freq. dielectric constant tensor:
#      x y z
#    x 1.803060 0.004510 0.062690 
#    y 0.004510 1.864320 -0.009220 
#    z 0.062690 -0.009220 1.818770 
# 
# From -- ./inp_files/314099.got.cif
#   From: 2010.06.25/outbox.cif.g09.slc.cpg/sg2_158_cif.got.tgz:314099.got - 2010.06.27 13:26:56.
