data_PCOD8041260
_publ_section_title
;
Structure prediction by ZEFSAII (Michael W. Deem and Ramdas Pophale) SiO2 
 PCOD8041260
Probable space group: P -1
;
_chemical_formula_sum "Si O2"
_cell_formula_units_Z 16
_cell_length_a 13.840776
_cell_length_b 14.819408
_cell_length_c 15.178259
_cell_angle_alpha 18.999422
_cell_angle_beta 71.812177
_cell_angle_gamma 79.594388
_cell_volume 894.477109
_symmetry_space_group_name_H-M "P -1"
_symmetry_group_IT_number 2
_symmetry_cell_setting 'triclinic'
loop_
_space_group_symop_operation_xyz
x,y,z
-x,-y,-z
loop_
_atom_site_type_symbol
_atom_site_label
_atom_site_fract_x
_atom_site_fract_y
_atom_site_fract_z
Si Si1 0.943956 0.245160 0.679587
Si Si2 0.565859 0.671814 0.958440
Si Si3 0.470036 0.797392 0.456628
Si Si4 0.595298 0.292766 0.162916
Si Si5 0.562651 0.288435 0.658791
Si Si6 0.196812 0.414115 0.612413
Si Si7 0.711479 0.076378 0.196639
Si Si8 0.174541 0.365764 0.459003
O O1 0.868735 0.382900 0.518304
O O2 0.000000 0.500000 0.500000
O O3 0.042528 0.194083 0.646283
O O4 0.867104 0.933804 0.030059
O O5 0.449791 0.564996 0.037295
O O6 0.599821 0.025752 0.638494
O O7 0.557940 0.522411 0.194526
O O8 0.642340 0.555223 0.981401
O O9 0.439000 0.779189 0.381147
O O10 0.599301 0.973262 0.268204
O O11 0.692167 0.194565 0.189440
O O12 0.500000 0.000000 0.500000
O O13 0.500000 0.500000 0.500000
O O14 0.687335 0.460875 0.489619
O O15 0.500000 0.000000 0.000000
O O16 0.214673 0.448816 0.470729
O O17 0.760092 0.819812 0.433182
O O18 0.800908 0.331629 0.880351
#
# Coordination Sequence:
#
# PCOD8041260 Si02
#       8
#     2   2   2   2   2   2   2   2
#     4  10  20  36  56  74 100 138 183 229 266 323
#     4  10  19  32  50  68 100 143 179 213 246 320
#     4  11  21  34  49  73 106 147 182 211 255 308
#     4  10  19  32  50  73 106 144 179 203 271 328
#     4  12  24  38  54  79 113 146 188 228 257 312
#     4  11  21  37  56  73 105 149 181 217 270 305
#     4  11  20  29  49  75 109 139 162 214 265 320
#     4  11  20  32  49  78 103 132 178 214 269 316
#
# _framework density 17.887546
#
# number of rings (size 3 to 8) (size 9 to 14) (size 15 to 20)
#    0.000    1.250    2.500    8.250    1.750    0.000 
#    0.000    0.000    0.000    0.000    0.000    0.000 
#    0.000   20.000    0.000    0.000    0.000    0.000 
#
# Total GULP energy -198258.593677 kJ/mol
# GULP energy per Si atom -12391.162105 kJ/mol
# Density = 1.784683 g / cm^3
# Si number density = 17.887546 Si / 1000 Ang^3
#
#
#
# Elastic Constant Matrix: (Units=GPa)
#
#
# Indices 1 2 3 4 5 6 
#
# 1 96.9496 44.2147 24.2769 -2.5673 2.9403 -14.8338
# 2 44.2147 90.0160 9.6548 -8.5014 5.6033 -12.8169
# 3 24.2769 9.6548 87.3699 1.4792 9.1495 1.0850
# 4 -2.5673 -8.5014 1.4792 23.3832 -5.1277 10.7167
# 5 2.9403 5.6033 9.1495 -5.1277 31.3945 -0.7339
# 6 -14.8338 -12.8169 1.0850 10.7167 -0.7339 26.7802
#
#
#
# Elastic Compliance Matrix: (Units=1/GPa)
#
#
# Indices 1 2 3 4 5 6 
#
# 1 0.015061 -0.006398 -0.003540 -0.003505 0.000350 0.006836
# 2 -0.006398 0.014959 0.000200 0.003373 -0.001526 0.002216
# 3 -0.003540 0.000200 0.012832 -0.000967 -0.003651 -0.002098
# 4 -0.003505 0.003373 -0.000967 0.055815 0.008601 -0.022387
# 5 0.000350 -0.001526 -0.003651 0.008601 0.034494 -0.002885
# 6 0.006836 0.002216 -0.002098 -0.022387 -0.002885 0.051153
#
#
# Mechanical properties :
#
#
# Convention : Reuss Voigt Hill
#
# Bulk Modulus (GPa) = 42.77833 47.84756 45.31295
# Shear Modulus (GPa) = 23.63143 29.39085 26.51114
#
# Velocity S-wave (km/s) = 3.63865 4.05790 3.85398
# Velocity P-wave (km/s) = 6.45137 6.98302 6.72245
#
# Compressibility (1/GPa) = 0.02337632
#
# Stress axis : x y z
#
# Youngs Moduli (GPa) = 66.39483 66.84820 77.93038
#
# Poissons Ratio (x) = 0.42767 0.27590
# Poissons Ratio (y) = 0.42477 -0.01557
# Poissons Ratio (z) = 0.23506 -0.01336
#
# Static dielectric constant tensor:
#      x y z
#    x 3.486670 -0.372590 0.263660 
#    y -0.372590 3.537050 -0.090670 
#    z 0.263660 -0.090670 3.383650 
# 
# 
# High freq. dielectric constant tensor:
#      x y z
#    x 1.664620 -0.028550 0.033760 
#    y -0.028550 1.684640 -0.002590 
#    z 0.033760 -0.002590 1.701990 
# 
# From -- ./inp_files/533326.got.cif
#   From: 2010.06.25/outbox.cif.g09.slc.cpg/sg2_267_cif.got.tgz:533326.got - 2010.06.27 13:26:56.
