data_PCOD8041109
_publ_section_title
;
Structure prediction by ZEFSAII (Michael W. Deem and Ramdas Pophale) SiO2 
 PCOD8041109
Probable space group: P -1
;
_chemical_formula_sum "Si O2"
_cell_formula_units_Z 16
_cell_length_a 10.094678
_cell_length_b 16.643167
_cell_length_c 17.059266
_cell_angle_alpha 34.124614
_cell_angle_beta 43.705496
_cell_angle_gamma 32.767503
_cell_volume 866.823962
_symmetry_space_group_name_H-M "P -1"
_symmetry_group_IT_number 2
_symmetry_cell_setting 'triclinic'
loop_
_space_group_symop_operation_xyz
x,y,z
-x,-y,-z
loop_
_atom_site_type_symbol
_atom_site_label
_atom_site_fract_x
_atom_site_fract_y
_atom_site_fract_z
Si Si1 0.306634 0.657346 0.896031
Si Si2 0.732124 0.960058 0.887720
Si Si3 0.539746 0.417794 0.418166
Si Si4 0.311854 0.485783 0.872733
Si Si5 0.271864 0.931904 0.458324
Si Si6 0.671283 0.050863 0.400281
Si Si7 0.205456 0.742021 0.406157
Si Si8 0.246839 0.206350 0.148729
O O1 0.355091 0.562612 0.867834
O O2 0.399793 0.776985 0.758144
O O3 0.010788 0.789870 0.938299
O O4 0.500000 0.500000 0.000000
O O5 0.716227 0.908304 0.849505
O O6 0.683716 0.153101 0.747414
O O7 0.500000 0.000000 0.000000
O O8 0.552422 0.522444 0.256239
O O9 0.528217 0.263375 0.512156
O O10 0.302889 0.570914 0.446307
O O11 0.760337 0.317941 0.468560
O O12 0.030420 0.616582 0.862400
O O13 0.404398 0.279747 0.017562
O O14 0.312554 0.901506 0.556937
O O15 0.321003 0.072598 0.298433
O O16 0.000000 0.000000 0.500000
O O17 0.500000 0.000000 0.500000
O O18 0.922851 0.873952 0.402631
#
# Coordination Sequence:
#
# PCOD8041109 Si02
#       8
#     2   2   2   2   2   2   2   2
#     4  10  22  40  58  85 120 158 201 247 294 364
#     4  10  19  37  59  86 122 153 192 251 305 347
#     4  11  19  35  61  87 114 153 194 248 305 343
#     4  10  19  33  55  82 114 152 191 246 294 351
#     4  12  18  37  61  85 115 154 200 251 298 347
#     4  11  23  40  62  86 120 162 200 243 302 365
#     4  10  21  36  59  90 123 152 195 251 304 354
#     4  10  19  30  54  88 110 141 201 244 289 350
#
# _framework density 18.458188
#
# number of rings (size 3 to 8) (size 9 to 14) (size 15 to 20)
#    0.000    1.500    5.000    1.500    1.750    0.000 
#    6.750    0.625    2.750    2.250    0.000    0.000 
#    0.000    0.000    0.000    0.000    0.000    0.000 
#
# Total GULP energy -198213.405833 kJ/mol
# GULP energy per Si atom -12388.337865 kJ/mol
# Density = 1.841618 g / cm^3
# Si number density = 18.458188 Si / 1000 Ang^3
#
#
#
# Elastic Constant Matrix: (Units=GPa)
#
#
# Indices 1 2 3 4 5 6 
#
# 1 76.5151 36.6294 43.5262 -3.1313 -6.7352 -1.8555
# 2 36.6294 80.8337 43.2987 -12.8878 -3.9196 9.4105
# 3 43.5262 43.2987 141.6220 -12.8613 -7.1940 -11.3009
# 4 -3.1313 -12.8878 -12.8613 32.2391 4.7620 -1.1792
# 5 -6.7352 -3.9196 -7.1940 4.7620 33.6113 -3.4571
# 6 -1.8555 9.4105 -11.3009 -1.1792 -3.4571 22.4706
#
#
#
# Elastic Compliance Matrix: (Units=1/GPa)
#
#
# Indices 1 2 3 4 5 6 
#
# 1 0.018722 -0.007372 -0.003345 -0.002773 0.002903 0.003252
# 2 -0.007372 0.020159 -0.004403 0.005469 -0.002005 -0.011287
# 3 -0.003345 -0.004403 0.010258 0.002052 0.001447 0.007057
# 4 -0.002773 0.005469 0.002052 0.034389 -0.004388 -0.000358
# 5 0.002903 -0.002005 0.001447 -0.004388 0.031695 0.006453
# 6 0.003252 -0.011287 0.007057 -0.000358 0.006453 0.054021
#
#
# Mechanical properties :
#
#
# Convention : Reuss Voigt Hill
#
# Bulk Modulus (GPa) = 52.91349 60.65324 56.78336
# Shear Modulus (GPa) = 24.29711 29.36532 26.83122
#
# Velocity S-wave (km/s) = 3.63207 3.99295 3.81677
# Velocity P-wave (km/s) = 6.80574 7.36134 7.08899
#
# Compressibility (1/GPa) = 0.01889877
#
# Stress axis : x y z
#
# Youngs Moduli (GPa) = 53.41230 49.60502 97.48135
#
# Poissons Ratio (x) = 0.36569 0.32608
# Poissons Ratio (y) = 0.39376 0.42925
# Poissons Ratio (z) = 0.17867 0.21843
#
# Static dielectric constant tensor:
#      x y z
#    x 3.019090 0.174510 0.093790 
#    y 0.174510 3.529580 -0.127610 
#    z 0.093790 -0.127610 3.565910 
# 
# 
# High freq. dielectric constant tensor:
#      x y z
#    x 1.684960 0.027960 0.002140 
#    y 0.027960 1.716330 -0.013210 
#    z 0.002140 -0.013210 1.731410 
# 
# From -- ./inp_files/271528.got.cif
#   From: 2010.06.25/outbox.cif.g09.slc.cpg/sg2_136_cif.got.tgz:271528.got - 2010.06.27 13:26:56.
