data_PCOD8041654
_publ_section_title
;
Structure prediction by ZEFSAII (Michael W. Deem and Ramdas Pophale) SiO2 
 PCOD8041654
Probable space group: P -1
;
_chemical_formula_sum "Si O2"
_cell_formula_units_Z 16
_cell_length_a 21.551977
_cell_length_b 12.058262
_cell_length_c 21.397159
_cell_angle_alpha 152.180174
_cell_angle_beta 21.814107
_cell_angle_gamma 152.923252
_cell_volume 883.980915
_symmetry_space_group_name_H-M "P -1"
_symmetry_group_IT_number 2
_symmetry_cell_setting 'triclinic'
loop_
_space_group_symop_operation_xyz
x,y,z
-x,-y,-z
loop_
_atom_site_type_symbol
_atom_site_label
_atom_site_fract_x
_atom_site_fract_y
_atom_site_fract_z
Si Si1 0.529717 0.360361 0.526536
Si Si2 0.869196 0.715893 0.176123
Si Si3 0.036286 0.919676 0.833246
Si Si4 0.828984 0.578619 0.957864
Si Si5 0.609735 0.147392 0.529947
Si Si6 0.423810 0.385626 0.257248
Si Si7 0.900292 0.616858 0.237083
Si Si8 0.908284 0.117517 0.692796
O O1 0.348016 0.403168 0.696680
O O2 0.608227 0.521273 0.597262
O O3 0.690961 0.445621 0.367327
O O4 0.473056 0.049801 0.432932
O O5 0.892380 0.750279 0.245563
O O6 0.975664 0.004765 0.190208
O O7 0.969477 0.538738 0.967793
O O8 0.179352 0.791505 0.645512
O O9 0.854258 0.708593 0.929526
O O10 0.104284 0.195185 0.941348
O O11 0.937007 0.396936 0.777255
O O12 0.622912 0.392021 0.068856
O O13 0.596217 0.424739 0.683998
O O14 0.500000 0.000000 0.500000
O O15 0.297997 0.090353 0.211640
O O16 0.993675 0.845248 0.313296
O O17 0.000000 0.000000 0.500000
#
# Coordination Sequence:
#
# PCOD8041654 Si02
#       8
#     2   2   2   2   2   2   2   2
#     4  10  19  35  57  86 112 141 187 238 282 324
#     4  10  21  38  56  88 112 143 192 236 281 334
#     4  10  19  33  56  82 114 132 187 241 282 325
#     4  11  21  32  56  83 111 147 178 241 284 323
#     4   9  17  30  52  81 110 141 176 235 282 327
#     4  11  20  34  54  84 119 144 181 228 287 347
#     4  11  22  36  60  81 114 155 184 231 284 329
#     4  12  23  36  53  81 118 152 187 218 283 347
#
# _framework density 18.099938000000002
#
# number of rings (size 3 to 8) (size 9 to 14) (size 15 to 20)
#    0.000    1.500    6.250    1.500    3.500    0.000 
#    0.000    0.000    0.000    7.500    0.000    0.000 
#    0.000    0.000    0.000    0.000    0.000    0.000 
#
# Total GULP energy -198253.090874 kJ/mol
# GULP energy per Si atom -12390.818180 kJ/mol
# Density = 1.805874 g / cm^3
# Si number density = 18.099938 Si / 1000 Ang^3
#
#
#
# Elastic Constant Matrix: (Units=GPa)
#
#
# Indices 1 2 3 4 5 6 
#
# 1 109.3152 40.8459 37.6452 -4.6106 2.4200 -16.7356
# 2 40.8459 67.7661 9.9553 -27.3128 0.0237 -2.9864
# 3 37.6452 9.9553 77.6814 -17.0563 -3.3076 -3.3082
# 4 -4.6106 -27.3128 -17.0563 20.4375 -10.2342 7.6770
# 5 2.4200 0.0237 -3.3076 -10.2342 24.5975 1.1502
# 6 -16.7356 -2.9864 -3.3082 7.6770 1.1502 24.3804
#
#
#
# Elastic Compliance Matrix: (Units=1/GPa)
#
#
# Indices 1 2 3 4 5 6 
#
# 1 -0.001531 0.018441 0.009363 0.048407 0.022178 -0.013810
# 2 0.018441 -0.021483 -0.022681 -0.074140 -0.037189 0.032050
# 3 0.009363 -0.022681 0.001588 -0.043740 -0.019753 0.018569
# 4 0.048407 -0.074140 -0.043740 -0.134544 -0.069538 0.063858
# 5 0.022178 -0.037189 -0.019753 -0.069538 0.005535 0.029624
# 6 -0.013810 0.032050 0.018569 0.063858 0.029624 0.016477
#
#
# Mechanical properties :
#
#
# Convention : Reuss Voigt Hill
#
# Bulk Modulus (GPa) = -89.45277 47.96173 -20.74552
# Shear Modulus (GPa) = -33.79962 24.97080 -4.41441
#
# Velocity S-wave (km/s) = -4.32602 3.71834 -1.56339
# Velocity P-wave (km/s) = 8.63026 6.70750 3.83998
#
# Compressibility (1/GPa) = -0.01117908
#
# Stress axis : x y z
#
# Youngs Moduli (GPa) = -653.34226 -46.54839 629.61068
#
# Poissons Ratio (x) = 0.85839 -5.89513
# Poissons Ratio (y) = 12.04813 14.28005
# Poissons Ratio (z) = 6.11733 -1.05575
#
# Static dielectric constant tensor:
#      x y z
#    x 3.440240 -0.206460 -0.175310 
#    y -0.206460 3.809230 -0.113590 
#    z -0.175310 -0.113590 3.471250 
# 
# 
# High freq. dielectric constant tensor:
#      x y z
#    x 1.677370 -0.027900 -0.017990 
#    y -0.027900 1.692030 -0.015310 
#    z -0.017990 -0.015310 1.710090 
# 
# From -- ./inp_files/254695.got.cif
#   From: 2010.06.25/outbox.cif.g09.slc.cpg/sg2_128_cif.got.tgz:254695.got - 2010.06.27 13:26:56.
