data_PCOD8041539
_publ_section_title
;
Structure prediction by ZEFSAII (Michael W. Deem and Ramdas Pophale) SiO2 
 PCOD8041539
Probable space group: P -1
;
_chemical_formula_sum "Si O2"
_cell_formula_units_Z 16
_cell_length_a 11.163306
_cell_length_b 15.818099
_cell_length_c 13.639351
_cell_angle_alpha 55.335443
_cell_angle_beta 31.558738
_cell_angle_gamma 43.152506
_cell_volume 852.671685
_symmetry_space_group_name_H-M "P -1"
_symmetry_group_IT_number 2
_symmetry_cell_setting 'triclinic'
loop_
_space_group_symop_operation_xyz
x,y,z
-x,-y,-z
loop_
_atom_site_type_symbol
_atom_site_label
_atom_site_fract_x
_atom_site_fract_y
_atom_site_fract_z
Si Si1 0.036218 0.929313 0.770955
Si Si2 0.950120 0.127757 0.984248
Si Si3 0.482388 0.800542 0.052375
Si Si4 0.080287 0.555054 0.319991
Si Si5 0.134807 0.110991 0.278446
Si Si6 0.416186 0.824686 0.302241
Si Si7 0.359427 0.200994 0.638728
Si Si8 0.526517 0.356449 0.001472
O O1 0.324170 0.898400 0.548289
O O2 0.900605 0.883881 0.818543
O O3 0.093746 0.855524 0.879830
O O4 0.831433 0.079061 0.827414
O O5 0.215688 0.127945 0.771226
O O6 0.677413 0.242483 0.047890
O O7 0.000000 0.000000 0.000000
O O8 0.536958 0.761372 0.154477
O O9 0.702169 0.829001 0.843499
O O10 0.531495 0.685030 0.033172
O O11 0.230830 0.459221 0.188143
O O12 0.000000 0.500000 0.500000
O O13 0.791559 0.675069 0.403169
O O14 0.290050 0.590324 0.187276
O O15 0.838599 0.187250 0.488820
O O16 0.313810 0.968069 0.281142
O O17 0.648964 0.758024 0.269107
#
# Coordination Sequence:
#
# PCOD8041539 Si02
#       8
#     2   2   2   2   2   2   2   2
#     4  10  19  33  53  84 116 148 176 214 275 331
#     4  11  20  34  52  85 117 139 171 230 278 324
#     4  11  19  33  54  84 117 142 172 226 277 327
#     4  10  22  44  60  72 103 152 193 230 267 315
#     4   9  18  31  52  79 118 152 174 206 271 340
#     4   9  18  32  51  82 113 148 179 213 267 334
#     4  10  21  36  58  80 108 147 188 223 265 329
#     4  10  23  38  57  84 107 142 193 221 272 334
#
# _framework density 18.764548999999999
#
# number of rings (size 3 to 8) (size 9 to 14) (size 15 to 20)
#    0.000    2.000    1.250    4.500    0.000    1.500 
#    2.250    0.625    0.000    3.750    0.000    0.000 
#    0.000    0.000    0.000    0.000    0.000    0.000 
#
# Total GULP energy -198425.050119 kJ/mol
# GULP energy per Si atom -12401.565632 kJ/mol
# Density = 1.872184 g / cm^3
# Si number density = 18.764549 Si / 1000 Ang^3
#
#
#
# Elastic Constant Matrix: (Units=GPa)
#
#
# Indices 1 2 3 4 5 6 
#
# 1 101.0515 47.3225 48.9464 -12.8192 3.6156 4.4340
# 2 47.3225 78.9982 48.6981 -9.4807 -2.1392 13.6929
# 3 48.9464 48.6981 94.5141 -7.8369 -0.0429 5.7361
# 4 -12.8192 -9.4807 -7.8369 22.3513 -8.3042 6.0132
# 5 3.6156 -2.1392 -0.0429 -8.3042 28.6841 -2.6283
# 6 4.4340 13.6929 5.7361 6.0132 -2.6283 31.5514
#
#
#
# Elastic Compliance Matrix: (Units=1/GPa)
#
#
# Indices 1 2 3 4 5 6 
#
# 1 0.015511 -0.006062 -0.004587 0.004177 -0.001169 0.000392
# 2 -0.006062 0.023808 -0.007922 0.007780 0.003938 -0.009195
# 3 -0.004587 -0.007922 0.016946 -0.000331 0.000015 0.001066
# 4 0.004177 0.007780 -0.000331 0.060095 0.016168 -0.014010
# 5 -0.001169 0.003938 0.000015 0.016168 0.039864 -0.001308
# 6 0.000392 -0.009195 0.001066 -0.014010 -0.001308 0.037997
#
#
# Mechanical properties :
#
#
# Convention : Reuss Voigt Hill
#
# Bulk Modulus (GPa) = 52.29842 62.72199 57.51020
# Shear Modulus (GPa) = 21.03138 25.15715 23.09427
#
# Velocity S-wave (km/s) = 3.35147 3.66549 3.51200
# Velocity P-wave (km/s) = 6.55041 7.17027 6.86734
#
# Compressibility (1/GPa) = 0.01912104
#
# Stress axis : x y z
#
# Youngs Moduli (GPa) = 64.46879 42.00279 59.01117
#
# Poissons Ratio (x) = 0.25463 0.27070
# Poissons Ratio (y) = 0.39083 0.46752
# Poissons Ratio (z) = 0.29574 0.33277
#
# Static dielectric constant tensor:
#      x y z
#    x 3.611470 -0.115090 0.048690 
#    y -0.115090 3.205290 -0.052170 
#    z 0.048690 -0.052170 3.507190 
# 
# 
# High freq. dielectric constant tensor:
#      x y z
#    x 1.737530 -0.007770 0.001240 
#    y -0.007770 1.693510 -0.006110 
#    z 0.001240 -0.006110 1.738850 
# 
# From -- ./inp_files/455969.got.cif
#   From: 2010.06.25/outbox.cif.g09.slc.cpg/sg2_228_cif.got.tgz:455969.got - 2010.06.27 13:26:56.
