data_PCOD8041051
_publ_section_title
;
Structure prediction by ZEFSAII (Michael W. Deem and Ramdas Pophale) SiO2 
 PCOD8041051
Probable space group: P -1
;
_chemical_formula_sum "Si O2"
_cell_formula_units_Z 16
_cell_length_a 19.248599
_cell_length_b 14.991852
_cell_length_c 11.417901
_cell_angle_alpha 150.280100
_cell_angle_beta 38.287936
_cell_angle_gamma 145.399476
_cell_volume 898.395469
_symmetry_space_group_name_H-M "P -1"
_symmetry_group_IT_number 2
_symmetry_cell_setting 'triclinic'
loop_
_space_group_symop_operation_xyz
x,y,z
-x,-y,-z
loop_
_atom_site_type_symbol
_atom_site_label
_atom_site_fract_x
_atom_site_fract_y
_atom_site_fract_z
Si Si1 0.821782 0.597944 0.036444
Si Si2 0.496690 0.819974 0.374788
Si Si3 0.250580 0.496339 0.241069
Si Si4 0.070751 0.664972 0.692742
Si Si5 0.778174 0.921794 0.160089
Si Si6 0.486342 0.854422 0.693140
Si Si7 0.254900 0.073490 0.528296
Si Si8 0.322665 0.760224 0.011793
O O1 0.761945 0.497547 0.876213
O O2 0.747504 0.454556 0.077821
O O3 0.968405 0.643997 0.902785
O O4 0.812049 0.805958 0.305330
O O5 0.398573 0.608502 0.204785
O O6 0.635037 0.837644 0.210735
O O7 0.447412 0.828755 0.580328
O O8 0.500000 0.000000 0.500000
O O9 0.182571 0.615222 0.531787
O O10 0.187615 0.264656 0.105188
O O11 0.000000 0.500000 0.500000
O O12 0.126558 0.894666 0.835590
O O13 0.798282 0.004392 0.360124
O O14 0.592916 0.778819 0.491145
O O15 0.549933 0.094343 0.917807
O O16 0.361609 0.727763 0.792320
O O17 0.232760 0.873102 0.254751
#
# Coordination Sequence:
#
# PCOD8041051 Si02
#       8
#     2   2   2   2   2   2   2   2
#     4  10  19  29  51  73  98 131 164 195 244 290
#     4  11  18  32  56  73 103 131 160 204 250 299
#     4  10  20  32  49  75 104 132 163 200 250 295
#     4  10  20  31  46  74 102 136 166 199 242 291
#     4  10  19  32  48  75 105 129 163 201 248 299
#     4   8  18  31  49  73 100 126 159 200 253 290
#     4   8  16  29  46  71  97 125 156 200 242 288
#     4   9  16  33  48  69 104 123 160 205 243 291
#
# _framework density 17.809529000000001
#
# number of rings (size 3 to 8) (size 9 to 14) (size 15 to 20)
#    0.750    1.750    1.250    2.625    0.000    6.000 
#    0.000    0.000    0.000    0.750    0.000    1.750 
#    0.000    0.000    0.000    0.000    0.000    0.000 
#
# Total GULP energy -198251.415643 kJ/mol
# GULP energy per Si atom -12390.713478 kJ/mol
# Density = 1.776899 g / cm^3
# Si number density = 17.809529 Si / 1000 Ang^3
#
#
#
# Elastic Constant Matrix: (Units=GPa)
#
#
# Indices 1 2 3 4 5 6 
#
# 1 42.8526 31.3795 21.4914 -5.4101 -8.6196 -8.7040
# 2 31.3795 116.6834 27.2410 -3.4558 -6.5604 -17.3866
# 3 21.4914 27.2410 54.5841 -4.2061 -16.3711 -16.0170
# 4 -5.4101 -3.4558 -4.2061 26.8670 -0.7556 1.9386
# 5 -8.6196 -6.5604 -16.3711 -0.7556 27.0136 4.8954
# 6 -8.7040 -17.3866 -16.0170 1.9386 4.8954 23.5668
#
#
#
# Elastic Compliance Matrix: (Units=1/GPa)
#
#
# Indices 1 2 3 4 5 6 
#
# 1 0.033968 -0.006740 -0.008141 0.004763 0.004263 0.000763
# 2 -0.006740 0.011514 -0.002174 -0.000615 -0.001578 0.004907
# 3 -0.008141 -0.002174 0.030608 0.002282 0.013080 0.013288
# 4 0.004763 -0.000615 0.002282 0.038655 0.004046 -0.001164
# 5 0.004263 -0.001578 0.013080 0.004046 0.046148 -0.000619
# 6 0.000763 0.004907 0.013288 -0.001164 -0.000619 0.055589
#
#
# Mechanical properties :
#
#
# Convention : Reuss Voigt Hill
#
# Bulk Modulus (GPa) = 23.81996 41.59378 32.70687
# Shear Modulus (GPa) = 18.89745 24.42338 21.66041
#
# Velocity S-wave (km/s) = 3.26097 3.70721 3.49123
# Velocity P-wave (km/s) = 5.25190 6.45988 5.88695
#
# Compressibility (1/GPa) = 0.04198161
#
# Stress axis : x y z
#
# Youngs Moduli (GPa) = 29.43957 86.84785 32.67068
#
# Poissons Ratio (x) = 0.58535 0.26598
# Poissons Ratio (y) = 0.19842 0.07101
# Poissons Ratio (z) = 0.23967 0.18877
#
# Static dielectric constant tensor:
#      x y z
#    x 3.180310 0.113890 -0.328840 
#    y 0.113890 3.254080 -0.136440 
#    z -0.328840 -0.136440 3.356770 
# 
# 
# High freq. dielectric constant tensor:
#      x y z
#    x 1.649900 -0.001620 -0.027440 
#    y -0.001620 1.685300 -0.002630 
#    z -0.027440 -0.002630 1.678130 
# 
# From -- ./inp_files/471627.got.cif
#   From: 2010.06.25/outbox.cif.g09.slc.cpg/sg2_236_cif.got.tgz:471627.got - 2010.06.27 13:26:56.
