data_PCOD8041023
_publ_section_title
;
Structure prediction by ZEFSAII (Michael W. Deem and Ramdas Pophale) SiO2 
 PCOD8041023
Probable space group: P -1
;
_chemical_formula_sum "Si O2"
_cell_formula_units_Z 14
_cell_length_a 8.427514
_cell_length_b 20.186805
_cell_length_c 6.825589
_cell_angle_alpha 140.878451
_cell_angle_beta 73.126780
_cell_angle_gamma 118.997435
_cell_volume 633.033649
_symmetry_space_group_name_H-M "P -1"
_symmetry_group_IT_number 2
_symmetry_cell_setting 'triclinic'
loop_
_space_group_symop_operation_xyz
x,y,z
-x,-y,-z
loop_
_atom_site_type_symbol
_atom_site_label
_atom_site_fract_x
_atom_site_fract_y
_atom_site_fract_z
Si Si1 0.759194 0.771818 0.892437
Si Si2 0.156288 0.994772 0.792329
Si Si3 0.810795 0.388270 0.294680
Si Si4 0.455755 0.725912 0.194254
Si Si5 0.505811 0.981992 0.687269
Si Si6 0.872023 0.172457 0.919007
Si Si7 0.504933 0.382000 0.668050
O O1 0.688048 0.698307 0.550290
O O2 0.620694 0.716109 0.993627
O O3 0.953634 0.774357 0.880133
O O4 0.775753 0.900258 0.145577
O O5 0.331518 0.002699 0.878387
O O6 0.081552 0.880647 0.417910
O O7 0.000000 0.000000 0.000000
O O8 0.668153 0.415207 0.533388
O O9 0.000000 0.500000 0.500000
O O10 0.737625 0.361243 0.035157
O O11 0.819847 0.274492 0.112795
O O12 0.478415 0.857103 0.483523
O O13 0.461135 0.687036 0.323146
O O14 0.500000 0.000000 0.500000
O O15 0.293980 0.919766 0.098958
O O16 0.500000 0.500000 0.000000
#
# Coordination Sequence:
#
# PCOD8041023 Si02
#       7
#     2   2   2   2   2   2   2
#     4  11  25  43  70 107 145 189 238 296 365 416
#     4  11  23  39  71 110 145 184 238 292 354 433
#     4  11  26  47  75 104 143 192 242 297 365 421
#     4  11  23  47  77  98 145 191 235 300 360 423
#     4  10  18  43  72  99 147 185 228 291 360 430
#     4  11  23  45  72 104 150 189 231 298 362 431
#     4  11  29  49  71 105 141 190 254 294 354 435
#
# _framework density 22.115731
#
# number of rings (size 3 to 8) (size 9 to 14) (size 15 to 20)
#    0.000    1.143    5.714    1.286    6.000    2.857 
#    0.000    2.143    0.000    0.000    0.000    0.000 
#    0.000    0.000    0.000    0.000    0.000    0.000 
#
# Total GULP energy -173581.465615 kJ/mol
# GULP energy per Si atom -12398.676115 kJ/mol
# Density = 2.206539 g / cm^3
# Si number density = 22.115731 Si / 1000 Ang^3
#
#
#
# Elastic Constant Matrix: (Units=GPa)
#
#
# Indices 1 2 3 4 5 6 
#
# 1 169.5836 33.3914 58.9986 -2.5826 14.6363 20.2646
# 2 33.3914 76.8623 30.9592 1.5330 6.2319 6.2496
# 3 58.9986 30.9592 101.9518 6.4594 -2.9462 7.4526
# 4 -2.5826 1.5330 6.4594 31.1459 -3.1632 3.5043
# 5 14.6363 6.2319 -2.9462 -3.1632 46.1550 8.4203
# 6 20.2646 6.2496 7.4526 3.5043 8.4203 37.4319
#
#
#
# Elastic Compliance Matrix: (Units=1/GPa)
#
#
# Indices 1 2 3 4 5 6 
#
# 1 0.008241 -0.001486 -0.004263 0.001784 -0.002000 -0.003081
# 2 -0.001486 0.015383 -0.003806 -0.000202 -0.001755 -0.000593
# 3 -0.004263 -0.003806 0.013686 -0.002732 0.002571 -0.000104
# 4 0.001784 -0.000202 -0.002732 0.033523 0.002323 -0.004049
# 5 -0.002000 -0.001755 0.002571 0.002323 0.023716 -0.004688
# 6 -0.003081 -0.000593 -0.000104 -0.004049 -0.004688 0.029937
#
#
# Mechanical properties :
#
#
# Convention : Reuss Voigt Hill
#
# Bulk Modulus (GPa) = 54.94447 66.12181 60.53314
# Shear Modulus (GPa) = 33.40843 37.94978 35.67911
#
# Velocity S-wave (km/s) = 3.89088 4.14691 4.02094
# Velocity P-wave (km/s) = 6.71441 7.27270 6.99912
#
# Compressibility (1/GPa) = 0.01820019
#
# Stress axis : x y z
#
# Youngs Moduli (GPa) = 121.35151 65.00571 73.06514
#
# Poissons Ratio (x) = 0.09658 0.31149
# Poissons Ratio (y) = 0.18029 0.27810
# Poissons Ratio (z) = 0.51734 0.24742
#
# Static dielectric constant tensor:
#      x y z
#    x 4.612160 0.271770 0.098600 
#    y 0.271770 4.183940 -0.028280 
#    z 0.098600 -0.028280 4.067110 
# 
# 
# High freq. dielectric constant tensor:
#      x y z
#    x 1.890160 -0.001660 0.001480 
#    y -0.001660 1.863700 0.004070 
#    z 0.001480 0.004070 1.869660 
# 
# From -- ./inp_files/49253.got.cif
#   From: 2010.06.25/outbox.cif.g09.slc.cpg/sg2_25_cif.got.tgz:49253.got - 2010.06.27 13:26:56.
