data_PCOD8041681
_publ_section_title
;
Structure prediction by ZEFSAII (Michael W. Deem and Ramdas Pophale) SiO2 
 PCOD8041681
Probable space group: P -1
;
_chemical_formula_sum "Si O2"
_cell_formula_units_Z 16
_cell_length_a 15.591252
_cell_length_b 9.615243
_cell_length_c 11.945368
_cell_angle_alpha 88.292512
_cell_angle_beta 152.706344
_cell_angle_gamma 83.054754
_cell_volume 777.195166
_symmetry_space_group_name_H-M "P -1"
_symmetry_group_IT_number 2
_symmetry_cell_setting 'triclinic'
loop_
_space_group_symop_operation_xyz
x,y,z
-x,-y,-z
loop_
_atom_site_type_symbol
_atom_site_label
_atom_site_fract_x
_atom_site_fract_y
_atom_site_fract_z
Si Si1 0.299669 0.286580 0.640125
Si Si2 0.876108 0.818498 0.364285
Si Si3 0.809274 0.177821 0.582713
Si Si4 0.648771 0.940323 0.484187
Si Si5 0.717712 0.151456 0.224875
Si Si6 0.233610 0.319283 0.209623
Si Si7 0.762776 0.832760 0.989278
Si Si8 0.784574 0.467865 0.641407
O O1 0.154232 0.293336 0.575736
O O2 0.289577 0.155270 0.553021
O O3 0.219302 0.440055 0.478297
O O4 0.521025 0.260903 0.939987
O O5 0.813355 0.768002 0.173704
O O6 0.103107 0.810387 0.627226
O O7 0.735058 0.983017 0.224858
O O8 0.707127 0.178978 0.344451
O O9 0.703881 0.335462 0.517217
O O10 0.044574 0.140009 0.842070
O O11 0.763840 0.059067 0.613078
O O12 0.714719 0.841377 0.672118
O O13 0.412406 0.013872 0.212855
O O14 0.332144 0.422743 0.394721
O O15 0.301143 0.285945 0.158827
O O16 0.001731 0.396067 0.942258
#
# Coordination Sequence:
#
# PCOD8041681 Si02
#       8
#     2   2   2   2   2   2   2   2
#     4  11  20  35  59  85 112 151 184 220 279 340
#     4  10  19  33  56  89 116 140 178 233 281 325
#     4  10  21  37  57  86 115 144 182 233 279 327
#     4  11  20  34  63  86 104 146 196 229 274 324
#     4  10  19  33  56  87 119 140 178 234 276 325
#     4   9  20  40  58  79 112 150 188 233 274 324
#     4  10  20  35  57  87 113 141 182 238 277 320
#     4   9  21  39  57  79 116 151 183 228 281 327
#
# _framework density 20.586849999999998
#
# number of rings (size 3 to 8) (size 9 to 14) (size 15 to 20)
#    0.000    2.000    2.500    1.500    0.000    2.500 
#    0.000    8.750    0.000    4.500    0.000    0.000 
#    0.000    0.000    0.000    0.000    0.000    0.000 
#
# Total GULP energy -198306.313893 kJ/mol
# GULP energy per Si atom -12394.144618 kJ/mol
# Density = 2.053999 g / cm^3
# Si number density = 20.586850 Si / 1000 Ang^3
#
#
#
# Elastic Constant Matrix: (Units=GPa)
#
#
# Indices 1 2 3 4 5 6 
#
# 1 13.2694 30.9424 -80.0167 83.0322 -18.3102 -17.6758
# 2 30.9424 113.2581 -6.4823 20.2394 -11.9222 -13.2633
# 3 -80.0167 -6.4823 -91.8132 101.6606 -10.2786 8.5753
# 4 83.0322 20.2394 101.6606 -50.1344 -2.4435 -6.8287
# 5 -18.3102 -11.9222 -10.2786 -2.4435 29.1167 11.6928
# 6 -17.6758 -13.2633 8.5753 -6.8287 11.6928 26.6744
#
#
#
# Elastic Compliance Matrix: (Units=1/GPa)
#
#
# Indices 1 2 3 4 5 6 
#
# 1 0.018532 -0.004419 -0.012342 0.001901 -0.000231 0.014639
# 2 -0.004419 0.010750 0.000363 -0.002460 0.001060 0.001206
# 3 -0.012342 0.000363 0.018309 0.018145 0.004956 -0.011411
# 4 0.001901 -0.002460 0.018145 0.019234 0.010386 -0.005426
# 5 -0.000231 0.001060 0.004956 0.010386 0.044512 -0.018072
# 6 0.014639 0.001206 -0.011411 -0.005426 -0.018072 0.057991
#
#
# Mechanical properties :
#
#
# Convention : Reuss Voigt Hill
#
# Bulk Modulus (GPa) = 67.59323 -8.48879 29.55222
# Shear Modulus (GPa) = 24.14821 7.14940 15.64880
#
# Velocity S-wave (km/s) = 3.42861 1.86557 2.76005
# Velocity P-wave (km/s) = 6.96982 0.71281 4.95411
#
# Compressibility (1/GPa) = 0.01479438
#
# Stress axis : x y z
#
# Youngs Moduli (GPa) = 53.96003 93.02454 54.61925
#
# Poissons Ratio (x) = 0.41109 0.67409
# Poissons Ratio (y) = 0.23846 -0.01980
# Poissons Ratio (z) = 0.66595 -0.03373
#
# Static dielectric constant tensor:
#      x y z
#    x 3.929390 -0.446130 -0.243650 
#    y -0.446130 3.897260 0.081950 
#    z -0.243650 0.081950 3.687490 
# 
# 
# High freq. dielectric constant tensor:
#      x y z
#    x 1.803950 -0.024790 -0.019020 
#    y -0.024790 1.792100 0.002640 
#    z -0.019020 0.002640 1.802900 
# 
# From -- ./inp_files/178795.got.cif
#   From: 2010.06.25/outbox.cif.g09.slc.cpg/sg2_90_cif.got.tgz:178795.got - 2010.06.27 13:26:56.
