data_PCOD8041236
_publ_section_title
;
Structure prediction by ZEFSAII (Michael W. Deem and Ramdas Pophale) SiO2 
 PCOD8041236
Probable space group: P -1
;
_chemical_formula_sum "Si O2"
_cell_formula_units_Z 16
_cell_length_a 18.334733
_cell_length_b 7.631372
_cell_length_c 8.559636
_cell_angle_alpha 113.688214
_cell_angle_beta 57.162722
_cell_angle_gamma 132.225598
_cell_volume 743.818040
_symmetry_space_group_name_H-M "P -1"
_symmetry_group_IT_number 2
_symmetry_cell_setting 'triclinic'
loop_
_space_group_symop_operation_xyz
x,y,z
-x,-y,-z
loop_
_atom_site_type_symbol
_atom_site_label
_atom_site_fract_x
_atom_site_fract_y
_atom_site_fract_z
Si Si1 0.559146 0.522816 0.671032
Si Si2 0.384672 0.992190 0.774430
Si Si3 0.126686 0.659334 0.412554
Si Si4 0.738528 0.918054 0.822614
Si Si5 0.443876 0.947607 0.209764
Si Si6 0.284433 0.943262 0.576246
Si Si7 0.363117 0.445812 0.727378
Si Si8 0.740141 0.536035 0.854446
O O1 0.474577 0.272110 0.757721
O O2 0.632221 0.715150 0.783838
O O3 0.485498 0.594135 0.702635
O O4 0.631525 0.507807 0.449076
O O5 0.456410 0.910334 0.730726
O O6 0.326605 0.850470 0.629161
O O7 0.292998 0.945026 0.981750
O O8 0.165030 0.752331 0.580785
O O9 0.164877 0.495902 0.265403
O O10 0.000000 0.500000 0.500000
O O11 0.169902 0.883110 0.328293
O O12 0.781837 0.793762 0.830049
O O13 0.365427 0.028257 0.362024
O O14 0.359050 0.659245 0.212854
O O15 0.500000 0.000000 0.000000
O O16 0.296998 0.162151 0.723213
O O17 0.296775 0.504885 0.934695
#
# Coordination Sequence:
#
# PCOD8041236 Si02
#       8
#     2   2   2   2   2   2   2   2
#     4  10  19  31  59  93 136 174 195 239 307 391
#     4  11  20  34  60  96 135 172 210 244 312 393
#     4  11  27  49  68  88 120 167 225 285 336 369
#     4  12  21  41  66  92 130 170 209 265 319 387
#     4  11  23  33  55  95 145 179 208 242 308 389
#     4  10  21  39  58  89 129 168 210 270 307 375
#     4  10  20  35  60  93 135 170 204 248 313 385
#     4  11  23  41  64  95 127 167 217 260 316 391
#
# _framework density 21.510638
#
# number of rings (size 3 to 8) (size 9 to 14) (size 15 to 20)
#    0.000    1.250    5.000    3.000    5.250    0.500 
#    2.250    1.250    0.000    0.000    0.000    0.000 
#    0.000    0.000    0.000    0.000    0.000    0.000 
#
# Total GULP energy -198244.082301 kJ/mol
# GULP energy per Si atom -12390.255144 kJ/mol
# Density = 2.146168 g / cm^3
# Si number density = 21.510638 Si / 1000 Ang^3
#
#
#
# Elastic Constant Matrix: (Units=GPa)
#
#
# Indices 1 2 3 4 5 6 
#
# 1 97.4244 41.8846 40.1260 -7.7437 -7.0722 20.1993
# 2 41.8846 73.1799 30.5923 -8.9939 -9.6131 18.8904
# 3 40.1260 30.5923 103.4882 8.0823 -1.4863 23.2315
# 4 -7.7437 -8.9939 8.0823 30.3062 -3.3813 2.6196
# 5 -7.0722 -9.6131 -1.4863 -3.3813 31.2167 3.5549
# 6 20.1993 18.8904 23.2315 2.6196 3.5549 37.9319
#
#
#
# Elastic Compliance Matrix: (Units=1/GPa)
#
#
# Indices 1 2 3 4 5 6 
#
# 1 0.015448 -0.005497 -0.003815 0.003924 0.002466 -0.003654
# 2 -0.005497 0.021784 -0.003179 0.007296 0.006914 -0.007126
# 3 -0.003815 -0.003179 0.013397 -0.005283 -0.001311 -0.004102
# 4 0.003924 0.007296 -0.005283 0.038951 0.007776 -0.005906
# 5 0.002466 0.006914 -0.001311 0.007776 0.036402 -0.007902
# 6 -0.003654 -0.007126 -0.004102 -0.005906 -0.007902 0.035519
#
#
# Mechanical properties :
#
#
# Convention : Reuss Voigt Hill
#
# Bulk Modulus (GPa) = 38.99257 55.47757 47.23507
# Shear Modulus (GPa) = 25.63680 30.65693 28.14686
#
# Velocity S-wave (km/s) = 3.45602 3.77928 3.62126
# Velocity P-wave (km/s) = 5.83883 6.70005 6.28421
#
# Compressibility (1/GPa) = 0.02564591
#
# Stress axis : x y z
#
# Youngs Moduli (GPa) = 64.73496 45.90423 74.64502
#
# Poissons Ratio (x) = 0.25233 0.28480
# Poissons Ratio (y) = 0.35584 0.23731
# Poissons Ratio (z) = 0.24699 0.14594
#
# Static dielectric constant tensor:
#      x y z
#    x 4.005370 -0.308810 0.288030 
#    y -0.308810 3.835980 0.211780 
#    z 0.288030 0.211780 3.947210 
# 
# 
# High freq. dielectric constant tensor:
#      x y z
#    x 1.820960 -0.031090 0.024550 
#    y -0.031090 1.829510 0.023340 
#    z 0.024550 0.023340 1.847430 
# 
# From -- ./inp_files/342922.got.cif
#   From: 2010.06.25/outbox.cif.g09.slc.cpg/sg2_172_cif.got.tgz:342922.got - 2010.06.27 13:26:56.
