data_PCOD8041096
_publ_section_title
;
Structure prediction by ZEFSAII (Michael W. Deem and Ramdas Pophale) SiO2 
 PCOD8041096
Probable space group: P -1
;
_chemical_formula_sum "Si O2"
_cell_formula_units_Z 12
_cell_length_a 9.655802
_cell_length_b 9.127205
_cell_length_c 12.485055
_cell_angle_alpha 131.031599
_cell_angle_beta 91.579652
_cell_angle_gamma 121.335227
_cell_volume 581.203308
_symmetry_space_group_name_H-M "P -1"
_symmetry_group_IT_number 2
_symmetry_cell_setting 'triclinic'
loop_
_space_group_symop_operation_xyz
x,y,z
-x,-y,-z
loop_
_atom_site_type_symbol
_atom_site_label
_atom_site_fract_x
_atom_site_fract_y
_atom_site_fract_z
Si Si1 0.905664 0.043351 0.672339
Si Si2 0.271783 0.216433 0.681447
Si Si3 0.719370 0.242966 0.747254
Si Si4 0.271280 0.326287 0.090327
Si Si5 0.904442 0.766992 0.732719
Si Si6 0.717800 0.194539 0.471240
O O1 0.869967 0.233879 0.794578
O O2 0.136541 0.249971 0.745071
O O3 0.766875 0.844254 0.474621
O O4 0.840494 0.840831 0.670271
O O5 0.500385 0.498944 0.840352
O O6 0.213183 0.958996 0.621076
O O7 0.788473 0.534779 0.908547
O O8 0.706467 0.206591 0.603177
O O9 0.501099 0.990919 0.671518
O O10 0.234529 0.311698 0.208853
O O11 0.135295 0.021249 0.891371
O O12 0.867776 0.504329 0.574083
#
# Coordination Sequence:
#
# PCOD8041096 Si02
#       6
#     2   2   2   2   2   2
#     4  10  19  30  52  77  96 121 163 206 236 273
#     4   9  19  35  51  69  98 132 160 191 239 293
#     4   8  15  30  50  69  94 129 161 190 234 290
#     4   9  19  35  51  69  98 132 160 191 239 293
#     4  10  19  30  52  77  96 121 163 206 236 273
#     4   8  15  30  50  69  94 129 161 190 234 290
#
# _framework density 20.646819000000001
#
# number of rings (size 3 to 8) (size 9 to 14) (size 15 to 20)
#    0.000    3.000    0.000    3.000    0.000    4.667 
#    0.000    0.000    0.000   27.000    0.000    0.000 
#    0.000    0.000    0.000    0.000    0.000    0.000 
#
# Total GULP energy -148724.692408 kJ/mol
# GULP energy per Si atom -12393.724367 kJ/mol
# Density = 2.059983 g / cm^3
# Si number density = 20.646819 Si / 1000 Ang^3
#
#
#
# Elastic Constant Matrix: (Units=GPa)
#
#
# Indices 1 2 3 4 5 6 
#
# 1 139.8327 52.9765 38.9761 21.1171 19.0896 -9.9773
# 2 52.9765 112.7347 44.9802 20.6693 14.2403 -24.9217
# 3 38.9761 44.9802 43.9793 26.3167 3.9378 2.0008
# 4 21.1171 20.6693 26.3167 35.4659 3.7635 7.5758
# 5 19.0896 14.2403 3.9378 3.7635 12.8399 1.1581
# 6 -9.9773 -24.9217 2.0008 7.5758 1.1581 20.1533
#
#
#
# Elastic Compliance Matrix: (Units=1/GPa)
#
#
# Indices 1 2 3 4 5 6 
#
# 1 0.016257 0.014591 -0.026946 -0.001185 -0.034554 0.031197
# 2 0.014591 0.063863 -0.072923 -0.004850 -0.077730 0.099727
# 3 -0.026946 -0.072923 0.133780 -0.027153 0.097990 -0.112223
# 4 -0.001185 -0.004850 -0.027153 0.057207 0.000996 -0.025450
# 5 -0.034554 -0.077730 0.097990 0.000996 0.197265 -0.134667
# 6 0.031197 0.099727 -0.112223 -0.025450 -0.134667 0.216834
#
#
# Mechanical properties :
#
#
# Convention : Reuss Voigt Hill
#
# Bulk Modulus (GPa) = 23.07113 63.37914 43.22514
# Shear Modulus (GPa) = 5.74573 24.33276 15.03925
#
# Velocity S-wave (km/s) = 1.67000 3.43669 2.70183
# Velocity P-wave (km/s) = 3.86225 6.81991 5.54203
#
# Compressibility (1/GPa) = 0.04334421
#
# Stress axis : x y z
#
# Youngs Moduli (GPa) = 61.51353 15.65840 7.47494
#
# Poissons Ratio (x) = -0.22846 0.20142
# Poissons Ratio (y) = -0.89752 0.54509
# Poissons Ratio (z) = 1.65754 1.14185
#
# Static dielectric constant tensor:
#      x y z
#    x 3.888940 -0.227110 -0.110560 
#    y -0.227110 3.705780 0.258320 
#    z -0.110560 0.258320 3.576900 
# 
# 
# High freq. dielectric constant tensor:
#      x y z
#    x 1.801860 -0.004490 0.003740 
#    y -0.004490 1.795950 0.011120 
#    z 0.003740 0.011120 1.787410 
# 
# From -- ./inp_files/145984.got.cif
#   From: 2010.06.25/outbox.cif.g09.slc.cpg/sg2_73_cif.got.tgz:145984.got - 2010.06.27 13:26:56.
