data_PCOD8041372
_publ_section_title
;
Structure prediction by ZEFSAII (Michael W. Deem and Ramdas Pophale) SiO2 
 PCOD8041372
Probable space group: P -1
;
_chemical_formula_sum "Si O2"
_cell_formula_units_Z 14
_cell_length_a 9.354162
_cell_length_b 9.464229
_cell_length_c 16.152737
_cell_angle_alpha 141.489329
_cell_angle_beta 102.097293
_cell_angle_gamma 62.493157
_cell_volume 759.320465
_symmetry_space_group_name_H-M "P -1"
_symmetry_group_IT_number 2
_symmetry_cell_setting 'triclinic'
loop_
_space_group_symop_operation_xyz
x,y,z
-x,-y,-z
loop_
_atom_site_type_symbol
_atom_site_label
_atom_site_fract_x
_atom_site_fract_y
_atom_site_fract_z
Si Si1 0.524316 0.719543 0.860604
Si Si2 0.398793 0.592942 0.114601
Si Si3 0.032861 0.585335 0.675965
Si Si4 0.886869 0.556546 0.812353
Si Si5 0.817112 0.853187 0.624560
Si Si6 0.034305 0.802979 0.198624
Si Si7 0.819879 0.039598 0.130617
O O1 0.495501 0.603224 0.889194
O O2 0.714606 0.543038 0.770316
O O3 0.379848 0.751828 0.793119
O O4 0.500000 0.000000 0.000000
O O5 0.217489 0.604278 0.088754
O O6 0.363858 0.886124 0.267766
O O7 0.500000 0.500000 0.000000
O O8 0.185042 0.336742 0.534144
O O9 0.081469 0.804738 0.804662
O O10 0.989619 0.484147 0.707336
O O11 0.870648 0.704302 0.650847
O O12 0.999589 0.334389 0.790629
O O13 0.851410 0.839660 0.968186
O O14 0.958204 0.936638 0.655011
O O15 0.884646 0.876468 0.148784
#
# Coordination Sequence:
#
# PCOD8041372 Si02
#       7
#     2   2   2   2   2   2   2
#     4   9  20  33  50  81 109 137 173 220 271 309
#     4   9  18  33  54  78 106 139 177 218 265 315
#     4  10  19  34  57  79 108 141 183 218 255 324
#     4  10  19  32  55  82 103 140 179 221 270 305
#     4   8  19  35  53  80 105 145 178 216 264 316
#     4   8  18  34  52  79 105 137 182 223 260 309
#     4  10  19  33  54  78 113 136 178 223 262 308
#
# _framework density 18.437536000000001
#
# number of rings (size 3 to 8) (size 9 to 14) (size 15 to 20)
#    0.857    2.000    0.000    0.857    4.000    1.714 
#    0.000    0.714    0.000    7.714    0.000    0.000 
#    0.000    0.000    0.000    0.000    0.000    0.000 
#
# Total GULP energy -173453.017635 kJ/mol
# GULP energy per Si atom -12389.501260 kJ/mol
# Density = 1.839557 g / cm^3
# Si number density = 18.437536 Si / 1000 Ang^3
#
#
#
# Elastic Constant Matrix: (Units=GPa)
#
#
# Indices 1 2 3 4 5 6 
#
# 1 58.3412 53.0137 20.8310 -22.0259 -5.0521 -4.5584
# 2 53.0137 151.8998 47.0106 -12.2876 -18.8768 -1.3813
# 3 20.8310 47.0106 78.9340 -4.1097 -7.7197 8.4363
# 4 -22.0259 -12.2876 -4.1097 25.6390 1.6792 -0.9016
# 5 -5.0521 -18.8768 -7.7197 1.6792 17.3976 -4.1618
# 6 -4.5584 -1.3813 8.4363 -0.9016 -4.1618 35.4611
#
#
#
# Elastic Compliance Matrix: (Units=1/GPa)
#
#
# Indices 1 2 3 4 5 6 
#
# 1 0.038664 -0.010495 -0.003400 0.028039 -0.003003 0.005731
# 2 -0.010495 0.012277 -0.003982 -0.004334 0.009175 0.001043
# 3 -0.003400 -0.003982 0.016395 -0.002431 0.001144 -0.004420
# 4 0.028039 -0.004334 -0.002431 0.060958 -0.002255 0.005299
# 5 -0.003003 0.009175 0.001144 -0.002255 0.069143 0.007757
# 6 0.005731 0.001043 -0.004420 0.005299 0.007757 0.031074
#
#
# Mechanical properties :
#
#
# Convention : Reuss Voigt Hill
#
# Bulk Modulus (GPa) = 31.66189 58.98729 45.32459
# Shear Modulus (GPa) = 18.19551 26.92086 22.55819
#
# Velocity S-wave (km/s) = 3.14486 3.82529 3.50164
# Velocity P-wave (km/s) = 5.51332 7.18143 6.40194
#
# Compressibility (1/GPa) = 0.03158371
#
# Stress axis : x y z
#
# Youngs Moduli (GPa) = 25.86365 81.44981 60.99240
#
# Poissons Ratio (x) = 0.85480 0.20735
# Poissons Ratio (y) = 0.27143 0.24289
# Poissons Ratio (z) = 0.08793 0.32436
#
# Static dielectric constant tensor:
#      x y z
#    x 3.333030 -0.153190 0.093550 
#    y -0.153190 3.632610 0.146750 
#    z 0.093550 0.146750 3.068260 
# 
# 
# High freq. dielectric constant tensor:
#      x y z
#    x 1.681910 0.003830 0.008780 
#    y 0.003830 1.734880 0.010590 
#    z 0.008780 0.010590 1.680710 
# 
# From -- ./inp_files/493873.got.cif
#   From: 2010.06.25/outbox.cif.g09.slc.cpg/sg2_247_cif.got.tgz:493873.got - 2010.06.27 13:26:56.
