data_PCOD8041392
_publ_section_title
;
Structure prediction by ZEFSAII (Michael W. Deem and Ramdas Pophale) SiO2 
 PCOD8041392
Probable space group: P -1
;
_chemical_formula_sum "Si O2"
_cell_formula_units_Z 14
_cell_length_a 14.588239
_cell_length_b 9.329952
_cell_length_c 14.237256
_cell_angle_alpha 79.721596
_cell_angle_beta 49.823721
_cell_angle_gamma 120.937557
_cell_volume 797.308793
_symmetry_space_group_name_H-M "P -1"
_symmetry_group_IT_number 2
_symmetry_cell_setting 'triclinic'
loop_
_space_group_symop_operation_xyz
x,y,z
-x,-y,-z
loop_
_atom_site_type_symbol
_atom_site_label
_atom_site_fract_x
_atom_site_fract_y
_atom_site_fract_z
Si Si1 0.415608 0.195672 0.966769
Si Si2 0.330653 0.867641 0.705271
Si Si3 0.600701 0.057685 0.144212
Si Si4 0.093998 0.246402 0.373002
Si Si5 0.914764 0.585403 0.958779
Si Si6 0.678361 0.978073 0.745135
Si Si7 0.726223 0.624505 0.961546
O O1 0.676050 0.483801 0.761334
O O2 0.350496 0.032920 0.939790
O O3 0.327866 0.025278 0.137441
O O4 0.287382 0.216739 0.038286
O O5 0.446444 0.040607 0.705048
O O6 0.175828 0.835818 0.767141
O O7 0.500000 0.000000 0.500000
O O8 0.191450 0.578412 0.853476
O O9 0.394691 0.938512 0.254060
O O10 0.815729 0.381697 0.964250
O O11 0.127017 0.270869 0.236832
O O12 0.000000 0.000000 0.500000
O O13 0.921811 0.197926 0.518919
O O14 0.847359 0.682523 0.967103
O O15 0.519753 0.687653 0.848074
#
# Coordination Sequence:
#
# PCOD8041392 Si02
#       7
#     2   2   2   2   2   2   2
#     4  11  20  34  49  79 114 134 168 215 253 302
#     4   9  18  37  58  75  98 130 174 219 255 313
#     4   9  20  35  53  79 105 133 170 217 264 298
#     4  11  19  32  51  75 107 146 180 197 244 306
#     4   8  19  36  55  78  94 133 177 210 259 313
#     4  10  19  35  51  75 107 145 173 204 244 313
#     4  10  19  32  56  74 103 143 174 207 249 310
#
# _framework density 17.559068
#
# number of rings (size 3 to 8) (size 9 to 14) (size 15 to 20)
#    0.857    1.429    2.857    1.286    2.000    0.571 
#    2.571    0.714    0.000    0.857    0.000    0.000 
#    0.000    0.000    0.000    0.000    0.000    0.000 
#
# Total GULP energy -173521.889162 kJ/mol
# GULP energy per Si atom -12394.420654 kJ/mol
# Density = 1.751910 g / cm^3
# Si number density = 17.559068 Si / 1000 Ang^3
#
#
#
# Elastic Constant Matrix: (Units=GPa)
#
#
# Indices 1 2 3 4 5 6 
#
# 1 126.6315 38.7152 50.3323 15.1346 -17.0677 10.6338
# 2 38.7152 71.5052 31.9641 23.3925 -4.7009 3.7491
# 3 50.3323 31.9641 120.1543 17.0762 -9.1828 7.2562
# 4 15.1346 23.3925 17.0762 22.3188 -1.4270 4.9318
# 5 -17.0677 -4.7009 -9.1828 -1.4270 17.8648 0.6476
# 6 10.6338 3.7491 7.2562 4.9318 0.6476 12.0890
#
#
#
# Elastic Compliance Matrix: (Units=1/GPa)
#
#
# Indices 1 2 3 4 5 6 
#
# 1 0.012334 -0.004765 -0.002836 0.001336 0.009494 -0.008722
# 2 -0.004765 0.024264 -0.001774 -0.022451 -0.001125 0.006951
# 3 -0.002836 -0.001774 0.010823 -0.003927 0.002144 -0.001964
# 4 0.001336 -0.022451 -0.003927 0.075453 0.000198 -0.022647
# 5 0.009494 -0.001125 0.002144 0.000198 0.066337 -0.012924
# 6 -0.008722 0.006951 -0.001964 -0.022647 -0.012924 0.099346
#
#
# Mechanical properties :
#
#
# Convention : Reuss Voigt Hill
#
# Bulk Modulus (GPa) = 34.87916 62.25715 48.56815
# Shear Modulus (GPa) = 15.77957 23.60648 19.69303
#
# Velocity S-wave (km/s) = 3.00101 3.67059 3.35256
# Velocity P-wave (km/s) = 5.64935 7.31417 6.53499
#
# Compressibility (1/GPa) = 0.02867042
#
# Stress axis : x y z
#
# Youngs Moduli (GPa) = 81.07866 41.21270 92.39354
#
# Poissons Ratio (x) = 0.19640 0.26206
# Poissons Ratio (y) = 0.38637 0.16388
# Poissons Ratio (z) = 0.22996 0.07310
#
# Static dielectric constant tensor:
#      x y z
#    x 3.717010 0.020820 -0.201860 
#    y 0.020820 2.886870 0.017880 
#    z -0.201860 0.017880 3.311010 
# 
# 
# High freq. dielectric constant tensor:
#      x y z
#    x 1.689880 -0.001960 -0.006720 
#    y -0.001960 1.637440 0.007010 
#    z -0.006720 0.007010 1.673240 
# 
# From -- ./inp_files/94052.got.cif
#   From: 2010.06.25/outbox.cif.g09.slc.cpg/sg2_48_cif.got.tgz:94052.got - 2010.06.27 13:26:56.
