data_PCOD8041213
_publ_section_title
;
Structure prediction by ZEFSAII (Michael W. Deem and Ramdas Pophale) SiO2 
 PCOD8041213
Probable space group: P -1
;
_chemical_formula_sum "Si O2"
_cell_formula_units_Z 16
_cell_length_a 5.231118
_cell_length_b 16.084972
_cell_length_c 19.348965
_cell_angle_alpha 29.268934
_cell_angle_beta 98.638226
_cell_angle_gamma 88.662159
_cell_volume 745.738499
_symmetry_space_group_name_H-M "P -1"
_symmetry_group_IT_number 2
_symmetry_cell_setting 'triclinic'
loop_
_space_group_symop_operation_xyz
x,y,z
-x,-y,-z
loop_
_atom_site_type_symbol
_atom_site_label
_atom_site_fract_x
_atom_site_fract_y
_atom_site_fract_z
Si Si1 0.638170 0.816089 0.680702
Si Si2 0.901481 0.061633 0.373703
Si Si3 0.742657 0.542816 0.764226
Si Si4 0.538771 0.925013 0.227999
Si Si5 0.662196 0.667174 0.117484
Si Si6 0.872553 0.283272 0.657336
Si Si7 0.743269 0.791142 0.471928
Si Si8 0.123710 0.466854 0.637852
O O1 0.408019 0.799981 0.736785
O O2 0.746411 0.640353 0.765877
O O3 0.894546 0.835806 0.720776
O O4 0.500000 0.000000 0.500000
O O5 0.914813 0.895779 0.445087
O O6 0.000000 0.000000 0.500000
O O7 0.572221 0.407698 0.865760
O O8 0.596351 0.696487 0.589820
O O9 0.049933 0.441402 0.826244
O O10 0.349447 0.816402 0.267702
O O11 0.530321 0.916962 0.317598
O O12 0.844752 0.848692 0.266563
O O13 0.408585 0.128398 0.053747
O O14 0.662750 0.655678 0.209803
O O15 0.741829 0.457919 0.475571
O O16 0.935469 0.353884 0.683006
O O17 0.950027 0.640308 0.545216
#
# Coordination Sequence:
#
# PCOD8041213 Si02
#       8
#     2   2   2   2   2   2   2   2
#     4  10  19  31  55  88 113 146 183 251 293 330
#     4  10  19  32  54  89 116 143 186 247 283 345
#     4  11  21  37  61  87 118 149 202 247 283 344
#     4  11  24  41  60  85 122 164 191 241 293 361
#     4  11  24  38  59  88 121 158 197 238 294 349
#     4  10  22  42  62  86 123 150 202 245 295 339
#     4  10  21  37  63  90 117 153 201 241 298 343
#     4   9  22  38  63  93 115 155 196 254 289 343
#
# _framework density 21.455244
#
# number of rings (size 3 to 8) (size 9 to 14) (size 15 to 20)
#    0.000    1.750    2.500    2.250    5.250    9.500 
#    0.000    0.000    0.000    4.500    0.000    0.000 
#    0.000    0.000    0.000    0.000    0.000    0.000 
#
# Total GULP energy -198302.854441 kJ/mol
# GULP energy per Si atom -12393.928403 kJ/mol
# Density = 2.140641 g / cm^3
# Si number density = 21.455244 Si / 1000 Ang^3
#
#
#
# Elastic Constant Matrix: (Units=GPa)
#
#
# Indices 1 2 3 4 5 6 
#
# 1 130.0243 22.3516 13.8763 -14.8832 -11.0189 14.1249
# 2 22.3516 130.4999 29.7764 -18.8071 -2.7265 22.1012
# 3 13.8763 29.7764 97.5869 -8.0121 -6.5088 11.7970
# 4 -14.8832 -18.8071 -8.0121 19.6929 6.4018 -6.5950
# 5 -11.0189 -2.7265 -6.5088 6.4018 23.4624 -12.5105
# 6 14.1249 22.1012 11.7970 -6.5950 -12.5105 34.5398
#
#
#
# Elastic Compliance Matrix: (Units=1/GPa)
#
#
# Indices 1 2 3 4 5 6 
#
# 1 0.008685 -0.000374 -0.000406 0.004945 0.001716 -0.001608
# 2 -0.000374 0.010297 -0.002015 0.008359 -0.004998 -0.005961
# 3 -0.000406 -0.002015 0.011325 0.001352 0.001486 -0.001616
# 4 0.004945 0.008359 0.001352 0.067822 -0.015006 -0.000318
# 5 0.001716 -0.004998 0.001486 -0.015006 0.058109 0.020170
# 6 -0.001608 -0.005961 -0.001616 -0.000318 0.020170 0.041221
#
#
# Mechanical properties :
#
#
# Convention : Reuss Voigt Hill
#
# Bulk Modulus (GPa) = 40.45870 54.45773 47.45822
# Shear Modulus (GPa) = 23.66452 35.01280 29.33866
#
# Velocity S-wave (km/s) = 3.32470 4.04406 3.70190
# Velocity P-wave (km/s) = 5.79969 6.87336 6.35922
#
# Compressibility (1/GPa) = 0.02471656
#
# Stress axis : x y z
#
# Youngs Moduli (GPa) = 115.14647 97.11986 88.29750
#
# Poissons Ratio (x) = 0.03633 0.03585
# Poissons Ratio (y) = 0.04307 0.17791
# Poissons Ratio (z) = 0.04674 0.19569
#
# Static dielectric constant tensor:
#      x y z
#    x 3.049830 0.159640 -0.060330 
#    y 0.159640 4.272370 0.251800 
#    z -0.060330 0.251800 3.933910 
# 
# 
# High freq. dielectric constant tensor:
#      x y z
#    x 1.848520 0.006940 -0.004930 
#    y 0.006940 1.854480 -0.014520 
#    z -0.004930 -0.014520 1.802860 
# 
# From -- ./inp_files/550031.got.cif
#   From: 2010.06.25/outbox.cif.g09.slc.cpg/sg2_276_cif.got.tgz:550031.got - 2010.06.27 13:26:56.
