data_PCOD8041791
_publ_section_title
;
Structure prediction by ZEFSAII (Michael W. Deem and Ramdas Pophale) SiO2 
 PCOD8041791
Probable space group: P -1
;
_chemical_formula_sum "Si O2"
_cell_formula_units_Z 16
_cell_length_a 13.557218
_cell_length_b 14.131487
_cell_length_c 6.608052
_cell_angle_alpha 53.055776
_cell_angle_beta 54.370224
_cell_angle_gamma 46.997720
_cell_volume 706.955944
_symmetry_space_group_name_H-M "P -1"
_symmetry_group_IT_number 2
_symmetry_cell_setting 'triclinic'
loop_
_space_group_symop_operation_xyz
x,y,z
-x,-y,-z
loop_
_atom_site_type_symbol
_atom_site_label
_atom_site_fract_x
_atom_site_fract_y
_atom_site_fract_z
Si Si1 0.293062 0.035858 0.047450
Si Si2 0.399473 0.384418 0.695755
Si Si3 0.803985 0.389621 0.073814
Si Si4 0.709483 0.234657 0.634610
Si Si5 0.010516 0.495068 0.755213
Si Si6 0.813791 0.727625 0.423601
Si Si7 0.615505 0.862176 0.840743
Si Si8 0.346026 0.586586 0.166948
O O1 0.185210 0.155966 0.869226
O O2 0.452803 0.978707 0.852650
O O3 0.291863 0.084348 0.220031
O O4 0.244573 0.923831 0.243346
O O5 0.329685 0.464638 0.884080
O O6 0.564743 0.333275 0.559045
O O7 0.320664 0.487962 0.472882
O O8 0.376087 0.256080 0.870870
O O9 0.825256 0.265393 0.358162
O O10 0.775861 0.354459 0.929344
O O11 0.939890 0.405339 0.886251
O O12 0.679350 0.279234 0.849078
O O13 0.166427 0.396627 0.593494
O O14 0.936194 0.648819 0.552573
O O15 0.000000 0.500000 0.000000
O O16 0.670166 0.803237 0.626804
O O17 0.500000 0.500000 0.000000
#
# Coordination Sequence:
#
# PCOD8041791 Si02
#       8
#     2   2   2   2   2   2   2   2
#     4  10  23  40  61  95 133 173 210 263 326 397
#     4  10  19  33  58  93 130 161 205 258 323 378
#     4  11  21  38  62  91 124 166 209 264 328 377
#     4  10  21  37  57  94 133 165 204 253 324 392
#     4  11  26  44  67  93 125 169 226 284 319 367
#     4  11  23  41  65  91 124 168 221 263 321 387
#     4  10  21  39  62  94 135 172 209 264 329 385
#     4  11  19  33  60  91 130 168 206 262 317 392
#
# _framework density 22.632247
#
# number of rings (size 3 to 8) (size 9 to 14) (size 15 to 20)
#    0.000    1.500    3.750    1.875    1.750    4.000 
#    2.250    0.625    0.000    2.250    0.000    0.000 
#    0.000    0.000    0.000    0.000    0.000    0.000 
#
# Total GULP energy -198224.371301 kJ/mol
# GULP energy per Si atom -12389.023206 kJ/mol
# Density = 2.258073 g / cm^3
# Si number density = 22.632247 Si / 1000 Ang^3
#
#
#
# Elastic Constant Matrix: (Units=GPa)
#
#
# Indices 1 2 3 4 5 6 
#
# 1 76.8749 27.2515 30.6364 -7.3755 15.1090 26.4002
# 2 27.2515 114.6046 42.9748 -9.6324 15.7587 13.1078
# 3 30.6364 42.9748 86.6494 2.5753 30.1804 8.1236
# 4 -7.3755 -9.6324 2.5753 48.5414 5.2943 3.2526
# 5 15.1090 15.7587 30.1804 5.2943 38.0127 -2.4128
# 6 26.4002 13.1078 8.1236 3.2526 -2.4128 31.6849
#
#
#
# Elastic Compliance Matrix: (Units=1/GPa)
#
#
# Indices 1 2 3 4 5 6 
#
# 1 0.023618 -0.000345 -0.003513 0.005972 -0.008550 -0.019899
# 2 -0.000345 0.011465 -0.004814 0.002876 -0.001425 -0.003625
# 3 -0.003513 -0.004814 0.019443 -0.001161 -0.011937 -0.000856
# 4 0.005972 0.002876 -0.001161 0.023433 -0.006464 -0.008766
# 5 -0.008550 -0.001425 -0.011937 -0.006464 0.041601 0.014605
# 6 -0.019899 -0.003625 -0.000856 -0.008766 0.014605 0.051872
#
#
# Mechanical properties :
#
#
# Convention : Reuss Voigt Hill
#
# Bulk Modulus (GPa) = 26.89483 53.31714 40.10598
# Shear Modulus (GPa) = 24.85461 35.46555 30.16008
#
# Velocity S-wave (km/s) = 3.31750 3.96288 3.65446
# Velocity P-wave (km/s) = 5.15593 6.67446 5.96372
#
# Compressibility (1/GPa) = 0.03718187
#
# Stress axis : x y z
#
# Youngs Moduli (GPa) = 42.34116 87.22196 51.43261
#
# Poissons Ratio (x) = 0.03009 0.18070
# Poissons Ratio (y) = 0.01461 0.24757
# Poissons Ratio (z) = 0.14876 0.41985
#
# Static dielectric constant tensor:
#      x y z
#    x 3.918450 0.129040 0.057200 
#    y 0.129040 4.235300 0.149790 
#    z 0.057200 0.149790 4.208730 
# 
# 
# High freq. dielectric constant tensor:
#      x y z
#    x 1.863410 0.009990 0.012110 
#    y 0.009990 1.888420 0.006750 
#    z 0.012110 0.006750 1.899320 
# 
# From -- ./inp_files/97558.got.cif
#   From: 2010.06.25/outbox.cif.g09.slc.cpg/sg2_49_cif.got.tgz:97558.got - 2010.06.27 13:26:56.
