data_PCOD8041851
_publ_section_title
;
Structure prediction by ZEFSAII (Michael W. Deem and Ramdas Pophale) SiO2 
 PCOD8041851
Probable space group: P -1
;
_chemical_formula_sum "Si O2"
_cell_formula_units_Z 16
_cell_length_a 9.519079
_cell_length_b 19.647283
_cell_length_c 13.496709
_cell_angle_alpha 153.897163
_cell_angle_beta 132.313697
_cell_angle_gamma 47.197595
_cell_volume 799.178688
_symmetry_space_group_name_H-M "P -1"
_symmetry_group_IT_number 2
_symmetry_cell_setting 'triclinic'
loop_
_space_group_symop_operation_xyz
x,y,z
-x,-y,-z
loop_
_atom_site_type_symbol
_atom_site_label
_atom_site_fract_x
_atom_site_fract_y
_atom_site_fract_z
Si Si1 0.697844 0.408631 0.025383
Si Si2 0.706623 0.493889 0.544187
Si Si3 0.014192 0.478290 0.818694
Si Si4 0.969907 0.753900 0.310060
Si Si5 0.792225 0.056387 0.528258
Si Si6 0.356421 0.880139 0.660474
Si Si7 0.742307 0.799645 0.847844
Si Si8 0.128226 0.628524 0.734698
O O1 0.761567 0.224512 0.786184
O O2 0.500000 0.500000 0.000000
O O3 0.842996 0.511246 0.189515
O O4 0.705836 0.412146 0.153626
O O5 0.500000 0.500000 0.500000
O O6 0.741948 0.665737 0.755267
O O7 0.758081 0.370279 0.314105
O O8 0.832769 0.432137 0.619630
O O9 0.099916 0.333332 0.743725
O O10 0.964743 0.646283 0.070796
O O11 0.192160 0.776568 0.457329
O O12 0.800711 0.916860 0.430826
O O13 0.629997 0.067248 0.379213
O O14 0.000000 0.000000 0.500000
O O15 0.573350 0.782698 0.666496
O O16 0.299086 0.030147 0.899956
O O17 0.957263 0.785686 0.881917
O O18 0.000000 0.500000 0.500000
#
# Coordination Sequence:
#
# PCOD8041851 Si02
#       8
#     2   2   2   2   2   2   2   2
#     4  12  24  38  64  95 127 167 217 263 318 389
#     4  11  23  38  62  88 129 162 216 264 324 376
#     4  11  21  38  59  96 122 167 210 266 322 375
#     4  10  21  35  62  90 131 162 211 268 320 366
#     4  10  19  36  61  86 123 166 210 252 313 370
#     4  10  19  33  61  92 122 167 216 260 303 388
#     4  10  20  35  61  93 123 161 222 255 310 385
#     4  10  21  37  60  86 125 166 207 262 314 373
#
# _framework density 20.020555000000002
#
# number of rings (size 3 to 8) (size 9 to 14) (size 15 to 20)
#    0.000    1.500    5.000    3.000    3.500    2.000 
#    0.000    0.625    0.000   15.000    0.000    0.000 
#    0.000    0.000    0.000    0.000    0.000    0.000 
#
# Total GULP energy -198226.618830 kJ/mol
# GULP energy per Si atom -12389.163677 kJ/mol
# Density = 1.997499 g / cm^3
# Si number density = 20.020555 Si / 1000 Ang^3
#
#
#
# Elastic Constant Matrix: (Units=GPa)
#
#
# Indices 1 2 3 4 5 6 
#
# 1 97.7421 28.3107 33.7154 -4.2458 -10.7493 1.9146
# 2 28.3107 114.7139 47.2299 -11.8454 -3.7103 4.4493
# 3 33.7154 47.2299 90.4849 -13.1767 -13.3108 5.7142
# 4 -4.2458 -11.8454 -13.1767 45.5493 3.0055 1.7039
# 5 -10.7493 -3.7103 -13.3108 3.0055 20.7896 -0.6077
# 6 1.9146 4.4493 5.7142 1.7039 -0.6077 26.8543
#
#
#
# Elastic Compliance Matrix: (Units=1/GPa)
#
#
# Indices 1 2 3 4 5 6 
#
# 1 0.012225 -0.001630 -0.003190 -0.000483 0.004064 0.000200
# 2 -0.001630 0.011481 -0.005502 0.001439 -0.002547 -0.000764
# 3 -0.003190 -0.005502 0.016787 0.002714 0.007653 -0.002432
# 4 -0.000483 0.001439 0.002714 0.023266 -0.001686 -0.002296
# 5 0.004064 -0.002547 0.007653 -0.001686 0.054887 -0.000147
# 6 0.000200 -0.000764 -0.002432 -0.002296 -0.000147 0.038010
#
#
# Mechanical properties :
#
#
# Convention : Reuss Voigt Hill
#
# Bulk Modulus (GPa) = 50.37970 57.93923 54.15947
# Shear Modulus (GPa) = 27.18644 31.55097 29.36870
#
# Velocity S-wave (km/s) = 3.68900 3.97410 3.83420
# Velocity P-wave (km/s) = 6.58511 7.07536 6.83463
#
# Compressibility (1/GPa) = 0.01984926
#
# Stress axis : x y z
#
# Youngs Moduli (GPa) = 81.79690 87.10222 59.57168
#
# Poissons Ratio (x) = 0.14199 0.19001
# Poissons Ratio (y) = 0.13334 0.32777
# Poissons Ratio (z) = 0.26089 0.47924
#
# Static dielectric constant tensor:
#      x y z
#    x 4.201110 -0.386070 0.032780 
#    y -0.386070 4.270910 0.165310 
#    z 0.032780 0.165310 3.909600 
# 
# 
# High freq. dielectric constant tensor:
#      x y z
#    x 1.749090 -0.000050 -0.012680 
#    y -0.000050 1.798280 -0.015950 
#    z -0.012680 -0.015950 1.784730 
# 
# From -- ./inp_files/403640.got.cif
#   From: 2010.06.25/outbox.cif.g09.slc.cpg/sg2_202_cif.got.tgz:403640.got - 2010.06.27 13:26:56.
