data_PCOD8041703
_publ_section_title
;
Structure prediction by ZEFSAII (Michael W. Deem and Ramdas Pophale) SiO2 
 PCOD8041703
Probable space group: P -1
;
_chemical_formula_sum "Si O2"
_cell_formula_units_Z 16
_cell_length_a 15.618419
_cell_length_b 11.662938
_cell_length_c 8.433410
_cell_angle_alpha 122.668474
_cell_angle_beta 83.521845
_cell_angle_gamma 137.232111
_cell_volume 762.562327
_symmetry_space_group_name_H-M "P -1"
_symmetry_group_IT_number 2
_symmetry_cell_setting 'triclinic'
loop_
_space_group_symop_operation_xyz
x,y,z
-x,-y,-z
loop_
_atom_site_type_symbol
_atom_site_label
_atom_site_fract_x
_atom_site_fract_y
_atom_site_fract_z
Si Si1 0.255743 0.174801 0.129956
Si Si2 0.879776 0.649897 0.203858
Si Si3 0.815158 0.068435 0.757408
Si Si4 0.226736 0.389834 0.495338
Si Si5 0.712735 0.635550 0.028889
Si Si6 0.359664 0.703232 0.429003
Si Si7 0.587317 0.556747 0.310720
Si Si8 0.314098 0.816924 0.235069
O O1 0.175888 0.194503 0.258616
O O2 0.224371 0.157354 0.936253
O O3 0.430016 0.404948 0.286778
O O4 0.197218 0.961507 0.067551
O O5 0.895510 0.717167 0.433844
O O6 0.022708 0.755846 0.198623
O O7 0.850422 0.744835 0.171198
O O8 0.740740 0.372879 0.010510
O O9 0.781319 0.173924 0.778741
O O10 0.703902 0.821329 0.520269
O O11 0.259030 0.555201 0.493043
O O12 0.369536 0.527395 0.669639
O O13 0.632368 0.426392 0.771939
O O14 0.592884 0.535798 0.104801
O O15 0.292582 0.740320 0.365441
O O16 0.516506 0.940149 0.643138
#
# Coordination Sequence:
#
# PCOD8041703 Si02
#       8
#     2   2   2   2   2   2   2   2
#     4  10  19  33  57  81 104 133 170 221 267 306
#     4  10  22  36  52  74 106 146 178 209 246 309
#     4  11  21  35  53  76 110 142 170 209 261 311
#     4   9  18  34  53  78 104 132 174 213 258 309
#     4   9  19  35  55  81 106 131 171 216 263 312
#     4   9  18  36  60  78 101 135 172 222 262 296
#     4  10  19  33  57  83 106 131 167 220 269 309
#     4  10  20  36  55  76 102 139 178 213 259 303
#
# _framework density 20.981891000000001
#
# number of rings (size 3 to 8) (size 9 to 14) (size 15 to 20)
#    0.000    2.250    0.000    4.500    0.000    5.500 
#    0.000    6.875    0.000    0.000    0.000    0.000 
#    0.000    0.000    0.000    0.000    0.000    0.000 
#
# Total GULP energy -198265.777526 kJ/mol
# GULP energy per Si atom -12391.611095 kJ/mol
# Density = 2.093413 g / cm^3
# Si number density = 20.981891 Si / 1000 Ang^3
#
#
#
# Elastic Constant Matrix: (Units=GPa)
#
#
# Indices 1 2 3 4 5 6 
#
# 1 80.1960 30.7621 -5.0176 -9.8178 4.7824 -23.2921
# 2 30.7621 84.5066 18.0708 -26.7868 1.3658 -19.6393
# 3 -5.0176 18.0708 38.2269 -11.8252 -4.8961 -1.7900
# 4 -9.8178 -26.7868 -11.8252 28.6365 -3.3973 10.3746
# 5 4.7824 1.3658 -4.8961 -3.3973 16.2360 -6.6844
# 6 -23.2921 -19.6393 -1.7900 10.3746 -6.6844 35.8982
#
#
#
# Elastic Compliance Matrix: (Units=1/GPa)
#
#
# Indices 1 2 3 4 5 6 
#
# 1 0.017382 -0.005476 0.005328 -0.000038 0.000502 0.008652
# 2 -0.005476 0.020165 -0.005507 0.013669 0.002660 0.003750
# 3 0.005328 -0.005507 0.034859 0.012188 0.012351 0.000960
# 4 -0.000038 0.013669 0.012188 0.056307 0.011846 -0.006006
# 5 0.000502 0.002660 0.012351 0.011846 0.072563 0.012484
# 6 0.008652 0.003750 0.000960 -0.006006 0.012484 0.039630
#
#
# Mechanical properties :
#
#
# Convention : Reuss Voigt Hill
#
# Bulk Modulus (GPa) = 16.36773 32.28446 24.32610
# Shear Modulus (GPa) = 18.34306 26.76175 22.55240
#
# Velocity S-wave (km/s) = 2.95995 3.57525 3.28205
# Velocity P-wave (km/s) = 4.41583 5.69767 5.09720
#
# Compressibility (1/GPa) = 0.06109581
#
# Stress axis : x y z
#
# Youngs Moduli (GPa) = 57.53204 49.58978 28.68680
#
# Poissons Ratio (x) = 0.27155 -0.15283
# Poissons Ratio (y) = 0.31504 0.15798
# Poissons Ratio (z) = -0.30651 0.27309
#
# Static dielectric constant tensor:
#      x y z
#    x 3.888360 -0.396890 0.136310 
#    y -0.396890 3.983880 -0.314090 
#    z 0.136310 -0.314090 3.646690 
# 
# 
# High freq. dielectric constant tensor:
#      x y z
#    x 1.817460 -0.016880 0.016240 
#    y -0.016880 1.822780 -0.020290 
#    z 0.016240 -0.020290 1.795350 
# 
# From -- ./inp_files/308316.got.cif
#   From: 2010.06.25/outbox.cif.g09.slc.cpg/sg2_155_cif.got.tgz:308316.got - 2010.06.27 13:26:56.
