data_PCOD8041795
_publ_section_title
;
Structure prediction by ZEFSAII (Michael W. Deem and Ramdas Pophale) SiO2 
 PCOD8041795
Probable space group: P -1
;
_chemical_formula_sum "Si O2"
_cell_formula_units_Z 16
_cell_length_a 14.832554
_cell_length_b 11.337663
_cell_length_c 14.451435
_cell_angle_alpha 137.540405
_cell_angle_beta 29.561971
_cell_angle_gamma 121.977744
_cell_volume 762.161024
_symmetry_space_group_name_H-M "P -1"
_symmetry_group_IT_number 2
_symmetry_cell_setting 'triclinic'
loop_
_space_group_symop_operation_xyz
x,y,z
-x,-y,-z
loop_
_atom_site_type_symbol
_atom_site_label
_atom_site_fract_x
_atom_site_fract_y
_atom_site_fract_z
Si Si1 0.413671 0.914626 0.231182
Si Si2 0.775068 0.834770 0.177889
Si Si3 0.593715 0.229242 0.509136
Si Si4 0.820767 0.209903 0.873889
Si Si5 0.800898 0.839012 0.591586
Si Si6 0.765546 0.938743 0.049459
Si Si7 0.435583 0.377152 0.223254
Si Si8 0.033868 0.068899 0.777167
O O1 0.226781 0.946397 0.480473
O O2 0.358729 0.081710 0.301634
O O3 0.597618 0.897997 0.119570
O O4 0.466688 0.721774 0.016037
O O5 0.640351 0.713282 0.252351
O O6 0.663503 0.059180 0.422369
O O7 0.842222 0.801169 0.990557
O O8 0.940317 0.794231 0.085129
O O9 0.682827 0.151359 0.284163
O O10 0.658675 0.401985 0.581708
O O11 0.982755 0.262805 0.699966
O O12 0.813829 0.006429 0.739561
O O13 0.606715 0.355319 0.132843
O O14 0.878181 0.208754 0.929133
O O15 0.731257 0.698748 0.634530
O O16 0.947173 0.917750 0.809339
#
# Coordination Sequence:
#
# PCOD8041795 Si02
#       8
#     2   2   2   2   2   2   2   2
#     4  10  19  33  59  83 112 142 181 226 271 330
#     4   9  19  40  58  75 107 152 188 226 271 331
#     4   9  20  38  59  78 111 146 187 227 279 319
#     4   9  19  33  55  84 115 147 177 220 271 335
#     4   9  18  34  53  81 117 151 179 210 275 338
#     4  10  19  36  61  80 101 151 190 222 268 334
#     4  11  20  36  57  86 116 141 177 235 277 319
#     4  11  18  34  62  82 102 147 196 215 264 335
#
# _framework density 20.992939
#
# number of rings (size 3 to 8) (size 9 to 14) (size 15 to 20)
#    0.750    1.500    1.250    4.125    0.000    0.000 
#    2.250    5.625    0.000    3.750    0.000    0.000 
#    0.000    0.000    0.000    0.000    0.000    0.000 
#
# Total GULP energy -198237.813725 kJ/mol
# GULP energy per Si atom -12389.863358 kJ/mol
# Density = 2.094516 g / cm^3
# Si number density = 20.992939 Si / 1000 Ang^3
#
#
#
# Elastic Constant Matrix: (Units=GPa)
#
#
# Indices 1 2 3 4 5 6 
#
# 1 109.2171 10.4070 16.4164 -15.6966 14.0413 13.8738
# 2 10.4070 105.0960 36.8702 -17.4497 12.1630 5.9184
# 3 16.4164 36.8702 40.2745 -21.3220 10.6089 3.0089
# 4 -15.6966 -17.4497 -21.3220 36.9521 -1.1216 1.8074
# 5 14.0413 12.1630 10.6089 -1.1216 18.1384 -7.6521
# 6 13.8738 5.9184 3.0089 1.8074 -7.6521 18.9972
#
#
#
# Elastic Compliance Matrix: (Units=1/GPa)
#
#
# Indices 1 2 3 4 5 6 
#
# 1 0.017381 0.003086 0.007853 0.013830 -0.031446 -0.028881
# 2 0.003086 0.014937 -0.009923 0.002800 -0.010591 -0.009868
# 3 0.007853 -0.009923 0.067457 0.037842 -0.052625 -0.038126
# 4 0.013830 0.002800 0.037842 0.056666 -0.048965 -0.042080
# 5 -0.031446 -0.010591 -0.052625 -0.048965 0.157686 0.102775
# 6 -0.028881 -0.009868 -0.038126 -0.042080 0.102775 0.128245
#
#
# Mechanical properties :
#
#
# Convention : Reuss Voigt Hill
#
# Bulk Modulus (GPa) = 9.82247 42.44164 26.13205
# Shear Modulus (GPa) = 10.54239 27.54382 19.04311
#
# Velocity S-wave (km/s) = 2.24339 3.62615 3.01511
# Velocity P-wave (km/s) = 3.37631 6.14760 4.95946
#
# Compressibility (1/GPa) = 0.10180743
#
# Stress axis : x y z
#
# Youngs Moduli (GPa) = 57.53485 66.94773 14.82427
#
# Poissons Ratio (x) = -0.20658 -0.11642
# Poissons Ratio (y) = -0.17754 0.14710
# Poissons Ratio (z) = -0.45184 0.66430
#
# Static dielectric constant tensor:
#      x y z
#    x 3.983220 0.095310 0.026910 
#    y 0.095310 3.494860 -0.339040 
#    z 0.026910 -0.339040 3.561450 
# 
# 
# High freq. dielectric constant tensor:
#      x y z
#    x 1.828010 0.010680 0.003020 
#    y 0.010680 1.798610 -0.039150 
#    z 0.003020 -0.039150 1.796550 
# 
# From -- ./inp_files/532711.got.cif
#   From: 2010.06.25/outbox.cif.g09.slc.cpg/sg2_267_cif.got.tgz:532711.got - 2010.06.27 13:26:56.
