data_PCOD8041409
_publ_section_title
;
Structure prediction by ZEFSAII (Michael W. Deem and Ramdas Pophale) SiO2 
 PCOD8041409
Probable space group: P -1
;
_chemical_formula_sum "Si O2"
_cell_formula_units_Z 16
_cell_length_a 8.671613
_cell_length_b 17.262097
_cell_length_c 11.297900
_cell_angle_alpha 125.631653
_cell_angle_beta 57.993383
_cell_angle_gamma 77.166893
_cell_volume 743.339672
_symmetry_space_group_name_H-M "P -1"
_symmetry_group_IT_number 2
_symmetry_cell_setting 'triclinic'
loop_
_space_group_symop_operation_xyz
x,y,z
-x,-y,-z
loop_
_atom_site_type_symbol
_atom_site_label
_atom_site_fract_x
_atom_site_fract_y
_atom_site_fract_z
Si Si1 0.466550 0.245690 0.296758
Si Si2 0.765082 0.956966 0.826019
Si Si3 0.596929 0.070215 0.436032
Si Si4 0.696451 0.486993 0.491700
Si Si5 0.326839 0.545051 0.868981
Si Si6 0.711428 0.215717 0.403920
Si Si7 0.133405 0.227543 0.936143
Si Si8 0.865638 0.772112 0.434755
O O1 0.324256 0.392953 0.421294
O O2 0.696391 0.186200 0.249007
O O3 0.220193 0.279550 0.487275
O O4 0.649812 0.112387 0.006787
O O5 0.890272 0.865776 0.571238
O O6 0.990562 0.852527 0.749452
O O7 0.500000 0.000000 0.000000
O O8 0.705114 0.131936 0.424709
O O9 0.452861 0.128301 0.677600
O O10 0.368152 0.127358 0.483221
O O11 0.865320 0.888683 0.160618
O O12 0.500000 0.500000 0.500000
O O13 0.588132 0.510041 0.690848
O O14 0.023865 0.318727 0.186184
O O15 0.441628 0.391550 0.695295
O O16 0.081342 0.645659 0.961104
O O17 0.185413 0.627789 0.125825
#
# Coordination Sequence:
#
# PCOD8041409 Si02
#       8
#     2   2   2   2   2   2   2   2
#     4  10  20  37  63  92 112 155 204 251 291 351
#     4  10  23  40  57  86 124 158 200 251 299 347
#     4   9  20  34  63  93 114 156 205 244 294 354
#     4  10  19  32  56  91 122 151 181 256 307 339
#     4  10  21  35  59  91 127 150 193 247 309 342
#     4  11  21  34  64  96 109 152 210 254 286 356
#     4   9  18  35  56  89 130 148 186 253 310 337
#     4   9  21  40  59  85 125 165 194 239 298 362
#
# _framework density 21.524480000000001
#
# number of rings (size 3 to 8) (size 9 to 14) (size 15 to 20)
#    0.000    2.250    2.500    0.375    5.250    5.000 
#    0.000    0.625    0.000    3.750    0.000    0.000 
#    0.000    0.000    0.000    0.000    0.000    0.000 
#
# Total GULP energy -198241.668917 kJ/mol
# GULP energy per Si atom -12390.104307 kJ/mol
# Density = 2.147549 g / cm^3
# Si number density = 21.524480 Si / 1000 Ang^3
#
#
#
# Elastic Constant Matrix: (Units=GPa)
#
#
# Indices 1 2 3 4 5 6 
#
# 1 76.4639 22.3607 55.0262 0.9406 11.7318 8.0280
# 2 22.3607 105.5866 58.1247 14.5765 4.6515 29.1939
# 3 55.0262 58.1247 165.9532 12.0762 23.8419 21.4172
# 4 0.9406 14.5765 12.0762 43.6124 -0.3550 4.2627
# 5 11.7318 4.6515 23.8419 -0.3550 28.0413 6.8842
# 6 8.0280 29.1939 21.4172 4.2627 6.8842 16.5970
#
#
#
# Elastic Compliance Matrix: (Units=1/GPa)
#
#
# Indices 1 2 3 4 5 6 
#
# 1 0.017491 -0.001287 -0.005195 0.001328 -0.003019 0.001417
# 2 -0.001287 0.021526 -0.003585 -0.002628 0.008711 -0.035555
# 3 -0.005195 -0.003585 0.010091 -0.001372 -0.005437 -0.001596
# 4 0.001328 -0.002628 -0.001372 0.024286 0.001641 -0.001167
# 5 -0.003019 0.008711 -0.005437 0.001641 0.046659 -0.026621
# 6 0.001417 -0.035555 -0.001596 -0.001167 -0.026621 0.135507
#
#
# Mechanical properties :
#
#
# Convention : Reuss Voigt Hill
#
# Bulk Modulus (GPa) = 34.51170 68.78076 51.64623
# Shear Modulus (GPa) = 17.52231 31.81629 24.66930
#
# Velocity S-wave (km/s) = 2.85628 3.84884 3.38909
# Velocity P-wave (km/s) = 5.19098 7.19551 6.27382
#
# Compressibility (1/GPa) = 0.02897568
#
# Stress axis : x y z
#
# Youngs Moduli (GPa) = 57.17344 46.45464 99.10158
#
# Poissons Ratio (x) = 0.05977 0.51481
# Poissons Ratio (y) = 0.07356 0.35524
# Poissons Ratio (z) = 0.29700 0.16652
#
# Static dielectric constant tensor:
#      x y z
#    x 3.899300 0.184060 0.413270 
#    y 0.184060 3.999050 -0.298800 
#    z 0.413270 -0.298800 5.208010 
# 
# 
# High freq. dielectric constant tensor:
#      x y z
#    x 1.792460 0.018740 0.003440 
#    y 0.018740 1.836210 0.006970 
#    z 0.003440 0.006970 1.872680 
# 
# From -- ./inp_files/277751.got.cif
#   From: 2010.06.25/outbox.cif.g09.slc.cpg/sg2_139_cif.got.tgz:277751.got - 2010.06.27 13:26:56.
