data_PCOD8041798
_publ_section_title
;
Structure prediction by ZEFSAII (Michael W. Deem and Ramdas Pophale) SiO2 
 PCOD8041798
Probable space group: P -1
;
_chemical_formula_sum "Si O2"
_cell_formula_units_Z 14
_cell_length_a 9.092426
_cell_length_b 8.778864
_cell_length_c 12.189395
_cell_angle_alpha 80.074297
_cell_angle_beta 123.414635
_cell_angle_gamma 84.109705
_cell_volume 776.556933
_symmetry_space_group_name_H-M "P -1"
_symmetry_group_IT_number 2
_symmetry_cell_setting 'triclinic'
loop_
_space_group_symop_operation_xyz
x,y,z
-x,-y,-z
loop_
_atom_site_type_symbol
_atom_site_label
_atom_site_fract_x
_atom_site_fract_y
_atom_site_fract_z
Si Si1 0.908539 0.788018 0.017589
Si Si2 0.505229 0.615936 0.587766
Si Si3 0.340898 0.933140 0.396442
Si Si4 0.492166 0.559907 0.163353
Si Si5 0.137154 0.265631 0.243764
Si Si6 0.283445 0.864953 0.143094
Si Si7 0.785055 0.517336 0.111697
O O1 0.860880 0.673490 0.104745
O O2 0.119535 0.784356 0.117069
O O3 0.872070 0.720091 0.893009
O O4 0.788349 0.966204 0.967755
O O5 0.500000 0.500000 0.500000
O O6 0.338511 0.773982 0.484288
O O7 0.473008 0.536215 0.697690
O O8 0.697686 0.663324 0.656480
O O9 0.386578 0.886222 0.294379
O O10 0.500000 0.000000 0.500000
O O11 0.160121 0.078755 0.310794
O O12 0.419449 0.748413 0.131995
O O13 0.683136 0.534163 0.183474
O O14 0.348968 0.495799 0.040608
O O15 0.949958 0.361813 0.207438
#
# Coordination Sequence:
#
# PCOD8041798 Si02
#       7
#     2   2   2   2   2   2   2
#     4  10  19  33  59  85 106 141 186 237 275 318
#     4  11  20  35  60  81 107 144 193 228 262 327
#     4   9  20  34  57  82 106 141 186 233 268 316
#     4  11  22  36  55  86 115 147 180 222 285 331
#     4  10  19  36  57  82 108 143 186 228 278 318
#     4  10  19  34  58  85 107 138 192 232 272 325
#     4  11  22  36  56  83 120 145 174 230 285 330
#
# _framework density 18.028299000000001
#
# number of rings (size 3 to 8) (size 9 to 14) (size 15 to 20)
#    0.000    1.714    4.286    1.286    0.000    0.571 
#    0.000    1.429    0.000    0.000    0.000    0.000 
#    0.000    0.000    0.000    0.000    0.000    0.000 
#
# Total GULP energy -173571.477819 kJ/mol
# GULP energy per Si atom -12397.962701 kJ/mol
# Density = 1.798727 g / cm^3
# Si number density = 18.028299 Si / 1000 Ang^3
#
#
#
# Elastic Constant Matrix: (Units=GPa)
#
#
# Indices 1 2 3 4 5 6 
#
# 1 105.8598 67.0122 43.4265 -15.4752 -6.1818 -18.8278
# 2 67.0122 130.4492 45.6581 -17.6563 -8.3596 -12.4844
# 3 43.4265 45.6581 87.8651 -5.1623 -9.7576 -4.5214
# 4 -15.4752 -17.6563 -5.1623 44.1509 1.2123 8.3284
# 5 -6.1818 -8.3596 -9.7576 1.2123 19.0734 2.9998
# 6 -18.8278 -12.4844 -4.5214 8.3284 2.9998 25.8969
#
#
#
# Elastic Compliance Matrix: (Units=1/GPa)
#
#
# Indices 1 2 3 4 5 6 
#
# 1 0.016851 -0.006078 -0.004782 0.001407 -0.001020 0.008152
# 2 -0.006078 0.012288 -0.003052 0.002378 0.001702 0.000010
# 3 -0.004782 -0.003052 0.015780 -0.000713 0.005642 -0.002617
# 4 0.001407 0.002378 -0.000713 0.025148 0.000495 -0.006100
# 5 -0.001020 0.001702 0.005642 0.000495 0.056588 -0.005650
# 6 0.008152 0.000010 -0.002617 -0.006100 -0.005650 0.046706
#
#
# Mechanical properties :
#
#
# Convention : Reuss Voigt Hill
#
# Bulk Modulus (GPa) = 58.49005 70.70753 64.59879
# Shear Modulus (GPa) = 24.16816 29.02939 26.59877
#
# Velocity S-wave (km/s) = 3.66535 4.01710 3.84525
# Velocity P-wave (km/s) = 7.10119 7.79882 7.45817
#
# Compressibility (1/GPa) = 0.01709693
#
# Stress axis : x y z
#
# Youngs Moduli (GPa) = 59.34203 81.37832 63.36948
#
# Poissons Ratio (x) = 0.49460 0.30300
# Poissons Ratio (y) = 0.36067 0.19343
# Poissons Ratio (z) = 0.28374 0.24839
#
# Static dielectric constant tensor:
#      x y z
#    x 3.002310 -0.050210 0.106880 
#    y -0.050210 3.860920 -0.275650 
#    z 0.106880 -0.275650 3.727160 
# 
# 
# High freq. dielectric constant tensor:
#      x y z
#    x 1.651980 -0.000380 0.012430 
#    y -0.000380 1.724580 -0.003800 
#    z 0.012430 -0.003800 1.707000 
# 
# From -- ./inp_files/154602.got.cif
#   From: 2010.06.25/outbox.cif.g09.slc.cpg/sg2_78_cif.got.tgz:154602.got - 2010.06.27 13:26:56.
