data_PCOD8041782
_publ_section_title
;
Structure prediction by ZEFSAII (Michael W. Deem and Ramdas Pophale) SiO2 
 PCOD8041782
Probable space group: P -1
;
_chemical_formula_sum "Si O2"
_cell_formula_units_Z 16
_cell_length_a 9.181640
_cell_length_b 5.074819
_cell_length_c 19.890399
_cell_angle_alpha 116.647332
_cell_angle_beta 78.408445
_cell_angle_gamma 101.081969
_cell_volume 805.925784
_symmetry_space_group_name_H-M "P -1"
_symmetry_group_IT_number 2
_symmetry_cell_setting 'triclinic'
loop_
_space_group_symop_operation_xyz
x,y,z
-x,-y,-z
loop_
_atom_site_type_symbol
_atom_site_label
_atom_site_fract_x
_atom_site_fract_y
_atom_site_fract_z
Si Si1 0.348056 0.646328 0.040322
Si Si2 0.828514 0.134307 0.465941
Si Si3 0.566603 0.758315 0.663278
Si Si4 0.970732 0.653108 0.952107
Si Si5 0.720094 0.446285 0.108873
Si Si6 0.458194 0.006048 0.836054
Si Si7 0.835201 0.816101 0.562134
Si Si8 0.455855 0.086722 0.588764
O O1 0.202878 0.446203 0.064628
O O2 0.397622 0.904330 0.119024
O O3 0.500000 0.500000 0.000000
O O4 0.302918 0.749669 0.981202
O O5 0.813905 0.481068 0.497991
O O6 0.994002 0.065418 0.424941
O O7 0.778816 0.031402 0.534836
O O8 0.725021 0.941916 0.399666
O O9 0.520412 0.955706 0.750961
O O10 0.744632 0.832719 0.642031
O O11 0.523868 0.411971 0.642885
O O12 0.491827 0.840431 0.610223
O O13 0.105359 0.541998 0.881166
O O14 0.000000 0.500000 0.000000
O O15 0.000000 0.000000 0.000000
O O16 0.621017 0.299538 0.161537
O O17 0.666499 0.764677 0.131922
O O18 0.500000 0.000000 0.500000
#
# Coordination Sequence:
#
# PCOD8041782 Si02
#       8
#     2   2   2   2   2   2   2   2
#     4   9  19  36  61  86 112 149 197 234 271 336
#     4  10  20  33  58  82 108 136 184 227 287 325
#     4  12  23  37  57  83 119 146 192 235 292 338
#     4  10  19  33  58  89 111 142 187 243 280 317
#     4  10  20  38  59  83 117 149 197 233 280 333
#     4  11  23  38  55  83 116 159 184 238 288 337
#     4  10  19  35  54  83 109 140 174 236 278 342
#     4  12  21  37  60  86 105 146 190 240 278 344
#
# _framework density 19.852943
#
# number of rings (size 3 to 8) (size 9 to 14) (size 15 to 20)
#    0.000    1.500    2.500    4.500    0.000    3.000 
#    0.000    2.500    0.000    0.000    0.000    0.000 
#    0.000    0.000    0.000    0.000    0.000    0.000 
#
# Total GULP energy -198220.982992 kJ/mol
# GULP energy per Si atom -12388.811437 kJ/mol
# Density = 1.980776 g / cm^3
# Si number density = 19.852943 Si / 1000 Ang^3
#
#
#
# Elastic Constant Matrix: (Units=GPa)
#
#
# Indices 1 2 3 4 5 6 
#
# 1 103.3976 20.5357 24.2839 -4.0163 -10.1059 20.5771
# 2 20.5357 87.3062 4.0102 -9.6433 -2.3055 1.3945
# 3 24.2839 4.0102 82.7164 -7.0950 -9.6525 8.3146
# 4 -4.0163 -9.6433 -7.0950 24.1922 -0.0322 -3.7424
# 5 -10.1059 -2.3055 -9.6525 -0.0322 18.2516 -4.9001
# 6 20.5771 1.3945 8.3146 -3.7424 -4.9001 40.1906
#
#
#
# Elastic Compliance Matrix: (Units=1/GPa)
#
#
# Indices 1 2 3 4 5 6 
#
# 1 0.012164 -0.002628 -0.002542 -0.000576 0.003657 -0.005219
# 2 -0.002628 0.012594 0.000542 0.004953 0.000795 0.001355
# 3 -0.002542 0.000542 0.013871 0.003790 0.005864 -0.000519
# 4 -0.000576 0.004953 0.003790 0.044941 0.003449 0.003944
# 5 0.003657 0.000795 0.005864 0.003449 0.061278 0.004679
# 6 -0.005219 0.001355 -0.000519 0.003944 0.004679 0.028551
#
#
# Mechanical properties :
#
#
# Convention : Reuss Voigt Hill
#
# Bulk Modulus (GPa) = 34.04396 41.23108 37.63752
# Shear Modulus (GPa) = 25.98140 31.49958 28.74049
#
# Velocity S-wave (km/s) = 3.62151 3.98759 3.80895
# Velocity P-wave (km/s) = 5.88833 6.48186 6.19221
#
# Compressibility (1/GPa) = 0.02937378
#
# Stress axis : x y z
#
# Youngs Moduli (GPa) = 82.21042 79.40502 72.09290
#
# Poissons Ratio (x) = 0.20868 0.18324
# Poissons Ratio (y) = 0.21606 -0.03911
# Poissons Ratio (z) = 0.20896 -0.04308
#
# Static dielectric constant tensor:
#      x y z
#    x 5.025180 0.688230 -0.031860 
#    y 0.688230 3.906580 -0.151270 
#    z -0.031860 -0.151270 3.382130 
# 
# 
# High freq. dielectric constant tensor:
#      x y z
#    x 1.796330 0.006310 -0.010580 
#    y 0.006310 1.784550 -0.016830 
#    z -0.010580 -0.016830 1.725300 
# 
# From -- ./inp_files/585379.got.cif
#   From: 2010.06.25/outbox.cif.g09.slc.cpg/sg2_293_cif.got.tgz:585379.got - 2010.06.27 13:26:56.
