data_PCOD8041616
_publ_section_title
;
Structure prediction by ZEFSAII (Michael W. Deem and Ramdas Pophale) SiO2 
 PCOD8041616
Probable space group: P -1
;
_chemical_formula_sum "Si O2"
_cell_formula_units_Z 16
_cell_length_a 19.263338
_cell_length_b 14.315271
_cell_length_c 14.359820
_cell_angle_alpha 20.261527
_cell_angle_beta 38.476294
_cell_angle_gamma 38.664804
_cell_volume 833.214223
_symmetry_space_group_name_H-M "P -1"
_symmetry_group_IT_number 2
_symmetry_cell_setting 'triclinic'
loop_
_space_group_symop_operation_xyz
x,y,z
-x,-y,-z
loop_
_atom_site_type_symbol
_atom_site_label
_atom_site_fract_x
_atom_site_fract_y
_atom_site_fract_z
Si Si1 0.000608 0.430716 0.956825
Si Si2 0.085952 0.072561 0.550807
Si Si3 0.286091 0.995732 0.544623
Si Si4 0.787555 0.764755 0.202836
Si Si5 0.874959 0.272008 0.708631
Si Si6 0.416190 0.680154 0.988969
Si Si7 0.546416 0.780850 0.478867
Si Si8 0.771674 0.406876 0.865471
O O1 0.938153 0.694007 0.719251
O O2 0.132196 0.325218 0.886518
O O3 0.000000 0.500000 0.000000
O O4 0.927046 0.203892 0.227976
O O5 0.214635 0.040981 0.482326
O O6 0.003514 0.142096 0.661668
O O7 0.269788 0.276845 0.357481
O O8 0.417582 0.880867 0.481185
O O9 0.238590 0.777085 0.862383
O O10 0.827227 0.562098 0.436923
O O11 0.655228 0.770695 0.304611
O O12 0.793693 0.067460 0.949945
O O13 0.889152 0.326452 0.756259
O O14 0.437268 0.989725 0.676728
O O15 0.500000 0.500000 0.000000
O O16 0.439987 0.526652 0.206984
O O17 0.295116 0.671110 0.081820
#
# Coordination Sequence:
#
# PCOD8041616 Si02
#       8
#     2   2   2   2   2   2   2   2
#     4  10  21  41  68  84  96 126 170 224 277 327
#     4  10  23  40  55  82 112 134 170 216 271 327
#     4  12  24  33  50  76 113 155 177 208 259 316
#     4  10  19  33  55  82 104 128 175 232 269 294
#     4  10  20  34  52  73 107 145 183 230 251 281
#     4  12  20  30  47  73 104 146 197 233 233 273
#     4  12  20  32  50  74 108 144 179 219 265 294
#     4  12  21  32  50  75 107 154 196 216 249 282
#
# _framework density 19.202745
#
# number of rings (size 3 to 8) (size 9 to 14) (size 15 to 20)
#    0.000    1.000    5.000    3.000    0.000    1.000 
#    0.000    0.000    0.000    1.500    0.000    0.000 
#    0.000    0.000    0.000    0.000    0.000    0.000 
#
# Total GULP energy -198233.789866 kJ/mol
# GULP energy per Si atom -12389.611867 kJ/mol
# Density = 1.915904 g / cm^3
# Si number density = 19.202745 Si / 1000 Ang^3
#
#
#
# Elastic Constant Matrix: (Units=GPa)
#
#
# Indices 1 2 3 4 5 6 
#
# 1 98.3327 57.8597 22.6290 4.5676 -0.4653 -10.6342
# 2 57.8597 94.9279 20.9983 2.2656 0.0081 2.0836
# 3 22.6290 20.9983 86.5972 -10.9785 4.1681 2.2693
# 4 4.5676 2.2656 -10.9785 34.2289 -0.8263 -2.1107
# 5 -0.4653 0.0081 4.1681 -0.8263 13.5828 5.7115
# 6 -10.6342 2.0836 2.2693 -2.1107 5.7115 25.8464
#
#
#
# Elastic Compliance Matrix: (Units=1/GPa)
#
#
# Indices 1 2 3 4 5 6 
#
# 1 0.018004 -0.010563 -0.002514 -0.002023 -0.002453 0.008856
# 2 -0.010563 0.017457 -0.001508 -0.000551 0.002689 -0.006260
# 3 -0.002514 -0.001508 0.013343 0.004573 -0.003508 -0.000936
# 4 -0.002023 -0.000551 0.004573 0.031069 -0.000164 0.001384
# 5 -0.002453 0.002689 -0.003508 -0.000164 0.082677 -0.019201
# 6 0.008856 -0.006260 -0.000936 0.001384 -0.019201 0.047277
#
#
# Mechanical properties :
#
#
# Convention : Reuss Voigt Hill
#
# Bulk Modulus (GPa) = 50.93190 53.64799 52.28994
# Shear Modulus (GPa) = 20.36317 26.62302 23.49310
#
# Velocity S-wave (km/s) = 3.25996 3.72750 3.50154
# Velocity P-wave (km/s) = 6.38362 6.82085 6.60585
#
# Compressibility (1/GPa) = 0.01963406
#
# Stress axis : x y z
#
# Youngs Moduli (GPa) = 55.54410 57.28477 74.94438
#
# Poissons Ratio (x) = 0.60512 0.18838
# Poissons Ratio (y) = 0.58673 0.11300
# Poissons Ratio (z) = 0.13962 0.08637
#
# Static dielectric constant tensor:
#      x y z
#    x 3.060710 -0.225500 -0.067700 
#    y -0.225500 3.719050 0.061000 
#    z -0.067700 0.061000 3.515660 
# 
# 
# High freq. dielectric constant tensor:
#      x y z
#    x 1.695700 -0.023250 -0.008620 
#    y -0.023250 1.757070 -0.008950 
#    z -0.008620 -0.008950 1.769220 
# 
# From -- ./inp_files/452082.got.cif
#   From: 2010.06.25/outbox.cif.g09.slc.cpg/sg2_227_cif.got.tgz:452082.got - 2010.06.27 13:26:56.
