data_PCOD8041825
_publ_section_title
;
Structure prediction by ZEFSAII (Michael W. Deem and Ramdas Pophale) SiO2 
 PCOD8041825
Probable space group: P -1
;
_chemical_formula_sum "Si O2"
_cell_formula_units_Z 14
_cell_length_a 17.679387
_cell_length_b 11.219162
_cell_length_c 8.391272
_cell_angle_alpha 107.739898
_cell_angle_beta 78.465184
_cell_angle_gamma 153.502642
_cell_volume 696.834047
_symmetry_space_group_name_H-M "P -1"
_symmetry_group_IT_number 2
_symmetry_cell_setting 'triclinic'
loop_
_space_group_symop_operation_xyz
x,y,z
-x,-y,-z
loop_
_atom_site_type_symbol
_atom_site_label
_atom_site_fract_x
_atom_site_fract_y
_atom_site_fract_z
Si Si1 0.268600 0.575369 0.317251
Si Si2 0.042142 0.734423 0.069989
Si Si3 0.205300 0.953740 0.402245
Si Si4 0.882434 0.350327 0.233313
Si Si5 0.874185 0.737393 0.049078
Si Si6 0.383181 0.009576 0.533993
Si Si7 0.927557 0.987101 0.391332
O O1 0.304164 0.775231 0.381731
O O2 0.087602 0.284317 0.356583
O O3 0.414692 0.714714 0.411297
O O4 0.272076 0.534263 0.113748
O O5 0.209241 0.964090 0.210920
O O6 0.881528 0.428455 0.098730
O O7 0.990685 0.802542 0.110715
O O8 0.081846 0.740544 0.877901
O O9 0.363972 0.107151 0.474086
O O10 0.035125 0.626778 0.393726
O O11 0.196032 0.082360 0.521016
O O12 0.704526 0.099823 0.300415
O O13 0.807794 0.731851 0.216729
O O14 0.000000 0.000000 0.000000
O O15 0.000000 0.000000 0.500000
#
# Coordination Sequence:
#
# PCOD8041825 Si02
#       7
#     2   2   2   2   2   2   2
#     4  10  23  38  56  85 119 148 180 237 289 338
#     4   9  18  32  55  86 107 135 198 235 271 311
#     4  10  19  33  60  87 107 145 195 232 272 334
#     4   9  18  31  57  83 111 139 186 237 273 336
#     4  10  21  35  57  78 112 152 190 225 268 334
#     4  11  21  37  58  87 118 146 179 236 301 328
#     4  11  20  38  62  82 109 150 201 228 264 334
#
# _framework density 20.090868
#
# number of rings (size 3 to 8) (size 9 to 14) (size 15 to 20)
#    0.857    1.143    2.857    1.286    4.000    0.000 
#    0.000    3.571    0.000    0.000    0.000    0.000 
#    0.000    0.000    0.000    0.000    0.000    0.000 
#
# Total GULP energy -173437.746512 kJ/mol
# GULP energy per Si atom -12388.410465 kJ/mol
# Density = 2.004514 g / cm^3
# Si number density = 20.090868 Si / 1000 Ang^3
#
#
#
# Elastic Constant Matrix: (Units=GPa)
#
#
# Indices 1 2 3 4 5 6 
#
# 1 139.1273 0.5173 48.4334 15.3731 -6.6750 -6.5848
# 2 0.5173 15.7841 7.1463 7.3427 -0.8505 1.3690
# 3 48.4334 7.1463 146.1006 18.1020 -22.7897 -2.6604
# 4 15.3731 7.3427 18.1020 13.7639 -1.9724 0.6561
# 5 -6.6750 -0.8505 -22.7897 -1.9724 38.5502 -0.4598
# 6 -6.5848 1.3690 -2.6604 0.6561 -0.4598 17.4475
#
#
#
# Elastic Compliance Matrix: (Units=1/GPa)
#
#
# Indices 1 2 3 4 5 6 
#
# 1 0.009163 0.005258 -0.001904 -0.010677 0.000069 0.003159
# 2 0.005258 0.088030 0.000584 -0.053407 0.000432 -0.002814
# 3 -0.001904 0.000584 0.009450 -0.009986 0.004773 0.001178
# 4 -0.010677 -0.053407 -0.009986 0.126132 -0.002551 -0.006172
# 5 0.000069 0.000432 0.004773 -0.002551 0.028672 0.001571
# 6 0.003159 -0.002814 0.001178 -0.006172 0.001571 0.059181
#
#
# Mechanical properties :
#
#
# Convention : Reuss Voigt Hill
#
# Bulk Modulus (GPa) = 8.73206 45.91179 27.32192
# Shear Modulus (GPa) = 14.24806 30.27997 22.26401
#
# Velocity S-wave (km/s) = 2.66593 3.88642 3.33252
# Velocity P-wave (km/s) = 3.71914 6.56054 5.33257
#
# Compressibility (1/GPa) = 0.11452051
#
# Stress axis : x y z
#
# Youngs Moduli (GPa) = 109.12970 11.35981 105.81452
#
# Poissons Ratio (x) = -0.05973 0.20146
# Poissons Ratio (y) = -0.57381 -0.06183
# Poissons Ratio (z) = 0.20777 -0.00664
#
# Static dielectric constant tensor:
#      x y z
#    x 3.580880 -0.179040 -0.170420 
#    y -0.179040 3.098730 0.112590 
#    z -0.170420 0.112590 4.287380 
# 
# 
# High freq. dielectric constant tensor:
#      x y z
#    x 1.790280 -0.022940 -0.009510 
#    y -0.022940 1.721090 -0.000370 
#    z -0.009510 -0.000370 1.803050 
# 
# From -- ./inp_files/255126.got.cif
#   From: 2010.06.25/outbox.cif.g09.slc.cpg/sg2_128_cif.got.tgz:255126.got - 2010.06.27 13:26:56.
