data_PCOD8041367
_publ_section_title
;
Structure prediction by ZEFSAII (Michael W. Deem and Ramdas Pophale) SiO2 
 PCOD8041367
Probable space group: P -1
;
_chemical_formula_sum "Si O2"
_cell_formula_units_Z 16
_cell_length_a 11.306242
_cell_length_b 10.972791
_cell_length_c 10.930578
_cell_angle_alpha 39.718335
_cell_angle_beta 100.729071
_cell_angle_gamma 107.824864
_cell_volume 822.231181
_symmetry_space_group_name_H-M "P -1"
_symmetry_group_IT_number 2
_symmetry_cell_setting 'triclinic'
loop_
_space_group_symop_operation_xyz
x,y,z
-x,-y,-z
loop_
_atom_site_type_symbol
_atom_site_label
_atom_site_fract_x
_atom_site_fract_y
_atom_site_fract_z
Si Si1 0.789751 0.190377 0.027087
Si Si2 0.458909 0.419796 0.186227
Si Si3 0.941933 0.706685 0.945775
Si Si4 0.555769 0.115702 0.543174
Si Si5 0.240449 0.063274 0.340196
Si Si6 0.409967 0.185618 0.686012
Si Si7 0.123565 0.727650 0.763144
Si Si8 0.613396 0.412562 0.731762
O O1 0.777265 0.237619 0.132849
O O2 0.935809 0.210110 0.008870
O O3 0.707200 0.968844 0.156807
O O4 0.740900 0.343587 0.814575
O O5 0.570617 0.344599 0.331097
O O6 0.333750 0.239808 0.296062
O O7 0.436357 0.593162 0.133693
O O8 0.500000 0.500000 0.000000
O O9 0.846990 0.843928 0.835744
O O10 0.985781 0.711379 0.807145
O O11 0.876177 0.478790 0.144511
O O12 0.468420 0.073859 0.678172
O O13 0.500000 0.000000 0.500000
O O14 0.685057 0.057319 0.638743
O O15 0.156528 0.909630 0.536571
O O16 0.513450 0.257595 0.753249
O O17 0.360101 0.366711 0.486120
#
# Coordination Sequence:
#
# PCOD8041367 Si02
#       8
#     2   2   2   2   2   2   2   2
#     4  10  19  32  55  79 109 139 181 226 274 318
#     4  10  22  33  55  86 116 144 179 223 281 327
#     4   9  21  32  52  80 111 145 182 233 274 322
#     4   9  20  34  52  80 109 147 174 223 275 330
#     4  11  20  34  54  78 119 148 174 223 283 329
#     4  10  21  38  54  82 111 142 190 219 279 330
#     4   9  19  33  50  79 114 139 189 222 276 325
#     4  10  21  35  56  80 111 147 180 231 268 329
#
# _framework density 19.459247999999999
#
# number of rings (size 3 to 8) (size 9 to 14) (size 15 to 20)
#    0.750    1.500    0.000    3.750    7.000    1.000 
#    0.000    0.000    0.000    0.750    0.000    3.500 
#    0.000    0.000    0.000    0.000    0.000    0.000 
#
# Total GULP energy -198230.896461 kJ/mol
# GULP energy per Si atom -12389.431029 kJ/mol
# Density = 1.941496 g / cm^3
# Si number density = 19.459248 Si / 1000 Ang^3
#
#
#
# Elastic Constant Matrix: (Units=GPa)
#
#
# Indices 1 2 3 4 5 6 
#
# 1 98.0763 35.1253 46.2881 -6.7617 35.1078 12.8123
# 2 35.1253 76.8269 28.2651 -5.6245 5.1797 8.6751
# 3 46.2881 28.2651 88.7891 -13.2911 17.6621 8.8312
# 4 -6.7617 -5.6245 -13.2911 25.1280 3.8976 -1.2279
# 5 35.1078 5.1797 17.6621 3.8976 41.8101 6.8091
# 6 12.8123 8.6751 8.8312 -1.2279 6.8091 20.0326
#
#
#
# Elastic Compliance Matrix: (Units=1/GPa)
#
#
# Indices 1 2 3 4 5 6 
#
# 1 0.020415 -0.005875 -0.005134 0.003481 -0.014039 -0.003264
# 2 -0.005875 0.016871 -0.002900 -0.000262 0.004727 -0.003893
# 3 -0.005134 -0.002900 0.016623 0.007126 -0.002787 -0.001404
# 4 0.003481 -0.000262 0.007126 0.046107 -0.010378 0.001099
# 5 -0.014039 0.004727 -0.002787 -0.010378 0.038152 -0.005443
# 6 -0.003264 -0.003893 -0.001404 0.001099 -0.005443 0.056229
#
#
# Mechanical properties :
#
#
# Convention : Reuss Voigt Hill
#
# Bulk Modulus (GPa) = 38.32832 53.67213 46.00023
# Shear Modulus (GPa) = 21.65322 27.66172 24.65747
#
# Velocity S-wave (km/s) = 3.33940 3.77440 3.56354
# Velocity P-wave (km/s) = 5.88288 6.82909 6.37357
#
# Compressibility (1/GPa) = 0.02609037
#
# Stress axis : x y z
#
# Youngs Moduli (GPa) = 48.98318 59.27330 60.15621
#
# Poissons Ratio (x) = 0.34823 0.30887
# Poissons Ratio (y) = 0.28777 0.17447
# Poissons Ratio (z) = 0.25150 0.17191
#
# Static dielectric constant tensor:
#      x y z
#    x 3.679270 -0.036630 0.340410 
#    y -0.036630 3.398400 -0.205540 
#    z 0.340410 -0.205540 3.528040 
# 
# 
# High freq. dielectric constant tensor:
#      x y z
#    x 1.739720 0.009700 0.023260 
#    y 0.009700 1.726040 -0.019520 
#    z 0.023260 -0.019520 1.759170 
# 
# From -- ./inp_files/422856.got.cif
#   From: 2010.06.25/outbox.cif.g09.slc.cpg/sg2_212_cif.got.tgz:422856.got - 2010.06.27 13:26:56.
