data_PCOD8041426
_publ_section_title
;
Structure prediction by ZEFSAII (Michael W. Deem and Ramdas Pophale) SiO2 
 PCOD8041426
Probable space group: P -1
;
_chemical_formula_sum "Si O2"
_cell_formula_units_Z 16
_cell_length_a 13.808425
_cell_length_b 16.559397
_cell_length_c 13.954049
_cell_angle_alpha 42.634156
_cell_angle_beta 21.272682
_cell_angle_gamma 40.216571
_cell_volume 743.477483
_symmetry_space_group_name_H-M "P -1"
_symmetry_group_IT_number 2
_symmetry_cell_setting 'triclinic'
loop_
_space_group_symop_operation_xyz
x,y,z
-x,-y,-z
loop_
_atom_site_type_symbol
_atom_site_label
_atom_site_fract_x
_atom_site_fract_y
_atom_site_fract_z
Si Si1 0.785342 0.434927 0.417153
Si Si2 0.855537 0.650426 0.496200
Si Si3 0.787791 0.424825 0.088518
Si Si4 0.306103 0.786251 0.406204
Si Si5 0.136418 0.231698 0.412753
Si Si6 0.142900 0.171676 0.061472
Si Si7 0.711506 0.103238 0.883391
Si Si8 0.654773 0.397073 0.026715
O O1 0.504080 0.542204 0.614774
O O2 0.707088 0.355446 0.472882
O O3 0.904337 0.344310 0.475845
O O4 0.020374 0.496576 0.113363
O O5 0.791636 0.719006 0.596242
O O6 0.558844 0.681034 0.686529
O O7 0.000000 0.500000 0.500000
O O8 0.062526 0.699281 0.196420
O O9 0.729493 0.459103 0.999926
O O10 0.937304 0.276341 0.091480
O O11 0.289975 0.860303 0.258062
O O12 0.032506 0.854890 0.662855
O O13 0.598217 0.780371 0.190809
O O14 0.983314 0.125909 0.662895
O O15 0.420091 0.183193 0.131657
O O16 0.259625 0.043049 0.006587
O O17 0.500000 0.500000 0.000000
#
# Coordination Sequence:
#
# PCOD8041426 Si02
#       8
#     2   2   2   2   2   2   2   2
#     4  11  22  38  58  90 123 155 197 245 306 355
#     4  10  19  32  57  88 117 143 182 239 298 352
#     4  12  24  38  60  88 128 161 190 242 305 369
#     4  11  23  40  63  87 116 158 208 255 292 341
#     4  11  21  38  64  93 119 152 198 254 297 341
#     4  12  25  41  60  86 120 164 205 244 295 351
#     4  11  23  41  64  86 118 158 209 252 284 342
#     4  10  19  34  56  84 115 151 189 230 283 356
#
# _framework density 21.520492000000001
#
# number of rings (size 3 to 8) (size 9 to 14) (size 15 to 20)
#    0.000    1.000    0.000   10.500    0.000    3.000 
#    0.000    0.000    0.000    4.500    0.000    0.000 
#    0.000    0.000    0.000    0.000    0.000    0.000 
#
# Total GULP energy -198366.856577 kJ/mol
# GULP energy per Si atom -12397.928536 kJ/mol
# Density = 2.147151 g / cm^3
# Si number density = 21.520492 Si / 1000 Ang^3
#
#
#
# Elastic Constant Matrix: (Units=GPa)
#
#
# Indices 1 2 3 4 5 6 
#
# 1 62.2779 38.4306 39.6858 -1.6800 -14.8875 20.9506
# 2 38.4306 96.9606 30.7037 0.4150 -7.3997 7.4655
# 3 39.6858 30.7037 169.5132 18.8443 -27.9088 11.6342
# 4 -1.6800 0.4150 18.8443 33.9387 5.9716 1.7324
# 5 -14.8875 -7.3997 -27.9088 5.9716 29.6764 -0.8021
# 6 20.9506 7.4655 11.6342 1.7324 -0.8021 22.6789
#
#
#
# Elastic Compliance Matrix: (Units=1/GPa)
#
#
# Indices 1 2 3 4 5 6 
#
# 1 0.037412 -0.010672 -0.003276 0.003254 0.011582 -0.029206
# 2 -0.010672 0.014199 -0.000846 -0.000085 -0.002442 0.005539
# 3 -0.003276 -0.000846 0.008834 -0.006393 0.007728 -0.000465
# 4 0.003254 -0.000085 -0.006393 0.035360 -0.011592 -0.002810
# 5 0.011582 -0.002442 0.007728 -0.011592 0.048193 -0.011269
# 6 -0.029206 0.005539 -0.000465 -0.002810 -0.011269 0.069306
#
#
# Mechanical properties :
#
#
# Convention : Reuss Voigt Hill
#
# Bulk Modulus (GPa) = 32.40831 60.71020 46.55926
# Shear Modulus (GPa) = 19.74896 31.92091 25.83493
#
# Velocity S-wave (km/s) = 3.03261 3.85552 3.46855
# Velocity P-wave (km/s) = 5.23013 6.93481 6.14190
#
# Compressibility (1/GPa) = 0.03085628
#
# Stress axis : x y z
#
# Youngs Moduli (GPa) = 26.72955 70.42841 113.19383
#
# Poissons Ratio (x) = 0.75162 0.37084
# Poissons Ratio (y) = 0.28526 0.09577
# Poissons Ratio (z) = 0.08757 0.05959
#
# Static dielectric constant tensor:
#      x y z
#    x 3.742090 0.258200 -0.114900 
#    y 0.258200 3.707920 -0.083300 
#    z -0.114900 -0.083300 3.633460 
# 
# 
# High freq. dielectric constant tensor:
#      x y z
#    x 1.826850 0.020460 -0.018350 
#    y 0.020460 1.818740 0.012030 
#    z -0.018350 0.012030 1.877540 
# 
# From -- ./inp_files/534228.got.cif
#   From: 2010.06.25/outbox.cif.g09.slc.cpg/sg2_268_cif.got.tgz:534228.got - 2010.06.27 13:26:56.
