data_PCOD8041383
_publ_section_title
;
Structure prediction by ZEFSAII (Michael W. Deem and Ramdas Pophale) SiO2 
 PCOD8041383
Probable space group: P -1
;
_chemical_formula_sum "Si O2"
_cell_formula_units_Z 12
_cell_length_a 16.007203
_cell_length_b 15.379759
_cell_length_c 11.614771
_cell_angle_alpha 124.718421
_cell_angle_beta 44.475353
_cell_angle_gamma 161.014362
_cell_volume 578.179341
_symmetry_space_group_name_H-M "P -1"
_symmetry_group_IT_number 2
_symmetry_cell_setting 'triclinic'
loop_
_space_group_symop_operation_xyz
x,y,z
-x,-y,-z
loop_
_atom_site_type_symbol
_atom_site_label
_atom_site_fract_x
_atom_site_fract_y
_atom_site_fract_z
Si Si1 0.134636 0.374478 0.438281
Si Si2 0.199951 0.779389 0.780980
Si Si3 0.835258 0.281795 0.813566
Si Si4 0.293647 0.975847 0.612408
Si Si5 0.093779 0.958649 0.400645
Si Si6 0.873615 0.593319 0.181452
O O1 0.475100 0.727066 0.383039
O O2 0.822695 0.183862 0.652890
O O3 0.130387 0.263493 0.434328
O O4 0.041236 0.273375 0.320994
O O5 0.533055 0.983711 0.585537
O O6 0.884215 0.436323 0.823892
O O7 0.170666 0.845386 0.763121
O O8 0.164194 0.804009 0.959988
O O9 0.131050 0.496818 0.777959
O O10 0.500000 0.000000 0.000000
O O11 0.983849 0.798346 0.277850
O O12 0.497979 0.284640 0.266001
O O13 0.000000 0.000000 0.500000
#
# Coordination Sequence:
#
# PCOD8041383 Si02
#       6
#     2   2   2   2   2   2
#     4  10  20  36  53  78 108 144 186 223 275 324
#     4  10  20  34  53  83 118 152 183 207 265 338
#     4  10  19  32  55  85 120 148 178 224 274 332
#     4  10  22  34  54  81 118 155 177 211 257 339
#     4  11  23  40  62  82 104 140 190 249 294 320
#     4  11  22  36  58  85 114 144 184 235 279 327
#
# _framework density 20.754805999999999
#
# number of rings (size 3 to 8) (size 9 to 14) (size 15 to 20)
#    0.000    1.667    0.000    7.000    0.000   10.000 
#    0.000    0.000    0.000    6.000    0.000    0.000 
#    0.000    0.000    0.000    0.000    0.000    0.000 
#
# Total GULP energy -148672.169576 kJ/mol
# GULP energy per Si atom -12389.347465 kJ/mol
# Density = 2.070757 g / cm^3
# Si number density = 20.754806 Si / 1000 Ang^3
#
#
#
# Elastic Constant Matrix: (Units=GPa)
#
#
# Indices 1 2 3 4 5 6 
#
# 1 123.6742 58.9987 19.0078 5.6419 20.1714 -27.2980
# 2 58.9987 111.9106 21.7090 6.6590 -0.4430 -5.0816
# 3 19.0078 21.7090 31.7144 -1.4182 12.7752 -10.9477
# 4 5.6419 6.6590 -1.4182 26.4257 0.3107 2.6744
# 5 20.1714 -0.4430 12.7752 0.3107 32.3164 1.6056
# 6 -27.2980 -5.0816 -10.9477 2.6744 1.6056 38.5226
#
#
#
# Elastic Compliance Matrix: (Units=1/GPa)
#
#
# Indices 1 2 3 4 5 6 
#
# 1 0.016916 -0.009499 0.006449 -0.002054 -0.013879 0.013288
# 2 -0.009499 0.016309 -0.013366 -0.002055 0.011890 -0.008731
# 3 0.006449 -0.013366 0.054301 0.003284 -0.026656 0.019122
# 4 -0.002054 -0.002055 0.003284 0.039333 -0.000248 -0.003513
# 5 -0.013879 0.011890 -0.026656 -0.000248 0.051202 -0.017959
# 6 0.013288 -0.008731 0.019122 -0.003513 -0.017959 0.040650
#
#
# Mechanical properties :
#
#
# Convention : Reuss Voigt Hill
#
# Bulk Modulus (GPa) = 18.28323 51.85891 35.07107
# Shear Modulus (GPa) = 18.53400 30.62518 24.57959
#
# Velocity S-wave (km/s) = 2.99155 3.84548 3.44508
# Velocity P-wave (km/s) = 4.55640 6.69012 5.72357
#
# Compressibility (1/GPa) = 0.05469494
#
# Stress axis : x y z
#
# Youngs Moduli (GPa) = 59.11487 61.31557 18.41592
#
# Poissons Ratio (x) = 0.58241 -0.11877
# Poissons Ratio (y) = 0.56151 0.24615
# Poissons Ratio (z) = -0.38124 0.81956
#
# Static dielectric constant tensor:
#      x y z
#    x 4.704610 0.596730 0.294800 
#    y 0.596730 4.247450 0.076660 
#    z 0.294800 0.076660 3.513150 
# 
# 
# High freq. dielectric constant tensor:
#      x y z
#    x 1.811040 -0.002200 0.029240 
#    y -0.002200 1.822880 0.003210 
#    z 0.029240 0.003210 1.772550 
# 
# From -- ./inp_files/27465.got.cif
#   From: 2010.06.25/outbox.cif.g09.slc.cpg/sg2_14_cif.got.tgz:27465.got - 2010.06.27 13:26:56.
