data_PCOD8041102
_publ_section_title
;
Structure prediction by ZEFSAII (Michael W. Deem and Ramdas Pophale) SiO2 
 PCOD8041102
Probable space group: P -1
;
_chemical_formula_sum "Si O2"
_cell_formula_units_Z 16
_cell_length_a 7.993984
_cell_length_b 14.787517
_cell_length_c 9.550543
_cell_angle_alpha 59.119572
_cell_angle_beta 90.461776
_cell_angle_gamma 69.933756
_cell_volume 886.052909
_symmetry_space_group_name_H-M "P -1"
_symmetry_group_IT_number 2
_symmetry_cell_setting 'triclinic'
loop_
_space_group_symop_operation_xyz
x,y,z
-x,-y,-z
loop_
_atom_site_type_symbol
_atom_site_label
_atom_site_fract_x
_atom_site_fract_y
_atom_site_fract_z
Si Si1 0.508440 0.899211 0.181045
Si Si2 0.018551 0.627408 0.756396
Si Si3 0.311763 0.648393 0.255467
Si Si4 0.944295 0.408176 0.902220
Si Si5 0.298689 0.512116 0.624510
Si Si6 0.199928 0.321309 0.734767
Si Si7 0.873123 0.811111 0.390967
Si Si8 0.133044 0.893024 0.174524
O O1 0.593840 0.777529 0.195012
O O2 0.655287 0.893545 0.309164
O O3 0.305301 0.917058 0.218971
O O4 0.500000 0.000000 0.000000
O O5 0.209342 0.576047 0.715945
O O6 0.916254 0.541149 0.812582
O O7 0.897774 0.752677 0.589651
O O8 0.055249 0.646972 0.902257
O O9 0.218217 0.592464 0.192668
O O10 0.324895 0.603845 0.450735
O O11 0.518092 0.596592 0.241446
O O12 0.212865 0.786595 0.150894
O O13 0.132035 0.327113 0.889894
O O14 0.184549 0.449021 0.594004
O O15 0.070358 0.290231 0.648662
O O16 0.010668 0.874374 0.314758
O O17 0.000000 0.000000 0.000000
#
# Coordination Sequence:
#
# PCOD8041102 Si02
#       8
#     2   2   2   2   2   2   2   2
#     4  10  20  34  54  86 105 136 178 231 277 315
#     4  10  20  35  49  77 109 150 176 211 267 327
#     4  11  19  32  51  83 103 141 173 231 268 316
#     4  10  20  32  53  73 111 149 178 207 267 332
#     4  10  19  30  53  78 112 131 179 222 271 321
#     4   9  17  32  51  78 102 141 171 221 265 320
#     4  10  19  34  56  79 106 141 176 227 265 310
#     4  12  20  33  57  87 105 136 182 228 274 320
#
# _framework density 18.057611999999999
#
# number of rings (size 3 to 8) (size 9 to 14) (size 15 to 20)
#    0.750    1.000    5.000    0.750    0.000    2.500 
#    0.000    0.000    0.000    1.500    0.000    0.000 
#    0.000    0.000    0.000    0.000    0.000    0.000 
#
# Total GULP energy -198226.939497 kJ/mol
# GULP energy per Si atom -12389.183719 kJ/mol
# Density = 1.801651 g / cm^3
# Si number density = 18.057612 Si / 1000 Ang^3
#
#
#
# Elastic Constant Matrix: (Units=GPa)
#
#
# Indices 1 2 3 4 5 6 
#
# 1 112.2146 2.2881 30.5767 -3.9245 2.8416 -2.6460
# 2 2.2881 25.2984 13.0780 -4.3027 2.9131 -3.0835
# 3 30.5767 13.0780 107.5164 -4.1309 -2.6108 -5.0546
# 4 -3.9245 -4.3027 -4.1309 30.9882 -1.8744 2.3743
# 5 2.8416 2.9131 -2.6108 -1.8744 21.4434 -6.7572
# 6 -2.6460 -3.0835 -5.0546 2.3743 -6.7572 18.8282
#
#
#
# Elastic Compliance Matrix: (Units=1/GPa)
#
#
# Indices 1 2 3 4 5 6 
#
# 1 0.009756 0.000963 -0.002897 0.000878 -0.001689 0.000034
# 2 0.000963 0.044103 -0.005418 0.004945 -0.005280 0.003385
# 3 -0.002897 -0.005418 0.011012 0.000336 0.003383 0.002834
# 4 0.000878 0.004945 0.000336 0.033401 0.001317 -0.002716
# 5 -0.001689 -0.005280 0.003383 0.001317 0.054108 0.019059
# 6 0.000034 0.003385 0.002834 -0.002716 0.019059 0.061614
#
#
# Mechanical properties :
#
#
# Convention : Reuss Voigt Hill
#
# Bulk Modulus (GPa) = 19.93302 37.43499 28.68400
# Shear Modulus (GPa) = 20.37324 27.52440 23.94882
#
# Velocity S-wave (km/s) = 3.36257 3.90841 3.64572
# Velocity P-wave (km/s) = 5.11257 6.41431 5.80007
#
# Compressibility (1/GPa) = 0.05016801
#
# Stress axis : x y z
#
# Youngs Moduli (GPa) = 102.50525 22.67406 90.80886
#
# Poissons Ratio (x) = -0.02184 0.26310
# Poissons Ratio (y) = -0.09876 0.49197
# Poissons Ratio (z) = 0.29698 0.12284
#
# Static dielectric constant tensor:
#      x y z
#    x 3.604800 -0.060890 -0.073450 
#    y -0.060890 3.134250 -0.183160 
#    z -0.073450 -0.183160 3.159210 
# 
# 
# High freq. dielectric constant tensor:
#      x y z
#    x 1.712500 -0.003840 -0.003970 
#    y -0.003840 1.667610 -0.026390 
#    z -0.003970 -0.026390 1.679610 
# 
# From -- ./inp_files/195754.got.cif
#   From: 2010.06.25/outbox.cif.g09.slc.cpg/sg2_98_cif.got.tgz:195754.got - 2010.06.27 13:26:56.
