data_PCOD8041306
_publ_section_title
;
Structure prediction by ZEFSAII (Michael W. Deem and Ramdas Pophale) SiO2 
 PCOD8041306
Probable space group: P -1
;
_chemical_formula_sum "Si O2"
_cell_formula_units_Z 16
_cell_length_a 14.626526
_cell_length_b 6.861036
_cell_length_c 27.976154
_cell_angle_alpha 64.660813
_cell_angle_beta 159.694710
_cell_angle_gamma 113.355600
_cell_volume 880.419807
_symmetry_space_group_name_H-M "P -1"
_symmetry_group_IT_number 2
_symmetry_cell_setting 'triclinic'
loop_
_space_group_symop_operation_xyz
x,y,z
-x,-y,-z
loop_
_atom_site_type_symbol
_atom_site_label
_atom_site_fract_x
_atom_site_fract_y
_atom_site_fract_z
Si Si1 0.583568 0.171081 0.953776
Si Si2 0.813843 0.813446 0.758310
Si Si3 0.187861 0.295723 0.337190
Si Si4 0.926294 0.776045 0.465796
Si Si5 0.603161 0.527317 0.400658
Si Si6 0.409953 0.735715 0.944364
Si Si7 0.130004 0.364344 0.647666
Si Si8 0.411740 0.739198 0.379867
O O1 0.387285 0.303847 0.809752
O O2 0.550583 0.911952 0.961023
O O3 0.509293 0.234868 0.964355
O O4 0.877827 0.238357 0.077040
O O5 0.746741 0.827419 0.667406
O O6 0.648909 0.617044 0.720195
O O7 0.745181 0.036480 0.728327
O O8 0.205742 0.554475 0.312258
O O9 0.387462 0.214973 0.483725
O O10 0.899672 0.234072 0.219515
O O11 0.650963 0.693253 0.362841
O O12 0.901084 0.805164 0.393333
O O13 0.157761 0.600947 0.611448
O O14 0.000000 0.000000 0.500000
O O15 0.568689 0.666341 0.417281
O O16 0.865485 0.370482 0.550648
O O17 0.500000 0.500000 0.000000
#
# Coordination Sequence:
#
# PCOD8041306 Si02
#       8
#     2   2   2   2   2   2   2   2
#     4  10  22  37  54  81 112 154 179 222 282 314
#     4  10  20  36  51  74 115 146 177 224 269 325
#     4   9  20  32  46  79 105 147 189 226 260 315
#     4   9  20  38  61  86 109 133 177 237 286 324
#     4   9  21  33  57  85 100 138 183 225 273 326
#     4  10  21  34  53  77 116 149 193 221 264 323
#     4   9  21  38  59  85 111 134 186 230 275 338
#     4  10  19  32  53  76 108 144 188 225 270 312
#
# _framework density 18.173147
#
# number of rings (size 3 to 8) (size 9 to 14) (size 15 to 20)
#    0.750    1.750    0.000    1.125    5.250    1.000 
#    4.500    0.625    0.000    1.500    0.000    0.000 
#    0.000    0.000    0.000    0.000    0.000    0.000 
#
# Total GULP energy -198317.762171 kJ/mol
# GULP energy per Si atom -12394.860136 kJ/mol
# Density = 1.813178 g / cm^3
# Si number density = 18.173147 Si / 1000 Ang^3
#
#
#
# Elastic Constant Matrix: (Units=GPa)
#
#
# Indices 1 2 3 4 5 6 
#
# 1 78.0954 34.7035 49.3613 2.4388 8.0786 -8.3842
# 2 34.7035 102.8058 41.6193 7.6693 6.7149 -9.6344
# 3 49.3613 41.6193 109.3626 7.2219 -4.4265 1.3011
# 4 2.4388 7.6693 7.2219 22.5031 4.0867 4.0599
# 5 8.0786 6.7149 -4.4265 4.0867 26.1570 2.2104
# 6 -8.3842 -9.6344 1.3011 4.0599 2.2104 29.0458
#
#
#
# Elastic Compliance Matrix: (Units=1/GPa)
#
#
# Indices 1 2 3 4 5 6 
#
# 1 0.021106 -0.002471 -0.009116 0.001885 -0.008232 0.006044
# 2 -0.002471 0.012943 -0.003778 -0.003171 -0.003078 0.004427
# 3 -0.009116 -0.003778 0.015249 -0.003088 0.007244 -0.004687
# 4 0.001885 -0.003171 -0.003088 0.048840 -0.007361 -0.006636
# 5 -0.008232 -0.003078 0.007244 -0.007361 0.044453 -0.006076
# 6 0.006044 0.004427 -0.004687 -0.006636 -0.006076 0.039241
#
#
# Mechanical properties :
#
#
# Convention : Reuss Voigt Hill
#
# Bulk Modulus (GPa) = 53.85378 60.18135 57.01757
# Shear Modulus (GPa) = 22.85705 26.51315 24.68510
#
# Velocity S-wave (km/s) = 3.55031 3.82372 3.68955
# Velocity P-wave (km/s) = 6.81941 7.25823 7.04224
#
# Compressibility (1/GPa) = 0.01856880
#
# Stress axis : x y z
#
# Youngs Moduli (GPa) = 47.37975 77.26121 65.57780
#
# Poissons Ratio (x) = 0.19090 0.59778
# Poissons Ratio (y) = 0.11707 0.24777
# Poissons Ratio (z) = 0.43189 0.29192
#
# Static dielectric constant tensor:
#      x y z
#    x 3.446740 -0.084780 0.414370 
#    y -0.084780 3.370100 0.194290 
#    z 0.414370 0.194290 3.710740 
# 
# 
# High freq. dielectric constant tensor:
#      x y z
#    x 1.693070 -0.012310 0.013130 
#    y -0.012310 1.710470 0.011540 
#    z 0.013130 0.011540 1.684880 
# 
# From -- ./inp_files/623327.got.cif
#   From: 2010.06.25/outbox.cif.g09.slc.cpg/sg2_312_cif.got.tgz:623327.got - 2010.06.27 13:26:56.
