data_PCOD8041742
_publ_section_title
;
Structure prediction by ZEFSAII (Michael W. Deem and Ramdas Pophale) SiO2 
 PCOD8041742
Probable space group: P -1
;
_chemical_formula_sum "Si O2"
_cell_formula_units_Z 16
_cell_length_a 19.493967
_cell_length_b 11.334472
_cell_length_c 14.609366
_cell_angle_alpha 30.338249
_cell_angle_beta 150.067331
_cell_angle_gamma 130.182482
_cell_volume 742.951240
_symmetry_space_group_name_H-M "P -1"
_symmetry_group_IT_number 2
_symmetry_cell_setting 'triclinic'
loop_
_space_group_symop_operation_xyz
x,y,z
-x,-y,-z
loop_
_atom_site_type_symbol
_atom_site_label
_atom_site_fract_x
_atom_site_fract_y
_atom_site_fract_z
Si Si1 0.108359 0.726661 0.108107
Si Si2 0.293214 0.750999 0.144192
Si Si3 0.837048 0.395784 0.366009
Si Si4 0.851935 0.865758 0.008308
Si Si5 0.390642 0.358351 0.364111
Si Si6 0.139603 0.767593 0.698673
Si Si7 0.780995 0.970007 0.645368
Si Si8 0.132627 0.191335 0.529048
O O1 0.145686 0.784066 0.009714
O O2 0.182404 0.421750 0.413473
O O3 0.190787 0.856309 0.183580
O O4 0.930143 0.837843 0.843943
O O5 0.341962 0.491450 0.317069
O O6 0.430082 0.736705 0.377743
O O7 0.252852 0.992820 0.869229
O O8 0.904262 0.252357 0.443190
O O9 0.722989 0.278005 0.353801
O O10 0.762506 0.704331 0.058379
O O11 0.972683 0.315180 0.650233
O O12 0.823545 0.892648 0.850581
O O13 0.350044 0.112213 0.482154
O O14 0.307640 0.551951 0.055961
O O15 0.032652 0.696252 0.691759
O O16 0.129808 0.048892 0.525455
#
# Coordination Sequence:
#
# PCOD8041742 Si02
#       8
#     2   2   2   2   2   2   2   2
#     4  11  21  36  63  89 115 158 199 244 289 359
#     4  10  24  40  58  86 128 160 188 240 310 350
#     4  10  19  33  57  88 115 154 195 245 291 346
#     4  10  21  36  55  92 125 149 194 255 297 334
#     4  10  21  43  58  84 128 160 189 246 297 355
#     4  10  19  36  60  88 120 147 198 252 290 337
#     4  11  21  36  63  89 116 157 205 246 285 351
#     4  10  20  36  57  90 121 150 190 252 294 346
#
# _framework density 21.535734999999999
#
# number of rings (size 3 to 8) (size 9 to 14) (size 15 to 20)
#    0.000    1.750    2.500    3.000    1.750    3.500 
#    2.250    2.500    0.000    1.500    0.000    0.000 
#    0.000    0.000    0.000    0.000    0.000    0.000 
#
# Total GULP energy -198316.471954 kJ/mol
# GULP energy per Si atom -12394.779497 kJ/mol
# Density = 2.148672 g / cm^3
# Si number density = 21.535735 Si / 1000 Ang^3
#
#
#
# Elastic Constant Matrix: (Units=GPa)
#
#
# Indices 1 2 3 4 5 6 
#
# 1 51.5543 36.4143 12.4016 -3.1979 -15.8096 7.7805
# 2 36.4143 162.3912 40.5696 -26.1531 -20.7148 15.7997
# 3 12.4016 40.5696 48.7176 -3.0228 -7.3357 9.7195
# 4 -3.1979 -26.1531 -3.0228 41.4791 8.3767 -13.9575
# 5 -15.8096 -20.7148 -7.3357 8.3767 23.9292 -6.4031
# 6 7.7805 15.7997 9.7195 -13.9575 -6.4031 25.7688
#
#
#
# Elastic Compliance Matrix: (Units=1/GPa)
#
#
# Indices 1 2 3 4 5 6 
#
# 1 0.027658 -0.004639 -0.000367 -0.005351 0.014790 -0.004592
# 2 -0.004639 0.009848 -0.006657 0.005418 0.001863 0.001271
# 3 -0.000367 -0.006657 0.027900 -0.005596 0.002145 -0.008830
# 4 -0.005351 0.005418 -0.005596 0.033973 -0.007950 0.016831
# 5 0.014790 0.001863 0.002145 -0.007950 0.057573 0.003583
# 6 -0.004592 0.001271 -0.008830 0.016831 0.003583 0.052751
#
#
# Mechanical properties :
#
#
# Convention : Reuss Voigt Hill
#
# Bulk Modulus (GPa) = 23.76307 49.04822 36.40565
# Shear Modulus (GPa) = 20.23839 29.78725 25.01282
#
# Velocity S-wave (km/s) = 3.06887 3.72311 3.41171
# Velocity P-wave (km/s) = 4.85958 6.42704 5.69747
#
# Compressibility (1/GPa) = 0.04208210
#
# Stress axis : x y z
#
# Youngs Moduli (GPa) = 36.15556 101.54634 35.84176
#
# Poissons Ratio (x) = 0.47106 0.01314
# Poissons Ratio (y) = 0.16772 0.23859
# Poissons Ratio (z) = 0.01325 0.67596
#
# Static dielectric constant tensor:
#      x y z
#    x 3.654200 0.093370 -0.270730 
#    y 0.093370 4.361450 -0.287160 
#    z -0.270730 -0.287160 3.736370 
# 
# 
# High freq. dielectric constant tensor:
#      x y z
#    x 1.816860 -0.006510 -0.033490 
#    y -0.006510 1.864140 -0.014450 
#    z -0.033490 -0.014450 1.819370 
# 
# From -- ./inp_files/458385.got.cif
#   From: 2010.06.25/outbox.cif.g09.slc.cpg/sg2_230_cif.got.tgz:458385.got - 2010.06.27 13:26:56.
