data_PCOD8041969
_publ_section_title
;
Structure prediction by ZEFSAII (Michael W. Deem and Ramdas Pophale) SiO2 
 PCOD8041969
Probable space group: P -1
;
_chemical_formula_sum "Si O2"
_cell_formula_units_Z 16
_cell_length_a 12.512016
_cell_length_b 17.550372
_cell_length_c 9.381488
_cell_angle_alpha 100.215125
_cell_angle_beta 132.026849
_cell_angle_gamma 119.034357
_cell_volume 848.275608
_symmetry_space_group_name_H-M "P -1"
_symmetry_group_IT_number 2
_symmetry_cell_setting 'triclinic'
loop_
_space_group_symop_operation_xyz
x,y,z
-x,-y,-z
loop_
_atom_site_type_symbol
_atom_site_label
_atom_site_fract_x
_atom_site_fract_y
_atom_site_fract_z
Si Si1 0.704790 0.684444 0.945964
Si Si2 0.655417 0.002708 0.713494
Si Si3 0.261190 0.119964 0.356220
Si Si4 0.323672 0.434003 0.686300
Si Si5 0.072321 0.047322 0.739448
Si Si6 0.404851 0.052426 0.046794
Si Si7 0.258600 0.285368 0.330765
Si Si8 0.914598 0.218913 0.464434
O O1 0.428879 0.557888 0.739760
O O2 0.656173 0.641834 0.722185
O O3 0.824924 0.821938 0.100758
O O4 0.893245 0.707761 0.205317
O O5 0.500000 0.000000 0.500000
O O6 0.567711 0.878609 0.534351
O O7 0.585126 0.986516 0.807911
O O8 0.954624 0.145292 0.004118
O O9 0.387574 0.258371 0.470709
O O10 0.184918 0.083436 0.443089
O O11 0.000000 0.000000 0.000000
O O12 0.350439 0.378993 0.573844
O O13 0.042175 0.310529 0.463623
O O14 0.500000 0.500000 0.000000
O O15 0.303371 0.093060 0.001598
O O16 0.000000 0.000000 0.500000
O O17 0.693639 0.182831 0.288954
O O18 0.212946 0.921622 0.726434
#
# Coordination Sequence:
#
# PCOD8041969 Si02
#       8
#     2   2   2   2   2   2   2   2
#     4  11  21  35  59  85 112 151 201 231 282 352
#     4  11  20  32  57  90 121 145 179 237 298 347
#     4  10  19  34  55  81 119 142 185 236 282 342
#     4  10  22  38  58  81 112 157 200 237 279 345
#     4  12  21  34  56  88 117 148 192 239 290 341
#     4  11  20  34  58  81 119 149 180 245 293 329
#     4  11  19  38  57  83 120 145 197 239 284 337
#     4  10  21  36  54  83 114 151 193 231 290 339
#
# _framework density 18.861795000000001
#
# number of rings (size 3 to 8) (size 9 to 14) (size 15 to 20)
#    0.000    1.250    7.500    1.125    1.750    0.000 
#    0.000    0.625    0.000    3.000    0.000   10.500 
#    0.000    0.000    0.000    0.000    0.000    0.000 
#
# Total GULP energy -198240.766708 kJ/mol
# GULP energy per Si atom -12390.047919 kJ/mol
# Density = 1.881886 g / cm^3
# Si number density = 18.861795 Si / 1000 Ang^3
#
#
#
# Elastic Constant Matrix: (Units=GPa)
#
#
# Indices 1 2 3 4 5 6 
#
# 1 92.7621 39.6478 31.4134 -14.3279 -1.4734 12.5215
# 2 39.6478 102.5429 35.4085 -7.1943 1.7967 26.8275
# 3 31.4134 35.4085 55.2420 -9.9528 -5.8832 0.5767
# 4 -14.3279 -7.1943 -9.9528 25.5214 10.5066 3.0962
# 5 -1.4734 1.7967 -5.8832 10.5066 34.5343 -5.7454
# 6 12.5215 26.8275 0.5767 3.0962 -5.7454 37.6427
#
#
#
# Elastic Compliance Matrix: (Units=1/GPa)
#
#
# Indices 1 2 3 4 5 6 
#
# 1 0.015621 -0.001852 -0.006631 0.007720 -0.003539 -0.004950
# 2 -0.001852 0.017838 -0.010149 0.004195 -0.006214 -0.013235
# 3 -0.006631 -0.010149 0.029131 0.000856 0.006599 0.009929
# 4 0.007720 0.004195 0.000856 0.054142 -0.018349 -0.012825
# 5 -0.003539 -0.006214 0.006599 -0.018349 0.037967 0.012809
# 6 -0.004950 -0.013235 0.009929 -0.012825 0.012809 0.040502
#
#
# Mechanical properties :
#
#
# Convention : Reuss Voigt Hill
#
# Bulk Modulus (GPa) = 39.48086 51.49848 45.48967
# Shear Modulus (GPa) = 20.75493 29.14484 24.94989
#
# Velocity S-wave (km/s) = 3.32078 3.93514 3.64094
# Velocity P-wave (km/s) = 5.97332 6.92888 6.46877
#
# Compressibility (1/GPa) = 0.02532873
#
# Stress axis : x y z
#
# Youngs Moduli (GPa) = 64.01440 56.05981 34.32774
#
# Poissons Ratio (x) = 0.10381 0.22761
# Poissons Ratio (y) = 0.11854 0.34838
# Poissons Ratio (z) = 0.42446 0.56892
#
# Static dielectric constant tensor:
#      x y z
#    x 4.964750 0.268300 -0.826920 
#    y 0.268300 4.082050 -0.129780 
#    z -0.826920 -0.129780 3.602590 
# 
# 
# High freq. dielectric constant tensor:
#      x y z
#    x 1.736970 0.019030 -0.021520 
#    y 0.019030 1.738130 -0.009790 
#    z -0.021520 -0.009790 1.703650 
# 
# From -- ./inp_files/203101.got.cif
#   From: 2010.06.25/outbox.cif.g09.slc.cpg/sg2_102_cif.got.tgz:203101.got - 2010.06.27 13:26:56.
