data_PCOD8041523
_publ_section_title
;
Structure prediction by ZEFSAII (Michael W. Deem and Ramdas Pophale) SiO2 
 PCOD8041523
Probable space group: P -1
;
_chemical_formula_sum "Si O2"
_cell_formula_units_Z 16
_cell_length_a 11.648787
_cell_length_b 10.990859
_cell_length_c 24.544111
_cell_angle_alpha 150.538724
_cell_angle_beta 142.104389
_cell_angle_gamma 55.399310
_cell_volume 872.238307
_symmetry_space_group_name_H-M "P -1"
_symmetry_group_IT_number 2
_symmetry_cell_setting 'triclinic'
loop_
_space_group_symop_operation_xyz
x,y,z
-x,-y,-z
loop_
_atom_site_type_symbol
_atom_site_label
_atom_site_fract_x
_atom_site_fract_y
_atom_site_fract_z
Si Si1 0.425317 0.790201 0.340199
Si Si2 0.993256 0.224689 0.209132
Si Si3 0.749399 0.863341 0.642115
Si Si4 0.217122 0.963930 0.506038
Si Si5 0.635078 0.750525 0.839990
Si Si6 0.107088 0.794544 0.515172
Si Si7 0.789355 0.413581 0.418621
Si Si8 0.303814 0.480548 0.337126
O O1 0.337579 0.484572 0.206980
O O2 0.500000 0.000000 0.500000
O O3 0.249536 0.854495 0.268663
O O4 0.595913 0.812959 0.368058
O O5 0.053098 0.074939 0.222672
O O6 0.966180 0.493460 0.323981
O O7 0.185544 0.287856 0.266336
O O8 0.782082 0.036548 0.029971
O O9 0.766593 0.692356 0.530080
O O10 0.532868 0.680756 0.518491
O O11 0.254517 0.949025 0.580007
O O12 0.183483 0.674270 0.353446
O O13 0.023005 0.035019 0.450384
O O14 0.407364 0.750220 0.756462
O O15 0.697939 0.717243 0.789165
O O16 0.226247 0.761061 0.600290
O O17 0.000000 0.500000 0.500000
#
# Coordination Sequence:
#
# PCOD8041523 Si02
#       8
#     2   2   2   2   2   2   2   2
#     4  11  18  33  53  76 103 136 182 219 250 311
#     4  10  20  34  50  80 114 134 166 218 276 315
#     4   9  19  33  53  76 101 137 182 212 255 312
#     4   9  17  33  56  78  97 136 184 220 246 300
#     4  11  21  32  52  81 108 137 172 220 271 307
#     4   9  19  33  55  78 103 137 178 215 257 317
#     4  10  19  33  53  77 102 141 180 216 251 314
#     4   9  17  33  57  77 101 140 175 217 255 311
#
# _framework density 18.343610000000002
#
# number of rings (size 3 to 8) (size 9 to 14) (size 15 to 20)
#    0.000    2.250    3.750    1.500    0.000    3.500 
#    0.000    5.625    0.000    9.750    0.000    0.000 
#    0.000    0.000    0.000    0.000    0.000    0.000 
#
# Total GULP energy -198246.953868 kJ/mol
# GULP energy per Si atom -12390.434617 kJ/mol
# Density = 1.830186 g / cm^3
# Si number density = 18.343610 Si / 1000 Ang^3
#
#
#
# Elastic Constant Matrix: (Units=GPa)
#
#
# Indices 1 2 3 4 5 6 
#
# 1 72.9195 18.8394 19.1464 -6.6547 12.8641 -8.6029
# 2 18.8394 74.6475 26.2829 -10.1563 3.1738 -4.9697
# 3 19.1464 26.2829 85.5276 -14.3603 -5.1036 -6.6051
# 4 -6.6547 -10.1563 -14.3603 22.0113 0.2681 2.5725
# 5 12.8641 3.1738 -5.1036 0.2681 17.5840 -1.6010
# 6 -8.6029 -4.9697 -6.6051 2.5725 -1.6010 32.6078
#
#
#
# Elastic Compliance Matrix: (Units=1/GPa)
#
#
# Indices 1 2 3 4 5 6 
#
# 1 0.018196 -0.002272 -0.003652 0.001900 -0.013727 0.002891
# 2 -0.002272 0.016019 -0.003804 0.004178 -0.002340 0.000627
# 3 -0.003652 -0.003804 0.015423 0.006941 0.007858 0.001419
# 4 0.001900 0.004178 0.006941 0.052669 -0.001084 -0.001664
# 5 -0.013727 -0.002340 0.007858 -0.001084 0.069735 0.001123
# 6 0.002891 0.000627 0.001419 -0.001664 0.001123 0.032000
#
#
# Mechanical properties :
#
#
# Convention : Reuss Voigt Hill
#
# Bulk Modulus (GPa) = 33.13278 40.18132 36.65705
# Shear Modulus (GPa) = 21.40812 25.69567 23.55189
#
# Velocity S-wave (km/s) = 3.41993 3.74678 3.58708
# Velocity P-wave (km/s) = 5.80484 6.37732 6.09780
#
# Compressibility (1/GPa) = 0.03018159
#
# Stress axis : x y z
#
# Youngs Moduli (GPa) = 54.95785 62.42753 64.84023
#
# Poissons Ratio (x) = 0.14182 0.23681
# Poissons Ratio (y) = 0.12485 0.24663
# Poissons Ratio (z) = 0.20072 0.23746
#
# Static dielectric constant tensor:
#      x y z
#    x 3.595520 -0.017150 0.073150 
#    y -0.017150 3.650060 -0.067780 
#    z 0.073150 -0.067780 2.985700 
# 
# 
# High freq. dielectric constant tensor:
#      x y z
#    x 1.721140 0.001100 0.006020 
#    y 0.001100 1.725090 -0.003590 
#    z 0.006020 -0.003590 1.654160 
# 
# From -- ./inp_files/251996.got.cif
#   From: 2010.06.25/outbox.cif.g09.slc.cpg/sg2_126_cif.got.tgz:251996.got - 2010.06.27 13:26:56.
