data_PCOD8041086
_publ_section_title
;
Structure prediction by ZEFSAII (Michael W. Deem and Ramdas Pophale) SiO2 
 PCOD8041086
Probable space group: P -1
;
_chemical_formula_sum "Si O2"
_cell_formula_units_Z 16
_cell_length_a 17.931956
_cell_length_b 15.794901
_cell_length_c 17.008624
_cell_angle_alpha 120.093532
_cell_angle_beta 15.966906
_cell_angle_gamma 127.041876
_cell_volume 989.228406
_symmetry_space_group_name_H-M "P -1"
_symmetry_group_IT_number 2
_symmetry_cell_setting 'triclinic'
loop_
_space_group_symop_operation_xyz
x,y,z
-x,-y,-z
loop_
_atom_site_type_symbol
_atom_site_label
_atom_site_fract_x
_atom_site_fract_y
_atom_site_fract_z
Si Si1 0.140218 0.520788 0.514461
Si Si2 0.153518 0.757944 0.104832
Si Si3 0.293049 0.142085 0.188601
Si Si4 0.064650 0.535586 0.135463
Si Si5 0.984583 0.275391 0.504062
Si Si6 0.817155 0.893975 0.538698
Si Si7 0.733319 0.595894 0.867061
Si Si8 0.363435 0.450162 0.531283
O O1 0.046866 0.535475 0.704324
O O2 0.038067 0.391206 0.541624
O O3 0.971763 0.561434 0.643974
O O4 0.516762 0.603636 0.158859
O O5 0.130936 0.663426 0.146426
O O6 0.028910 0.836170 0.301391
O O7 0.924367 0.682077 0.229242
O O8 0.526344 0.836414 0.744214
O O9 0.329187 0.119195 0.232524
O O10 0.199265 0.237870 0.316381
O O11 0.622255 0.179187 0.831083
O O12 0.032094 0.025038 0.357981
O O13 0.786257 0.480100 0.325628
O O14 0.374725 0.542046 0.790083
O O15 0.076874 0.290260 0.324472
O O16 0.500000 0.500000 0.000000
O O17 0.500000 0.500000 0.500000
#
# Coordination Sequence:
#
# PCOD8041086 Si02
#       8
#     2   2   2   2   2   2   2   2
#     4  11  19  31  48  66  91 118 169 200 219 283
#     4  10  19  31  49  64  93 122 160 184 226 279
#     4  11  22  30  46  61  94 124 164 209 228 256
#     4  10  19  30  50  71  89 129 153 186 228 270
#     4  11  20  32  45  63  89 129 162 198 243 261
#     4  11  20  33  43  68  88 124 166 204 229 251
#     4  10  20  31  44  64  89 122 158 205 240 267
#     4  10  20  33  48  72  97 125 153 182 237 290
#
# _framework density 16.174220999999999
#
# number of rings (size 3 to 8) (size 9 to 14) (size 15 to 20)
#    0.750    0.750    1.250    7.875    0.000    2.000 
#    0.000    0.000    0.000    0.000    0.000    0.000 
#    0.000    0.000    0.000   78.750    0.000    0.000 
#
# Total GULP energy -198235.340040 kJ/mol
# GULP energy per Si atom -12389.708753 kJ/mol
# Density = 1.613741 g / cm^3
# Si number density = 16.174221 Si / 1000 Ang^3
#
#
#
# Elastic Constant Matrix: (Units=GPa)
#
#
# Indices 1 2 3 4 5 6 
#
# 1 57.6840 14.5812 25.6500 -11.4688 -2.3431 -1.4133
# 2 14.5812 37.7496 22.0482 -1.5321 1.0049 -5.4104
# 3 25.6500 22.0482 111.9466 -3.5709 -0.9374 -2.4037
# 4 -11.4688 -1.5321 -3.5709 25.8065 -5.2446 -2.8995
# 5 -2.3431 1.0049 -0.9374 -5.2446 25.2145 0.6092
# 6 -1.4133 -5.4104 -2.4037 -2.8995 0.6092 16.1380
#
#
#
# Elastic Compliance Matrix: (Units=1/GPa)
#
#
# Indices 1 2 3 4 5 6 
#
# 1 0.022750 -0.006236 -0.003599 0.010240 0.004334 0.001042
# 2 -0.006236 0.033226 -0.004955 -0.000894 -0.002510 0.009789
# 3 -0.003599 -0.004955 0.010711 -0.000426 0.000184 -0.000464
# 4 0.010240 -0.000894 -0.000426 0.046249 0.010387 0.008451
# 5 0.004334 -0.002510 0.000184 0.010387 0.042334 -0.000167
# 6 0.001042 0.009789 -0.000464 0.008451 -0.000167 0.066794
#
#
# Mechanical properties :
#
#
# Convention : Reuss Voigt Hill
#
# Bulk Modulus (GPa) = 26.94791 36.88210 31.91501
# Shear Modulus (GPa) = 18.93843 23.10517 21.02180
#
# Velocity S-wave (km/s) = 3.42556 3.78367 3.60906
# Velocity P-wave (km/s) = 5.68710 6.47617 6.09442
#
# Compressibility (1/GPa) = 0.03710863
#
# Stress axis : x y z
#
# Youngs Moduli (GPa) = 43.95606 30.09663 93.35937
#
# Poissons Ratio (x) = 0.18767 0.33602
# Poissons Ratio (y) = 0.27410 0.46256
# Poissons Ratio (z) = 0.15821 0.14912
#
# Static dielectric constant tensor:
#      x y z
#    x 2.845920 -0.187350 -0.011990 
#    y -0.187350 2.855070 -0.023510 
#    z -0.011990 -0.023510 3.531990 
# 
# 
# High freq. dielectric constant tensor:
#      x y z
#    x 1.585800 -0.023740 -0.014140 
#    y -0.023740 1.589860 0.014330 
#    z -0.014140 0.014330 1.647060 
# 
# From -- ./inp_files/533328.got.cif
#   From: 2010.06.25/outbox.cif.g09.slc.cpg/sg2_267_cif.got.tgz:533328.got - 2010.06.27 13:26:56.
