data_PCOD8041329
_publ_section_title
;
Structure prediction by ZEFSAII (Michael W. Deem and Ramdas Pophale) SiO2 
 PCOD8041329
Probable space group: P -1
;
_chemical_formula_sum "Si O2"
_cell_formula_units_Z 16
_cell_length_a 12.049905
_cell_length_b 8.815962
_cell_length_c 18.435984
_cell_angle_alpha 76.191802
_cell_angle_beta 129.089027
_cell_angle_gamma 63.593033
_cell_volume 905.605029
_symmetry_space_group_name_H-M "P -1"
_symmetry_group_IT_number 2
_symmetry_cell_setting 'triclinic'
loop_
_space_group_symop_operation_xyz
x,y,z
-x,-y,-z
loop_
_atom_site_type_symbol
_atom_site_label
_atom_site_fract_x
_atom_site_fract_y
_atom_site_fract_z
Si Si1 0.190723 0.974701 0.833500
Si Si2 0.673996 0.777620 0.396875
Si Si3 0.370079 0.811506 0.340750
Si Si4 0.616555 0.734914 0.097063
Si Si5 0.569385 0.063780 0.459819
Si Si6 0.998488 0.797960 0.749541
Si Si7 0.800611 0.755537 0.297851
Si Si8 0.726929 0.445376 0.660415
O O1 0.121596 0.862474 0.790102
O O2 0.259925 0.025089 0.788106
O O3 0.412683 0.779128 0.002383
O O4 0.987358 0.241941 0.761865
O O5 0.482645 0.804613 0.320326
O O6 0.658278 0.870288 0.301206
O O7 0.925412 0.486617 0.547169
O O8 0.606758 0.960238 0.408777
O O9 0.554447 0.632869 0.501806
O O10 0.297907 0.702956 0.297355
O O11 0.138606 0.101184 0.241946
O O12 0.818568 0.501051 0.151780
O O13 0.726673 0.666811 0.229754
O O14 0.500000 0.000000 0.000000
O O15 0.345071 0.372459 0.326641
O O16 0.500000 0.000000 0.500000
O O17 0.805434 0.955204 0.588517
#
# Coordination Sequence:
#
# PCOD8041329 Si02
#       8
#     2   2   2   2   2   2   2   2
#     4  10  19  35  55  73 109 133 174 213 246 310
#     4  11  19  32  52  74 112 135 164 215 256 312
#     4   9  17  30  52  76 104 127 160 226 251 305
#     4  10  21  34  54  74 103 137 179 213 242 304
#     4  11  18  29  53  80 105 124 167 221 250 307
#     4  10  19  32  53  83  98 131 175 215 261 286
#     4  10  21  34  48  76 105 144 173 197 263 305
#     4   9  17  29  51  80  98 126 173 208 267 285
#
# _framework density 17.667746999999999
#
# number of rings (size 3 to 8) (size 9 to 14) (size 15 to 20)
#    0.000    2.000    5.000    1.125    1.750    0.000 
#    0.000    1.875    0.000    9.750    0.000    0.000 
#    0.000    0.000    0.000    0.000    0.000    0.000 
#
# Total GULP energy -198231.755649 kJ/mol
# GULP energy per Si atom -12389.484728 kJ/mol
# Density = 1.762753 g / cm^3
# Si number density = 17.667747 Si / 1000 Ang^3
#
#
#
# Elastic Constant Matrix: (Units=GPa)
#
#
# Indices 1 2 3 4 5 6 
#
# 1 124.2370 58.1101 34.1728 6.9930 12.7714 -10.1832
# 2 58.1101 122.9828 29.1262 -17.5025 5.9242 -11.8480
# 3 34.1728 29.1262 56.5328 -4.3689 17.5003 -2.8374
# 4 6.9930 -17.5025 -4.3689 34.1842 0.7130 8.1105
# 5 12.7714 5.9242 17.5003 0.7130 18.3777 0.6293
# 6 -10.1832 -11.8480 -2.8374 8.1105 0.6293 25.7104
#
#
#
# Elastic Compliance Matrix: (Units=1/GPa)
#
#
# Indices 1 2 3 4 5 6 
#
# 1 0.012858 -0.005471 -0.004383 -0.006965 -0.002877 0.004356
# 2 -0.005471 0.012442 -0.003366 0.006767 0.002700 0.000995
# 3 -0.004383 -0.003366 0.029899 0.003631 -0.024463 -0.000534
# 4 -0.006965 0.006767 0.003631 0.037242 -0.001869 -0.010942
# 5 -0.002877 0.002700 -0.024463 -0.001869 0.079046 -0.003940
# 6 0.004356 0.000995 -0.000534 -0.010942 -0.003940 0.044567
#
#
# Mechanical properties :
#
#
# Convention : Reuss Voigt Hill
#
# Bulk Modulus (GPa) = 34.77052 60.73011 47.75031
# Shear Modulus (GPa) = 19.83480 27.81070 23.82275
#
# Velocity S-wave (km/s) = 3.35424 3.97179 3.67601
# Velocity P-wave (km/s) = 5.89272 7.44859 6.71587
#
# Compressibility (1/GPa) = 0.02876000
#
# Stress axis : x y z
#
# Youngs Moduli (GPa) = 77.77011 80.37144 33.44548
#
# Poissons Ratio (x) = 0.43968 0.14659
# Poissons Ratio (y) = 0.42545 0.11259
# Poissons Ratio (z) = 0.34087 0.27056
#
# Static dielectric constant tensor:
#      x y z
#    x 3.279980 0.074900 0.382380 
#    y 0.074900 3.647090 -0.006250 
#    z 0.382380 -0.006250 3.348330 
# 
# 
# High freq. dielectric constant tensor:
#      x y z
#    x 1.663200 0.008250 0.039620 
#    y 0.008250 1.693980 -0.012310 
#    z 0.039620 -0.012310 1.657740 
# 
# From -- ./inp_files/253173.got.cif
#   From: 2010.06.25/outbox.cif.g09.slc.cpg/sg2_127_cif.got.tgz:253173.got - 2010.06.27 13:26:56.
