data_PCOD8041860
_publ_section_title
;
Structure prediction by ZEFSAII (Michael W. Deem and Ramdas Pophale) SiO2 
 PCOD8041860
Probable space group: P -1
;
_chemical_formula_sum "Si O2"
_cell_formula_units_Z 16
_cell_length_a 10.864940
_cell_length_b 10.137454
_cell_length_c 11.955311
_cell_angle_alpha 94.213310
_cell_angle_beta 50.565653
_cell_angle_gamma 120.983422
_cell_volume 805.474627
_symmetry_space_group_name_H-M "P -1"
_symmetry_group_IT_number 2
_symmetry_cell_setting 'triclinic'
loop_
_space_group_symop_operation_xyz
x,y,z
-x,-y,-z
loop_
_atom_site_type_symbol
_atom_site_label
_atom_site_fract_x
_atom_site_fract_y
_atom_site_fract_z
Si Si1 0.712302 0.125207 0.940875
Si Si2 0.714042 0.980289 0.272721
Si Si3 0.776467 0.405818 0.080909
Si Si4 0.148968 0.301390 0.082692
Si Si5 0.611401 0.824937 0.098544
Si Si6 0.829184 0.295987 0.673961
Si Si7 0.084451 0.663777 0.609653
Si Si8 0.580356 0.192131 0.385538
O O1 0.857985 0.206515 0.753661
O O2 0.723311 0.265905 0.013870
O O3 0.500000 0.000000 0.000000
O O4 0.755397 0.017535 0.983714
O O5 0.650298 0.837678 0.210519
O O6 0.637364 0.894338 0.435754
O O7 0.591924 0.052440 0.314559
O O8 0.951116 0.126752 0.140140
O O9 0.626284 0.322141 0.269862
O O10 0.763461 0.544250 0.042840
O O11 0.000000 0.500000 0.000000
O O12 0.095753 0.341371 0.234472
O O13 0.321205 0.279574 0.001124
O O14 0.380350 0.729965 0.195066
O O15 0.836668 0.226839 0.543994
O O16 0.014005 0.486682 0.596674
O O17 0.253494 0.724382 0.607624
#
# Coordination Sequence:
#
# PCOD8041860 Si02
#       8
#     2   2   2   2   2   2   2   2
#     4  10  21  36  58  86 111 156 200 239 282 355
#     4  10  19  34  56  86 113 157 188 237 297 350
#     4  12  19  37  60  91 116 153 204 248 282 353
#     4  11  23  35  59  89 122 149 191 248 303 337
#     4  11  21  37  57  87 120 152 187 246 301 350
#     4  10  20  36  61  80 114 152 204 231 286 356
#     4  10  19  36  58  87 109 155 196 242 285 351
#     4  10  19  33  62  84 113 149 205 241 278 343
#
# _framework density 19.864063999999999
#
# number of rings (size 3 to 8) (size 9 to 14) (size 15 to 20)
#    0.000    1.500    6.250    0.375    0.000    0.500 
#    0.000    1.250    5.500    0.000    0.000    0.000 
#    0.000    0.000    0.000    0.000    0.000    0.000 
#
# Total GULP energy -198258.670354 kJ/mol
# GULP energy per Si atom -12391.166897 kJ/mol
# Density = 1.981885 g / cm^3
# Si number density = 19.864064 Si / 1000 Ang^3
#
#
#
# Elastic Constant Matrix: (Units=GPa)
#
#
# Indices 1 2 3 4 5 6 
#
# 1 41.7086 26.2778 31.9285 0.8227 9.3513 -6.9163
# 2 26.2778 81.2695 32.3396 -5.0555 7.7158 -0.7061
# 3 31.9285 32.3396 127.1620 -11.8800 28.5676 -18.9589
# 4 0.8227 -5.0555 -11.8800 33.6413 -0.8095 5.4401
# 5 9.3513 7.7158 28.5676 -0.8095 29.7917 2.2294
# 6 -6.9163 -0.7061 -18.9589 5.4401 2.2294 34.0518
#
#
#
# Elastic Compliance Matrix: (Units=1/GPa)
#
#
# Indices 1 2 3 4 5 6 
#
# 1 0.035892 -0.009331 -0.005402 -0.005127 -0.004196 0.005182
# 2 -0.009331 0.016257 -0.002354 0.002411 0.001291 -0.003339
# 3 -0.005402 -0.002354 0.013623 0.003245 -0.011167 0.006651
# 4 -0.005127 0.002411 0.003245 0.032022 -0.000939 -0.004239
# 5 -0.004196 0.001291 -0.011167 -0.000939 0.045973 -0.009903
# 6 0.005182 -0.003339 0.006651 -0.004239 -0.009903 0.035379
#
#
# Mechanical properties :
#
#
# Convention : Reuss Voigt Hill
#
# Bulk Modulus (GPa) = 31.64959 47.91467 39.78213
# Shear Modulus (GPa) = 22.33618 30.13659 26.23638
#
# Velocity S-wave (km/s) = 3.35692 3.89928 3.63822
# Velocity P-wave (km/s) = 5.56713 6.66679 6.14162
#
# Compressibility (1/GPa) = 0.03159599
#
# Stress axis : x y z
#
# Youngs Moduli (GPa) = 27.86168 61.51195 73.40689
#
# Poissons Ratio (x) = 0.57397 0.39658
# Poissons Ratio (y) = 0.25998 0.17281
# Poissons Ratio (z) = 0.15052 0.14481
#
# Static dielectric constant tensor:
#      x y z
#    x 3.425110 -0.022540 0.565980 
#    y -0.022540 3.772420 -0.426480 
#    z 0.565980 -0.426480 4.439930 
# 
# 
# High freq. dielectric constant tensor:
#      x y z
#    x 1.734420 0.029300 0.027930 
#    y 0.029300 1.772440 -0.014830 
#    z 0.027930 -0.014830 1.787190 
# 
# From -- ./inp_files/258910.got.cif
#   From: 2010.06.25/outbox.cif.g09.slc.cpg/sg2_130_cif.got.tgz:258910.got - 2010.06.27 13:26:56.
