data_PCOD8041314
_publ_section_title
;
Structure prediction by ZEFSAII (Michael W. Deem and Ramdas Pophale) SiO2 
 PCOD8041314
Probable space group: P -1
;
_chemical_formula_sum "Si O2"
_cell_formula_units_Z 16
_cell_length_a 9.889695
_cell_length_b 20.798670
_cell_length_c 12.234427
_cell_angle_alpha 31.449600
_cell_angle_beta 138.275220
_cell_angle_gamma 142.222293
_cell_volume 783.628185
_symmetry_space_group_name_H-M "P -1"
_symmetry_group_IT_number 2
_symmetry_cell_setting 'triclinic'
loop_
_space_group_symop_operation_xyz
x,y,z
-x,-y,-z
loop_
_atom_site_type_symbol
_atom_site_label
_atom_site_fract_x
_atom_site_fract_y
_atom_site_fract_z
Si Si1 0.012532 0.135713 0.679509
Si Si2 0.186798 0.469982 0.793261
Si Si3 0.429378 0.384795 0.902401
Si Si4 0.107844 0.563426 0.143889
Si Si5 0.979927 0.139069 0.909160
Si Si6 0.186512 0.696182 0.781713
Si Si7 0.750013 0.288654 0.652568
Si Si8 0.485986 0.355286 0.563884
O O1 0.939534 0.121009 0.782311
O O2 0.259758 0.259420 0.629828
O O3 0.822227 0.162164 0.460330
O O4 0.003686 0.992985 0.838502
O O5 0.380565 0.423892 0.939537
O O6 0.268843 0.630599 0.583657
O O7 0.110307 0.440988 0.915438
O O8 0.972649 0.383788 0.714542
O O9 0.202995 0.278136 0.862529
O O10 0.536440 0.520925 0.693506
O O11 0.593130 0.312697 0.119238
O O12 0.312573 0.577573 0.324092
O O13 0.036095 0.425235 0.230660
O O14 0.184378 0.689059 0.922678
O O15 0.766462 0.151721 0.819447
O O16 0.538875 0.259188 0.648618
#
# Coordination Sequence:
#
# PCOD8041314 Si02
#       8
#     2   2   2   2   2   2   2   2
#     4  11  23  36  52  78 108 139 176 213 255 310
#     4   8  15  30  53  80 104 129 169 216 260 305
#     4  10  20  35  57  80 104 138 174 214 261 304
#     4  10  19  32  53  79 109 136 168 217 264 305
#     4  10  21  38  57  75 102 140 177 215 258 307
#     4  11  22  32  48  79 112 139 170 211 259 309
#     4   8  15  30  55  80  99 128 174 221 256 296
#     4  10  19  35  59  81 102 134 176 217 259 307
#
# _framework density 20.417846999999998
#
# number of rings (size 3 to 8) (size 9 to 14) (size 15 to 20)
#    0.000    2.250    0.000    6.000    0.000    3.000 
#    0.000    1.250    0.000    6.750    0.000    0.000 
#    0.000    0.000    0.000    0.000    0.000    0.000 
#
# Total GULP energy -198319.808272 kJ/mol
# GULP energy per Si atom -12394.988017 kJ/mol
# Density = 2.037138 g / cm^3
# Si number density = 20.417847 Si / 1000 Ang^3
#
#
#
# Elastic Constant Matrix: (Units=GPa)
#
#
# Indices 1 2 3 4 5 6 
#
# 1 101.0760 11.4739 52.0577 8.8977 11.0696 -9.2866
# 2 11.4739 18.8172 5.3306 -5.4435 0.1104 -8.2925
# 3 52.0577 5.3306 125.6551 -4.4248 20.1174 -10.6460
# 4 8.8977 -5.4435 -4.4248 20.9068 -0.2293 4.6735
# 5 11.0696 0.1104 20.1174 -0.2293 32.1692 -1.9457
# 6 -9.2866 -8.2925 -10.6460 4.6735 -1.9457 25.8598
#
#
#
# Elastic Compliance Matrix: (Units=1/GPa)
#
#
# Indices 1 2 3 4 5 6 
#
# 1 0.015364 -0.010062 -0.005933 -0.010808 -0.001517 0.001688
# 2 -0.010062 0.071745 0.002860 0.019752 0.002609 0.017197
# 3 -0.005933 0.002860 0.011457 0.005148 -0.004963 0.002199
# 4 -0.010808 0.019752 0.005148 0.060065 0.000482 -0.006247
# 5 -0.001517 0.002609 -0.004963 0.000482 0.034753 0.000776
# 6 0.001688 0.017197 0.002199 -0.006247 0.000776 0.046883
#
#
# Mechanical properties :
#
#
# Convention : Reuss Voigt Hill
#
# Bulk Modulus (GPa) = 13.83198 42.58587 28.20892
# Shear Modulus (GPa) = 17.20363 27.56623 22.38493
#
# Velocity S-wave (km/s) = 2.90587 3.67836 3.31470
# Velocity P-wave (km/s) = 4.24828 6.24043 5.33811
#
# Compressibility (1/GPa) = 0.07229625
#
# Stress axis : x y z
#
# Youngs Moduli (GPa) = 65.08690 13.93830 87.28080
#
# Poissons Ratio (x) = 0.14024 0.51785
# Poissons Ratio (y) = 0.65487 -0.24960
# Poissons Ratio (z) = 0.38617 -0.03986
#
# Static dielectric constant tensor:
#      x y z
#    x 4.269870 -0.139040 0.191320 
#    y -0.139040 3.290010 0.005340 
#    z 0.191320 0.005340 3.792180 
# 
# 
# High freq. dielectric constant tensor:
#      x y z
#    x 1.819230 -0.008340 0.012260 
#    y -0.008340 1.756050 0.012970 
#    z 0.012260 0.012970 1.789350 
# 
# From -- ./inp_files/257981.got.cif
#   From: 2010.06.25/outbox.cif.g09.slc.cpg/sg2_129_cif.got.tgz:257981.got - 2010.06.27 13:26:56.
