data_PCOD8041965
_publ_section_title
;
Structure prediction by ZEFSAII (Michael W. Deem and Ramdas Pophale) SiO2 
 PCOD8041965
Probable space group: P -1
;
_chemical_formula_sum "Si O2"
_cell_formula_units_Z 16
_cell_length_a 11.523994
_cell_length_b 12.154866
_cell_length_c 12.712201
_cell_angle_alpha 35.820586
_cell_angle_beta 65.865467
_cell_angle_gamma 54.848785
_cell_volume 845.795396
_symmetry_space_group_name_H-M "P -1"
_symmetry_group_IT_number 2
_symmetry_cell_setting 'triclinic'
loop_
_space_group_symop_operation_xyz
x,y,z
-x,-y,-z
loop_
_atom_site_type_symbol
_atom_site_label
_atom_site_fract_x
_atom_site_fract_y
_atom_site_fract_z
Si Si1 0.381910 0.422452 0.625008
Si Si2 0.165790 0.534680 0.215571
Si Si3 0.439238 0.412353 0.839522
Si Si4 0.345642 0.647891 0.897281
Si Si5 0.737174 0.346783 0.702701
Si Si6 0.385598 0.054241 0.793233
Si Si7 0.899714 0.914677 0.046433
Si Si8 0.354032 0.077421 0.555307
O O1 0.500000 0.500000 0.500000
O O2 0.341815 0.441420 0.748969
O O3 0.250677 0.559121 0.488465
O O4 0.432007 0.179582 0.763306
O O5 0.183184 0.592841 0.283366
O O6 0.227190 0.280788 0.386300
O O7 0.995120 0.678336 0.146558
O O8 0.236826 0.613020 0.038949
O O9 0.339766 0.586932 0.825154
O O10 0.573856 0.443552 0.727944
O O11 0.496716 0.186577 0.049497
O O12 0.305853 0.894115 0.724833
O O13 0.500000 0.500000 0.000000
O O14 0.810436 0.092770 0.853853
O O15 0.222477 0.091192 0.830741
O O16 0.391567 0.136395 0.610289
O O17 0.000000 0.000000 0.000000
O O18 0.500000 0.000000 0.500000
#
# Coordination Sequence:
#
# PCOD8041965 Si02
#       8
#     2   2   2   2   2   2   2   2
#     4  10  21  33  55  83 113 148 187 233 282 338
#     4  11  20  36  54  84 114 147 186 229 288 345
#     4  10  19  34  55  80 114 145 184 226 289 339
#     4  12  20  35  56  82 119 150 177 239 292 334
#     4   9  16  34  53  79 113 139 179 239 280 326
#     4  11  20  36  55  85 116 148 186 236 282 339
#     4   9  20  35  57  80 114 151 185 232 289 338
#     4  12  21  31  57  84 117 149 180 228 296 340
#
# _framework density 18.917103999999998
#
# number of rings (size 3 to 8) (size 9 to 14) (size 15 to 20)
#    0.000    1.500    5.000    1.875    1.750    0.500 
#    2.250    0.000    0.000    1.500    0.000    0.000 
#    0.000    0.000    0.000    0.000    0.000    0.000 
#
# Total GULP energy -198211.834239 kJ/mol
# GULP energy per Si atom -12388.239640 kJ/mol
# Density = 1.887405 g / cm^3
# Si number density = 18.917104 Si / 1000 Ang^3
#
#
#
# Elastic Constant Matrix: (Units=GPa)
#
#
# Indices 1 2 3 4 5 6 
#
# 1 44.0479 32.2728 20.0335 8.1964 -0.9604 10.2771
# 2 32.2728 104.3199 53.5701 -5.8623 17.9483 4.6869
# 3 20.0335 53.5701 114.4739 -7.0790 7.6615 -1.4517
# 4 8.1964 -5.8623 -7.0790 38.2483 8.7356 5.8935
# 5 -0.9604 17.9483 7.6615 8.7356 26.4098 -3.6325
# 6 10.2771 4.6869 -1.4517 5.8935 -3.6325 33.5492
#
#
#
# Elastic Compliance Matrix: (Units=1/GPa)
#
#
# Indices 1 2 3 4 5 6 
#
# 1 0.037730 -0.013590 -0.002108 -0.013015 0.014717 -0.005871
# 2 -0.013590 0.019801 -0.005322 0.008850 -0.015621 -0.002080
# 3 -0.002108 -0.005322 0.011725 0.001599 -0.000171 0.001597
# 4 -0.013015 0.008850 0.001599 0.035930 -0.019609 -0.005615
# 5 0.014717 -0.015621 -0.000171 -0.019609 0.056547 0.007234
# 6 -0.005871 -0.002080 0.001597 -0.005615 0.007234 0.033735
#
#
# Mechanical properties :
#
#
# Convention : Reuss Voigt Hill
#
# Bulk Modulus (GPa) = 36.73917 52.73272 44.73595
# Shear Modulus (GPa) = 20.27741 30.10582 25.19161
#
# Velocity S-wave (km/s) = 3.27755 3.99364 3.65318
# Velocity P-wave (km/s) = 5.81261 7.01439 6.44159
#
# Compressibility (1/GPa) = 0.02721890
#
# Stress axis : x y z
#
# Youngs Moduli (GPa) = 26.50380 50.50193 85.28484
#
# Poissons Ratio (x) = 0.68631 0.17976
# Poissons Ratio (y) = 0.36018 0.45386
# Poissons Ratio (z) = 0.05586 0.26875
#
# Static dielectric constant tensor:
#      x y z
#    x 4.313620 -0.174310 -0.072310 
#    y -0.174310 2.415270 -0.606800 
#    z -0.072310 -0.606800 4.172310 
# 
# 
# High freq. dielectric constant tensor:
#      x y z
#    x 1.689180 0.006330 0.004250 
#    y 0.006330 1.724560 -0.010360 
#    z 0.004250 -0.010360 1.759570 
# 
# From -- ./inp_files/424552.got.cif
#   From: 2010.06.25/outbox.cif.g09.slc.cpg/sg2_213_cif.got.tgz:424552.got - 2010.06.27 13:26:56.
