data_PCOD8041062
_publ_section_title
;
Structure prediction by ZEFSAII (Michael W. Deem and Ramdas Pophale) SiO2 
 PCOD8041062
Probable space group: P -1
;
_chemical_formula_sum "Si O2"
_cell_formula_units_Z 14
_cell_length_a 5.072082
_cell_length_b 25.801069
_cell_length_c 13.270932
_cell_angle_alpha 30.896505
_cell_angle_beta 88.403099
_cell_angle_gamma 103.866033
_cell_volume 764.936608
_symmetry_space_group_name_H-M "P -1"
_symmetry_group_IT_number 2
_symmetry_cell_setting 'triclinic'
loop_
_space_group_symop_operation_xyz
x,y,z
-x,-y,-z
loop_
_atom_site_type_symbol
_atom_site_label
_atom_site_fract_x
_atom_site_fract_y
_atom_site_fract_z
Si Si1 0.891530 0.593292 0.735242
Si Si2 0.953124 0.413370 0.483381
Si Si3 0.575344 0.111733 0.377454
Si Si4 0.184593 0.189627 0.341423
Si Si5 0.619277 0.626591 0.333781
Si Si6 0.540573 0.346255 0.253259
Si Si7 0.569127 0.317061 0.949941
O O1 0.651444 0.635917 0.686828
O O2 0.000373 0.611531 0.589467
O O3 0.197403 0.670964 0.669779
O O4 0.718787 0.456208 0.993081
O O5 0.602049 0.372511 0.577944
O O6 0.055144 0.337672 0.677913
O O7 0.145437 0.551454 0.277592
O O8 0.271351 0.091188 0.474000
O O9 0.822918 0.135336 0.422435
O O10 0.500000 0.000000 0.500000
O O11 0.689977 0.224824 0.113058
O O12 0.298673 0.232828 0.381223
O O13 0.357755 0.300389 0.077386
O O14 0.500000 0.500000 0.500000
O O15 0.638414 0.712041 0.100600
#
# Coordination Sequence:
#
# PCOD8041062 Si02
#       7
#     2   2   2   2   2   2   2
#     4  10  19  30  46  68  98 128 171 202 222 282
#     4  11  20  32  47  71 103 136 170 195 231 273
#     4  10  21  33  51  72  98 127 160 205 251 293
#     4  10  20  32  51  68 102 128 160 195 246 298
#     4  10  21  31  46  70  98 136 173 193 228 290
#     4  10  19  31  46  69  94 134 165 192 244 283
#     4   9  21  30  51  67 102 133 162 193 242 287
#
# _framework density 18.302168999999999
#
# number of rings (size 3 to 8) (size 9 to 14) (size 15 to 20)
#    0.857    1.143    1.429    3.857    6.000    1.143 
#    0.000    0.000    0.000    0.000    0.000    0.000 
#    0.000   22.857    0.000    0.000    0.000    0.000 
#
# Total GULP energy -173463.153542 kJ/mol
# GULP energy per Si atom -12390.225253 kJ/mol
# Density = 1.826051 g / cm^3
# Si number density = 18.302169 Si / 1000 Ang^3
#
#
#
# Elastic Constant Matrix: (Units=GPa)
#
#
# Indices 1 2 3 4 5 6 
#
# 1 97.2989 19.0556 12.0843 1.2125 20.4145 3.6239
# 2 19.0556 92.9748 24.1630 7.9661 12.5869 4.3945
# 3 12.0843 24.1630 27.7202 -0.0463 12.5092 3.6116
# 4 1.2125 7.9661 -0.0463 21.0410 -3.7369 -5.9236
# 5 20.4145 12.5869 12.5092 -3.7369 19.4609 4.9567
# 6 3.6239 4.3945 3.6116 -5.9236 4.9567 32.0273
#
#
#
# Elastic Compliance Matrix: (Units=1/GPa)
#
#
# Indices 1 2 3 4 5 6 
#
# 1 0.013486 -0.000895 0.001811 -0.003110 -0.015379 0.000198
# 2 -0.000895 0.014800 -0.011338 -0.006386 -0.002191 -0.001493
# 3 0.001811 -0.011338 0.060400 -0.001812 -0.033586 -0.000597
# 4 -0.003110 -0.006386 -0.001812 0.055691 0.016930 0.009113
# 5 -0.015379 -0.002191 -0.033586 0.016930 0.095248 -0.005782
# 6 0.000198 -0.001493 -0.000597 0.009113 -0.005782 0.034053
#
#
# Mechanical properties :
#
#
# Convention : Reuss Voigt Hill
#
# Bulk Modulus (GPa) = 14.74045 36.51111 25.62578
# Shear Modulus (GPa) = 15.76604 25.35191 20.55897
#
# Velocity S-wave (km/s) = 2.93820 3.72585 3.35521
# Velocity P-wave (km/s) = 4.42517 6.20497 5.38905
#
# Compressibility (1/GPa) = 0.06784051
#
# Stress axis : x y z
#
# Youngs Moduli (GPa) = 74.14948 67.56731 16.55643
#
# Poissons Ratio (x) = 0.06050 -0.02998
# Poissons Ratio (y) = 0.06640 0.18771
# Poissons Ratio (z) = -0.13426 0.76606
#
# Static dielectric constant tensor:
#      x y z
#    x 3.619150 0.059240 0.325460 
#    y 0.059240 3.227490 0.255630 
#    z 0.325460 0.255630 3.007430 
# 
# 
# High freq. dielectric constant tensor:
#      x y z
#    x 1.726370 -0.005470 0.023880 
#    y -0.005470 1.700700 0.022770 
#    z 0.023880 0.022770 1.645900 
# 
# From -- ./inp_files/370702.got.cif
#   From: 2010.06.25/outbox.cif.g09.slc.cpg/sg2_186_cif.got.tgz:370702.got - 2010.06.27 13:26:56.
