data_PCOD8041739
_publ_section_title
;
Structure prediction by ZEFSAII (Michael W. Deem and Ramdas Pophale) SiO2 
 PCOD8041739
Probable space group: P -1
;
_chemical_formula_sum "Si O2"
_cell_formula_units_Z 16
_cell_length_a 22.996404
_cell_length_b 9.678313
_cell_length_c 8.513888
_cell_angle_alpha 31.647772
_cell_angle_beta 121.444830
_cell_angle_gamma 128.294119
_cell_volume 780.247228
_symmetry_space_group_name_H-M "P -1"
_symmetry_group_IT_number 2
_symmetry_cell_setting 'triclinic'
loop_
_space_group_symop_operation_xyz
x,y,z
-x,-y,-z
loop_
_atom_site_type_symbol
_atom_site_label
_atom_site_fract_x
_atom_site_fract_y
_atom_site_fract_z
Si Si1 0.546919 0.815343 0.207972
Si Si2 0.922627 0.873232 0.924547
Si Si3 0.167768 0.272546 0.763259
Si Si4 0.102646 0.655561 0.129794
Si Si5 0.065327 0.629673 0.757274
Si Si6 0.611568 0.910457 0.507615
Si Si7 0.539845 0.479279 0.233557
Si Si8 0.337012 0.499434 0.825422
O O1 0.500000 0.500000 0.500000
O O2 0.622015 0.939352 0.303452
O O3 0.563211 0.772085 0.088840
O O4 0.500000 0.000000 0.000000
O O5 0.905165 0.121756 0.572078
O O6 0.856803 0.703602 0.116328
O O7 0.924856 0.651701 0.012730
O O8 0.000000 0.000000 0.000000
O O9 0.157281 0.509884 0.407574
O O10 0.253131 0.320821 0.831208
O O11 0.118364 0.953195 0.948569
O O12 0.020215 0.432573 0.269802
O O13 0.112682 0.722034 0.894214
O O14 0.521206 0.805726 0.496852
O O15 0.655766 0.203154 0.375568
O O16 0.637871 0.671523 0.842845
O O17 0.614896 0.442446 0.323740
O O18 0.500000 0.500000 0.000000
#
# Coordination Sequence:
#
# PCOD8041739 Si02
#       8
#     2   2   2   2   2   2   2   2
#     4  10  19  33  57  88 112 143 185 247 291 332
#     4  12  21  38  61  92 115 157 201 249 295 361
#     4  12  24  39  61  87 127 158 204 250 307 364
#     4  11  22  40  61  90 120 156 196 258 305 362
#     4  11  22  38  64  91 118 152 204 252 306 355
#     4  10  20  38  59  83 116 151 201 242 292 352
#     4   9  19  36  61  87 114 149 201 242 282 348
#     4  11  23  39  57  85 116 161 192 245 302 352
#
# _framework density 20.506319999999999
#
# number of rings (size 3 to 8) (size 9 to 14) (size 15 to 20)
#    0.000    1.250    2.500    5.250    0.000    5.000 
#    0.000    3.750    0.000    0.000    0.000    0.000 
#    0.000    0.000    0.000    0.000    0.000    0.000 
#
# Total GULP energy -198323.889653 kJ/mol
# GULP energy per Si atom -12395.243103 kJ/mol
# Density = 2.045965 g / cm^3
# Si number density = 20.506320 Si / 1000 Ang^3
#
#
#
# Elastic Constant Matrix: (Units=GPa)
#
#
# Indices 1 2 3 4 5 6 
#
# 1 77.0483 32.9319 9.6986 13.5993 1.8536 2.9694
# 2 32.9319 100.2818 26.6003 8.7129 -1.3289 -23.9838
# 3 9.6986 26.6003 105.1854 4.6361 -0.4811 -8.4661
# 4 13.5993 8.7129 4.6361 35.8567 -6.1852 0.2719
# 5 1.8536 -1.3289 -0.4811 -6.1852 21.5781 -1.3139
# 6 2.9694 -23.9838 -8.4661 0.2719 -1.3139 27.1011
#
#
#
# Elastic Compliance Matrix: (Units=1/GPa)
#
#
# Indices 1 2 3 4 5 6 
#
# 1 0.017543 -0.007343 -0.000233 -0.005474 -0.004059 -0.008635
# 2 -0.007343 0.016656 -0.002291 -0.000679 0.002321 0.014948
# 3 -0.000233 -0.002291 0.010235 -0.000690 -0.000018 0.001201
# 4 -0.005474 -0.000679 -0.000690 0.031866 0.009543 -0.000074
# 5 -0.004059 0.002321 -0.000018 0.009543 0.049863 0.004815
# 6 -0.008635 0.014948 0.001201 -0.000074 0.004815 0.051683
#
#
# Mechanical properties :
#
#
# Convention : Reuss Voigt Hill
#
# Bulk Modulus (GPa) = 40.48586 46.77523 43.63054
# Shear Modulus (GPa) = 24.29392 31.12617 27.71005
#
# Velocity S-wave (km/s) = 3.44569 3.90023 3.67998
# Velocity P-wave (km/s) = 5.96794 6.56826 6.27528
#
# Compressibility (1/GPa) = 0.02469998
#
# Stress axis : x y z
#
# Youngs Moduli (GPa) = 57.00222 60.03942 97.70406
#
# Poissons Ratio (x) = 0.44084 0.02276
# Poissons Ratio (y) = 0.41854 0.22388
# Poissons Ratio (z) = 0.01328 0.13757
#
# Static dielectric constant tensor:
#      x y z
#    x 4.306660 -0.699100 -0.250760 
#    y -0.699100 4.417410 0.249700 
#    z -0.250760 0.249700 3.771290 
# 
# 
# High freq. dielectric constant tensor:
#      x y z
#    x 1.772430 -0.024390 0.002500 
#    y -0.024390 1.813120 0.003580 
#    z 0.002500 0.003580 1.811580 
# 
# From -- ./inp_files/226248.got.cif
#   From: 2010.06.25/outbox.cif.g09.slc.cpg/sg2_114_cif.got.tgz:226248.got - 2010.06.27 13:26:56.
