data_PCOD8041355
_publ_section_title
;
Structure prediction by ZEFSAII (Michael W. Deem and Ramdas Pophale) SiO2 
 PCOD8041355
Probable space group: P -1
;
_chemical_formula_sum "Si O2"
_cell_formula_units_Z 16
_cell_length_a 8.694644
_cell_length_b 8.879600
_cell_length_c 17.342575
_cell_angle_alpha 71.383674
_cell_angle_beta 142.443143
_cell_angle_gamma 115.623819
_cell_volume 735.199941
_symmetry_space_group_name_H-M "P -1"
_symmetry_group_IT_number 2
_symmetry_cell_setting 'triclinic'
loop_
_space_group_symop_operation_xyz
x,y,z
-x,-y,-z
loop_
_atom_site_type_symbol
_atom_site_label
_atom_site_fract_x
_atom_site_fract_y
_atom_site_fract_z
Si Si1 0.732476 0.169529 0.371850
Si Si2 0.493850 0.383796 0.444196
Si Si3 0.200224 0.678700 0.038476
Si Si4 0.183404 0.123036 0.470307
Si Si5 0.447800 0.339627 0.685806
Si Si6 0.524395 0.503571 0.919228
Si Si7 0.828546 0.846257 0.907580
Si Si8 0.087179 0.450899 0.635627
O O1 0.417304 0.120400 0.239417
O O2 0.864901 0.365301 0.414439
O O3 0.879649 0.122832 0.362233
O O4 0.785253 0.061707 0.482951
O O5 0.500000 0.500000 0.500000
O O6 0.287125 0.203831 0.414835
O O7 0.409313 0.469598 0.320891
O O8 0.779630 0.360909 0.545829
O O9 0.356059 0.727914 0.173941
O O10 0.387944 0.657281 0.046595
O O11 0.000000 0.500000 0.000000
O O12 0.039566 0.810390 0.936016
O O13 0.350267 0.221763 0.593316
O O14 0.204021 0.340087 0.644221
O O15 0.728411 0.681998 0.947748
O O16 0.238966 0.484870 0.771980
O O17 0.500000 0.500000 0.000000
O O18 0.000000 0.000000 0.000000
#
# Coordination Sequence:
#
# PCOD8041355 Si02
#       8
#     2   2   2   2   2   2   2   2
#     4  10  20  36  55  79 117 147 183 228 281 338
#     4  10  19  32  54  87 106 141 188 229 266 333
#     4   9  19  36  54  85 110 147 192 229 275 345
#     4  10  21  36  57  82 113 148 188 228 280 332
#     4  10  19  34  60  81 109 149 182 231 282 335
#     4   9  20  36  58  84 113 145 186 241 283 326
#     4  10  20  36  58  81 112 153 191 223 282 344
#     4  10  19  35  57  82 115 142 184 229 286 337
#
# _framework density 21.762788
#
# number of rings (size 3 to 8) (size 9 to 14) (size 15 to 20)
#    0.000    2.250    2.500    1.875    0.000    5.000 
#    0.000    1.250    0.000    0.000    3.250    0.000 
#    0.000    0.000    0.000    0.000    0.000    0.000 
#
# Total GULP energy -198230.987894 kJ/mol
# GULP energy per Si atom -12389.436743 kJ/mol
# Density = 2.171325 g / cm^3
# Si number density = 21.762788 Si / 1000 Ang^3
#
#
#
# Elastic Constant Matrix: (Units=GPa)
#
#
# Indices 1 2 3 4 5 6 
#
# 1 92.6179 11.9275 29.2693 -18.9835 8.7135 6.5648
# 2 11.9275 62.5303 6.3073 -14.5079 14.3393 1.1245
# 3 29.2693 6.3073 84.6545 -9.2366 21.8136 -3.0557
# 4 -18.9835 -14.5079 -9.2366 28.7836 -7.3468 0.7181
# 5 8.7135 14.3393 21.8136 -7.3468 40.3643 -4.6335
# 6 6.5648 1.1245 -3.0557 0.7181 -4.6335 33.1398
#
#
#
# Elastic Compliance Matrix: (Units=1/GPa)
#
#
# Indices 1 2 3 4 5 6 
#
# 1 0.013970 -0.000474 -0.004176 0.007833 0.000463 -0.003241
# 2 -0.000474 0.019297 0.001128 0.008275 -0.006026 -0.001479
# 3 -0.004176 0.001128 0.015218 0.000767 -0.007454 0.001133
# 4 0.007833 0.008275 0.000767 0.045124 0.002900 -0.002334
# 5 0.000463 -0.006026 -0.007454 0.002900 0.031808 0.003810
# 6 -0.003241 -0.001479 0.001133 -0.002334 0.003810 0.031555
#
#
# Mechanical properties :
#
#
# Convention : Reuss Voigt Hill
#
# Bulk Modulus (GPa) = 24.13076 37.20123 30.66599
# Shear Modulus (GPa) = 28.11683 33.27745 30.69714
#
# Velocity S-wave (km/s) = 3.59830 3.91461 3.75978
# Velocity P-wave (km/s) = 5.32689 6.12889 5.74191
#
# Compressibility (1/GPa) = 0.04144089
#
# Stress axis : x y z
#
# Youngs Moduli (GPa) = 71.58383 51.82095 65.71226
#
# Poissons Ratio (x) = 0.02456 0.27444
# Poissons Ratio (y) = 0.03393 -0.07415
# Poissons Ratio (z) = 0.29896 -0.05848
#
# Static dielectric constant tensor:
#      x y z
#    x 4.386900 -0.104070 0.226310 
#    y -0.104070 4.291360 -0.335990 
#    z 0.226310 -0.335990 4.001700 
# 
# 
# High freq. dielectric constant tensor:
#      x y z
#    x 1.845830 -0.014570 0.022710 
#    y -0.014570 1.841940 -0.004360 
#    z 0.022710 -0.004360 1.850980 
# 
# From -- ./inp_files/557146.got.cif
#   From: 2010.06.25/outbox.cif.g09.slc.cpg/sg2_279_cif.got.tgz:557146.got - 2010.06.27 13:26:56.
