data_PCOD8041878
_publ_section_title
;
Structure prediction by ZEFSAII (Michael W. Deem and Ramdas Pophale) SiO2 
 PCOD8041878
Probable space group: P -1
;
_chemical_formula_sum "Si O2"
_cell_formula_units_Z 16
_cell_length_a 11.130543
_cell_length_b 9.992168
_cell_length_c 9.773196
_cell_angle_alpha 69.963497
_cell_angle_beta 76.361809
_cell_angle_gamma 62.906380
_cell_volume 904.967924
_symmetry_space_group_name_H-M "P -1"
_symmetry_group_IT_number 2
_symmetry_cell_setting 'triclinic'
loop_
_space_group_symop_operation_xyz
x,y,z
-x,-y,-z
loop_
_atom_site_type_symbol
_atom_site_label
_atom_site_fract_x
_atom_site_fract_y
_atom_site_fract_z
Si Si1 0.139699 0.006393 0.805710
Si Si2 0.585082 0.161584 0.775356
Si Si3 0.285527 0.126550 0.523373
Si Si4 0.380101 0.681996 0.828231
Si Si5 0.859659 0.997102 0.875978
Si Si6 0.591849 0.653101 0.006871
Si Si7 0.484962 0.779955 0.520320
Si Si8 0.745460 0.827117 0.789871
O O1 0.235721 0.827428 0.809096
O O2 0.988283 0.033051 0.795500
O O3 0.175176 0.130089 0.664368
O O4 0.147953 0.043419 0.949511
O O5 0.457176 0.245882 0.877451
O O6 0.557646 0.254591 0.606491
O O7 0.725102 0.150500 0.812711
O O8 0.604290 0.983786 0.796248
O O9 0.360736 0.234363 0.516913
O O10 0.213658 0.192173 0.374153
O O11 0.390478 0.948716 0.544865
O O12 0.351913 0.529660 0.913229
O O13 0.465914 0.657588 0.672994
O O14 0.466847 0.709827 0.916554
O O15 0.864519 0.847825 0.838059
O O16 0.717886 0.680602 0.900315
#
# Coordination Sequence:
#
# PCOD8041878 Si02
#       8
#     2   2   2   2   2   2   2   2
#     4  10  19  34  50  73  97 128 163 196 244 281
#     4   9  19  30  51  74  99 123 155 210 239 281
#     4   9  17  28  50  71 101 121 153 204 244 287
#     4  10  20  32  49  72 102 130 158 193 242 296
#     4   9  20  32  50  75  96 125 162 205 235 281
#     4  11  19  31  51  74  99 128 159 197 246 288
#     4   9  17  30  46  76  99 124 155 196 251 284
#     4   9  18  32  48  77  97 122 164 199 243 279
#
# _framework density 17.680183
#
# number of rings (size 3 to 8) (size 9 to 14) (size 15 to 20)
#    0.750    1.750    2.500    0.375    3.500    1.000 
#    0.000    0.625    0.000    0.000    0.000    2.625 
#    0.000    0.000    0.000    0.000    0.000    0.000 
#
# Total GULP energy -198307.369192 kJ/mol
# GULP energy per Si atom -12394.210574 kJ/mol
# Density = 1.763994 g / cm^3
# Si number density = 17.680183 Si / 1000 Ang^3
#
#
#
# Elastic Constant Matrix: (Units=GPa)
#
#
# Indices 1 2 3 4 5 6 
#
# 1 108.2551 15.3244 68.7106 2.0926 -4.3627 9.9448
# 2 15.3244 16.8523 23.3160 -2.2527 0.2376 1.5804
# 3 68.7106 23.3160 152.2039 5.4471 -7.4817 9.8248
# 4 2.0926 -2.2527 5.4471 17.5130 4.3578 -2.5110
# 5 -4.3627 0.2376 -7.4817 4.3578 30.3441 2.9112
# 6 9.9448 1.5804 9.8248 -2.5110 2.9112 16.1237
#
#
#
# Elastic Compliance Matrix: (Units=1/GPa)
#
#
# Indices 1 2 3 4 5 6 
#
# 1 0.013704 -0.005575 -0.004816 -0.002072 0.001661 -0.005594
# 2 -0.005575 0.082133 -0.011475 0.017571 -0.007417 0.006456
# 3 -0.004816 -0.011475 0.011149 -0.005815 0.003386 -0.004215
# 4 -0.002072 0.017571 -0.005815 0.066928 -0.013003 0.015870
# 5 0.001661 -0.007417 0.003386 -0.013003 0.037016 -0.011069
# 6 -0.005594 0.006456 -0.004215 0.015870 -0.011069 0.071877
#
#
# Mechanical properties :
#
#
# Convention : Reuss Voigt Hill
#
# Bulk Modulus (GPa) = 15.80916 54.66816 35.23866
# Shear Modulus (GPa) = 14.38338 24.12684 19.25511
#
# Velocity S-wave (km/s) = 2.85534 3.69809 3.30370
# Velocity P-wave (km/s) = 4.45329 7.01586 5.87597
#
# Compressibility (1/GPa) = 0.06325447
#
# Stress axis : x y z
#
# Youngs Moduli (GPa) = 72.97141 12.17533 89.69695
#
# Poissons Ratio (x) = 0.06787 0.43195
# Poissons Ratio (y) = 0.40679 1.02932
# Poissons Ratio (z) = 0.35140 0.13972
#
# Static dielectric constant tensor:
#      x y z
#    x 3.140360 0.112560 0.016830 
#    y 0.112560 2.766280 0.038950 
#    z 0.016830 0.038950 3.500690 
# 
# 
# High freq. dielectric constant tensor:
#      x y z
#    x 1.669980 0.016940 0.004140 
#    y 0.016940 1.628360 0.008390 
#    z 0.004140 0.008390 1.702540 
# 
# From -- ./inp_files/249783.got.cif
#   From: 2010.06.25/outbox.cif.g09.slc.cpg/sg2_125_cif.got.tgz:249783.got - 2010.06.27 13:26:56.
