data_PCOD8041221
_publ_section_title
;
Structure prediction by ZEFSAII (Michael W. Deem and Ramdas Pophale) SiO2 
 PCOD8041221
Probable space group: P -1
;
_chemical_formula_sum "Si O2"
_cell_formula_units_Z 12
_cell_length_a 9.244242
_cell_length_b 11.294215
_cell_length_c 16.400024
_cell_angle_alpha 41.888844
_cell_angle_beta 143.923269
_cell_angle_gamma 140.321156
_cell_volume 608.713880
_symmetry_space_group_name_H-M "P -1"
_symmetry_group_IT_number 2
_symmetry_cell_setting 'triclinic'
loop_
_space_group_symop_operation_xyz
x,y,z
-x,-y,-z
loop_
_atom_site_type_symbol
_atom_site_label
_atom_site_fract_x
_atom_site_fract_y
_atom_site_fract_z
Si Si1 0.645738 0.867140 0.319355
Si Si2 0.151375 0.495191 0.686592
Si Si3 0.184460 0.191817 0.406860
Si Si4 0.132688 0.868704 0.164954
Si Si5 0.354229 0.445201 0.638307
Si Si6 0.530640 0.057364 0.390054
O O1 0.730173 0.754399 0.487473
O O2 0.353147 0.862496 0.204966
O O3 0.644374 0.753605 0.293750
O O4 0.859088 0.098692 0.292128
O O5 0.278808 0.413262 0.715114
O O6 0.367945 0.712269 0.695883
O O7 0.099895 0.352124 0.814079
O O8 0.860327 0.489534 0.534800
O O9 0.344697 0.378627 0.327179
O O10 0.246104 0.005374 0.511381
O O11 0.253020 0.947980 0.269214
O O12 0.000000 0.000000 0.000000
O O13 0.500000 0.000000 0.500000
#
# Coordination Sequence:
#
# PCOD8041221 Si02
#       6
#     2   2   2   2   2   2
#     4  10  21  34  57  86 121 155 194 249 297 352
#     4  11  21  34  61  90 121 155 196 247 298 352
#     4  10  19  31  56  92 120 145 189 252 303 339
#     4  11  26  43  58  84 125 168 199 234 298 366
#     4  11  19  33  60  95 119 144 197 258 305 335
#     4  11  19  37  64  93 118 148 197 254 297 342
#
# _framework density 19.713695999999999
#
# number of rings (size 3 to 8) (size 9 to 14) (size 15 to 20)
#    0.000    1.333    6.667    1.500    0.000    0.667 
#    0.000    0.833    0.000    2.000    0.000    0.000 
#    0.000    0.000    0.000    0.000    0.000    0.000 
#
# Total GULP energy -148772.413751 kJ/mol
# GULP energy per Si atom -12397.701146 kJ/mol
# Density = 1.966883 g / cm^3
# Si number density = 19.713696 Si / 1000 Ang^3
#
#
#
# Elastic Constant Matrix: (Units=GPa)
#
#
# Indices 1 2 3 4 5 6 
#
# 1 85.0162 34.1098 18.2851 7.3474 16.6175 -2.2222
# 2 34.1098 114.8995 21.7095 -4.3792 9.0728 13.6478
# 3 18.2851 21.7095 52.4523 -5.7746 1.7402 3.2437
# 4 7.3474 -4.3792 -5.7746 14.4625 1.7875 0.3925
# 5 16.6175 9.0728 1.7402 1.7875 17.8939 -0.3186
# 6 -2.2222 13.6478 3.2437 0.3925 -0.3186 45.3372
#
#
#
# Elastic Compliance Matrix: (Units=1/GPa)
#
#
# Indices 1 2 3 4 5 6 
#
# 1 0.018181 -0.004020 -0.005620 -0.011142 -0.013142 0.002508
# 2 -0.004020 0.011113 -0.002381 0.004823 -0.002212 -0.003429
# 3 -0.005620 -0.002381 0.023206 0.011059 0.003042 -0.001293
# 4 -0.011142 0.004823 0.011059 0.080939 -0.001322 -0.003499
# 5 -0.013142 -0.002212 0.003042 -0.001322 0.069053 0.000301
# 6 0.002508 -0.003429 -0.001293 -0.003499 0.000301 0.023337
#
#
# Mechanical properties :
#
#
# Convention : Reuss Voigt Hill
#
# Bulk Modulus (GPa) = 35.14083 44.50854 39.82468
# Shear Modulus (GPa) = 19.27836 27.42294 23.35065
#
# Velocity S-wave (km/s) = 3.13056 3.73374 3.44537
# Velocity P-wave (km/s) = 5.56161 6.41983 6.00607
#
# Compressibility (1/GPa) = 0.02845693
#
# Stress axis : x y z
#
# Youngs Moduli (GPa) = 55.00118 89.98837 43.09187
#
# Poissons Ratio (x) = 0.36179 0.24217
# Poissons Ratio (y) = 0.22113 0.10262
# Poissons Ratio (z) = 0.30910 0.21430
#
# Static dielectric constant tensor:
#      x y z
#    x 4.033860 -0.063580 0.118750 
#    y -0.063580 3.847470 0.079240 
#    z 0.118750 0.079240 2.974570 
# 
# 
# High freq. dielectric constant tensor:
#      x y z
#    x 1.786110 0.008190 0.019110 
#    y 0.008190 1.786040 0.002600 
#    z 0.019110 0.002600 1.691990 
# 
# From -- ./inp_files/167507.got.cif
#   From: 2010.06.25/outbox.cif.g09.slc.cpg/sg2_84_cif.got.tgz:167507.got - 2010.06.27 13:26:56.
