data_PCOD8041342
_publ_section_title
;
Structure prediction by ZEFSAII (Michael W. Deem and Ramdas Pophale) SiO2 
 PCOD8041342
Probable space group: P -1
;
_chemical_formula_sum "Si O2"
_cell_formula_units_Z 16
_cell_length_a 8.714213
_cell_length_b 8.896300
_cell_length_c 14.270626
_cell_angle_alpha 57.734254
_cell_angle_beta 124.112534
_cell_angle_gamma 124.907681
_cell_volume 713.271013
_symmetry_space_group_name_H-M "P -1"
_symmetry_group_IT_number 2
_symmetry_cell_setting 'triclinic'
loop_
_space_group_symop_operation_xyz
x,y,z
-x,-y,-z
loop_
_atom_site_type_symbol
_atom_site_label
_atom_site_fract_x
_atom_site_fract_y
_atom_site_fract_z
Si Si1 0.506409 0.878663 0.700734
Si Si2 0.189659 0.207688 0.283245
Si Si3 0.116710 0.859037 0.490539
Si Si4 0.738256 0.392087 0.739171
Si Si5 0.308741 0.349379 0.615084
Si Si6 0.236212 0.059221 0.842950
Si Si7 0.591452 0.989979 0.899688
Si Si8 0.754938 0.297776 0.580530
O O1 0.610545 0.753026 0.723944
O O2 0.264620 0.804088 0.627893
O O3 0.558847 0.876856 0.828290
O O4 0.583745 0.090479 0.612078
O O5 0.177999 0.409732 0.240771
O O6 0.192480 0.086426 0.418009
O O7 0.994974 0.086531 0.195133
O O8 0.087020 0.737120 0.423014
O O9 0.884750 0.778066 0.474486
O O10 0.507881 0.336925 0.643003
O O11 0.736396 0.217178 0.862227
O O12 0.858672 0.399983 0.680282
O O13 0.278356 0.262778 0.738929
O O14 0.341936 0.573375 0.551976
O O15 0.372547 0.958389 0.874913
O O16 0.295366 0.098969 0.959561
#
# Coordination Sequence:
#
# PCOD8041342 Si02
#       8
#     2   2   2   2   2   2   2   2
#     4  10  20  35  55  79 108 140 172 216 264 311
#     4  10  20  34  55  82 108 135 175 219 262 312
#     4  10  20  34  52  78 113 142 169 210 265 319
#     4  10  20  34  54  80 108 138 174 218 262 310
#     4  10  19  32  54  79 105 139 174 212 258 313
#     4   9  20  37  56  77 104 141 179 217 260 310
#     4   9  20  39  57  74 104 142 179 216 263 310
#     4  10  19  33  52  77 108 139 170 210 263 313
#
# _framework density 22.431867
#
# number of rings (size 3 to 8) (size 9 to 14) (size 15 to 20)
#    0.000    2.250    0.000    3.750    0.000    4.000 
#    0.000    7.500    0.000   12.000    0.000    0.000 
#    0.000    0.000    0.000    0.000    0.000    0.000 
#
# Total GULP energy -198275.340791 kJ/mol
# GULP energy per Si atom -12392.208799 kJ/mol
# Density = 2.238081 g / cm^3
# Si number density = 22.431867 Si / 1000 Ang^3
#
#
#
# Elastic Constant Matrix: (Units=GPa)
#
#
# Indices 1 2 3 4 5 6 
#
# 1 30.7553 13.8179 15.1236 13.6597 -1.9039 -0.2095
# 2 13.8179 60.2106 31.0247 5.8796 -13.2010 -8.6569
# 3 15.1236 31.0247 115.4678 9.9649 -4.2248 -1.7518
# 4 13.6597 5.8796 9.9649 32.7472 0.9450 6.3088
# 5 -1.9039 -13.2010 -4.2248 0.9450 24.0980 8.3716
# 6 -0.2095 -8.6569 -1.7518 6.3088 8.3716 27.5962
#
#
#
# Elastic Compliance Matrix: (Units=1/GPa)
#
#
# Indices 1 2 3 4 5 6 
#
# 1 0.044383 -0.007193 -0.002428 -0.016853 -0.000913 0.002056
# 2 -0.007193 0.023701 -0.004918 -0.000858 0.010130 0.004191
# 3 -0.002428 -0.004918 0.010362 -0.001161 -0.000896 -0.000366
# 4 -0.016853 -0.000858 -0.001161 0.039915 -0.000265 -0.009515
# 5 -0.000913 0.010130 -0.000896 -0.000265 0.051111 -0.012330
# 6 0.002056 0.004191 -0.000366 -0.009515 -0.012330 0.043460
#
#
# Mechanical properties :
#
#
# Convention : Reuss Voigt Hill
#
# Bulk Modulus (GPa) = 20.25649 36.26289 28.25969
# Shear Modulus (GPa) = 19.34499 26.65279 22.99889
#
# Velocity S-wave (km/s) = 2.93983 3.45072 3.20547
# Velocity P-wave (km/s) = 4.53578 5.66370 5.13083
#
# Compressibility (1/GPa) = 0.04936690
#
# Stress axis : x y z
#
# Youngs Moduli (GPa) = 22.53113 42.19320 96.51048
#
# Poissons Ratio (x) = 0.30351 0.23435
# Poissons Ratio (y) = 0.16207 0.47460
# Poissons Ratio (z) = 0.05471 0.20749
#
# Static dielectric constant tensor:
#      x y z
#    x 4.224470 -0.042000 -0.044320 
#    y -0.042000 3.829510 -0.125260 
#    z -0.044320 -0.125260 4.001510 
# 
# 
# High freq. dielectric constant tensor:
#      x y z
#    x 1.882360 0.001080 -0.000440 
#    y 0.001080 1.864720 -0.002800 
#    z -0.000440 -0.002800 1.865570 
# 
# From -- ./inp_files/189180.got.cif
#   From: 2010.06.25/outbox.cif.g09.slc.cpg/sg2_95_cif.got.tgz:189180.got - 2010.06.27 13:26:56.
