data_PCOD8041382
_publ_section_title
;
Structure prediction by ZEFSAII (Michael W. Deem and Ramdas Pophale) SiO2 
 PCOD8041382
Probable space group: P -1
;
_chemical_formula_sum "Si O2"
_cell_formula_units_Z 16
_cell_length_a 11.806450
_cell_length_b 9.072868
_cell_length_c 10.039944
_cell_angle_alpha 82.765031
_cell_angle_beta 55.135351
_cell_angle_gamma 91.186296
_cell_volume 869.701280
_symmetry_space_group_name_H-M "P -1"
_symmetry_group_IT_number 2
_symmetry_cell_setting 'triclinic'
loop_
_space_group_symop_operation_xyz
x,y,z
-x,-y,-z
loop_
_atom_site_type_symbol
_atom_site_label
_atom_site_fract_x
_atom_site_fract_y
_atom_site_fract_z
Si Si1 0.451128 0.111348 0.626293
Si Si2 0.607143 0.924964 0.027270
Si Si3 0.430847 0.425789 0.925866
Si Si4 0.866322 0.083556 0.921640
Si Si5 0.170016 0.590929 0.015443
Si Si6 0.845776 0.851616 0.200351
Si Si7 0.409391 0.576341 0.447702
Si Si8 0.866908 0.520694 0.227735
O O1 0.420888 0.041182 0.801722
O O2 0.313053 0.161384 0.641529
O O3 0.570014 0.247938 0.553478
O O4 0.500000 0.000000 0.500000
O O5 0.601495 0.751644 0.016035
O O6 0.500000 0.000000 0.000000
O O7 0.766483 0.001073 0.884008
O O8 0.537980 0.462085 0.729056
O O9 0.500000 0.500000 0.000000
O O10 0.288695 0.495929 0.994972
O O11 0.803037 0.238560 0.974423
O O12 0.032749 0.112497 0.771616
O O13 0.861288 0.979367 0.065781
O O14 0.022139 0.510876 0.180523
O O15 0.167082 0.595239 0.856259
O O16 0.863948 0.687424 0.148887
O O17 0.500000 0.500000 0.500000
O O18 0.246017 0.516782 0.575209
#
# Coordination Sequence:
#
# PCOD8041382 Si02
#       8
#     2   2   2   2   2   2   2   2
#     4  10  21  33  53  85 111 138 180 222 272 330
#     4  10  21  38  56  78 109 143 181 226 272 325
#     4  11  23  39  58  82 109 146 191 228 271 335
#     4   9  18  30  53  77 109 144 176 222 273 318
#     4  10  19  32  55  85 109 144 187 223 271 333
#     4   9  17  32  47  78 113 143 173 223 271 320
#     4  11  20  35  57  82 117 144 177 231 281 315
#     4  10  19  33  53  83 116 143 179 229 277 324
#
# _framework density 18.397122
#
# number of rings (size 3 to 8) (size 9 to 14) (size 15 to 20)
#    0.000    2.000    2.500    2.250    3.500    2.000 
#    0.000    0.625    0.000    0.750    0.000    0.000 
#    0.000    0.000    0.000    0.000    0.000    0.000 
#
# Total GULP energy -198220.492048 kJ/mol
# GULP energy per Si atom -12388.780753 kJ/mol
# Density = 1.835525 g / cm^3
# Si number density = 18.397122 Si / 1000 Ang^3
#
#
#
# Elastic Constant Matrix: (Units=GPa)
#
#
# Indices 1 2 3 4 5 6 
#
# 1 153.5673 65.1915 59.9849 3.1117 -21.7356 7.9598
# 2 65.1915 106.0401 45.5242 7.6799 -1.7889 1.6312
# 3 59.9849 45.5242 83.7283 9.0491 -13.5388 6.0911
# 4 3.1117 7.6799 9.0491 27.2911 3.7116 -0.5671
# 5 -21.7356 -1.7889 -13.5388 3.7116 30.6043 2.9636
# 6 7.9598 1.6312 6.0911 -0.5671 2.9636 33.9135
#
#
#
# Elastic Compliance Matrix: (Units=1/GPa)
#
#
# Indices 1 2 3 4 5 6 
#
# 1 0.011242 -0.004978 -0.004313 0.000702 0.005906 -0.002129
# 2 -0.004978 0.014718 -0.005266 -0.001104 -0.005048 0.001829
# 3 -0.004313 -0.005266 0.019720 -0.005483 0.006300 -0.002918
# 4 0.000702 -0.001104 -0.005483 0.039689 -0.007013 0.002150
# 5 0.005906 -0.005048 0.006300 -0.007013 0.040789 -0.005957
# 6 -0.002129 0.001829 -0.002918 0.002150 -0.005957 0.030979
#
#
# Mechanical properties :
#
#
# Convention : Reuss Voigt Hill
#
# Bulk Modulus (GPa) = 60.36624 76.08189 68.22406
# Shear Modulus (GPa) = 26.07225 29.87079 27.97152
#
# Velocity S-wave (km/s) = 3.76864 4.03385 3.90350
# Velocity P-wave (km/s) = 7.19868 7.94613 7.58162
#
# Compressibility (1/GPa) = 0.01656555
#
# Stress axis : x y z
#
# Youngs Moduli (GPa) = 88.95265 67.94275 50.70867
#
# Poissons Ratio (x) = 0.33822 0.21872
# Poissons Ratio (y) = 0.44281 0.26704
# Poissons Ratio (z) = 0.38368 0.35780
#
# Static dielectric constant tensor:
#      x y z
#    x 4.275620 0.300150 -0.649630 
#    y 0.300150 3.674900 -0.198210 
#    z -0.649630 -0.198210 3.330140 
# 
# 
# High freq. dielectric constant tensor:
#      x y z
#    x 1.722740 0.005180 -0.031510 
#    y 0.005180 1.731750 -0.006510 
#    z -0.031510 -0.006510 1.666650 
# 
# From -- ./inp_files/175219.got.cif
#   From: 2010.06.25/outbox.cif.g09.slc.cpg/sg2_88_cif.got.tgz:175219.got - 2010.06.27 13:26:56.
