data_PCOD8041515
_publ_section_title
;
Structure prediction by ZEFSAII (Michael W. Deem and Ramdas Pophale) SiO2 
 PCOD8041515
Probable space group: P -1
;
_chemical_formula_sum "Si O2"
_cell_formula_units_Z 14
_cell_length_a 13.694915
_cell_length_b 14.479762
_cell_length_c 4.919437
_cell_angle_alpha 115.693518
_cell_angle_beta 116.832381
_cell_angle_gamma 44.718566
_cell_volume 602.527275
_symmetry_space_group_name_H-M "P -1"
_symmetry_group_IT_number 2
_symmetry_cell_setting 'triclinic'
loop_
_space_group_symop_operation_xyz
x,y,z
-x,-y,-z
loop_
_atom_site_type_symbol
_atom_site_label
_atom_site_fract_x
_atom_site_fract_y
_atom_site_fract_z
Si Si1 0.087504 0.881027 0.242579
Si Si2 0.118143 0.234899 0.664275
Si Si3 0.407640 0.941076 0.026925
Si Si4 0.075337 0.667093 0.962376
Si Si5 0.597812 0.826458 0.638245
Si Si6 0.803096 0.013517 0.780447
Si Si7 0.834748 0.594507 0.337952
O O1 0.220683 0.866931 0.268212
O O2 0.147055 0.733663 0.224709
O O3 0.000000 0.000000 0.500000
O O4 0.972592 0.915184 0.916238
O O5 0.982273 0.304253 0.382263
O O6 0.226419 0.071808 0.546280
O O7 0.199865 0.293479 0.779601
O O8 0.064849 0.266732 0.945792
O O9 0.529709 0.875803 0.320266
O O10 0.349212 0.092365 0.088758
O O11 0.284422 0.939250 0.986397
O O12 0.480752 0.849770 0.730657
O O13 0.189703 0.505702 0.942680
O O14 0.735044 0.670548 0.575437
O O15 0.000000 0.500000 0.500000
#
# Coordination Sequence:
#
# PCOD8041515 Si02
#       7
#     2   2   2   2   2   2   2
#     4  10  20  34  56  87 115 149 198 248 289 338
#     4  10  19  33  52  83 113 148 181 224 296 347
#     4  10  22  38  59  84 118 159 188 242 281 354
#     4  10  21  33  52  81 117 147 181 233 293 343
#     4  10  22  38  57  87 118 153 199 225 294 356
#     4  10  20  35  57  84 118 150 191 246 294 333
#     4  10  21  38  59  87 120 155 188 243 295 352
#
# _framework density 23.235461000000001
#
# number of rings (size 3 to 8) (size 9 to 14) (size 15 to 20)
#    0.000    2.000    2.857    0.429    2.000    4.571 
#    0.000    0.000    0.000    1.714    0.000    0.000 
#    0.000    0.000    0.000    0.000    0.000    0.000 
#
# Total GULP energy -173476.929038 kJ/mol
# GULP energy per Si atom -12391.209217 kJ/mol
# Density = 2.318258 g / cm^3
# Si number density = 23.235461 Si / 1000 Ang^3
#
#
#
# Elastic Constant Matrix: (Units=GPa)
#
#
# Indices 1 2 3 4 5 6 
#
# 1 178.2137 65.3285 43.6324 48.6086 -20.5060 34.0465
# 2 65.3285 70.5919 42.6876 49.3002 -4.5391 15.0691
# 3 43.6324 42.6876 92.1135 44.0284 -12.5816 14.4254
# 4 48.6086 49.3002 44.0284 42.7309 -1.2185 8.3276
# 5 -20.5060 -4.5391 -12.5816 -1.2185 46.7843 14.2126
# 6 34.0465 15.0691 14.4254 8.3276 14.2126 42.7398
#
#
#
# Elastic Compliance Matrix: (Units=1/GPa)
#
#
# Indices 1 2 3 4 5 6 
#
# 1 0.012387 0.002731 0.006302 -0.021019 0.010605 -0.012389
# 2 0.002731 0.103468 0.027361 -0.144674 0.023150 -0.027400
# 3 0.006302 0.027361 0.033790 -0.069392 0.018364 -0.018658
# 4 -0.021019 -0.144674 -0.069392 0.273539 -0.051494 0.054999
# 5 0.010605 0.023150 0.018364 -0.051494 0.039765 -0.025999
# 6 -0.012389 -0.027400 -0.018658 0.054999 -0.025999 0.047154
#
#
# Mechanical properties :
#
#
# Convention : Reuss Voigt Hill
#
# Bulk Modulus (GPa) = 4.49573 71.57954 38.03763
# Shear Modulus (GPa) = 9.77594 39.06904 24.42249
#
# Velocity S-wave (km/s) = 2.05340 4.10499 3.24556
# Velocity P-wave (km/s) = 2.74973 7.30349 5.51824
#
# Compressibility (1/GPa) = 0.22243314
#
# Stress axis : x y z
#
# Youngs Moduli (GPa) = 80.72851 9.66478 29.59492
#
# Poissons Ratio (x) = -0.02640 -0.18651
# Poissons Ratio (y) = -0.22048 -0.80974
# Poissons Ratio (z) = -0.50875 -0.26444
#
# Static dielectric constant tensor:
#      x y z
#    x 4.921330 0.896180 0.181280 
#    y 0.896180 4.579830 0.412920 
#    z 0.181280 0.412920 4.525660 
# 
# 
# High freq. dielectric constant tensor:
#      x y z
#    x 1.905840 0.022340 -0.011540 
#    y 0.022340 1.885390 -0.002550 
#    z -0.011540 -0.002550 1.927990 
# 
# From -- ./inp_files/64178.got.cif
#   From: 2010.06.25/outbox.cif.g09.slc.cpg/sg2_33_cif.got.tgz:64178.got - 2010.06.27 13:26:56.
