data_PCOD8041417
_publ_section_title
;
Structure prediction by ZEFSAII (Michael W. Deem and Ramdas Pophale) SiO2 
 PCOD8041417
Probable space group: P -1
;
_chemical_formula_sum "Si O2"
_cell_formula_units_Z 16
_cell_length_a 9.808160
_cell_length_b 18.550741
_cell_length_c 8.502515
_cell_angle_alpha 42.515169
_cell_angle_beta 61.418405
_cell_angle_gamma 81.670801
_cell_volume 859.942152
_symmetry_space_group_name_H-M "P -1"
_symmetry_group_IT_number 2
_symmetry_cell_setting 'triclinic'
loop_
_space_group_symop_operation_xyz
x,y,z
-x,-y,-z
loop_
_atom_site_type_symbol
_atom_site_label
_atom_site_fract_x
_atom_site_fract_y
_atom_site_fract_z
Si Si1 0.740135 0.789994 0.752362
Si Si2 0.099063 0.682067 0.726621
Si Si3 0.784911 0.514219 0.003376
Si Si4 0.141751 0.451179 0.454816
Si Si5 0.083980 0.969499 0.768422
Si Si6 0.049556 0.864398 0.282282
Si Si7 0.490854 0.556739 0.246962
Si Si8 0.038072 0.234933 0.054578
O O1 0.745802 0.921694 0.533257
O O2 0.857822 0.779193 0.557331
O O3 0.812590 0.764812 0.917181
O O4 0.558750 0.695341 0.991629
O O5 0.161733 0.794364 0.399302
O O6 0.093177 0.726705 0.835381
O O7 0.915454 0.594089 0.926435
O O8 0.229029 0.616993 0.750234
O O9 0.842566 0.550179 0.737601
O O10 0.602748 0.516687 0.128478
O O11 0.307349 0.526073 0.332968
O O12 0.000000 0.500000 0.500000
O O13 0.100948 0.320877 0.737267
O O14 0.936972 0.020540 0.810424
O O15 0.044678 0.892837 0.759179
O O16 0.102671 0.894030 0.026353
O O17 0.500000 0.500000 0.500000
#
# Coordination Sequence:
#
# PCOD8041417 Si02
#       8
#     2   2   2   2   2   2   2   2
#     4   9  18  34  54  82 115 157 195 244 296 354
#     4  10  19  32  57  82 123 155 199 244 301 353
#     4  11  21  38  56  84 122 166 196 248 302 357
#     4  12  25  38  60  93 120 157 204 252 303 365
#     4   9  17  29  57  86 120 152 207 249 290 353
#     4   8  16  32  50  90 114 156 201 245 299 350
#     4  12  23  42  60  88 126 159 203 250 304 366
#     4  11  18  33  54  90 117 153 204 245 288 361
#
# _framework density 18.605899999999998
#
# number of rings (size 3 to 8) (size 9 to 14) (size 15 to 20)
#    0.750    1.000    5.000    1.500    1.750    0.000 
#    0.000    0.000    0.000    0.750    0.000    2.625 
#    0.000    0.000    0.000    0.000    0.000    0.000 
#
# Total GULP energy -198218.729069 kJ/mol
# GULP energy per Si atom -12388.670567 kJ/mol
# Density = 1.856355 g / cm^3
# Si number density = 18.605900 Si / 1000 Ang^3
#
#
#
# Elastic Constant Matrix: (Units=GPa)
#
#
# Indices 1 2 3 4 5 6 
#
# 1 72.6294 37.0387 40.2186 -3.6838 -0.8448 -4.2695
# 2 37.0387 111.0464 38.8957 -8.2726 -0.7575 4.7335
# 3 40.2186 38.8957 113.7626 -15.8303 18.5868 -3.5524
# 4 -3.6838 -8.2726 -15.8303 34.7941 0.4163 0.1328
# 5 -0.8448 -0.7575 18.5868 0.4163 35.4450 -3.5287
# 6 -4.2695 4.7335 -3.5524 0.1328 -3.5287 20.7739
#
#
#
# Elastic Compliance Matrix: (Units=1/GPa)
#
#
# Indices 1 2 3 4 5 6 
#
# 1 0.019860 -0.004782 -0.006173 -0.001910 0.004111 0.004826
# 2 -0.004782 0.011715 -0.002439 0.001172 0.001013 -0.003905
# 3 -0.006173 -0.002439 0.013742 0.005106 -0.007431 0.000342
# 4 -0.001910 0.001172 0.005106 0.031179 -0.003116 -0.000515
# 5 0.004111 0.001013 -0.007431 -0.003116 0.032756 0.004927
# 6 0.004826 -0.003905 0.000342 -0.000515 0.004927 0.050918
#
#
# Mechanical properties :
#
#
# Convention : Reuss Voigt Hill
#
# Bulk Modulus (GPa) = 53.96985 58.86048 56.41516
# Shear Modulus (GPa) = 25.88857 30.28831 28.08844
#
# Velocity S-wave (km/s) = 3.73422 4.03909 3.88964
# Velocity P-wave (km/s) = 6.90379 7.31138 7.11051
#
# Compressibility (1/GPa) = 0.01852886
#
# Stress axis : x y z
#
# Youngs Moduli (GPa) = 50.35207 85.35840 72.77002
#
# Poissons Ratio (x) = 0.40819 0.44921
# Poissons Ratio (y) = 0.24078 0.17750
# Poissons Ratio (z) = 0.31082 0.20821
#
# Static dielectric constant tensor:
#      x y z
#    x 3.151600 -0.045280 0.306880 
#    y -0.045280 3.491800 -0.186480 
#    z 0.306880 -0.186480 3.586510 
# 
# 
# High freq. dielectric constant tensor:
#      x y z
#    x 1.677940 0.006140 0.040160 
#    y 0.006140 1.726960 -0.012550 
#    z 0.040160 -0.012550 1.725890 
# 
# From -- ./inp_files/222995.got.cif
#   From: 2010.06.25/outbox.cif.g09.slc.cpg/sg2_112_cif.got.tgz:222995.got - 2010.06.27 13:26:56.
