data_PCOD8041094
_publ_section_title
;
Structure prediction by ZEFSAII (Michael W. Deem and Ramdas Pophale) SiO2 
 PCOD8041094
Probable space group: P -1
;
_chemical_formula_sum "Si O2"
_cell_formula_units_Z 16
_cell_length_a 8.995418
_cell_length_b 19.510555
_cell_length_c 9.605901
_cell_angle_alpha 133.427350
_cell_angle_beta 77.256515
_cell_angle_gamma 129.403935
_cell_volume 873.318511
_symmetry_space_group_name_H-M "P -1"
_symmetry_group_IT_number 2
_symmetry_cell_setting 'triclinic'
loop_
_space_group_symop_operation_xyz
x,y,z
-x,-y,-z
loop_
_atom_site_type_symbol
_atom_site_label
_atom_site_fract_x
_atom_site_fract_y
_atom_site_fract_z
Si Si1 0.236032 0.108520 0.936316
Si Si2 0.354567 0.326393 0.023371
Si Si3 0.224348 0.158626 0.308600
Si Si4 0.330013 0.010361 0.555661
Si Si5 0.918858 0.366475 0.786966
Si Si6 0.943190 0.727464 0.195633
Si Si7 0.538567 0.779776 0.376218
Si Si8 0.259193 0.383837 0.649395
O O1 0.280459 0.230111 0.030961
O O2 0.370656 0.086887 0.795698
O O3 0.304468 0.138588 0.125464
O O4 0.994254 0.978273 0.791008
O O5 0.150070 0.299141 0.976540
O O6 0.446078 0.303803 0.845155
O O7 0.527250 0.475290 0.245625
O O8 0.387378 0.212601 0.473899
O O9 0.216452 0.266501 0.416591
O O10 0.091917 0.876091 0.416376
O O11 0.500000 0.000000 0.500000
O O12 0.334260 0.079542 0.517323
O O13 0.695645 0.282323 0.647158
O O14 0.918954 0.308475 0.853919
O O15 0.065572 0.375260 0.654942
O O16 0.000000 0.500000 0.000000
O O17 0.741727 0.642017 0.221193
#
# Coordination Sequence:
#
# PCOD8041094 Si02
#       8
#     2   2   2   2   2   2   2   2
#     4  10  23  39  57  81 113 148 186 230 274 329
#     4  11  20  34  59  85 106 140 195 234 271 311
#     4  11  22  39  59  79 113 151 187 223 278 331
#     4  11  19  35  58  85 111 140 182 232 279 320
#     4  10  19  30  51  86 113 143 175 230 281 324
#     4  10  19  32  54  86 110 137 181 238 273 323
#     4  11  19  33  59  85 109 145 185 232 272 330
#     4  10  20  33  56  82 112 143 183 229 273 326
#
# _framework density 18.320920000000001
#
# number of rings (size 3 to 8) (size 9 to 14) (size 15 to 20)
#    0.750    0.750    5.000    1.125    1.750    2.500 
#    0.000    0.625    2.750    0.750    0.000    0.000 
#    0.000    0.000    0.000    0.000    0.000    0.000 
#
# Total GULP energy -198217.706725 kJ/mol
# GULP energy per Si atom -12388.606670 kJ/mol
# Density = 1.827922 g / cm^3
# Si number density = 18.320920 Si / 1000 Ang^3
#
#
#
# Elastic Constant Matrix: (Units=GPa)
#
#
# Indices 1 2 3 4 5 6 
#
# 1 95.1372 31.1511 42.1168 -2.3981 2.1619 -5.3178
# 2 31.1511 96.8162 58.3030 20.6675 0.8059 -3.0681
# 3 42.1168 58.3030 75.7332 8.0295 -4.6121 -0.8937
# 4 -2.3981 20.6675 8.0295 41.6408 -1.1818 -1.3676
# 5 2.1619 0.8059 -4.6121 -1.1818 23.2501 3.9080
# 6 -5.3178 -3.0681 -0.8937 -1.3676 3.9080 17.9760
#
#
#
# Elastic Compliance Matrix: (Units=1/GPa)
#
#
# Indices 1 2 3 4 5 6 
#
# 1 0.014776 0.000216 -0.008824 0.002500 -0.003844 0.004995
# 2 0.000216 0.022008 -0.016507 -0.007756 -0.005041 0.003505
# 3 -0.008824 -0.016507 0.031091 0.001749 0.008593 -0.005617
# 4 0.002500 -0.007756 0.001749 0.027758 0.001581 0.001271
# 5 -0.003844 -0.005041 0.008593 0.001581 0.047300 -0.011733
# 6 0.004995 0.003505 -0.005617 0.001271 -0.011733 0.060074
#
#
# Mechanical properties :
#
#
# Convention : Reuss Voigt Hill
#
# Bulk Modulus (GPa) = 56.66906 58.98096 57.82501
# Shear Modulus (GPa) = 19.29620 25.64774 22.47197
#
# Velocity S-wave (km/s) = 3.24888 3.74560 3.50605
# Velocity P-wave (km/s) = 6.71357 7.13927 6.92969
#
# Compressibility (1/GPa) = 0.01764631
#
# Stress axis : x y z
#
# Youngs Moduli (GPa) = 67.67571 45.43731 32.16402
#
# Poissons Ratio (x) = -0.00982 0.28382
# Poissons Ratio (y) = -0.01462 0.53092
# Poissons Ratio (z) = 0.59717 0.75001
#
# Static dielectric constant tensor:
#      x y z
#    x 3.291960 -0.160650 -0.160870 
#    y -0.160650 3.457010 0.212500 
#    z -0.160870 0.212500 3.194840 
# 
# 
# High freq. dielectric constant tensor:
#      x y z
#    x 1.701680 -0.010090 -0.004230 
#    y -0.010090 1.710400 0.031510 
#    z -0.004230 0.031510 1.690750 
# 
# From -- ./inp_files/218630.got.cif
#   From: 2010.06.25/outbox.cif.g09.slc.cpg/sg2_110_cif.got.tgz:218630.got - 2010.06.27 13:26:56.
