data_PCOD8041478
_publ_section_title
;
Structure prediction by ZEFSAII (Michael W. Deem and Ramdas Pophale) SiO2 
 PCOD8041478
Probable space group: P -1
;
_chemical_formula_sum "Si O2"
_cell_formula_units_Z 10
_cell_length_a 5.202260
_cell_length_b 10.862476
_cell_length_c 17.305610
_cell_angle_alpha 37.696337
_cell_angle_beta 62.272033
_cell_angle_gamma 72.183309
_cell_volume 525.808440
_symmetry_space_group_name_H-M "P -1"
_symmetry_group_IT_number 2
_symmetry_cell_setting 'triclinic'
loop_
_space_group_symop_operation_xyz
x,y,z
-x,-y,-z
loop_
_atom_site_type_symbol
_atom_site_label
_atom_site_fract_x
_atom_site_fract_y
_atom_site_fract_z
Si Si1 0.177230 0.981636 0.406935
Si Si2 0.818975 0.020183 0.294665
Si Si3 0.400248 0.221509 0.822444
Si Si4 0.481359 0.614688 0.525574
Si Si5 0.057193 0.011999 0.106436
O O1 0.202956 0.744309 0.502622
O O2 0.018705 0.084844 0.308055
O O3 0.496674 0.897904 0.689991
O O4 0.000000 0.000000 0.500000
O O5 0.773889 0.773427 0.415830
O O6 0.974188 0.111677 0.149412
O O7 0.453201 0.458630 0.678219
O O8 0.713004 0.147962 0.831733
O O9 0.239856 0.099498 0.833775
O O10 0.196524 0.191321 0.941923
O O11 0.500000 0.500000 0.500000
#
# Coordination Sequence:
#
# PCOD8041478 Si02
#       5
#     2   2   2   2   2
#     4  10  22  36  54  78 104 139 175 216 259 306
#     4  10  20  33  57  73 105 138 175 211 258 307
#     4  10  20  30  49  75 115 134 167 206 265 307
#     4  10  20  32  55  83 104 133 170 222 255 306
#     4  10  19  33  47  77 108 143 162 209 260 315
#
# _framework density 19.018332000000001
#
# number of rings (size 3 to 8) (size 9 to 14) (size 15 to 20)
#    1.200    0.800    2.000    3.000    2.800    1.600 
#    0.000    0.000    0.000    2.400    0.000    0.000 
#    0.000    0.000    0.000    0.000    0.000    0.000 
#
# Total GULP energy -123944.547042 kJ/mol
# GULP energy per Si atom -12394.454704 kJ/mol
# Density = 1.897505 g / cm^3
# Si number density = 19.018332 Si / 1000 Ang^3
#
#
#
# Elastic Constant Matrix: (Units=GPa)
#
#
# Indices 1 2 3 4 5 6 
#
# 1 109.9728 24.3985 22.7828 17.9119 12.8173 6.4751
# 2 24.3985 77.1681 21.6607 37.2221 3.3097 -6.8237
# 3 22.7828 21.6607 90.3028 29.5384 8.7835 -0.7500
# 4 17.9119 37.2221 29.5384 41.3424 3.8889 -0.4730
# 5 12.8173 3.3097 8.7835 3.8889 21.5141 11.6234
# 6 6.4751 -6.8237 -0.7500 -0.4730 11.6234 23.3664
#
#
#
# Elastic Compliance Matrix: (Units=1/GPa)
#
#
# Indices 1 2 3 4 5 6 
#
# 1 0.010693 -0.002422 -0.001341 -0.001095 -0.004423 -0.001536
# 2 -0.002422 0.025103 0.002611 -0.022856 -0.004748 0.009985
# 3 -0.001341 0.002611 0.015383 -0.012140 -0.006066 0.004399
# 4 -0.001095 -0.022856 -0.012140 0.053506 0.003447 -0.007393
# 5 -0.004423 -0.004748 -0.006066 0.003447 0.070911 -0.035560
# 6 -0.001536 0.009985 0.004399 -0.007393 -0.035560 0.063818
#
#
# Mechanical properties :
#
#
# Convention : Reuss Voigt Hill
#
# Bulk Modulus (GPa) = 20.46049 46.12529 33.29289
# Shear Modulus (GPa) = 19.37901 31.15135 25.26518
#
# Velocity S-wave (km/s) = 3.19559 4.05157 3.64876
# Velocity P-wave (km/s) = 4.93937 6.79652 5.94096
#
# Compressibility (1/GPa) = 0.04887467
#
# Stress axis : x y z
#
# Youngs Moduli (GPa) = 93.52260 39.83582 65.00491
#
# Poissons Ratio (x) = 0.09648 0.08717
# Poissons Ratio (y) = 0.22651 -0.16971
# Poissons Ratio (z) = 0.12541 -0.10400
#
# Static dielectric constant tensor:
#      x y z
#    x 3.614960 0.037140 0.093810 
#    y 0.037140 3.006660 0.290310 
#    z 0.093810 0.290310 3.683140 
# 
# 
# High freq. dielectric constant tensor:
#      x y z
#    x 1.752760 0.003390 0.001170 
#    y 0.003390 1.694230 0.038170 
#    z 0.001170 0.038170 1.734810 
# 
# From -- ./inp_files/19766.got.cif
#   From: 2010.06.25/outbox.cif.g09.slc.cpg/sg2_10_cif.got.tgz:19766.got - 2010.06.27 13:26:56.
