data_PCOD8041910
_publ_section_title
;
Structure prediction by ZEFSAII (Michael W. Deem and Ramdas Pophale) SiO2 
 PCOD8041910
Probable space group: P -1
;
_chemical_formula_sum "Si O2"
_cell_formula_units_Z 16
_cell_length_a 15.192202
_cell_length_b 15.725693
_cell_length_c 12.166322
_cell_angle_alpha 140.345278
_cell_angle_beta 152.410118
_cell_angle_gamma 53.276828
_cell_volume 823.298322
_symmetry_space_group_name_H-M "P -1"
_symmetry_group_IT_number 2
_symmetry_cell_setting 'triclinic'
loop_
_space_group_symop_operation_xyz
x,y,z
-x,-y,-z
loop_
_atom_site_type_symbol
_atom_site_label
_atom_site_fract_x
_atom_site_fract_y
_atom_site_fract_z
Si Si1 0.778907 0.881255 0.254389
Si Si2 0.970429 0.195801 0.734445
Si Si3 0.625953 0.318836 0.435775
Si Si4 0.523554 0.479910 0.665760
Si Si5 0.440632 0.335869 0.792533
Si Si6 0.215051 0.353871 0.364711
Si Si7 0.123332 0.590711 0.629196
Si Si8 0.814755 0.722537 0.334538
O O1 0.859903 0.860705 0.446156
O O2 0.870902 0.805949 0.185878
O O3 0.826183 0.043553 0.445839
O O4 0.541474 0.815986 0.927864
O O5 0.839051 0.291557 0.639713
O O6 0.074852 0.252859 0.021829
O O7 0.571433 0.350540 0.530647
O O8 0.632423 0.457454 0.510933
O O9 0.429968 0.426027 0.624411
O O10 0.727268 0.598329 0.028124
O O11 0.272220 0.268538 0.446733
O O12 0.344063 0.280319 0.747689
O O13 0.500000 0.500000 0.000000
O O14 0.656837 0.309741 0.995938
O O15 0.124249 0.477819 0.423579
O O16 0.000000 0.500000 0.500000
O O17 0.017976 0.704860 0.588357
#
# Coordination Sequence:
#
# PCOD8041910 Si02
#       8
#     2   2   2   2   2   2   2   2
#     4  10  24  40  57  80 113 152 200 236 262 326
#     4  11  23  40  58  80 111 159 195 227 276 328
#     4  10  21  37  57  83 116 147 184 234 286 335
#     4  10  19  34  55  90 119 138 178 239 287 335
#     4  10  19  34  53  83 116 143 174 227 283 338
#     4  11  20  35  56  84 117 145 177 234 281 339
#     4  11  19  33  59  88 112 146 179 221 298 346
#     4  11  20  36  56  84 116 145 183 231 279 335
#
# _framework density 19.434024999999998
#
# number of rings (size 3 to 8) (size 9 to 14) (size 15 to 20)
#    0.000    1.500    6.250    1.125    1.750    0.500 
#    0.000    0.625    0.000    0.750    0.000    0.000 
#    0.000    0.000    0.000    0.000    0.000    0.000 
#
# Total GULP energy -198298.938009 kJ/mol
# GULP energy per Si atom -12393.683626 kJ/mol
# Density = 1.938979 g / cm^3
# Si number density = 19.434025 Si / 1000 Ang^3
#
#
#
# Elastic Constant Matrix: (Units=GPa)
#
#
# Indices 1 2 3 4 5 6 
#
# 1 86.7494 13.2597 9.5943 -7.8120 -7.4670 5.1944
# 2 13.2597 64.9334 20.6507 -23.7952 -1.7989 -2.7687
# 3 9.5943 20.6507 70.6511 -24.5102 -5.5090 -6.4809
# 4 -7.8120 -23.7952 -24.5102 34.4445 -0.5272 1.5214
# 5 -7.4670 -1.7989 -5.5090 -0.5272 22.8492 -5.8310
# 6 5.1944 -2.7687 -6.4809 1.5214 -5.8310 28.8575
#
#
#
# Elastic Compliance Matrix: (Units=1/GPa)
#
#
# Indices 1 2 3 4 5 6 
#
# 1 0.012393 -0.001883 -0.000645 0.001187 0.003274 -0.001957
# 2 -0.001883 0.021134 -0.000982 0.013420 0.001569 0.001756
# 3 -0.000645 -0.000982 0.020108 0.013354 0.006164 0.005079
# 4 0.001187 0.013420 0.013354 0.048048 0.006501 0.002853
# 5 0.003274 0.001569 0.006164 0.006501 0.049291 0.010563
# 6 -0.001957 0.001756 0.005079 0.002853 0.010563 0.038298
#
#
# Mechanical properties :
#
#
# Convention : Reuss Voigt Hill
#
# Bulk Modulus (GPa) = 21.45301 34.37149 27.91225
# Shear Modulus (GPa) = 23.60387 29.15219 26.37803
#
# Velocity S-wave (km/s) = 3.48884 3.87726 3.68817
# Velocity P-wave (km/s) = 5.22419 6.14564 5.70355
#
# Compressibility (1/GPa) = 0.04661350
#
# Stress axis : x y z
#
# Youngs Moduli (GPa) = 80.69368 47.31816 49.73145
#
# Poissons Ratio (x) = 0.08911 0.03206
# Poissons Ratio (y) = 0.15196 0.04885
# Poissons Ratio (z) = 0.05203 0.04648
#
# Static dielectric constant tensor:
#      x y z
#    x 3.843760 -0.070530 -0.023540 
#    y -0.070530 3.787180 -0.585060 
#    z -0.023540 -0.585060 3.759570 
# 
# 
# High freq. dielectric constant tensor:
#      x y z
#    x 1.767320 0.008300 0.000310 
#    y 0.008300 1.732240 -0.028730 
#    z 0.000310 -0.028730 1.745290 
# 
# From -- ./inp_files/425791.got.cif
#   From: 2010.06.25/outbox.cif.g09.slc.cpg/sg2_213_cif.got.tgz:425791.got - 2010.06.27 13:26:56.
