data_PCOD8041993
_publ_section_title
;
Structure prediction by ZEFSAII (Michael W. Deem and Ramdas Pophale) SiO2 
 PCOD8041993
Probable space group: P -1
;
_chemical_formula_sum "Si O2"
_cell_formula_units_Z 14
_cell_length_a 7.508276
_cell_length_b 17.400765
_cell_length_c 8.570502
_cell_angle_alpha 70.046075
_cell_angle_beta 54.522220
_cell_angle_gamma 108.911074
_cell_volume 626.713194
_symmetry_space_group_name_H-M "P -1"
_symmetry_group_IT_number 2
_symmetry_cell_setting 'triclinic'
loop_
_space_group_symop_operation_xyz
x,y,z
-x,-y,-z
loop_
_atom_site_type_symbol
_atom_site_label
_atom_site_fract_x
_atom_site_fract_y
_atom_site_fract_z
Si Si1 0.170504 0.127821 0.819199
Si Si2 0.749502 0.318874 0.243033
Si Si3 0.513911 0.766284 0.104877
Si Si4 0.061710 0.776644 0.294971
Si Si5 0.158465 0.402891 0.713005
Si Si6 0.015903 0.459415 0.314700
Si Si7 0.403204 0.326147 0.155635
O O1 0.498072 0.195474 0.530607
O O2 0.235448 0.177557 0.927385
O O3 0.965370 0.137692 0.815597
O O4 0.000000 0.000000 0.000000
O O5 0.933056 0.416040 0.210446
O O6 0.570384 0.337066 0.216783
O O7 0.985370 0.328703 0.010262
O O8 0.190810 0.643977 0.392237
O O9 0.410204 0.834683 0.079223
O O10 0.648041 0.757873 0.888863
O O11 0.869105 0.673394 0.347701
O O12 0.922781 0.729238 0.575339
O O13 0.500000 0.500000 0.500000
O O14 0.030331 0.456457 0.684724
O O15 0.378484 0.543528 0.105447
#
# Coordination Sequence:
#
# PCOD8041993 Si02
#       7
#     2   2   2   2   2   2   2
#     4  10  24  47  67  87 120 161 216 277 318 359
#     4   9  18  36  59  86 129 165 202 257 302 360
#     4  11  22  41  62  93 127 158 210 263 301 380
#     4  11  23  40  64  90 124 170 205 251 324 369
#     4  11  18  32  60  93 130 172 201 234 308 382
#     4  10  19  34  55  91 135 166 198 250 297 373
#     4  10  19  36  58  90 134 160 201 253 303 374
#
# _framework density 22.338764000000001
#
# number of rings (size 3 to 8) (size 9 to 14) (size 15 to 20)
#    0.000    1.714    2.857    5.571    0.000    1.143 
#   10.286    3.571    0.000    0.000    0.000    0.000 
#    0.000    0.000    0.000    0.000    0.000    0.000 
#
# Total GULP energy -173458.863958 kJ/mol
# GULP energy per Si atom -12389.918854 kJ/mol
# Density = 2.228792 g / cm^3
# Si number density = 22.338764 Si / 1000 Ang^3
#
#
#
# Elastic Constant Matrix: (Units=GPa)
#
#
# Indices 1 2 3 4 5 6 
#
# 1 37.8818 8.2486 8.9433 5.5253 4.5186 3.6018
# 2 8.2486 95.7254 59.5692 13.2679 4.0086 -2.3635
# 3 8.9433 59.5692 76.2245 16.9014 -4.0587 -5.5552
# 4 5.5253 13.2679 16.9014 49.5018 -2.8006 5.9263
# 5 4.5186 4.0086 -4.0587 -2.8006 21.8896 1.4486
# 6 3.6018 -2.3635 -5.5552 5.9263 1.4486 28.9965
#
#
#
# Elastic Compliance Matrix: (Units=1/GPa)
#
#
# Indices 1 2 3 4 5 6 
#
# 1 0.028642 0.000391 -0.003850 -0.001944 -0.006713 -0.003531
# 2 0.000391 0.021418 -0.017215 -0.000165 -0.007136 -0.001211
# 3 -0.003850 -0.017215 0.028957 -0.004998 0.008331 0.005228
# 4 -0.001944 -0.000165 -0.004998 0.022995 0.002816 -0.005570
# 5 -0.006713 -0.007136 0.008331 0.002816 0.050364 -0.001243
# 6 -0.003531 -0.001211 0.005228 -0.005570 -0.001243 0.037029
#
#
# Mechanical properties :
#
#
# Convention : Reuss Voigt Hill
#
# Bulk Modulus (GPa) = 26.54724 40.37264 33.45994
# Shear Modulus (GPa) = 20.55011 28.94896 24.74954
#
# Velocity S-wave (km/s) = 3.03633 3.60378 3.33215
# Velocity P-wave (km/s) = 4.91956 5.95218 5.46033
#
# Compressibility (1/GPa) = 0.03766870
#
# Stress axis : x y z
#
# Youngs Moduli (GPa) = 34.91417 46.69060 34.53376
#
# Poissons Ratio (x) = -0.01826 0.13294
# Poissons Ratio (y) = -0.01365 0.59451
# Poissons Ratio (z) = 0.13441 0.80379
#
# Static dielectric constant tensor:
#      x y z
#    x 3.903370 0.076550 0.273890 
#    y 0.076550 3.800940 0.302630 
#    z 0.273890 0.302630 4.173650 
# 
# 
# High freq. dielectric constant tensor:
#      x y z
#    x 1.874630 0.008330 0.006610 
#    y 0.008330 1.862740 0.031660 
#    z 0.006610 0.031660 1.871910 
# 
# From -- ./inp_files/201309.got.cif
#   From: 2010.06.25/outbox.cif.g09.slc.cpg/sg2_101_cif.got.tgz:201309.got - 2010.06.27 13:26:56.
