data_PCOD8041085
_publ_section_title
;
Structure prediction by ZEFSAII (Michael W. Deem and Ramdas Pophale) SiO2 
 PCOD8041085
Probable space group: P -1
;
_chemical_formula_sum "Si O2"
_cell_formula_units_Z 16
_cell_length_a 7.821286
_cell_length_b 22.379858
_cell_length_c 12.135978
_cell_angle_alpha 149.242478
_cell_angle_beta 119.972683
_cell_angle_gamma 49.608976
_cell_volume 818.428204
_symmetry_space_group_name_H-M "P -1"
_symmetry_group_IT_number 2
_symmetry_cell_setting 'triclinic'
loop_
_space_group_symop_operation_xyz
x,y,z
-x,-y,-z
loop_
_atom_site_type_symbol
_atom_site_label
_atom_site_fract_x
_atom_site_fract_y
_atom_site_fract_z
Si Si1 0.368786 0.030346 0.338284
Si Si2 0.729986 0.576828 0.753413
Si Si3 0.516874 0.077758 0.025722
Si Si4 0.213488 0.679596 0.709082
Si Si5 0.043369 0.011794 0.869609
Si Si6 0.962666 0.095747 0.740828
Si Si7 0.922774 0.697356 0.842650
Si Si8 0.451891 0.197022 0.791742
O O1 0.355719 0.163776 0.597910
O O2 0.476719 0.004462 0.211484
O O3 0.531788 0.902144 0.262115
O O4 0.119763 0.050820 0.277951
O O5 0.469943 0.652671 0.747554
O O6 0.811143 0.418736 0.544426
O O7 0.900037 0.588819 0.738558
O O8 0.723662 0.650250 0.983343
O O9 0.305230 0.227077 0.185597
O O10 0.500000 0.000000 0.000000
O O11 0.748341 0.082814 0.132383
O O12 0.139374 0.639637 0.738424
O O13 0.059783 0.835370 0.876341
O O14 0.108909 0.012378 0.762888
O O15 0.699452 0.178635 0.821650
O O16 0.000000 0.000000 0.500000
O O17 0.048722 0.199952 0.902493
#
# Coordination Sequence:
#
# PCOD8041085 Si02
#       8
#     2   2   2   2   2   2   2   2
#     4  10  20  33  52  79 109 140 173 221 273 327
#     4  11  20  34  55  76 112 144 177 223 263 324
#     4  12  20  32  53  76 112 140 178 221 269 319
#     4  10  20  35  50  79 113 140 181 220 266 314
#     4  10  20  35  51  80 109 140 179 219 269 322
#     4  10  19  30  49  77 115 137 167 216 273 328
#     4  11  20  35  52  82 108 143 179 219 272 317
#     4  10  19  34  52  78 111 141 174 221 274 323
#
# _framework density 19.549666999999999
#
# number of rings (size 3 to 8) (size 9 to 14) (size 15 to 20)
#    0.000    1.500    7.500    1.500    3.500    0.000 
#    0.000    0.000    0.000    0.750    0.000    0.875 
#    0.000    0.125    0.000    0.000    0.000    0.000 
#
# Total GULP energy -198255.814151 kJ/mol
# GULP energy per Si atom -12390.988384 kJ/mol
# Density = 1.950517 g / cm^3
# Si number density = 19.549667 Si / 1000 Ang^3
#
#
#
# Elastic Constant Matrix: (Units=GPa)
#
#
# Indices 1 2 3 4 5 6 
#
# 1 88.3595 6.1416 14.8203 -5.3729 5.9325 1.5333
# 2 6.1416 41.6581 21.5503 -14.2665 3.3012 -3.0317
# 3 14.8203 21.5503 116.0688 -18.3329 6.7551 -0.8842
# 4 -5.3729 -14.2665 -18.3329 21.6852 3.8602 -3.1503
# 5 5.9325 3.3012 6.7551 3.8602 29.6995 -5.9147
# 6 1.5333 -3.0317 -0.8842 -3.1503 -5.9147 20.7935
#
#
#
# Elastic Compliance Matrix: (Units=1/GPa)
#
#
# Indices 1 2 3 4 5 6 
#
# 1 0.011838 -0.000417 -0.000955 0.002119 -0.002657 -0.001409
# 2 -0.000417 0.033644 -0.002435 0.021778 -0.004573 0.006831
# 3 -0.000955 -0.002435 0.010572 0.007679 -0.002837 0.000521
# 4 0.002119 0.021778 0.007679 0.071107 -0.011683 0.010796
# 5 -0.002657 -0.004573 -0.002837 -0.011683 0.038589 0.008615
# 6 -0.001409 0.006831 0.000521 0.010796 0.008615 0.053300
#
#
# Mechanical properties :
#
#
# Convention : Reuss Voigt Hill
#
# Bulk Modulus (GPa) = 20.64493 36.79009 28.71751
# Shear Modulus (GPa) = 20.59195 28.00727 24.29961
#
# Velocity S-wave (km/s) = 3.24900 3.78910 3.52940
# Velocity P-wave (km/s) = 4.96567 6.16463 5.59735
#
# Compressibility (1/GPa) = 0.04843804
#
# Stress axis : x y z
#
# Youngs Moduli (GPa) = 84.47105 29.72284 94.59133
#
# Poissons Ratio (x) = 0.01240 0.09038
# Poissons Ratio (y) = 0.03525 0.23036
# Poissons Ratio (z) = 0.08071 0.07239
#
# Static dielectric constant tensor:
#      x y z
#    x 4.073720 -0.309620 0.096970 
#    y -0.309620 3.438980 -0.305030 
#    z 0.096970 -0.305030 3.863830 
# 
# 
# High freq. dielectric constant tensor:
#      x y z
#    x 1.789960 -0.005500 0.003040 
#    y -0.005500 1.692690 -0.018850 
#    z 0.003040 -0.018850 1.762990 
# 
# From -- ./inp_files/258513.got.cif
#   From: 2010.06.25/outbox.cif.g09.slc.cpg/sg2_130_cif.got.tgz:258513.got - 2010.06.27 13:26:56.
