data_PCOD8041721
_publ_section_title
;
Structure prediction by ZEFSAII (Michael W. Deem and Ramdas Pophale) SiO2 
 PCOD8041721
Probable space group: P -1
;
_chemical_formula_sum "Si O2"
_cell_formula_units_Z 16
_cell_length_a 13.763687
_cell_length_b 11.322510
_cell_length_c 8.812117
_cell_angle_alpha 59.337474
_cell_angle_beta 58.706515
_cell_angle_gamma 40.652016
_cell_volume 747.731178
_symmetry_space_group_name_H-M "P -1"
_symmetry_group_IT_number 2
_symmetry_cell_setting 'triclinic'
loop_
_space_group_symop_operation_xyz
x,y,z
-x,-y,-z
loop_
_atom_site_type_symbol
_atom_site_label
_atom_site_fract_x
_atom_site_fract_y
_atom_site_fract_z
Si Si1 0.314877 0.768912 0.929122
Si Si2 0.699199 0.246369 0.385629
Si Si3 0.268306 0.083665 0.438348
Si Si4 0.575520 0.878038 0.169192
Si Si5 0.349643 0.466789 0.579351
Si Si6 0.809178 0.851526 0.191216
Si Si7 0.094239 0.475157 0.297055
Si Si8 0.660244 0.533888 0.748474
O O1 0.265146 0.745483 0.823150
O O2 0.481513 0.708964 0.816472
O O3 0.192479 0.982767 0.942463
O O4 0.313147 0.650572 0.131192
O O5 0.517788 0.386877 0.461555
O O6 0.754514 0.327587 0.394638
O O7 0.777495 0.034645 0.498107
O O8 0.248172 0.128438 0.604013
O O9 0.167487 0.275614 0.297184
O O10 0.447133 0.963198 0.345527
O O11 0.649219 0.666379 0.221959
O O12 0.703819 0.874130 0.131582
O O13 0.500000 0.000000 0.000000
O O14 0.284619 0.475682 0.461297
O O15 0.979790 0.649405 0.163199
O O16 0.235081 0.460894 0.230640
O O17 0.000000 0.500000 0.500000
#
# Coordination Sequence:
#
# PCOD8041721 Si02
#       8
#     2   2   2   2   2   2   2   2
#     4   9  19  33  56  84 108 139 187 235 275 316
#     4   8  16  30  50  77 108 139 173 222 273 321
#     4   9  18  35  57  80 108 144 186 229 272 326
#     4  11  22  34  56  84 110 142 185 234 279 326
#     4   9  17  31  50  77 110 138 172 220 276 326
#     4  10  20  36  56  79 109 146 186 229 275 329
#     4  10  20  34  57  81 110 149 190 227 270 329
#     4  10  19  33  57  84 109 142 183 232 277 325
#
# _framework density 21.398064000000002
#
# number of rings (size 3 to 8) (size 9 to 14) (size 15 to 20)
#    0.000    2.500    0.000    3.375    0.000    6.500 
#    0.000    0.625    0.000   15.000    0.000    0.000 
#    0.000    3.000    0.000    0.000    0.000    0.000 
#
# Total GULP energy -198262.231072 kJ/mol
# GULP energy per Si atom -12391.389442 kJ/mol
# Density = 2.134936 g / cm^3
# Si number density = 21.398064 Si / 1000 Ang^3
#
#
#
# Elastic Constant Matrix: (Units=GPa)
#
#
# Indices 1 2 3 4 5 6 
#
# 1 67.1705 54.0638 33.7112 -12.8354 9.8705 19.2767
# 2 54.0638 135.0929 30.7707 -42.8297 8.3324 24.8932
# 3 33.7112 30.7707 72.3679 -30.2264 6.8213 7.7804
# 4 -12.8354 -42.8297 -30.2264 34.1797 -1.4762 -5.8082
# 5 9.8705 8.3324 6.8213 -1.4762 22.4598 -0.6887
# 6 19.2767 24.8932 7.7804 -5.8082 -0.6887 28.4440
#
#
#
# Elastic Compliance Matrix: (Units=1/GPa)
#
#
# Indices 1 2 3 4 5 6 
#
# 1 0.036311 -0.015707 -0.018831 -0.024833 -0.006379 -0.010937
# 2 -0.015707 0.022100 0.011827 0.031165 -0.003013 -0.005641
# 3 -0.018831 0.011827 0.033391 0.037248 -0.003780 0.000793
# 4 -0.024833 0.031165 0.037248 0.091301 -0.006026 -0.002136
# 5 -0.006379 -0.003013 -0.003780 -0.006026 0.049441 0.007960
# 6 -0.010937 -0.005641 0.000793 -0.002136 0.007960 0.047045
#
#
# Mechanical properties :
#
#
# Convention : Reuss Voigt Hill
#
# Bulk Modulus (GPa) = 21.56117 56.85807 39.20962
# Shear Modulus (GPa) = 14.68558 27.42241 21.05399
#
# Velocity S-wave (km/s) = 2.62258 3.58374 3.14015
# Velocity P-wave (km/s) = 4.38961 6.61465 5.61348
#
# Compressibility (1/GPa) = 0.04637968
#
# Stress axis : x y z
#
# Youngs Moduli (GPa) = 27.53987 45.24911 29.94858
#
# Poissons Ratio (x) = 0.71071 0.56397
# Poissons Ratio (y) = 0.43256 -0.35420
# Poissons Ratio (z) = 0.51861 -0.53516
#
# Static dielectric constant tensor:
#      x y z
#    x 3.671960 0.212640 0.013630 
#    y 0.212640 4.492730 -0.397120 
#    z 0.013630 -0.397120 3.705590 
# 
# 
# High freq. dielectric constant tensor:
#      x y z
#    x 1.809260 0.020930 -0.007300 
#    y 0.020930 1.842020 -0.028250 
#    z -0.007300 -0.028250 1.819430 
# 
# From -- ./inp_files/262017.got.cif
#   From: 2010.06.25/outbox.cif.g09.slc.cpg/sg2_132_cif.got.tgz:262017.got - 2010.06.27 13:26:56.
