data_PCOD8041044
_publ_section_title
;
Structure prediction by ZEFSAII (Michael W. Deem and Ramdas Pophale) SiO2 
 PCOD8041044
Probable space group: P -1
;
_chemical_formula_sum "Si O2"
_cell_formula_units_Z 14
_cell_length_a 5.186410
_cell_length_b 15.604970
_cell_length_c 11.273786
_cell_angle_alpha 121.174219
_cell_angle_beta 119.995003
_cell_angle_gamma 72.716770
_cell_volume 675.212019
_symmetry_space_group_name_H-M "P -1"
_symmetry_group_IT_number 2
_symmetry_cell_setting 'triclinic'
loop_
_space_group_symop_operation_xyz
x,y,z
-x,-y,-z
loop_
_atom_site_type_symbol
_atom_site_label
_atom_site_fract_x
_atom_site_fract_y
_atom_site_fract_z
Si Si1 0.460097 0.399080 0.347675
Si Si2 0.683575 0.218477 0.911821
Si Si3 0.169415 0.524232 0.177670
Si Si4 0.412733 0.401750 0.837122
Si Si5 0.726587 0.895466 0.113940
Si Si6 0.140954 0.932580 0.875469
Si Si7 0.033085 0.721583 0.741876
O O1 0.500000 0.500000 0.500000
O O2 0.278228 0.424194 0.201738
O O3 0.784479 0.348776 0.359446
O O4 0.278301 0.324284 0.331772
O O5 0.519483 0.298331 0.846854
O O6 0.450989 0.129734 0.823058
O O7 0.992241 0.181977 0.894732
O O8 0.756944 0.270967 0.089347
O O9 0.448677 0.590566 0.257024
O O10 0.944514 0.593462 0.256306
O O11 0.000000 0.500000 0.000000
O O12 0.500000 0.500000 0.000000
O O13 0.859122 0.006344 0.206206
O O14 0.483177 0.891971 0.949771
O O15 0.956114 0.832609 0.748706
O O16 0.000000 0.000000 0.000000
#
# Coordination Sequence:
#
# PCOD8041044 Si02
#       7
#     2   2   2   2   2   2   2
#     4  12  25  39  54  81 115 154 194 223 263 335
#     4  11  19  31  50  78 110 146 180 216 290 331
#     4  10  19  35  54  74 105 142 181 233 273 309
#     4  10  19  30  47  74 102 135 178 222 264 324
#     4  10  19  29  46  73 114 144 168 232 275 351
#     4  10  19  32  48  78 110 144 188 224 285 343
#     4  11  21  34  56  73 109 158 180 225 281 330
#
# _framework density 20.734226
#
# number of rings (size 3 to 8) (size 9 to 14) (size 15 to 20)
#    0.000    1.429    2.857    7.286    2.000    0.000 
#    0.000    0.000    0.000    0.000    0.000    0.000 
#    0.000   22.857    0.000    0.000    0.000    0.000 
#
# Total GULP energy -173434.023510 kJ/mol
# GULP energy per Si atom -12388.144536 kJ/mol
# Density = 2.068703 g / cm^3
# Si number density = 20.734226 Si / 1000 Ang^3
#
#
#
# Elastic Constant Matrix: (Units=GPa)
#
#
# Indices 1 2 3 4 5 6 
#
# 1 177.7697 48.5860 0.7496 7.9567 -2.0037 11.0787
# 2 48.5860 121.6081 5.6833 20.3529 6.9467 15.0633
# 3 0.7496 5.6833 32.2449 10.6342 -2.8221 8.0097
# 4 7.9567 20.3529 10.6342 17.5668 0.8182 6.3249
# 5 -2.0037 6.9467 -2.8221 0.8182 13.2947 11.2906
# 6 11.0787 15.0633 8.0097 6.3249 11.2906 44.4980
#
#
#
# Elastic Compliance Matrix: (Units=1/GPa)
#
#
# Indices 1 2 3 4 5 6 
#
# 1 0.006524 -0.002642 0.001242 -0.000113 0.004373 -0.002047
# 2 -0.002642 0.011743 0.002089 -0.013234 -0.004763 -0.000604
# 3 0.001242 0.002089 0.043374 -0.026614 0.018128 -0.009641
# 4 -0.000113 -0.013234 -0.026614 0.089580 -0.001718 -0.002998
# 5 0.004373 -0.004763 0.018128 -0.001718 0.107632 -0.029805
# 6 -0.002047 -0.000604 -0.009641 -0.002998 -0.029805 0.032911
#
#
# Mechanical properties :
#
#
# Convention : Reuss Voigt Hill
#
# Bulk Modulus (GPa) = 15.86789 49.07340 32.47064
# Shear Modulus (GPa) = 16.05698 33.51213 24.78455
#
# Velocity S-wave (km/s) = 2.78586 4.02465 3.46113
# Velocity P-wave (km/s) = 4.24472 6.73174 5.62734
#
# Compressibility (1/GPa) = 0.06302036
#
# Stress axis : x y z
#
# Youngs Moduli (GPa) = 153.28029 85.15817 23.05533
#
# Poissons Ratio (x) = 0.22498 -0.02864
# Poissons Ratio (y) = 0.40496 -0.04817
# Poissons Ratio (z) = -0.19043 -0.17793
#
# Static dielectric constant tensor:
#      x y z
#    x -5.310600 -0.441950 0.323540 
#    y -0.441950 4.018490 0.269090 
#    z 0.323540 0.269090 2.998320 
# 
# 
# High freq. dielectric constant tensor:
#      x y z
#    x 1.854390 0.008860 0.002350 
#    y 0.008860 1.827330 0.018350 
#    z 0.002350 0.018350 1.709210 
# 
# From -- ./inp_files/367197.got.cif
#   From: 2010.06.25/outbox.cif.g09.slc.cpg/sg2_184_cif.got.tgz:367197.got - 2010.06.27 13:26:56.
