data_PCOD8041885
_publ_section_title
;
Structure prediction by ZEFSAII (Michael W. Deem and Ramdas Pophale) SiO2 
 PCOD8041885
Probable space group: P -1
;
_chemical_formula_sum "Si O2"
_cell_formula_units_Z 16
_cell_length_a 8.944520
_cell_length_b 11.441778
_cell_length_c 20.214277
_cell_angle_alpha 51.504079
_cell_angle_beta 149.958615
_cell_angle_gamma 121.658355
_cell_volume 810.053515
_symmetry_space_group_name_H-M "P -1"
_symmetry_group_IT_number 2
_symmetry_cell_setting 'triclinic'
loop_
_space_group_symop_operation_xyz
x,y,z
-x,-y,-z
loop_
_atom_site_type_symbol
_atom_site_label
_atom_site_fract_x
_atom_site_fract_y
_atom_site_fract_z
Si Si1 0.441816 0.250960 0.675214
Si Si2 0.145273 0.615179 0.563905
Si Si3 0.627846 0.583628 0.661660
Si Si4 0.509095 0.901167 0.125134
Si Si5 0.665956 0.220624 0.628376
Si Si6 0.287065 0.360097 0.797104
Si Si7 0.928451 0.382263 0.072588
Si Si8 0.015936 0.945510 0.818371
O O1 0.551997 0.416919 0.671242
O O2 0.581883 0.129162 0.823121
O O3 0.519148 0.194485 0.652024
O O4 0.083329 0.250046 0.550885
O O5 0.429796 0.667206 0.613762
O O6 0.240716 0.530991 0.697196
O O7 0.000000 0.500000 0.500000
O O8 0.579807 0.685297 0.542281
O O9 0.954518 0.573769 0.824831
O O10 0.620973 0.741049 0.194975
O O11 0.781047 0.014070 0.181890
O O12 0.219390 0.970725 0.952653
O O13 0.977647 0.305388 0.728843
O O14 0.730169 0.059339 0.675653
O O15 0.573093 0.359458 0.955616
O O16 0.084915 0.223818 0.166094
O O17 0.000000 0.500000 0.000000
#
# Coordination Sequence:
#
# PCOD8041885 Si02
#       8
#     2   2   2   2   2   2   2   2
#     4  11  20  33  59  87 110 149 187 227 272 325
#     4  10  15  29  55  83 105 139 189 230 263 305
#     4  11  20  34  57  87 114 143 186 235 273 321
#     4   9  16  34  57  80 110 139 193 232 265 320
#     4  11  22  35  56  83 120 146 184 227 274 332
#     4  10  17  33  56  84 109 140 183 233 274 310
#     4  11  21  36  61  86 109 139 188 236 278 331
#     4   9  20  35  56  84 109 144 180 235 282 318
#
# _framework density 19.751781999999999
#
# number of rings (size 3 to 8) (size 9 to 14) (size 15 to 20)
#    0.000    1.750    6.250    2.625    0.000    1.000 
#    0.000    0.625    0.000    4.500    0.000    0.000 
#    0.000    0.000    0.000    0.000    0.000    0.000 
#
# Total GULP energy -198252.150495 kJ/mol
# GULP energy per Si atom -12390.759406 kJ/mol
# Density = 1.970683 g / cm^3
# Si number density = 19.751782 Si / 1000 Ang^3
#
#
#
# Elastic Constant Matrix: (Units=GPa)
#
#
# Indices 1 2 3 4 5 6 
#
# 1 89.8753 10.5896 23.5345 -5.0276 -22.4638 6.9805
# 2 10.5896 62.0672 19.1508 -8.8494 -12.0583 2.6071
# 3 23.5345 19.1508 88.4950 0.9291 -23.0011 2.4399
# 4 -5.0276 -8.8494 0.9291 30.5621 8.7723 -4.8611
# 5 -22.4638 -12.0583 -23.0011 8.7723 28.6380 -6.4325
# 6 6.9805 2.6071 2.4399 -4.8611 -6.4325 13.6916
#
#
#
# Elastic Compliance Matrix: (Units=1/GPa)
#
#
# Indices 1 2 3 4 5 6 
#
# 1 0.014020 -0.000190 -0.001071 -0.000938 0.009743 -0.002677
# 2 -0.000190 0.018432 -0.002948 0.004322 0.004043 0.000546
# 3 -0.001071 -0.002948 0.015386 -0.004619 0.012248 0.002480
# 4 -0.000938 0.004322 -0.004619 0.038923 -0.012675 0.008343
# 5 0.009743 0.004043 0.012248 -0.012675 0.061705 0.016570
# 6 -0.002677 0.000546 0.002480 0.008343 0.016570 0.084603
#
#
# Mechanical properties :
#
#
# Convention : Reuss Voigt Hill
#
# Bulk Modulus (GPa) = 25.36745 38.55416 31.96080
# Shear Modulus (GPa) = 19.63644 27.05583 23.34614
#
# Velocity S-wave (km/s) = 3.15645 3.70509 3.44172
# Velocity P-wave (km/s) = 5.11422 6.15347 5.65776
#
# Compressibility (1/GPa) = 0.03942059
#
# Stress axis : x y z
#
# Youngs Moduli (GPa) = 71.32602 54.25252 64.99213
#
# Poissons Ratio (x) = 0.01031 0.06963
# Poissons Ratio (y) = 0.01355 0.19159
# Poissons Ratio (z) = 0.07642 0.15993
#
# Static dielectric constant tensor:
#      x y z
#    x 3.228480 0.052040 -0.093800 
#    y 0.052040 3.183350 -0.169480 
#    z -0.093800 -0.169480 3.889930 
# 
# 
# High freq. dielectric constant tensor:
#      x y z
#    x 1.735020 0.019050 -0.010740 
#    y 0.019050 1.734740 -0.014400 
#    z -0.010740 -0.014400 1.784560 
# 
# From -- ./inp_files/248398.got.cif
#   From: 2010.06.25/outbox.cif.g09.slc.cpg/sg2_125_cif.got.tgz:248398.got - 2010.06.27 13:26:56.
