data_PCOD8041217
_publ_section_title
;
Structure prediction by ZEFSAII (Michael W. Deem and Ramdas Pophale) SiO2 
 PCOD8041217
Probable space group: P -1
;
_chemical_formula_sum "Si O2"
_cell_formula_units_Z 10
_cell_length_a 8.958484
_cell_length_b 8.390662
_cell_length_c 8.332747
_cell_angle_alpha 124.876187
_cell_angle_beta 52.255688
_cell_angle_gamma 94.288468
_cell_volume 367.942437
_symmetry_space_group_name_H-M "P -1"
_symmetry_group_IT_number 2
_symmetry_cell_setting 'triclinic'
loop_
_space_group_symop_operation_xyz
x,y,z
-x,-y,-z
loop_
_atom_site_type_symbol
_atom_site_label
_atom_site_fract_x
_atom_site_fract_y
_atom_site_fract_z
Si Si1 0.999968 0.828245 0.025356
Si Si2 0.594081 0.826436 0.974485
Si Si3 0.353905 0.173921 0.546161
Si Si4 0.696222 0.394917 0.026684
Si Si5 0.947095 0.598478 0.399896
O O1 0.766460 0.897239 0.282078
O O2 0.159380 0.787358 0.047128
O O3 0.077075 0.612303 0.751135
O O4 0.000000 0.000000 0.000000
O O5 0.484472 0.664027 0.953596
O O6 0.846750 0.678683 0.693165
O O7 0.500000 0.000000 0.000000
O O8 0.562479 0.956352 0.238581
O O9 0.401967 0.372415 0.686598
O O10 0.211933 0.224136 0.511511
O O11 0.824982 0.411570 0.793330
#
# Coordination Sequence:
#
# PCOD8041217 Si02
#       5
#     2   2   2   2   2
#     4   9  17  32  54  78 107 143 175 205 258 323
#     4  10  19  31  56  86 100 126 183 224 256 303
#     4   8  17  32  52  76 102 132 173 215 255 303
#     4   9  18  35  56  76 107 137 166 223 264 294
#     4   8  17  32  52  76 102 132 173 215 255 303
#
# _framework density 27.178163000000001
#
# number of rings (size 3 to 8) (size 9 to 14) (size 15 to 20)
#    0.000    3.200    0.000    2.400    0.000   14.400 
#    0.000    3.000    0.000   60.000    0.000    0.000 
#    0.000    0.000    0.000    0.000    0.000    0.000 
#
# Total GULP energy -123915.324689 kJ/mol
# GULP energy per Si atom -12391.532469 kJ/mol
# Density = 2.711630 g / cm^3
# Si number density = 27.178163 Si / 1000 Ang^3
#
#
#
# Elastic Constant Matrix: (Units=GPa)
#
#
# Indices 1 2 3 4 5 6 
#
# 1 88.0368 28.0234 42.7356 -0.8817 6.8346 17.0386
# 2 28.0234 132.8220 52.2676 -11.5331 -1.9162 30.9726
# 3 42.7356 52.2676 247.8411 -0.1232 -23.7149 27.6287
# 4 -0.8817 -11.5331 -0.1232 26.7299 3.1928 4.4882
# 5 6.8346 -1.9162 -23.7149 3.1928 19.8977 -4.0362
# 6 17.0386 30.9726 27.6287 4.4882 -4.0362 29.6221
#
#
#
# Elastic Compliance Matrix: (Units=1/GPa)
#
#
# Indices 1 2 3 4 5 6 
#
# 1 0.015085 -0.000187 -0.002687 0.002974 -0.010472 -0.007853
# 2 -0.000187 0.011638 -0.001439 0.007611 -0.004278 -0.012455
# 3 -0.002687 -0.001439 0.005628 -0.001422 0.007526 -0.000958
# 4 0.002974 0.007611 -0.001422 0.045137 -0.012655 -0.016906
# 5 -0.010472 -0.004278 0.007526 -0.012655 0.067399 0.014578
# 6 -0.007853 -0.012455 -0.000958 -0.016906 0.014578 0.056739
#
#
# Mechanical properties :
#
#
# Convention : Reuss Voigt Hill
#
# Bulk Modulus (GPa) = 42.14982 79.41701 60.78342
# Shear Modulus (GPa) = 22.91884 38.29485 30.60684
#
# Velocity S-wave (km/s) = 2.90708 3.75778 3.35947
# Velocity P-wave (km/s) = 5.17789 6.93629 6.12057
#
# Compressibility (1/GPa) = 0.02372489
#
# Stress axis : x y z
#
# Youngs Moduli (GPa) = 66.28966 85.92404 177.68800
#
# Poissons Ratio (x) = 0.01608 0.47742
# Poissons Ratio (y) = 0.01240 0.25574
# Poissons Ratio (z) = 0.17811 0.12367
#
# Static dielectric constant tensor:
#      x y z
#    x 5.128790 -0.447770 -0.550920 
#    y -0.447770 5.047990 -0.034400 
#    z -0.550920 -0.034400 7.909270 
# 
# 
# High freq. dielectric constant tensor:
#      x y z
#    x 2.091320 -0.028840 -0.002380 
#    y -0.028840 2.107880 -0.005280 
#    z -0.002380 -0.005280 2.109420 
# 
# From -- ./inp_files/148021.got.cif
#   From: 2010.06.25/outbox.cif.g09.slc.cpg/sg2_75_cif.got.tgz:148021.got - 2010.06.27 13:26:56.
