data_PCOD8041723
_publ_section_title
;
Structure prediction by ZEFSAII (Michael W. Deem and Ramdas Pophale) SiO2 
 PCOD8041723
Probable space group: P -1
;
_chemical_formula_sum "Si O2"
_cell_formula_units_Z 16
_cell_length_a 11.424035
_cell_length_b 17.455749
_cell_length_c 10.882211
_cell_angle_alpha 131.709361
_cell_angle_beta 42.804829
_cell_angle_gamma 146.271290
_cell_volume 809.972054
_symmetry_space_group_name_H-M "P -1"
_symmetry_group_IT_number 2
_symmetry_cell_setting 'triclinic'
loop_
_space_group_symop_operation_xyz
x,y,z
-x,-y,-z
loop_
_atom_site_type_symbol
_atom_site_label
_atom_site_fract_x
_atom_site_fract_y
_atom_site_fract_z
Si Si1 0.674849 0.551185 0.249463
Si Si2 0.518510 0.283176 0.150500
Si Si3 0.128739 0.141174 0.122530
Si Si4 0.056453 0.645360 0.234368
Si Si5 0.626377 0.370114 0.410487
Si Si6 0.751719 0.149325 0.483474
Si Si7 0.530324 0.413243 0.965940
Si Si8 0.242370 0.651781 0.459626
O O1 0.505053 0.403034 0.294759
O O2 0.549457 0.609199 0.399110
O O3 0.920841 0.656058 0.245257
O O4 0.706434 0.516706 0.050652
O O5 0.293973 0.151804 0.108991
O O6 0.519641 0.252053 0.260095
O O7 0.767041 0.360365 0.976671
O O8 0.937551 0.133512 0.326366
O O9 0.279763 0.276663 0.064717
O O10 0.000000 0.000000 0.000000
O O11 0.223975 0.786499 0.335051
O O12 0.879833 0.514688 0.323692
O O13 0.634566 0.303730 0.454797
O O14 0.792836 0.244705 0.441286
O O15 0.500000 0.000000 0.500000
O O16 0.619944 0.351538 0.756716
O O17 0.500000 0.500000 0.000000
O O18 0.000000 0.500000 0.500000
#
# Coordination Sequence:
#
# PCOD8041723 Si02
#       8
#     2   2   2   2   2   2   2   2
#     4  10  19  33  57  84 120 154 197 243 297 348
#     4  10  21  34  58  87 120 156 202 244 298 353
#     4  11  23  42  65  86 116 158 205 248 294 362
#     4  11  20  36  58  88 117 158 201 247 293 357
#     4  11  20  35  56  89 125 153 196 249 302 346
#     4  12  24  42  64  87 120 160 204 246 297 365
#     4  11  21  38  58  93 124 155 196 245 303 350
#     4  12  24  36  61  92 126 157 199 249 303 351
#
# _framework density 19.753768000000001
#
# number of rings (size 3 to 8) (size 9 to 14) (size 15 to 20)
#    0.000    1.000    2.500    9.000    1.750    0.000 
#    0.000    0.000    2.750    3.750    0.000    0.000 
#    0.000    0.000    0.000    0.000    0.000    0.000 
#
# Total GULP energy -198328.400865 kJ/mol
# GULP energy per Si atom -12395.525054 kJ/mol
# Density = 1.970881 g / cm^3
# Si number density = 19.753768 Si / 1000 Ang^3
#
#
#
# Elastic Constant Matrix: (Units=GPa)
#
#
# Indices 1 2 3 4 5 6 
#
# 1 149.6080 46.1656 39.8666 7.1553 18.9509 22.6044
# 2 46.1656 91.2970 12.7072 2.8249 8.3191 22.2110
# 3 39.8666 12.7072 84.9410 -2.0256 7.6146 9.4091
# 4 7.1553 2.8249 -2.0256 26.6383 7.4921 -0.5411
# 5 18.9509 8.3191 7.6146 7.4921 41.3543 4.7498
# 6 22.6044 22.2110 9.4091 -0.5411 4.7498 33.8369
#
#
#
# Elastic Compliance Matrix: (Units=1/GPa)
#
#
# Indices 1 2 3 4 5 6 
#
# 1 0.009452 -0.003329 -0.003453 -0.001842 -0.002363 -0.002867
# 2 -0.003329 0.014433 0.000235 -0.000633 -0.000473 -0.007259
# 3 -0.003453 0.000235 0.013682 0.002259 -0.001228 -0.001444
# 4 -0.001842 -0.000633 0.002259 0.040311 -0.007052 0.002653
# 5 -0.002363 -0.000473 -0.001228 -0.007052 0.027056 -0.001681
# 6 -0.002867 -0.007259 -0.001444 0.002653 -0.001681 0.036913
#
#
# Mechanical properties :
#
#
# Convention : Reuss Voigt Hill
#
# Bulk Modulus (GPa) = 40.86249 58.14721 49.50485
# Shear Modulus (GPa) = 30.65622 35.50633 33.08127
#
# Velocity S-wave (km/s) = 3.94371 4.24423 4.09673
# Velocity P-wave (km/s) = 6.43956 7.31559 6.89151
#
# Compressibility (1/GPa) = 0.02447232
#
# Stress axis : x y z
#
# Youngs Moduli (GPa) = 105.79663 69.28727 73.08795
#
# Poissons Ratio (x) = 0.23068 0.25236
# Poissons Ratio (y) = 0.35223 -0.01716
# Poissons Ratio (z) = 0.36529 -0.01627
#
# Static dielectric constant tensor:
#      x y z
#    x 3.142110 0.339350 -1.121970 
#    y 0.339350 3.186370 0.037760 
#    z -1.121970 0.037760 1.745460 
# 
# 
# High freq. dielectric constant tensor:
#      x y z
#    x 1.790590 0.024610 0.001880 
#    y 0.024610 1.722960 0.009740 
#    z 0.001880 0.009740 1.785820 
# 
# From -- ./inp_files/332189.got.cif
#   From: 2010.06.25/outbox.cif.g09.slc.cpg/sg2_167_cif.got.tgz:332189.got - 2010.06.27 13:26:56.
