data_PCOD8041184
_publ_section_title
;
Structure prediction by ZEFSAII (Michael W. Deem and Ramdas Pophale) SiO2 
 PCOD8041184
Probable space group: P -1
;
_chemical_formula_sum "Si O2"
_cell_formula_units_Z 12
_cell_length_a 15.434601
_cell_length_b 10.454116
_cell_length_c 9.260904
_cell_angle_alpha 28.506963
_cell_angle_beta 122.582077
_cell_angle_gamma 123.444740
_cell_volume 589.549976
_symmetry_space_group_name_H-M "P -1"
_symmetry_group_IT_number 2
_symmetry_cell_setting 'triclinic'
loop_
_space_group_symop_operation_xyz
x,y,z
-x,-y,-z
loop_
_atom_site_type_symbol
_atom_site_label
_atom_site_fract_x
_atom_site_fract_y
_atom_site_fract_z
Si Si1 0.711059 0.487870 0.644276
Si Si2 0.466255 0.735206 0.825869
Si Si3 0.121571 0.061002 0.363541
Si Si4 0.418213 0.058539 0.987180
Si Si5 0.936636 0.689602 0.659460
Si Si6 0.250515 0.616895 0.889044
O O1 0.660881 0.755944 0.324630
O O2 0.830899 0.521667 0.658634
O O3 0.705321 0.414806 0.880954
O O4 0.648228 0.240644 0.736508
O O5 0.500000 0.000000 0.500000
O O6 0.500000 0.500000 0.000000
O O7 0.522437 0.785430 0.979676
O O8 0.341679 0.643276 0.827149
O O9 0.008011 0.864225 0.423716
O O10 0.110488 0.102561 0.484492
O O11 0.154711 0.358904 0.021926
O O12 0.211990 0.900686 0.564710
O O13 0.500000 0.000000 0.000000
O O14 0.000000 0.500000 0.000000
#
# Coordination Sequence:
#
# PCOD8041184 Si02
#       6
#     2   2   2   2   2   2
#     4  11  22  35  61  92 131 158 201 251 324 366
#     4  12  27  44  64  89 125 167 220 258 302 375
#     4  10  19  31  53  86 128 158 197 248 312 365
#     4  12  25  40  63  91 126 167 204 259 318 367
#     4  10  19  31  53  92 134 158 193 251 320 369
#     4  11  21  36  60  88 122 163 207 250 310 362
#
# _framework density 20.354510000000001
#
# number of rings (size 3 to 8) (size 9 to 14) (size 15 to 20)
#    0.000    1.000    5.000    4.500    4.667    0.000 
#    0.000    0.000    0.000    0.000    0.000   23.333 
#    0.000    0.000    0.000    0.000    0.000    0.000 
#
# Total GULP energy -148665.550646 kJ/mol
# GULP energy per Si atom -12388.795887 kJ/mol
# Density = 2.030818 g / cm^3
# Si number density = 20.354510 Si / 1000 Ang^3
#
#
#
# Elastic Constant Matrix: (Units=GPa)
#
#
# Indices 1 2 3 4 5 6 
#
# 1 163.5180 51.4142 45.1860 -23.1413 -4.3305 13.5461
# 2 51.4142 80.3288 27.6167 -21.2294 3.3318 3.7377
# 3 45.1860 27.6167 101.3502 -30.4134 8.4995 2.7311
# 4 -23.1413 -21.2294 -30.4134 32.7395 2.1270 -2.4476
# 5 -4.3305 3.3318 8.4995 2.1270 47.8853 -10.2963
# 6 13.5461 3.7377 2.7311 -2.4476 -10.2963 35.3307
#
#
#
# Elastic Compliance Matrix: (Units=1/GPa)
#
#
# Indices 1 2 3 4 5 6 
#
# 1 0.008454 -0.004336 -0.002397 0.000705 0.000973 -0.002265
# 2 -0.004336 0.017566 -0.000207 0.008249 -0.001984 -0.000187
# 3 -0.002397 -0.000207 0.014982 0.012287 -0.003490 -0.000383
# 4 0.000705 0.008249 0.012287 0.048108 -0.004866 -0.000178
# 5 0.000973 -0.001984 -0.003490 -0.004866 0.023359 0.006577
# 6 -0.002265 -0.000187 -0.000383 -0.000178 0.006577 0.031126
#
#
# Mechanical properties :
#
#
# Convention : Reuss Voigt Hill
#
# Bulk Modulus (GPa) = 36.86838 65.95899 51.41369
# Shear Modulus (GPa) = 30.02721 37.92309 33.97515
#
# Velocity S-wave (km/s) = 3.84502 4.32108 4.08998
# Velocity P-wave (km/s) = 6.15342 7.57437 6.90057
#
# Compressibility (1/GPa) = 0.02712351
#
# Stress axis : x y z
#
# Youngs Moduli (GPa) = 118.28220 56.92838 66.74715
#
# Poissons Ratio (x) = 0.24683 0.15998
# Poissons Ratio (y) = 0.51284 0.01380
# Poissons Ratio (z) = 0.28350 0.01177
#
# Static dielectric constant tensor:
#      x y z
#    x 4.148950 0.557880 -0.187520 
#    y 0.557880 3.825540 -0.379030 
#    z -0.187520 -0.379030 3.790970 
# 
# 
# High freq. dielectric constant tensor:
#      x y z
#    x 1.818520 0.026190 0.005030 
#    y 0.026190 1.746450 -0.048870 
#    z 0.005030 -0.048870 1.798980 
# 
# From -- ./inp_files/293731.got.cif
#   From: 2010.06.25/outbox.cif.g09.slc.cpg/sg2_147_cif.got.tgz:293731.got - 2010.06.27 13:26:56.
