data_PCOD8041171
_publ_section_title
;
Structure prediction by ZEFSAII (Michael W. Deem and Ramdas Pophale) SiO2 
 PCOD8041171
Probable space group: P -1
;
_chemical_formula_sum "Si O2"
_cell_formula_units_Z 16
_cell_length_a 19.059526
_cell_length_b 9.425344
_cell_length_c 13.990076
_cell_angle_alpha 111.664509
_cell_angle_beta 21.070773
_cell_angle_gamma 112.868349
_cell_volume 832.371350
_symmetry_space_group_name_H-M "P -1"
_symmetry_group_IT_number 2
_symmetry_cell_setting 'triclinic'
loop_
_space_group_symop_operation_xyz
x,y,z
-x,-y,-z
loop_
_atom_site_type_symbol
_atom_site_label
_atom_site_fract_x
_atom_site_fract_y
_atom_site_fract_z
Si Si1 0.493029 0.626988 0.935195
Si Si2 0.707497 0.797598 0.524252
Si Si3 0.124952 0.338720 0.443628
Si Si4 0.339436 0.913819 0.250443
Si Si5 0.428616 0.613115 0.695086
Si Si6 0.202574 0.459619 0.124346
Si Si7 0.096699 0.142782 0.254801
Si Si8 0.900352 0.190816 0.873813
O O1 0.331545 0.435628 0.242575
O O2 0.392802 0.743321 0.161077
O O3 0.331324 0.492023 0.066672
O O4 0.585154 0.718191 0.748338
O O5 0.620687 0.721945 0.517544
O O6 0.940616 0.781600 0.234733
O O7 0.679938 0.980091 0.604382
O O8 0.176562 0.209409 0.271550
O O9 0.991915 0.456796 0.595591
O O10 0.009427 0.245795 0.652004
O O11 0.136081 0.901630 0.448358
O O12 0.500000 0.000000 0.000000
O O13 0.500000 0.500000 0.500000
O O14 0.319731 0.513807 0.893917
O O15 0.281625 0.714493 0.853370
O O16 0.145104 0.275505 0.145330
O O17 0.188706 0.989617 0.068906
#
# Coordination Sequence:
#
# PCOD8041171 Si02
#       8
#     2   2   2   2   2   2   2   2
#     4   9  17  30  48  75 109 149 173 201 250 309
#     4   8  17  32  50  77 106 127 172 223 260 302
#     4  10  19  31  53  76 110 148 179 200 249 322
#     4   9  17  29  49  74 108 145 170 204 252 303
#     4  10  21  38  61  76  94 136 184 227 270 312
#     4  10  21  37  49  77 117 139 173 222 263 310
#     4  11  20  33  52  78 116 147 168 213 264 305
#     4   9  20  34  52  80 103 137 180 214 254 318
#
# _framework density 19.222189
#
# number of rings (size 3 to 8) (size 9 to 14) (size 15 to 20)
#    0.000    2.500    1.250    1.500    3.500    1.000 
#    0.000    0.625    0.000    3.000    0.000    0.000 
#    0.000    0.000    0.000    0.000    0.000    0.000 
#
# Total GULP energy -198312.446038 kJ/mol
# GULP energy per Si atom -12394.527877 kJ/mol
# Density = 1.917844 g / cm^3
# Si number density = 19.222189 Si / 1000 Ang^3
#
#
#
# Elastic Constant Matrix: (Units=GPa)
#
#
# Indices 1 2 3 4 5 6 
#
# 1 92.3073 46.8857 52.3380 14.6815 -23.6848 21.1972
# 2 46.8857 124.8426 57.4120 15.7172 -18.0601 15.8892
# 3 52.3380 57.4120 83.7583 20.8304 -22.2568 13.5536
# 4 14.6815 15.7172 20.8304 32.2954 1.7986 -1.6242
# 5 -23.6848 -18.0601 -22.2568 1.7986 23.1353 1.0583
# 6 21.1972 15.8892 13.5536 -1.6242 1.0583 29.6769
#
#
#
# Elastic Compliance Matrix: (Units=1/GPa)
#
#
# Indices 1 2 3 4 5 6 
#
# 1 0.024704 -0.000918 -0.003181 -0.010882 0.023144 -0.017122
# 2 -0.000918 0.012227 -0.005840 -0.002125 0.003311 -0.003458
# 3 -0.003181 -0.005840 0.029568 -0.016522 0.022363 -0.009807
# 4 -0.010882 -0.002125 -0.016522 0.050497 -0.033554 0.020416
# 5 0.023144 0.003311 0.022363 -0.033554 0.095168 -0.033747
# 6 -0.017122 -0.003458 -0.009807 0.020416 -0.033747 0.054577
#
#
# Mechanical properties :
#
#
# Convention : Reuss Voigt Hill
#
# Bulk Modulus (GPa) = 21.44892 68.24218 44.84555
# Shear Modulus (GPa) = 16.54759 26.63968 21.59363
#
# Velocity S-wave (km/s) = 2.93722 3.72678 3.35531
# Velocity P-wave (km/s) = 4.76295 7.35509 6.19609
#
# Compressibility (1/GPa) = 0.04662239
#
# Stress axis : x y z
#
# Youngs Moduli (GPa) = 40.47910 81.78733 33.82045
#
# Poissons Ratio (x) = 0.07507 0.10758
# Poissons Ratio (y) = 0.03715 0.19750
# Poissons Ratio (z) = 0.12876 0.47761
#
# Static dielectric constant tensor:
#      x y z
#    x 3.492650 0.082210 -0.466810 
#    y 0.082210 3.853060 -0.050300 
#    z -0.466810 -0.050300 3.403940 
# 
# 
# High freq. dielectric constant tensor:
#      x y z
#    x 1.727120 0.003330 -0.038220 
#    y 0.003330 1.758970 -0.009090 
#    z -0.038220 -0.009090 1.721870 
# 
# From -- ./inp_files/189428.got.cif
#   From: 2010.06.25/outbox.cif.g09.slc.cpg/sg2_95_cif.got.tgz:189428.got - 2010.06.27 13:26:56.
