data_PCOD8041613
_publ_section_title
;
Structure prediction by ZEFSAII (Michael W. Deem and Ramdas Pophale) SiO2 
 PCOD8041613
Probable space group: P -1
;
_chemical_formula_sum "Si O2"
_cell_formula_units_Z 16
_cell_length_a 14.822196
_cell_length_b 5.419979
_cell_length_c 19.164391
_cell_angle_alpha 124.159537
_cell_angle_beta 45.453852
_cell_angle_gamma 113.225441
_cell_volume 907.944232
_symmetry_space_group_name_H-M "P -1"
_symmetry_group_IT_number 2
_symmetry_cell_setting 'triclinic'
loop_
_space_group_symop_operation_xyz
x,y,z
-x,-y,-z
loop_
_atom_site_type_symbol
_atom_site_label
_atom_site_fract_x
_atom_site_fract_y
_atom_site_fract_z
Si Si1 0.491102 0.334954 0.643181
Si Si2 0.424245 0.286942 0.060835
Si Si3 0.332093 0.892078 0.818589
Si Si4 0.994432 0.663613 0.103335
Si Si5 0.848641 0.214440 0.212844
Si Si6 0.734770 0.148711 0.998985
Si Si7 0.500930 0.420729 0.805188
Si Si8 0.611256 0.291862 0.431460
O O1 0.380993 0.564997 0.717846
O O2 0.551270 0.441397 0.701671
O O3 0.605313 0.297658 0.520018
O O4 0.416173 0.026081 0.639763
O O5 0.394562 0.480062 0.178143
O O6 0.500000 0.500000 0.000000
O O7 0.500000 0.000000 0.000000
O O8 0.296386 0.162613 0.074186
O O9 0.232680 0.992651 0.829379
O O10 0.253658 0.911446 0.934966
O O11 0.459711 0.083115 0.787263
O O12 0.920733 0.465883 0.168877
O O13 0.935340 0.992196 0.175385
O O14 0.000000 0.500000 0.000000
O O15 0.130514 0.716196 0.074536
O O16 0.752063 0.385140 0.345529
O O17 0.624621 0.385441 0.082630
O O18 0.500000 0.500000 0.500000
#
# Coordination Sequence:
#
# PCOD8041613 Si02
#       8
#     2   2   2   2   2   2   2   2
#     4  10  20  32  52  81 109 142 175 223 291 327
#     4  10  20  34  54  81 108 143 183 228 276 323
#     4  11  18  32  53  77 112 141 182 221 266 331
#     4  12  25  36  53  76 112 154 192 209 257 323
#     4  12  24  36  52  80 107 150 185 219 258 328
#     4  10  22  34  52  76 114 149 182 223 264 317
#     4  10  19  33  55  79 110 144 180 225 280 333
#     4  11  21  34  54  76 112 144 179 232 284 324
#
# _framework density 17.622226000000001
#
# number of rings (size 3 to 8) (size 9 to 14) (size 15 to 20)
#    0.000    1.250    5.000    1.875    3.500    0.000 
#    0.000    0.000    0.000    0.000    0.000    1.750 
#    0.000    0.000    0.000    0.000    0.000    0.000 
#
# Total GULP energy -198247.577061 kJ/mol
# GULP energy per Si atom -12390.473566 kJ/mol
# Density = 1.758212 g / cm^3
# Si number density = 17.622226 Si / 1000 Ang^3
#
#
#
# Elastic Constant Matrix: (Units=GPa)
#
#
# Indices 1 2 3 4 5 6 
#
# 1 70.3344 37.6772 47.3150 0.9663 13.4364 13.1346
# 2 37.6772 109.2559 45.8046 -7.9986 2.9146 1.1794
# 3 47.3150 45.8046 100.3876 -15.9030 12.0149 7.3775
# 4 0.9663 -7.9986 -15.9030 33.6605 -2.1844 1.1872
# 5 13.4364 2.9146 12.0149 -2.1844 26.2107 5.4788
# 6 13.1346 1.1794 7.3775 1.1872 5.4788 35.9367
#
#
#
# Elastic Compliance Matrix: (Units=1/GPa)
#
#
# Indices 1 2 3 4 5 6 
#
# 1 0.026234 -0.005208 -0.009708 -0.006867 -0.007733 -0.006019
# 2 -0.005208 0.012399 -0.003389 0.001603 0.002615 0.001741
# 3 -0.009708 -0.003389 0.017529 0.007616 -0.002073 0.000125
# 4 -0.006867 0.001603 0.007616 0.034092 0.002831 -0.000664
# 5 -0.007733 0.002615 -0.002073 0.002831 0.043765 -0.003599
# 6 -0.006019 0.001741 0.000125 -0.000664 -0.003599 0.030514
#
#
# Mechanical properties :
#
#
# Convention : Reuss Voigt Hill
#
# Bulk Modulus (GPa) = 51.15116 60.17461 55.66288
# Shear Modulus (GPa) = 24.07761 29.10699 26.59230
#
# Velocity S-wave (km/s) = 3.70039 4.06855 3.88883
# Velocity P-wave (km/s) = 6.88089 7.50279 7.19856
#
# Compressibility (1/GPa) = 0.01954990
#
# Stress axis : x y z
#
# Youngs Moduli (GPa) = 38.11783 80.65356 57.04794
#
# Poissons Ratio (x) = 0.42007 0.55385
# Poissons Ratio (y) = 0.19853 0.19336
# Poissons Ratio (z) = 0.37006 0.27337
#
# Static dielectric constant tensor:
#      x y z
#    x 3.428360 -0.019790 0.307310 
#    y -0.019790 3.514080 0.028010 
#    z 0.307310 0.028010 3.444170 
# 
# 
# High freq. dielectric constant tensor:
#      x y z
#    x 1.661440 -0.020060 0.021080 
#    y -0.020060 1.692750 0.002610 
#    z 0.021080 0.002610 1.659760 
# 
# From -- ./inp_files/70667.got.cif
#   From: 2010.06.25/outbox.cif.g09.slc.cpg/sg2_36_cif.got.tgz:70667.got - 2010.06.27 13:26:56.
