data_PCOD8041598
_publ_section_title
;
Structure prediction by ZEFSAII (Michael W. Deem and Ramdas Pophale) SiO2 
 PCOD8041598
Probable space group: P -1
;
_chemical_formula_sum "Si O2"
_cell_formula_units_Z 14
_cell_length_a 14.804255
_cell_length_b 11.967153
_cell_length_c 9.877637
_cell_angle_alpha 35.595141
_cell_angle_beta 125.627566
_cell_angle_gamma 135.588453
_cell_volume 712.801562
_symmetry_space_group_name_H-M "P -1"
_symmetry_group_IT_number 2
_symmetry_cell_setting 'triclinic'
loop_
_space_group_symop_operation_xyz
x,y,z
-x,-y,-z
loop_
_atom_site_type_symbol
_atom_site_label
_atom_site_fract_x
_atom_site_fract_y
_atom_site_fract_z
Si Si1 0.850832 0.007886 0.986650
Si Si2 0.080528 0.932837 0.300824
Si Si3 0.864349 0.979558 0.439296
Si Si4 0.561280 0.255195 0.833559
Si Si5 0.339245 0.329769 0.641718
Si Si6 0.047153 0.537147 0.234473
Si Si7 0.833216 0.392792 0.993723
O O1 0.822244 0.998538 0.810132
O O2 0.858956 0.226579 0.844967
O O3 0.742430 0.779421 0.186676
O O4 0.989365 0.034653 0.100882
O O5 0.998932 0.662723 0.501451
O O6 0.161310 0.040103 0.402468
O O7 0.747133 0.766812 0.474625
O O8 0.856769 0.190346 0.174205
O O9 0.000000 0.000000 0.500000
O O10 0.458735 0.288449 0.794615
O O11 0.602226 0.403599 0.584138
O O12 0.687382 0.323331 0.968696
O O13 0.500000 0.000000 0.000000
O O14 0.921091 0.530366 0.062740
O O15 0.120226 0.477257 0.238499
#
# Coordination Sequence:
#
# PCOD8041598 Si02
#       7
#     2   2   2   2   2   2   2
#     4  11  20  37  52  85 116 148 175 226 282 334
#     4  10  22  31  55  84 118 145 179 217 285 339
#     4  11  19  36  57  89 114 142 183 237 274 333
#     4  11  22  38  54  85 109 145 192 234 273 329
#     4  11  23  35  60  81 112 148 185 234 277 320
#     4  10  19  33  54  87 114 143 176 232 275 331
#     4  10  20  32  58  88 113 144 187 231 282 318
#
# _framework density 19.640810999999999
#
# number of rings (size 3 to 8) (size 9 to 14) (size 15 to 20)
#    0.000    1.429    4.286    1.286    6.000    0.000 
#    0.000    0.000    0.000    6.857    3.714    0.000 
#    0.000    0.000    0.000    0.000    0.000    0.000 
#
# Total GULP energy -173497.653690 kJ/mol
# GULP energy per Si atom -12392.689549 kJ/mol
# Density = 1.959611 g / cm^3
# Si number density = 19.640811 Si / 1000 Ang^3
#
#
#
# Elastic Constant Matrix: (Units=GPa)
#
#
# Indices 1 2 3 4 5 6 
#
# 1 87.6016 41.6886 34.3812 10.5523 -4.1702 9.2863
# 2 41.6886 66.5862 34.8490 0.6331 -8.8316 3.4511
# 3 34.3812 34.8490 98.0144 -12.9015 -23.2527 -13.1843
# 4 10.5523 0.6331 -12.9015 40.1916 -2.7161 3.7718
# 5 -4.1702 -8.8316 -23.2527 -2.7161 45.2129 8.6856
# 6 9.2863 3.4511 -13.1843 3.7718 8.6856 30.7255
#
#
#
# Elastic Compliance Matrix: (Units=1/GPa)
#
#
# Indices 1 2 3 4 5 6 
#
# 1 0.019185 -0.008967 -0.005669 -0.006313 -0.002155 -0.005839
# 2 -0.008967 0.023687 -0.005143 0.000703 0.001722 -0.002730
# 3 -0.005669 -0.005143 0.017425 0.006937 0.006490 0.007082
# 4 -0.006313 0.000703 0.006937 0.029099 0.004900 -0.000152
# 5 -0.002155 0.001722 0.006490 0.004900 0.026837 -0.004945
# 6 -0.005839 -0.002730 0.007082 -0.000152 -0.004945 0.039073
#
#
# Mechanical properties :
#
#
# Convention : Reuss Voigt Hill
#
# Bulk Modulus (GPa) = 48.21865 52.67110 50.44487
# Shear Modulus (GPa) = 24.77979 32.64488 28.71234
#
# Velocity S-wave (km/s) = 3.55582 4.08130 3.82759
# Velocity P-wave (km/s) = 6.43910 7.00605 6.72855
#
# Compressibility (1/GPa) = 0.02073886
#
# Stress axis : x y z
#
# Youngs Moduli (GPa) = 52.12523 42.21694 57.38873
#
# Poissons Ratio (x) = 0.37858 0.32533
# Poissons Ratio (y) = 0.46743 0.29513
# Poissons Ratio (z) = 0.29549 0.21711
#
# Static dielectric constant tensor:
#      x y z
#    x 4.093360 0.350960 0.258920 
#    y 0.350960 3.730810 0.076350 
#    z 0.258920 0.076350 4.023080 
# 
# 
# High freq. dielectric constant tensor:
#      x y z
#    x 1.748530 0.001360 0.012190 
#    y 0.001360 1.739230 -0.021240 
#    z 0.012190 -0.021240 1.780240 
# 
# From -- ./inp_files/302157.got.cif
#   From: 2010.06.25/outbox.cif.g09.slc.cpg/sg2_152_cif.got.tgz:302157.got - 2010.06.27 13:26:56.
