data_PCOD8041502
_publ_section_title
;
Structure prediction by ZEFSAII (Michael W. Deem and Ramdas Pophale) SiO2 
 PCOD8041502
Probable space group: P -1
;
_chemical_formula_sum "Si O2"
_cell_formula_units_Z 14
_cell_length_a 18.633891
_cell_length_b 11.380783
_cell_length_c 9.416435
_cell_angle_alpha 35.103011
_cell_angle_beta 125.758140
_cell_angle_gamma 139.397550
_cell_volume 743.721230
_symmetry_space_group_name_H-M "P -1"
_symmetry_group_IT_number 2
_symmetry_cell_setting 'triclinic'
loop_
_space_group_symop_operation_xyz
x,y,z
-x,-y,-z
loop_
_atom_site_type_symbol
_atom_site_label
_atom_site_fract_x
_atom_site_fract_y
_atom_site_fract_z
Si Si1 0.857921 0.255236 0.306491
Si Si2 0.803192 0.283327 0.905300
Si Si3 0.744613 0.984724 0.716168
Si Si4 0.613291 0.086643 0.678290
Si Si5 0.979956 0.859712 0.469530
Si Si6 0.421783 0.579073 0.866751
Si Si7 0.931896 0.188946 0.945821
O O1 0.909986 0.109605 0.473576
O O2 0.951498 0.533825 0.201393
O O3 0.760632 0.091679 0.470160
O O4 0.802553 0.274588 0.082947
O O5 0.677818 0.140095 0.847104
O O6 0.858745 0.157177 0.028843
O O7 0.873984 0.569236 0.646643
O O8 0.672278 0.048411 0.655092
O O9 0.865671 0.133362 0.779326
O O10 0.689339 0.680982 0.943618
O O11 0.608311 0.321609 0.403177
O O12 0.488599 0.820512 0.814866
O O13 0.000000 0.000000 0.500000
O O14 0.955327 0.982170 0.193415
O O15 0.500000 0.500000 0.000000
#
# Coordination Sequence:
#
# PCOD8041502 Si02
#       7
#     2   2   2   2   2   2   2
#     4  11  21  32  48  78 111 136 168 210 250 297
#     4  10  19  33  52  76 100 137 177 204 245 305
#     4  10  21  33  52  79 105 132 169 212 258 298
#     4   9  19  36  59  75  97 131 170 213 256 300
#     4  11  18  32  52  71 103 146 177 204 238 291
#     4   9  18  37  58  78  97 127 170 213 253 309
#     4  10  19  34  50  72 105 143 175 205 241 298
#
# _framework density 18.824256999999999
#
# number of rings (size 3 to 8) (size 9 to 14) (size 15 to 20)
#    0.000    2.000    2.857    2.143    0.000    1.714 
#    0.000    0.714    0.000    7.714    0.000    0.000 
#    0.000    0.000    0.000    0.000    0.000    0.000 
#
# Total GULP energy -173565.635549 kJ/mol
# GULP energy per Si atom -12397.545396 kJ/mol
# Density = 1.878141 g / cm^3
# Si number density = 18.824257 Si / 1000 Ang^3
#
#
#
# Elastic Constant Matrix: (Units=GPa)
#
#
# Indices 1 2 3 4 5 6 
#
# 1 39.9950 28.8477 38.6667 1.0191 -0.1908 -3.0659
# 2 28.8477 116.3856 50.7254 2.5144 -9.1686 17.1790
# 3 38.6667 50.7254 125.6396 -3.6950 5.6232 6.5817
# 4 1.0191 2.5144 -3.6950 22.1391 -0.5371 4.3020
# 5 -0.1908 -9.1686 5.6232 -0.5371 35.6830 1.1949
# 6 -3.0659 17.1790 6.5817 4.3020 1.1949 16.6437
#
#
#
# Elastic Compliance Matrix: (Units=1/GPa)
#
#
# Indices 1 2 3 4 5 6 
#
# 1 0.045347 -0.009931 -0.011433 -0.007810 -0.001471 0.025249
# 2 -0.009931 0.014876 -0.002210 0.001841 0.004719 -0.017125
# 3 -0.011433 -0.002210 0.012898 0.003996 -0.002408 -0.005786
# 4 -0.007810 0.001841 0.003996 0.049470 0.001142 -0.017788
# 5 -0.001471 0.004719 -0.002408 0.001142 0.029848 -0.006627
# 6 0.025249 -0.017125 -0.005786 -0.017788 -0.006627 0.089771
#
#
# Mechanical properties :
#
#
# Convention : Reuss Voigt Hill
#
# Bulk Modulus (GPa) = 38.49944 57.61110 48.05527
# Shear Modulus (GPa) = 16.77760 25.81183 21.29471
#
# Velocity S-wave (km/s) = 2.98866 3.70699 3.36704
# Velocity P-wave (km/s) = 5.69262 6.99954 6.37963
#
# Compressibility (1/GPa) = 0.02597441
#
# Stress axis : x y z
#
# Youngs Moduli (GPa) = 22.05229 67.22053 77.52874
#
# Poissons Ratio (x) = 0.66755 0.88638
# Poissons Ratio (y) = 0.21900 0.17132
# Poissons Ratio (z) = 0.25212 0.14855
#
# Static dielectric constant tensor:
#      x y z
#    x 3.279780 -0.032600 0.380010 
#    y -0.032600 3.868320 -0.354170 
#    z 0.380010 -0.354170 3.828940 
# 
# 
# High freq. dielectric constant tensor:
#      x y z
#    x 1.693550 0.007490 0.022280 
#    y 0.007490 1.738850 -0.005150 
#    z 0.022280 -0.005150 1.739310 
# 
# From -- ./inp_files/35532.got.cif
#   From: 2010.06.25/outbox.cif.g09.slc.cpg/sg2_18_cif.got.tgz:35532.got - 2010.06.27 13:26:56.
