data_PCOD8041984
_publ_section_title
;
Structure prediction by ZEFSAII (Michael W. Deem and Ramdas Pophale) SiO2 
 PCOD8041984
Probable space group: P -1
;
_chemical_formula_sum "Si O2"
_cell_formula_units_Z 16
_cell_length_a 26.016786
_cell_length_b 20.548883
_cell_length_c 14.216174
_cell_angle_alpha 159.166332
_cell_angle_beta 20.451349
_cell_angle_gamma 158.303299
_cell_volume 852.666357
_symmetry_space_group_name_H-M "P -1"
_symmetry_group_IT_number 2
_symmetry_cell_setting 'triclinic'
loop_
_space_group_symop_operation_xyz
x,y,z
-x,-y,-z
loop_
_atom_site_type_symbol
_atom_site_label
_atom_site_fract_x
_atom_site_fract_y
_atom_site_fract_z
Si Si1 0.342483 0.491900 0.709258
Si Si2 0.572308 0.213675 0.213721
Si Si3 0.907665 0.284448 0.821416
Si Si4 0.063695 0.068743 0.587629
Si Si5 0.051225 0.142572 0.227265
Si Si6 0.106039 0.829631 0.820768
Si Si7 0.785377 0.469311 0.829420
Si Si8 0.258518 0.237177 0.825459
O O1 0.500000 0.500000 0.500000
O O2 0.370417 0.620608 0.742098
O O3 0.235950 0.261167 0.549587
O O4 0.259488 0.574892 0.043436
O O5 0.428057 0.223965 0.538697
O O6 0.722117 0.242419 0.062693
O O7 0.500000 0.000000 0.000000
O O8 0.012167 0.297411 0.566489
O O9 0.909383 0.108850 0.647500
O O10 0.000000 0.500000 0.000000
O O11 0.000000 0.000000 0.500000
O O12 0.938956 0.134943 0.947949
O O13 0.170452 0.274635 0.118810
O O14 0.871859 0.974772 0.280033
O O15 0.152435 0.038173 0.966822
O O16 0.242107 0.741330 0.461985
O O17 0.965271 0.652877 0.763678
O O18 0.683615 0.569152 0.082365
#
# Coordination Sequence:
#
# PCOD8041984 Si02
#       8
#     2   2   2   2   2   2   2   2
#     4  11  21  35  57  85 118 151 184 238 292 332
#     4  12  23  36  58  92 120 152 196 242 292 344
#     4  11  23  40  61  88 117 156 199 237 290 353
#     4  10  21  40  60  83 114 151 195 238 285 348
#     4   9  19  35  55  81 118 153 187 237 290 341
#     4   8  17  31  53  79 109 143 189 232 280 337
#     4   9  17  31  51  82 112 144 186 234 282 338
#     4  10  19  34  55  85 119 148 189 241 288 341
#
# _framework density 18.764666999999999
#
# number of rings (size 3 to 8) (size 9 to 14) (size 15 to 20)
#    0.000    2.000    2.500    2.250    1.750    4.000 
#    0.000    0.625    0.000    0.750    0.000    0.000 
#    0.000    0.000    0.000    0.000    0.000    0.000 
#
# Total GULP energy -198265.062665 kJ/mol
# GULP energy per Si atom -12391.566417 kJ/mol
# Density = 1.872196 g / cm^3
# Si number density = 18.764667 Si / 1000 Ang^3
#
#
#
# Elastic Constant Matrix: (Units=GPa)
#
#
# Indices 1 2 3 4 5 6 
#
# 1 108.1407 44.1087 56.4772 -2.8933 10.0847 4.3965
# 2 44.1087 88.7074 48.2561 4.3370 7.1935 1.7674
# 3 56.4772 48.2561 133.1714 0.8014 9.0376 10.0623
# 4 -2.8933 4.3370 0.8014 25.1070 2.6490 3.2184
# 5 10.0847 7.1935 9.0376 2.6490 30.9016 -0.6347
# 6 4.3965 1.7674 10.0623 3.2184 -0.6347 32.0878
#
#
#
# Elastic Compliance Matrix: (Units=1/GPa)
#
#
# Indices 1 2 3 4 5 6 
#
# 1 0.013434 -0.004502 -0.003862 0.002800 -0.002461 -0.000711
# 2 -0.004502 0.015794 -0.003836 -0.003203 -0.000785 0.001256
# 3 -0.003862 -0.003836 0.010814 0.000335 -0.001094 -0.002706
# 4 0.002800 -0.003203 0.000335 0.041696 -0.003934 -0.004572
# 5 -0.002461 -0.000785 -0.001094 -0.003934 0.034041 0.001791
# 6 -0.000711 0.001256 -0.002706 -0.004572 0.001791 0.032535
#
#
# Mechanical properties :
#
#
# Convention : Reuss Voigt Hill
#
# Bulk Modulus (GPa) = 63.93445 69.74485 66.83965
# Shear Modulus (GPa) = 28.10151 29.69779 28.89965
#
# Velocity S-wave (km/s) = 3.87405 3.98256 3.92868
# Velocity P-wave (km/s) = 7.35912 7.64177 7.50178
#
# Compressibility (1/GPa) = 0.01564102
#
# Stress axis : x y z
#
# Youngs Moduli (GPa) = 74.43927 63.31678 92.47636
#
# Poissons Ratio (x) = 0.28506 0.35713
# Poissons Ratio (y) = 0.33513 0.35474
# Poissons Ratio (z) = 0.28748 0.24288
#
# Static dielectric constant tensor:
#      x y z
#    x 4.409110 -1.387930 -0.159240 
#    y -1.387930 4.679940 0.204540 
#    z -0.159240 0.204540 3.756470 
# 
# 
# High freq. dielectric constant tensor:
#      x y z
#    x 1.713300 -0.023930 -0.000030 
#    y -0.023930 1.706590 0.004190 
#    z -0.000030 0.004190 1.743560 
# 
# From -- ./inp_files/392742.got.cif
#   From: 2010.06.25/outbox.cif.g09.slc.cpg/sg2_197_cif.got.tgz:392742.got - 2010.06.27 13:26:56.
