data_PCOD8041114
_publ_section_title
;
Structure prediction by ZEFSAII (Michael W. Deem and Ramdas Pophale) SiO2 
 PCOD8041114
Probable space group: P -1
;
_chemical_formula_sum "Si O2"
_cell_formula_units_Z 16
_cell_length_a 6.396578
_cell_length_b 12.903600
_cell_length_c 10.719816
_cell_angle_alpha 87.742105
_cell_angle_beta 57.767108
_cell_angle_gamma 55.233481
_cell_volume 568.460956
_symmetry_space_group_name_H-M "P -1"
_symmetry_group_IT_number 2
_symmetry_cell_setting 'triclinic'
loop_
_space_group_symop_operation_xyz
x,y,z
-x,-y,-z
loop_
_atom_site_type_symbol
_atom_site_label
_atom_site_fract_x
_atom_site_fract_y
_atom_site_fract_z
Si Si1 0.276076 0.095200 0.352719
Si Si2 0.986597 0.885074 0.311048
Si Si3 0.635113 0.802018 0.216704
Si Si4 0.373162 0.461544 0.427945
Si Si5 0.435822 0.638036 0.035791
Si Si6 0.208097 0.332278 0.250834
Si Si7 0.173859 0.562147 0.889936
Si Si8 0.637899 0.180191 0.444288
O O1 0.320996 0.187182 0.256318
O O2 0.152966 0.146204 0.530598
O O3 0.995943 0.101242 0.383222
O O4 0.597774 0.936650 0.247733
O O5 0.338559 0.842632 0.222186
O O6 0.073857 0.771461 0.187158
O O7 0.704539 0.049828 0.356740
O O8 0.609913 0.755462 0.363361
O O9 0.984212 0.688048 0.043738
O O10 0.500000 0.500000 0.500000
O O11 0.472884 0.483719 0.262145
O O12 0.524594 0.303505 0.384782
O O13 0.980982 0.565496 0.575183
O O14 0.710875 0.578360 0.067908
O O15 0.500000 0.500000 0.000000
O O16 0.483231 0.685498 0.888367
O O17 0.997849 0.397325 0.189218
#
# Coordination Sequence:
#
# PCOD8041114 Si02
#       8
#     2   2   2   2   2   2   2   2
#     4   9  17  32  54  92 118 139 177 234 285 331
#     4   9  19  34  56  80 117 153 180 225 278 334
#     4   9  18  30  57  90 117 141 178 229 283 334
#     4  10  19  30  55  89 120 141 178 234 282 333
#     4  12  26  40  55  79 113 153 194 232 277 333
#     4  11  21  35  59  84 114 147 184 236 279 330
#     4  11  21  35  57  83 112 145 187 235 282 323
#     4   9  16  31  52  86 122 143 176 225 287 330
#
# _framework density 28.146176000000001
#
# number of rings (size 3 to 8) (size 9 to 14) (size 15 to 20)
#    0.000    2.000    3.750    3.375    5.250    1.500 
#    0.000    2.500    0.000    9.750    0.000    0.000 
#    0.000    0.000    0.000    0.000    0.000    0.000 
#
# Total GULP energy -198238.980843 kJ/mol
# GULP energy per Si atom -12389.936303 kJ/mol
# Density = 2.808211 g / cm^3
# Si number density = 28.146176 Si / 1000 Ang^3
#
#
#
# Elastic Constant Matrix: (Units=GPa)
#
#
# Indices 1 2 3 4 5 6 
#
# 1 44.5066 25.7131 29.2850 19.9293 9.3028 1.8490
# 2 25.7131 190.4607 116.4260 -10.8022 0.5908 -1.5744
# 3 29.2850 116.4260 240.5302 12.9107 -8.4846 9.4684
# 4 19.9293 -10.8022 12.9107 63.0430 -0.3863 4.0626
# 5 9.3028 0.5908 -8.4846 -0.3863 42.2823 12.9176
# 6 1.8490 -1.5744 9.4684 4.0626 12.9176 39.6862
#
#
#
# Elastic Compliance Matrix: (Units=1/GPa)
#
#
# Indices 1 2 3 4 5 6 
#
# 1 0.032327 -0.003726 -0.001957 -0.010677 -0.008353 0.002625
# 2 -0.003726 0.008264 -0.003784 0.003289 -0.000390 0.001194
# 3 -0.001957 -0.003784 0.006468 -0.001192 0.002468 -0.002283
# 4 -0.010677 0.003289 -0.001192 0.020198 0.002889 -0.002096
# 5 -0.008353 -0.000390 0.002468 0.002889 0.029061 -0.009970
# 6 0.002625 0.001194 -0.002283 -0.002096 -0.009970 0.029127
#
#
# Mechanical properties :
#
#
# Convention : Reuss Voigt Hill
#
# Bulk Modulus (GPa) = 35.55508 90.92730 63.24119
# Shear Modulus (GPa) = 32.51933 49.27388 40.89661
#
# Velocity S-wave (km/s) = 3.40277 4.18861 3.81597
# Velocity P-wave (km/s) = 5.30077 7.46780 6.47558
#
# Compressibility (1/GPa) = 0.02812538
#
# Stress axis : x y z
#
# Youngs Moduli (GPa) = 30.93401 121.00557 154.60141
#
# Poissons Ratio (x) = 0.45084 0.30260
# Poissons Ratio (y) = 0.11525 0.58499
# Poissons Ratio (z) = 0.06055 0.45787
#
# Static dielectric constant tensor:
#      x y z
#    x 6.061750 0.340740 -0.063630 
#    y 0.340740 4.687850 -0.644370 
#    z -0.063630 -0.644370 7.543070 
# 
# 
# High freq. dielectric constant tensor:
#      x y z
#    x 2.201980 0.011510 -0.012490 
#    y 0.011510 2.136690 0.014620 
#    z -0.012490 0.014620 2.149610 
# 
# From -- ./inp_files/437125.got.cif
#   From: 2010.06.25/outbox.cif.g09.slc.cpg/sg2_219_cif.got.tgz:437125.got - 2010.06.27 13:26:56.
