data_PCOD8041473
_publ_section_title
;
Structure prediction by ZEFSAII (Michael W. Deem and Ramdas Pophale) SiO2 
 PCOD8041473
Probable space group: P -1
;
_chemical_formula_sum "Si O2"
_cell_formula_units_Z 16
_cell_length_a 10.117598
_cell_length_b 14.857652
_cell_length_c 24.988497
_cell_angle_alpha 161.091722
_cell_angle_beta 136.605087
_cell_angle_gamma 43.372298
_cell_volume 823.033976
_symmetry_space_group_name_H-M "P -1"
_symmetry_group_IT_number 2
_symmetry_cell_setting 'triclinic'
loop_
_space_group_symop_operation_xyz
x,y,z
-x,-y,-z
loop_
_atom_site_type_symbol
_atom_site_label
_atom_site_fract_x
_atom_site_fract_y
_atom_site_fract_z
Si Si1 0.960319 0.277214 0.906060
Si Si2 0.957767 0.665835 0.525751
Si Si3 0.694647 0.288623 0.196471
Si Si4 0.616438 0.935308 0.069247
Si Si5 0.382138 0.323223 0.294291
Si Si6 0.035845 0.152161 0.040450
Si Si7 0.288218 0.692418 0.050321
Si Si8 0.672529 0.697843 0.613590
O O1 0.806505 0.408809 0.980183
O O2 0.162870 0.197834 0.951276
O O3 0.907496 0.001287 0.706256
O O4 0.000000 0.500000 0.000000
O O5 0.765682 0.582239 0.394167
O O6 0.000000 0.500000 0.500000
O O7 0.152144 0.565907 0.492120
O O8 0.584546 0.188668 0.159368
O O9 0.520725 0.305191 0.111197
O O10 0.882408 0.073442 0.108340
O O11 0.562113 0.081944 0.192750
O O12 0.198584 0.347962 0.212735
O O13 0.464919 0.615973 0.488766
O O14 0.320382 0.225524 0.278838
O O15 0.841708 0.332318 0.056064
O O16 0.000000 0.000000 0.000000
O O17 0.304712 0.017605 0.250373
O O18 0.500000 0.500000 0.000000
#
# Coordination Sequence:
#
# PCOD8041473 Si02
#       8
#     2   2   2   2   2   2   2   2
#     4  12  26  41  62  93 132 172 209 262 331 386
#     4  12  18  38  64  90 119 158 218 261 309 370
#     4  10  19  32  64  92 117 152 210 266 303 364
#     4  10  19  36  57  94 123 155 203 260 318 363
#     4  10  21  31  64  95 124 152 213 274 311 366
#     4  11  19  38  61  94 123 162 217 266 316 375
#     4  12  26  42  61  91 135 174 209 261 332 392
#     4  11  20  37  60  98 122 160 216 266 313 377
#
# _framework density 19.440266999999999
#
# number of rings (size 3 to 8) (size 9 to 14) (size 15 to 20)
#    0.000    1.000    7.500    0.000    1.750    0.000 
#    0.000    1.250    0.000    0.000    0.000    0.000 
#    0.000    0.000    0.000    0.000    0.000    0.000 
#
# Total GULP energy -198229.771157 kJ/mol
# GULP energy per Si atom -12389.360697 kJ/mol
# Density = 1.939602 g / cm^3
# Si number density = 19.440267 Si / 1000 Ang^3
#
#
#
# Elastic Constant Matrix: (Units=GPa)
#
#
# Indices 1 2 3 4 5 6 
#
# 1 134.7774 37.6966 35.1140 -0.9532 -13.9131 2.0635
# 2 37.6966 69.9735 52.4220 -17.2874 3.3043 -12.0060
# 3 35.1140 52.4220 120.1706 -20.8576 14.4874 -2.9707
# 4 -0.9532 -17.2874 -20.8576 26.9812 -5.4412 5.7763
# 5 -13.9131 3.3043 14.4874 -5.4412 38.0147 -1.6755
# 6 2.0635 -12.0060 -2.9707 5.7763 -1.6755 37.0718
#
#
#
# Elastic Compliance Matrix: (Units=1/GPa)
#
#
# Indices 1 2 3 4 5 6 
#
# 1 0.009753 -0.005299 -0.001616 -0.003100 0.004127 -0.001719
# 2 -0.005299 0.026948 -0.008522 0.009121 0.000577 0.006944
# 3 -0.001616 -0.008522 0.013829 0.004795 -0.004546 -0.002514
# 4 -0.003100 0.009121 0.004795 0.047914 0.002935 -0.003822
# 5 0.004127 0.000577 -0.004546 0.002935 0.029940 0.000489
# 6 -0.001719 0.006944 -0.002514 -0.003822 0.000489 0.029736
#
#
# Mechanical properties :
#
#
# Convention : Reuss Voigt Hill
#
# Bulk Modulus (GPa) = 50.87564 63.93185 57.40375
# Shear Modulus (GPa) = 25.56932 33.72612 29.64772
#
# Velocity S-wave (km/s) = 3.63061 4.16968 3.90945
# Velocity P-wave (km/s) = 6.61832 7.49262 7.06900
#
# Compressibility (1/GPa) = 0.01965577
#
# Stress axis : x y z
#
# Youngs Moduli (GPa) = 102.52941 37.10871 72.30960
#
# Poissons Ratio (x) = 0.19664 0.11688
# Poissons Ratio (y) = 0.54332 0.61622
# Poissons Ratio (z) = 0.16572 0.31624
#
# Static dielectric constant tensor:
#      x y z
#    x 3.770850 -0.176280 0.072200 
#    y -0.176280 3.157420 -0.357010 
#    z 0.072200 -0.357010 3.692110 
# 
# 
# High freq. dielectric constant tensor:
#      x y z
#    x 1.786590 -0.009240 0.003510 
#    y -0.009240 1.711110 -0.041540 
#    z 0.003510 -0.041540 1.752720 
# 
# From -- ./inp_files/452178.got.cif
#   From: 2010.06.25/outbox.cif.g09.slc.cpg/sg2_227_cif.got.tgz:452178.got - 2010.06.27 13:26:56.
