data_PCOD8041195
_publ_section_title
;
Structure prediction by ZEFSAII (Michael W. Deem and Ramdas Pophale) SiO2 
 PCOD8041195
Probable space group: P -1
;
_chemical_formula_sum "Si O2"
_cell_formula_units_Z 16
_cell_length_a 9.344739
_cell_length_b 21.833963
_cell_length_c 18.955689
_cell_angle_alpha 26.163693
_cell_angle_beta 36.794064
_cell_angle_gamma 29.761941
_cell_volume 842.386954
_symmetry_space_group_name_H-M "P -1"
_symmetry_group_IT_number 2
_symmetry_cell_setting 'triclinic'
loop_
_space_group_symop_operation_xyz
x,y,z
-x,-y,-z
loop_
_atom_site_type_symbol
_atom_site_label
_atom_site_fract_x
_atom_site_fract_y
_atom_site_fract_z
Si Si1 0.406069 0.751649 0.077651
Si Si2 0.052335 0.616187 0.974899
Si Si3 0.784999 0.733982 0.704918
Si Si4 0.433758 0.853661 0.466526
Si Si5 0.057715 0.104063 0.774963
Si Si6 0.825869 0.960219 0.356147
Si Si7 0.064312 0.916024 0.676521
Si Si8 0.299868 0.591690 0.754092
O O1 0.455448 0.593267 0.178962
O O2 0.237574 0.769779 0.197364
O O3 0.707656 0.722125 0.009880
O O4 0.217045 0.916223 0.935180
O O5 0.161814 0.725212 0.851943
O O6 0.138812 0.577493 0.898894
O O7 0.197078 0.436496 0.142328
O O8 0.787107 0.812925 0.547672
O O9 0.051430 0.699876 0.682312
O O10 0.480378 0.870991 0.720553
O O11 0.744432 0.823535 0.372674
O O12 0.297481 0.917381 0.532893
O O13 0.460258 0.682171 0.615365
O O14 0.235228 0.993962 0.341363
O O15 0.975220 0.102711 0.726992
O O16 0.972527 0.995541 0.326067
#
# Coordination Sequence:
#
# PCOD8041195 Si02
#       8
#     2   2   2   2   2   2   2   2
#     4  10  21  37  58  81 106 146 188 221 267 327
#     4  10  19  35  58  82 109 141 183 229 267 317
#     4  10  19  31  54  81 112 140 177 223 275 319
#     4  10  19  34  57  85 108 142 181 226 269 319
#     4  11  22  37  57  79 113 146 182 222 270 327
#     4  11  21  34  52  83 115 144 175 224 277 323
#     4  10  20  33  57  84 112 140 180 225 274 319
#     4  10  19  34  59  85 107 138 185 232 267 312
#
# _framework density 18.993645999999998
#
# number of rings (size 3 to 8) (size 9 to 14) (size 15 to 20)
#    0.000    1.750    2.500    4.500    1.750    1.000 
#    0.000    4.375    0.000    0.000    0.000    0.000 
#    0.000    0.000    0.000    0.000    0.000    0.000 
#
# Total GULP energy -198384.285566 kJ/mol
# GULP energy per Si atom -12399.017848 kJ/mol
# Density = 1.895042 g / cm^3
# Si number density = 18.993646 Si / 1000 Ang^3
#
#
#
# Elastic Constant Matrix: (Units=GPa)
#
#
# Indices 1 2 3 4 5 6 
#
# 1 87.3569 39.6462 41.5972 11.0763 -4.6660 12.5987
# 2 39.6462 118.9382 52.7704 18.4541 0.6453 9.3476
# 3 41.5972 52.7704 104.7334 -1.5646 -7.0636 11.1322
# 4 11.0763 18.4541 -1.5646 34.0937 6.3640 10.3241
# 5 -4.6660 0.6453 -7.0636 6.3640 18.9702 -8.8897
# 6 12.5987 9.3476 11.1322 10.3241 -8.8897 9.7368
#
#
#
# Elastic Compliance Matrix: (Units=1/GPa)
#
#
# Indices 1 2 3 4 5 6 
#
# 1 0.013259 -0.000671 -0.009179 -0.029548 0.037823 0.059846
# 2 -0.000671 0.011438 -0.002506 0.011529 -0.025307 -0.042577
# 3 -0.009179 -0.002506 0.006547 -0.041055 0.065755 0.110363
# 4 -0.029548 0.011529 -0.041055 -0.225515 0.348655 0.631541
# 5 0.037823 -0.025307 0.065755 0.348655 -0.436276 -0.867828
# 6 0.059846 -0.042577 0.110363 0.631541 -0.867828 -1.521997
#
#
# Mechanical properties :
#
#
# Convention : Reuss Voigt Hill
#
# Bulk Modulus (GPa) = 153.09600 64.33958 108.71779
# Shear Modulus (GPa) = -2.35222 24.36113 11.00446
#
# Velocity S-wave (km/s) = -1.11405 3.58522 2.40963
# Velocity P-wave (km/s) = 8.89517 7.14746 8.06877
#
# Compressibility (1/GPa) = 0.00653185
#
# Stress axis : x y z
#
# Youngs Moduli (GPa) = 75.42330 87.42984 152.73593
#
# Poissons Ratio (x) = 0.05865 1.40203
# Poissons Ratio (y) = 0.05060 0.38269
# Poissons Ratio (z) = 0.69234 0.21906
#
# Static dielectric constant tensor:
#      x y z
#    x 3.218310 0.128380 -0.019640 
#    y 0.128380 3.376520 -0.089220 
#    z -0.019640 -0.089220 3.680670 
# 
# 
# High freq. dielectric constant tensor:
#      x y z
#    x 1.725580 0.010440 -0.004950 
#    y 0.010440 1.713640 -0.013500 
#    z -0.004950 -0.013500 1.754020 
# 
# From -- ./inp_files/256971.got.cif
#   From: 2010.06.25/outbox.cif.g09.slc.cpg/sg2_129_cif.got.tgz:256971.got - 2010.06.27 13:26:56.
