data_PCOD8041550
_publ_section_title
;
Structure prediction by ZEFSAII (Michael W. Deem and Ramdas Pophale) SiO2 
 PCOD8041550
Probable space group: P -1
;
_chemical_formula_sum "Si O2"
_cell_formula_units_Z 16
_cell_length_a 17.137614
_cell_length_b 12.518993
_cell_length_c 9.404132
_cell_angle_alpha 47.889251
_cell_angle_beta 80.528484
_cell_angle_gamma 118.604576
_cell_volume 875.724245
_symmetry_space_group_name_H-M "P -1"
_symmetry_group_IT_number 2
_symmetry_cell_setting 'triclinic'
loop_
_space_group_symop_operation_xyz
x,y,z
-x,-y,-z
loop_
_atom_site_type_symbol
_atom_site_label
_atom_site_fract_x
_atom_site_fract_y
_atom_site_fract_z
Si Si1 0.548233 0.915522 0.517354
Si Si2 0.991720 0.296665 0.900121
Si Si3 0.655353 0.588903 0.875861
Si Si4 0.778791 0.216733 0.970029
Si Si5 0.390243 0.190885 0.173614
Si Si6 0.208953 0.843366 0.296466
Si Si7 0.052708 0.041093 0.604653
Si Si8 0.002811 0.236804 0.629093
O O1 0.500000 0.000000 0.500000
O O2 0.640613 0.986640 0.552190
O O3 0.636193 0.041785 0.237190
O O4 0.415413 0.622266 0.800764
O O5 0.855307 0.190729 0.036596
O O6 0.117311 0.586522 0.626051
O O7 0.005355 0.232718 0.803227
O O8 0.991026 0.182489 0.132060
O O9 0.691936 0.790149 0.765753
O O10 0.787561 0.712714 0.662222
O O11 0.549866 0.461693 0.890233
O O12 0.744424 0.139306 0.886171
O O13 0.869609 0.491056 0.712142
O O14 0.343152 0.071518 0.140087
O O15 0.128671 0.873750 0.283414
O O16 0.997324 0.071250 0.710308
O O17 0.000000 0.000000 0.500000
#
# Coordination Sequence:
#
# PCOD8041550 Si02
#       8
#     2   2   2   2   2   2   2   2
#     4  10  19  33  54  75 107 145 175 218 271 314
#     4   9  20  35  57  81 110 143 177 222 274 319
#     4   9  21  36  54  75 110 146 178 212 276 316
#     4   9  18  35  59  80 106 145 183 218 268 328
#     4   9  19  37  56  70 114 143 179 220 262 318
#     4   9  18  37  59  83 104 139 188 225 260 316
#     4  12  22  34  57  83 111 139 182 223 270 320
#     4   9  19  35  56  82 112 140 174 227 276 313
#
# _framework density 18.270591
#
# number of rings (size 3 to 8) (size 9 to 14) (size 15 to 20)
#    0.750    1.750    0.000    4.125    0.000    2.000 
#    0.000    4.375    5.500    0.000    0.000    0.000 
#    0.000    0.000    0.000    0.000    0.000    0.000 
#
# Total GULP energy -198295.943511 kJ/mol
# GULP energy per Si atom -12393.496469 kJ/mol
# Density = 1.822901 g / cm^3
# Si number density = 18.270591 Si / 1000 Ang^3
#
#
#
# Elastic Constant Matrix: (Units=GPa)
#
#
# Indices 1 2 3 4 5 6 
#
# 1 86.2910 43.2226 54.1396 5.1976 4.6465 -15.9506
# 2 43.2226 96.6643 25.1213 -5.8271 -0.4571 3.7310
# 3 54.1396 25.1213 88.8109 11.4380 1.4153 -2.0239
# 4 5.1976 -5.8271 11.4380 20.8709 -1.6336 -1.5815
# 5 4.6465 -0.4571 1.4153 -1.6336 36.4099 3.2533
# 6 -15.9506 3.7310 -2.0239 -1.5815 3.2533 31.9069
#
#
#
# Elastic Compliance Matrix: (Units=1/GPa)
#
#
# Indices 1 2 3 4 5 6 
#
# 1 0.028179 -0.009671 -0.013859 -0.001363 -0.004557 0.014736
# 2 -0.009671 0.015115 0.000671 0.005944 0.002245 -0.006494
# 3 -0.013859 0.000671 0.020376 -0.007907 0.001187 -0.006227
# 4 -0.001363 0.005944 -0.007907 0.054517 0.002955 0.000523
# 5 -0.004557 0.002245 0.001187 0.002955 0.028629 -0.005238
# 6 0.014736 -0.006494 -0.006227 0.000523 -0.005238 0.039632
#
#
# Mechanical properties :
#
#
# Convention : Reuss Voigt Hill
#
# Bulk Modulus (GPa) = 55.70383 57.41480 56.55931
# Shear Modulus (GPa) = 20.99516 27.78970 24.39243
#
# Velocity S-wave (km/s) = 3.39355 3.90424 3.65782
# Velocity P-wave (km/s) = 6.77564 7.19841 6.99022
#
# Compressibility (1/GPa) = 0.01795209
#
# Stress axis : x y z
#
# Youngs Moduli (GPa) = 35.48720 66.16110 49.07721
#
# Poissons Ratio (x) = 0.63984 0.68015
# Poissons Ratio (y) = 0.34319 -0.03292
# Poissons Ratio (z) = 0.49181 -0.04438
#
# Static dielectric constant tensor:
#      x y z
#    x 3.346690 -0.106920 0.058240 
#    y -0.106920 3.215600 0.066830 
#    z 0.058240 0.066830 3.274580 
# 
# 
# High freq. dielectric constant tensor:
#      x y z
#    x 1.709870 -0.012420 0.004870 
#    y -0.012420 1.692990 -0.002960 
#    z 0.004870 -0.002960 1.698770 
# 
# From -- ./inp_files/276687.got.cif
#   From: 2010.06.25/outbox.cif.g09.slc.cpg/sg2_139_cif.got.tgz:276687.got - 2010.06.27 13:26:56.
