data_PCOD8041092
_publ_section_title
;
Structure prediction by ZEFSAII (Michael W. Deem and Ramdas Pophale) SiO2 
 PCOD8041092
Probable space group: P -1
;
_chemical_formula_sum "Si O2"
_cell_formula_units_Z 14
_cell_length_a 28.774888
_cell_length_b 11.407044
_cell_length_c 17.289509
_cell_angle_alpha 35.000484
_cell_angle_beta 20.659164
_cell_angle_gamma 24.325529
_cell_volume 802.567546
_symmetry_space_group_name_H-M "P -1"
_symmetry_group_IT_number 2
_symmetry_cell_setting 'triclinic'
loop_
_space_group_symop_operation_xyz
x,y,z
-x,-y,-z
loop_
_atom_site_type_symbol
_atom_site_label
_atom_site_fract_x
_atom_site_fract_y
_atom_site_fract_z
Si Si1 0.934655 0.376112 0.121442
Si Si2 0.513232 0.267210 0.143670
Si Si3 0.160332 0.396255 0.025545
Si Si4 0.732764 0.814990 0.477372
Si Si5 0.419556 0.387530 0.723851
Si Si6 0.447297 0.291719 0.407343
Si Si7 0.694123 0.197899 0.199967
O O1 0.778028 0.434569 0.384406
O O2 0.847552 0.539992 0.086669
O O3 0.000000 0.500000 0.000000
O O4 0.103332 0.028509 0.034804
O O5 0.326777 0.345245 0.369536
O O6 0.522474 0.281936 0.213295
O O7 0.500000 0.500000 0.000000
O O8 0.703878 0.948417 0.988554
O O9 0.953106 0.575278 0.285821
O O10 0.246028 0.491868 0.887573
O O11 0.596847 0.032695 0.643262
O O12 0.687588 0.016909 0.367812
O O13 0.500000 0.500000 0.500000
O O14 0.339258 0.543204 0.848537
O O15 0.533411 0.346954 0.306650
O O16 0.500000 0.000000 0.500000
#
# Coordination Sequence:
#
# PCOD8041092 Si02
#       7
#     2   2   2   2   2   2   2
#     4  11  18  28  50  76 102 134 169 207 260 309
#     4  11  22  35  52  78 106 137 176 215 257 312
#     4  10  19  33  52  73 107 142 170 215 262 303
#     4   9  18  33  52  75 105 139 172 213 257 310
#     4   9  18  30  47  78 110 135 171 212 260 310
#     4  12  18  33  53  73 106 137 165 211 267 305
#     4  10  19  30  51  80 105 132 171 212 256 311
#
# _framework density 17.444015
#
# number of rings (size 3 to 8) (size 9 to 14) (size 15 to 20)
#    0.000    1.714    4.286    2.571    0.000    6.857 
#    0.000    0.000    0.000    3.429    0.000    6.000 
#    0.000    0.000    0.000    0.000    0.000    0.000 
#
# Total GULP energy -173556.605450 kJ/mol
# GULP energy per Si atom -12396.900389 kJ/mol
# Density = 1.740431 g / cm^3
# Si number density = 17.444015 Si / 1000 Ang^3
#
#
#
# Elastic Constant Matrix: (Units=GPa)
#
#
# Indices 1 2 3 4 5 6 
#
# 1 131.7888 52.2700 53.2017 7.5882 -19.3642 22.4873
# 2 52.2700 70.9772 53.4152 14.2289 -3.8624 11.1915
# 3 53.2017 53.4152 101.5094 25.4822 -17.7061 3.7764
# 4 7.5882 14.2289 25.4822 37.0986 -1.5840 5.7042
# 5 -19.3642 -3.8624 -17.7061 -1.5840 33.6600 3.1745
# 6 22.4873 11.1915 3.7764 5.7042 3.1745 24.7110
#
#
#
# Elastic Compliance Matrix: (Units=1/GPa)
#
#
# Indices 1 2 3 4 5 6 
#
# 1 0.014298 -0.006629 -0.003369 0.003966 0.006945 -0.011302
# 2 -0.006629 0.028827 -0.012531 -0.000756 -0.006749 -0.004066
# 3 -0.003369 -0.012531 0.021719 -0.010186 0.006920 0.006884
# 4 0.003966 -0.000756 -0.010186 0.034894 -0.000607 -0.009687
# 5 0.006945 -0.006749 0.006920 -0.000607 0.037388 -0.008984
# 6 -0.011302 -0.004066 0.006884 -0.009687 -0.008984 0.054932
#
#
# Mechanical properties :
#
#
# Convention : Reuss Voigt Hill
#
# Bulk Modulus (GPa) = 50.54227 69.11657 59.82942
# Shear Modulus (GPa) = 20.51616 28.78650 24.65133
#
# Velocity S-wave (km/s) = 3.43317 4.06670 3.76329
# Velocity P-wave (km/s) = 6.68973 7.85867 7.29764
#
# Compressibility (1/GPa) = 0.01978542
#
# Stress axis : x y z
#
# Youngs Moduli (GPa) = 69.94166 34.69028 46.04310
#
# Poissons Ratio (x) = 0.22996 0.15512
# Poissons Ratio (y) = 0.46364 0.57695
# Poissons Ratio (z) = 0.23564 0.43469
#
# Static dielectric constant tensor:
#      x y z
#    x 3.598000 0.442040 0.051740 
#    y 0.442040 3.359360 0.497750 
#    z 0.051740 0.497750 3.413560 
# 
# 
# High freq. dielectric constant tensor:
#      x y z
#    x 1.674480 0.028040 -0.017310 
#    y 0.028040 1.643820 0.040340 
#    z -0.017310 0.040340 1.668030 
# 
# From -- ./inp_files/257232.got.cif
#   From: 2010.06.25/outbox.cif.g09.slc.cpg/sg2_129_cif.got.tgz:257232.got - 2010.06.27 13:26:56.
