data_PCOD8041770
_publ_section_title
;
Structure prediction by ZEFSAII (Michael W. Deem and Ramdas Pophale) SiO2 
 PCOD8041770
Probable space group: P -1
;
_chemical_formula_sum "Si O2"
_cell_formula_units_Z 12
_cell_length_a 14.476083
_cell_length_b 23.613177
_cell_length_c 28.676249
_cell_angle_alpha 10.414403
_cell_angle_beta 20.480141
_cell_angle_gamma 22.443127
_cell_volume 619.314969
_symmetry_space_group_name_H-M "P -1"
_symmetry_group_IT_number 2
_symmetry_cell_setting 'triclinic'
loop_
_space_group_symop_operation_xyz
x,y,z
-x,-y,-z
loop_
_atom_site_type_symbol
_atom_site_label
_atom_site_fract_x
_atom_site_fract_y
_atom_site_fract_z
Si Si1 0.316937 0.249837 0.768625
Si Si2 0.862415 0.168057 0.120113
Si Si3 0.137371 0.839162 0.608715
Si Si4 0.074514 0.281784 0.458202
Si Si5 0.468939 0.286998 0.133942
Si Si6 0.174349 0.125244 0.176586
O O1 0.500000 0.500000 0.500000
O O2 0.137870 0.423444 0.672444
O O3 0.517146 0.974797 0.878331
O O4 0.129419 0.127643 0.996969
O O5 0.607129 0.103736 0.260697
O O6 0.892785 0.922732 0.345836
O O7 0.811504 0.528846 0.869381
O O8 0.972106 0.885507 0.696552
O O9 0.411073 0.018124 0.341554
O O10 0.185755 0.476689 0.867017
O O11 0.000000 0.000000 0.500000
O O12 0.353395 0.434661 0.193778
O O13 0.977839 0.077921 0.625174
#
# Coordination Sequence:
#
# PCOD8041770 Si02
#       6
#     2   2   2   2   2   2
#     4   9  19  34  53  82 113 138 178 224 263 318
#     4  10  19  33  58  83 109 142 175 223 275 312
#     4  11  23  38  57  78 108 147 179 220 274 319
#     4  10  20  35  59  84 108 142 179 221 271 316
#     4  10  20  35  55  84 110 136 184 226 259 320
#     4  10  22  37  54  83 112 138 182 225 262 321
#
# _framework density 19.376245999999998
#
# number of rings (size 3 to 8) (size 9 to 14) (size 15 to 20)
#    0.000    2.000    0.000    5.500    0.000    6.667 
#    0.000    3.333    0.000    6.000    0.000    0.000 
#    0.000    0.000    0.000    0.000    0.000    0.000 
#
# Total GULP energy -148666.227429 kJ/mol
# GULP energy per Si atom -12388.852286 kJ/mol
# Density = 1.933215 g / cm^3
# Si number density = 19.376246 Si / 1000 Ang^3
#
#
#
# Elastic Constant Matrix: (Units=GPa)
#
#
# Indices 1 2 3 4 5 6 
#
# 1 128.8094 29.3629 66.3559 -4.7323 31.6282 -19.9611
# 2 29.3629 101.1985 43.6530 -8.8981 9.6297 -15.5189
# 3 66.3559 43.6530 124.5758 -8.0766 2.9260 -11.0553
# 4 -4.7323 -8.8981 -8.0766 24.0963 -8.6248 3.8655
# 5 31.6282 9.6297 2.9260 -8.6248 39.7555 -4.3365
# 6 -19.9611 -15.5189 -11.0553 3.8655 -4.3365 16.6027
#
#
#
# Elastic Compliance Matrix: (Units=1/GPa)
#
#
# Indices 1 2 3 4 5 6 
#
# 1 0.016848 0.001606 -0.008351 -0.005784 -0.012887 0.014177
# 2 0.001606 0.013294 -0.004455 0.001057 -0.002805 0.010411
# 3 -0.008351 -0.004455 0.013792 0.004606 0.007249 -0.004200
# 4 -0.005784 0.001057 0.004606 0.048830 0.013426 -0.010761
# 5 -0.012887 -0.002805 0.007249 0.013426 0.037750 -0.006554
# 6 0.014177 0.010411 -0.004200 -0.010761 -0.006554 0.085005
#
#
# Mechanical properties :
#
#
# Convention : Reuss Voigt Hill
#
# Bulk Modulus (GPa) = 46.44075 70.36971 58.40523
# Shear Modulus (GPa) = 20.39998 30.43833 25.41916
#
# Velocity S-wave (km/s) = 3.24826 3.96777 3.62591
# Velocity P-wave (km/s) = 6.17156 7.57544 6.90925
#
# Compressibility (1/GPa) = 0.02153281
#
# Stress axis : x y z
#
# Youngs Moduli (GPa) = 59.35382 75.22248 72.50426
#
# Poissons Ratio (x) = -0.12077 0.60549
# Poissons Ratio (y) = -0.09529 0.32302
# Poissons Ratio (z) = 0.49567 0.33513
#
# Static dielectric constant tensor:
#      x y z
#    x 3.524580 -0.365250 0.021760 
#    y -0.365250 4.544660 -0.204800 
#    z 0.021760 -0.204800 3.726740 
# 
# 
# High freq. dielectric constant tensor:
#      x y z
#    x 1.744670 -0.019210 0.013430 
#    y -0.019210 1.751240 0.004920 
#    z 0.013430 0.004920 1.760630 
# 
# From -- ./inp_files/270620.got.cif
#   From: 2010.06.25/outbox.cif.g09.slc.cpg/sg2_136_cif.got.tgz:270620.got - 2010.06.27 13:26:56.
