data_PCOD8041245
_publ_section_title
;
Structure prediction by ZEFSAII (Michael W. Deem and Ramdas Pophale) SiO2 
 PCOD8041245
Probable space group: P -1
;
_chemical_formula_sum "Si O2"
_cell_formula_units_Z 16
_cell_length_a 12.810316
_cell_length_b 13.817030
_cell_length_c 13.109236
_cell_angle_alpha 58.197994
_cell_angle_beta 156.852787
_cell_angle_gamma 122.634529
_cell_volume 764.715095
_symmetry_space_group_name_H-M "P -1"
_symmetry_group_IT_number 2
_symmetry_cell_setting 'triclinic'
loop_
_space_group_symop_operation_xyz
x,y,z
-x,-y,-z
loop_
_atom_site_type_symbol
_atom_site_label
_atom_site_fract_x
_atom_site_fract_y
_atom_site_fract_z
Si Si1 0.291169 0.643345 0.728672
Si Si2 0.066881 0.040494 0.925162
Si Si3 0.291176 0.419154 0.728675
Si Si4 0.464843 0.310863 0.568216
Si Si5 0.535160 0.914230 0.431790
Si Si6 0.779252 0.231592 0.596880
Si Si7 0.779255 0.450775 0.596885
Si Si8 0.933118 0.398779 0.074838
O O1 0.270022 0.511641 0.746741
O O2 0.377818 0.731299 0.663789
O O3 0.999994 0.660789 0.499996
O O4 0.499993 0.663111 0.999997
O O5 0.845164 0.971546 0.687514
O O6 0.038445 0.176376 0.822400
O O7 0.362024 0.010669 0.181348
O O8 0.000000 0.000000 0.000000
O O9 0.377820 0.482733 0.663786
O O10 0.494240 0.186112 0.622020
O O11 0.571070 0.409097 0.524364
O O12 0.154841 0.313903 0.312495
O O13 0.637980 0.329997 0.818658
O O14 0.428935 0.862389 0.475643
O O15 0.890367 0.342789 0.704783
O O16 0.038453 0.539659 0.822410
O O17 0.000000 0.500000 0.000000
#
# Coordination Sequence:
#
# PCOD8041245 Si02
#       8
#     2   2   2   2   2   2   2   2
#     4   9  18  30  43  62  90 123 158 190 219 263
#     4  10  19  32  47  70  96 123 160 194 226 277
#     4   9  18  30  43  62  90 123 158 190 219 263
#     4  10  20  33  49  69  96 127 159 194 232 274
#     4  10  20  33  49  69  96 127 159 194 232 274
#     4   9  18  31  48  69  97 131 156 184 232 279
#     4   9  18  31  48  69  97 131 156 184 232 279
#     4  10  19  32  47  70  96 123 160 194 226 277
#
# _framework density 20.922826000000001
#
# number of rings (size 3 to 8) (size 9 to 14) (size 15 to 20)
#    0.000    2.500    0.000    3.750    0.000    7.000 
#    0.000   16.250    0.000    0.000    0.000    0.000 
#    0.000   20.000    0.000    0.000    0.000    0.000 
#
# Total GULP energy -198256.204581 kJ/mol
# GULP energy per Si atom -12391.012786 kJ/mol
# Density = 2.087521 g / cm^3
# Si number density = 20.922826 Si / 1000 Ang^3
#
#
#
# Elastic Constant Matrix: (Units=GPa)
#
#
# Indices 1 2 3 4 5 6 
#
# 1 38.6858 29.3028 31.1030 -1.2939 -14.8138 -4.7135
# 2 29.3028 62.7325 39.1667 -12.5672 -9.1963 -16.1062
# 3 31.1030 39.1667 164.1732 -6.8846 -11.9267 -6.9807
# 4 -1.2939 -12.5672 -6.8846 29.4245 -2.4712 -2.8101
# 5 -14.8138 -9.1963 -11.9267 -2.4712 26.5710 2.3925
# 6 -4.7135 -16.1062 -6.9807 -2.8101 2.3925 17.2812
#
#
#
# Elastic Compliance Matrix: (Units=1/GPa)
#
#
# Indices 1 2 3 4 5 6 
#
# 1 0.053583 -0.025473 -0.003641 -0.009120 0.019910 -0.014836
# 2 -0.025473 0.042186 -0.003130 0.019271 -0.002325 0.034561
# 3 -0.003641 -0.003130 0.007525 0.000210 0.000364 -0.000887
# 4 -0.009120 0.019271 0.000210 0.044306 0.003798 0.022236
# 5 0.019910 -0.002325 0.000364 0.003798 0.048691 -0.002713
# 6 -0.014836 0.034561 -0.000887 0.022236 -0.002713 0.089664
#
#
# Mechanical properties :
#
#
# Convention : Reuss Voigt Hill
#
# Bulk Modulus (GPa) = 25.76874 51.63739 38.70307
# Shear Modulus (GPa) = 13.75973 25.72329 19.74151
#
# Velocity S-wave (km/s) = 2.56724 3.51014 3.07504
# Velocity P-wave (km/s) = 4.59678 6.41573 5.58086
#
# Compressibility (1/GPa) = 0.03880671
#
# Stress axis : x y z
#
# Youngs Moduli (GPa) = 18.66268 23.70445 132.88783
#
# Poissons Ratio (x) = 0.60382 0.48387
# Poissons Ratio (y) = 0.47539 0.41590
# Poissons Ratio (z) = 0.06795 0.07419
#
# Static dielectric constant tensor:
#      x y z
#    x 3.574590 -0.417050 -0.245710 
#    y -0.417050 4.056160 -0.141860 
#    z -0.245710 -0.141860 4.538660 
# 
# 
# High freq. dielectric constant tensor:
#      x y z
#    x 1.767100 -0.018450 -0.010730 
#    y -0.018450 1.788400 -0.006190 
#    z -0.010730 -0.006190 1.837930 
# 
# From -- ./inp_files/533752.got.cif
#   From: 2010.06.25/outbox.cif.g09.slc.cpg/sg2_267_cif.got.tgz:533752.got - 2010.06.27 13:26:56.
