data_PCOD8041481
_publ_section_title
;
Structure prediction by ZEFSAII (Michael W. Deem and Ramdas Pophale) SiO2 
 PCOD8041481
Probable space group: P -1
;
_chemical_formula_sum "Si O2"
_cell_formula_units_Z 16
_cell_length_a 25.668514
_cell_length_b 10.531626
_cell_length_c 5.283360
_cell_angle_alpha 89.972989
_cell_angle_beta 58.944766
_cell_angle_gamma 47.006351
_cell_volume 741.049922
_symmetry_space_group_name_H-M "P -1"
_symmetry_group_IT_number 2
_symmetry_cell_setting 'triclinic'
loop_
_space_group_symop_operation_xyz
x,y,z
-x,-y,-z
loop_
_atom_site_type_symbol
_atom_site_label
_atom_site_fract_x
_atom_site_fract_y
_atom_site_fract_z
Si Si1 0.860982 0.952863 0.865520
Si Si2 0.118959 0.793006 0.202913
Si Si3 0.311784 0.108231 0.221816
Si Si4 0.512489 0.658313 0.718925
Si Si5 0.019743 0.318504 0.933053
Si Si6 0.539937 0.534866 0.150258
Si Si7 0.697172 0.022938 0.256053
Si Si8 0.164611 0.562564 0.588628
O O1 0.933172 0.790922 0.456902
O O2 0.834512 0.144619 0.912709
O O3 0.910259 0.842125 0.012933
O O4 0.754803 0.059798 0.110680
O O5 0.155536 0.662920 0.363275
O O6 0.155641 0.661172 0.861070
O O7 0.000000 0.000000 0.500000
O O8 0.269549 0.111485 0.580094
O O9 0.274805 0.314933 0.312329
O O10 0.270175 0.108757 0.075082
O O11 0.434775 0.904364 0.914503
O O12 0.582597 0.535333 0.292978
O O13 0.440462 0.648779 0.897360
O O14 0.583054 0.533466 0.791688
O O15 0.000000 0.500000 0.000000
O O16 0.915526 0.417361 0.214992
O O17 0.420447 0.755043 0.446955
#
# Coordination Sequence:
#
# PCOD8041481 Si02
#       8
#     2   2   2   2   2   2   2   2
#     4  12  23  36  52  71  97 130 165 204 241 282
#     4  12  23  40  54  68  91 132 178 212 232 282
#     4  10  20  33  51  76 106 126 156 203 248 297
#     4   8  14  26  44  70  98 129 154 183 233 291
#     4  12  23  35  53  74  98 124 157 198 255 304
#     4   8  14  25  45  68  99 130 154 182 230 296
#     4  10  19  33  49  76 106 128 156 199 249 293
#     4  12  22  37  54  72  95 129 167 207 249 279
#
# _framework density 21.590990000000001
#
# number of rings (size 3 to 8) (size 9 to 14) (size 15 to 20)
#    0.000    1.500    2.500    4.500    0.000    0.000 
#    0.000    0.000    0.000    0.000    0.000    1.750 
#    0.000    0.000    0.000    0.000    0.000    0.000 
#
# Total GULP energy -198314.178993 kJ/mol
# GULP energy per Si atom -12394.636187 kJ/mol
# Density = 2.154185 g / cm^3
# Si number density = 21.590990 Si / 1000 Ang^3
#
#
#
# Elastic Constant Matrix: (Units=GPa)
#
#
# Indices 1 2 3 4 5 6 
#
# 1 55.2699 30.9064 31.2312 -11.6522 32.8610 10.1234
# 2 30.9064 149.1025 40.6764 -7.4718 25.7246 5.2234
# 3 31.2312 40.6764 81.6007 -11.5700 47.2431 -6.7676
# 4 -11.6522 -7.4718 -11.5700 45.0737 -7.2320 13.4683
# 5 32.8610 25.7246 47.2431 -7.2320 43.1837 -6.6189
# 6 10.1234 5.2234 -6.7676 13.4683 -6.6189 35.5676
#
#
#
# Elastic Compliance Matrix: (Units=1/GPa)
#
#
# Indices 1 2 3 4 5 6 
#
# 1 0.054083 -0.003373 0.012422 0.016522 -0.054400 -0.028914
# 2 -0.003373 0.008172 -0.003951 -0.000038 0.001919 -0.000620
# 3 0.012422 -0.003951 0.037974 0.006684 -0.048644 -0.007313
# 4 0.016522 -0.000038 0.006684 0.030844 -0.017512 -0.018363
# 5 -0.054400 0.001919 -0.048644 -0.017512 0.119017 0.034725
# 6 -0.028914 -0.000620 -0.007313 -0.018363 0.034725 0.048461
#
#
# Mechanical properties :
#
#
# Convention : Reuss Voigt Hill
#
# Bulk Modulus (GPa) = 9.05584 54.62234 31.83909
# Shear Modulus (GPa) = 15.37692 36.97561 26.17627
#
# Velocity S-wave (km/s) = 2.67159 4.14278 3.48569
# Velocity P-wave (km/s) = 3.70404 6.94530 5.56583
#
# Compressibility (1/GPa) = 0.11042594
#
# Stress axis : x y z
#
# Youngs Moduli (GPa) = 18.49010 122.36185 26.33389
#
# Poissons Ratio (x) = 0.41270 -0.32711
# Poissons Ratio (y) = 0.06236 0.10404
# Poissons Ratio (z) = -0.22968 0.48341
#
# Static dielectric constant tensor:
#      x y z
#    x 3.839580 -0.296800 0.743750 
#    y -0.296800 4.313840 -0.324780 
#    z 0.743750 -0.324780 4.391960 
# 
# 
# High freq. dielectric constant tensor:
#      x y z
#    x 1.813110 -0.020660 0.045220 
#    y -0.020660 1.861760 -0.003210 
#    z 0.045220 -0.003210 1.857200 
# 
# From -- ./inp_files/42253.got.cif
#   From: 2010.06.25/outbox.cif.g09.slc.cpg/sg2_22_cif.got.tgz:42253.got - 2010.06.27 13:26:56.
