data_PCOD8041932
_publ_section_title
;
Structure prediction by ZEFSAII (Michael W. Deem and Ramdas Pophale) SiO2 
 PCOD8041932
Probable space group: P -1
;
_chemical_formula_sum "Si O2"
_cell_formula_units_Z 16
_cell_length_a 17.417114
_cell_length_b 9.116235
_cell_length_c 10.975893
_cell_angle_alpha 73.400255
_cell_angle_beta 62.671805
_cell_angle_gamma 34.183450
_cell_volume 854.269852
_symmetry_space_group_name_H-M "P -1"
_symmetry_group_IT_number 2
_symmetry_cell_setting 'triclinic'
loop_
_space_group_symop_operation_xyz
x,y,z
-x,-y,-z
loop_
_atom_site_type_symbol
_atom_site_label
_atom_site_fract_x
_atom_site_fract_y
_atom_site_fract_z
Si Si1 0.939331 0.263232 0.846956
Si Si2 0.182833 0.118757 0.358540
Si Si3 0.115335 0.333283 0.107174
Si Si4 0.877815 0.464460 0.588190
Si Si5 0.180703 0.383978 0.816712
Si Si6 0.783270 0.345228 0.164366
Si Si7 0.640586 0.879326 0.481967
Si Si8 0.528128 0.323515 0.612595
O O1 0.966283 0.396511 0.843967
O O2 0.870969 0.365608 0.735514
O O3 0.823255 0.339902 0.999263
O O4 0.099843 0.949123 0.802145
O O5 0.205740 0.117619 0.198775
O O6 0.151317 0.318629 0.407223
O O7 0.041329 0.211499 0.464816
O O8 0.338533 0.817815 0.360193
O O9 0.996663 0.384966 0.126705
O O10 0.228692 0.221008 0.942883
O O11 0.746250 0.613919 0.550971
O O12 0.214007 0.515395 0.778124
O O13 0.263955 0.195598 0.683658
O O14 0.619605 0.505611 0.243209
O O15 0.500000 0.000000 0.500000
O O16 0.580591 0.103527 0.550863
O O17 0.500000 0.500000 0.500000
#
# Coordination Sequence:
#
# PCOD8041932 Si02
#       8
#     2   2   2   2   2   2   2   2
#     4   9  19  35  57  79 104 140 177 220 255 306
#     4   9  17  32  53  79 103 132 181 223 245 304
#     4   9  18  34  59  81  98 140 182 212 256 310
#     4   9  17  32  55  77 100 139 180 211 258 307
#     4  10  19  34  54  81 107 137 173 213 265 314
#     4  10  20  36  52  81 110 135 175 218 264 312
#     4  11  21  37  54  78 112 137 170 222 265 315
#     4  11  23  35  55  79 105 140 178 218 266 308
#
# _framework density 18.729444000000001
#
# number of rings (size 3 to 8) (size 9 to 14) (size 15 to 20)
#    0.000    2.250    2.500    0.750    3.500    0.000 
#    2.250    4.375    0.000    0.750    0.000    0.000 
#    0.000    0.000    0.000    0.000    0.000    0.000 
#
# Total GULP energy -198328.207109 kJ/mol
# GULP energy per Si atom -12395.512944 kJ/mol
# Density = 1.868681 g / cm^3
# Si number density = 18.729444 Si / 1000 Ang^3
#
#
#
# Elastic Constant Matrix: (Units=GPa)
#
#
# Indices 1 2 3 4 5 6 
#
# 1 65.1502 37.6774 29.9441 -10.3392 -6.0522 -31.7411
# 2 37.6774 108.0965 65.0629 -15.3520 -4.5920 -34.7583
# 3 29.9441 65.0629 130.5864 -12.4896 6.9793 -24.6386
# 4 -10.3392 -15.3520 -12.4896 33.6114 -6.0410 5.1055
# 5 -6.0522 -4.5920 6.9793 -6.0410 27.0950 -2.5737
# 6 -31.7411 -34.7583 -24.6386 5.1055 -2.5737 30.3261
#
#
#
# Elastic Compliance Matrix: (Units=1/GPa)
#
#
# Indices 1 2 3 4 5 6 
#
# 1 0.037080 0.003614 -0.002623 0.008667 0.015366 0.040667
# 2 0.003614 0.020153 -0.006789 0.006273 0.009375 0.021105
# 3 -0.002623 -0.006789 0.011602 -0.000257 -0.004922 -0.001475
# 4 0.008667 0.006273 -0.000257 0.035675 0.012071 0.011071
# 5 0.015366 0.009375 -0.004922 0.012071 0.048252 0.024891
# 6 0.040667 0.021105 -0.001475 0.011071 0.024891 0.098780
#
#
# Mechanical properties :
#
#
# Convention : Reuss Voigt Hill
#
# Bulk Modulus (GPa) = 17.47024 63.24468 40.35746
# Shear Modulus (GPa) = 17.71692 29.61639 23.66666
#
# Velocity S-wave (km/s) = 3.07895 3.98084 3.55858
# Velocity P-wave (km/s) = 4.68912 7.41419 6.20315
#
# Compressibility (1/GPa) = 0.05724020
#
# Stress axis : x y z
#
# Youngs Moduli (GPa) = 26.96864 49.62102 86.19335
#
# Poissons Ratio (x) = -0.17934 0.22607
# Poissons Ratio (y) = -0.09747 0.58514
# Poissons Ratio (z) = 0.07074 0.33686
#
# Static dielectric constant tensor:
#      x y z
#    x 3.363970 -0.326700 0.069300 
#    y -0.326700 3.514930 -0.237550 
#    z 0.069300 -0.237550 4.057780 
# 
# 
# High freq. dielectric constant tensor:
#      x y z
#    x 1.707920 -0.015270 0.004200 
#    y -0.015270 1.706290 -0.009930 
#    z 0.004200 -0.009930 1.741670 
# 
# From -- ./inp_files/284136.got.cif
#   From: 2010.06.25/outbox.cif.g09.slc.cpg/sg2_143_cif.got.tgz:284136.got - 2010.06.27 13:26:56.
