data_PCOD8041552
_publ_section_title
;
Structure prediction by ZEFSAII (Michael W. Deem and Ramdas Pophale) SiO2 
 PCOD8041552
Probable space group: P -1
;
_chemical_formula_sum "Si O2"
_cell_formula_units_Z 12
_cell_length_a 8.749798
_cell_length_b 8.749815
_cell_length_c 14.717622
_cell_angle_alpha 100.713070
_cell_angle_beta 43.608662
_cell_angle_gamma 123.187570
_cell_volume 605.627552
_symmetry_space_group_name_H-M "P -1"
_symmetry_group_IT_number 2
_symmetry_cell_setting 'triclinic'
loop_
_space_group_symop_operation_xyz
x,y,z
-x,-y,-z
loop_
_atom_site_type_symbol
_atom_site_label
_atom_site_fract_x
_atom_site_fract_y
_atom_site_fract_z
Si Si1 0.067546 0.733677 0.658319
Si Si2 0.018378 0.185714 0.835335
Si Si3 0.924463 0.483218 0.858761
Si Si4 0.299251 0.858012 0.858765
Si Si5 0.643614 0.810955 0.835338
Si Si6 0.449688 0.115817 0.658318
O O1 0.237678 0.737683 0.500000
O O2 0.958673 0.544612 0.745707
O O3 0.806760 0.721950 0.732396
O O4 0.264641 0.926064 0.654648
O O5 0.313269 0.228452 0.732390
O O6 0.082179 0.387882 0.797706
O O7 0.849196 0.027210 0.811798
O O8 0.834175 0.103577 0.996761
O O9 0.051453 0.667470 0.890536
O O10 0.597104 0.327693 0.003234
O O11 0.516702 0.822410 0.797710
O O12 0.463967 0.049912 0.745711
#
# Coordination Sequence:
#
# PCOD8041552 Si02
#       6
#     2   2   2   2   2   2
#     4   9  19  34  51  73 102 135 166 200 248 299
#     4  10  19  33  54  76 100 130 166 207 247 292
#     4  10  19  33  54  76 100 130 166 207 247 292
#     4  10  19  33  54  76 100 130 166 207 247 292
#     4  10  19  33  54  76 100 130 166 207 247 292
#     4   9  19  34  51  73 102 135 166 200 248 299
#
# _framework density 19.814157999999999
#
# number of rings (size 3 to 8) (size 9 to 14) (size 15 to 20)
#    0.000    2.333    0.000    5.000    0.000    1.333 
#    0.000    5.000    0.000   14.000    0.000    0.000 
#    0.000    0.000    0.000    0.000    0.000    0.000 
#
# Total GULP energy -148818.223510 kJ/mol
# GULP energy per Si atom -12401.518626 kJ/mol
# Density = 1.976906 g / cm^3
# Si number density = 19.814158 Si / 1000 Ang^3
#
#
#
# Elastic Constant Matrix: (Units=GPa)
#
#
# Indices 1 2 3 4 5 6 
#
# 1 104.7385 13.1368 76.9095 8.7680 -15.5475 -32.1014
# 2 13.1368 34.3468 15.1335 0.5594 -5.5346 -9.7419
# 3 76.9095 15.1335 130.6664 7.4393 -16.9897 -36.6705
# 4 8.7680 0.5594 7.4393 19.6146 -3.1255 -1.6803
# 5 -15.5475 -5.5346 -16.9897 -3.1255 25.0871 7.4057
# 6 -32.1014 -9.7419 -36.6705 -1.6803 7.4057 32.0480
#
#
#
# Elastic Compliance Matrix: (Units=1/GPa)
#
#
# Indices 1 2 3 4 5 6 
#
# 1 0.019004 -0.000697 -0.008018 -0.004194 0.003099 0.008714
# 2 -0.000697 0.032471 -0.000807 0.000980 0.004139 0.007344
# 3 -0.008018 -0.000807 0.015249 -0.001042 0.002531 0.008532
# 4 -0.004194 0.000980 -0.001042 0.053669 0.004584 -0.003341
# 5 0.003099 0.004139 0.002531 0.004584 0.045897 -0.003107
# 6 0.008714 0.007344 0.008532 -0.003341 -0.003107 0.052469
#
#
# Mechanical properties :
#
#
# Convention : Reuss Voigt Hill
#
# Bulk Modulus (GPa) = 20.97303 53.34571 37.15937
# Shear Modulus (GPa) = 19.70858 26.32141 23.01499
#
# Velocity S-wave (km/s) = 3.15726 3.64870 3.41184
# Velocity P-wave (km/s) = 4.88865 6.68821 5.85795
#
# Compressibility (1/GPa) = 0.04768029
#
# Stress axis : x y z
#
# Youngs Moduli (GPa) = 52.61931 30.79673 65.57897
#
# Poissons Ratio (x) = 0.02146 0.52581
# Poissons Ratio (y) = 0.03666 0.05294
# Poissons Ratio (z) = 0.42190 0.02486
#
# Static dielectric constant tensor:
#      x y z
#    x 3.752680 -0.215760 -0.033900 
#    y -0.215760 3.390370 0.013630 
#    z -0.033900 0.013630 3.720010 
# 
# 
# High freq. dielectric constant tensor:
#      x y z
#    x 1.780250 -0.014930 -0.002630 
#    y -0.014930 1.755170 0.001140 
#    z -0.002630 0.001140 1.764440 
# 
# From -- ./inp_files/146394.got.cif
#   From: 2010.06.25/outbox.cif.g09.slc.cpg/sg2_74_cif.got.tgz:146394.got - 2010.06.27 13:26:56.
