data_PCOD8041100
_publ_section_title
;
Structure prediction by ZEFSAII (Michael W. Deem and Ramdas Pophale) SiO2 
 PCOD8041100
Probable space group: P -1
;
_chemical_formula_sum "Si O2"
_cell_formula_units_Z 12
_cell_length_a 8.878499
_cell_length_b 9.098394
_cell_length_c 10.420812
_cell_angle_alpha 83.097194
_cell_angle_beta 44.721710
_cell_angle_gamma 85.162802
_cell_volume 588.045858
_symmetry_space_group_name_H-M "P -1"
_symmetry_group_IT_number 2
_symmetry_cell_setting 'triclinic'
loop_
_space_group_symop_operation_xyz
x,y,z
-x,-y,-z
loop_
_atom_site_type_symbol
_atom_site_label
_atom_site_fract_x
_atom_site_fract_y
_atom_site_fract_z
Si Si1 0.768427 0.206435 0.858112
Si Si2 0.932321 0.924942 0.918036
Si Si3 0.795216 0.114924 0.470241
Si Si4 0.858361 0.795420 0.548831
Si Si5 0.457585 0.273954 0.810582
Si Si6 0.479537 0.579813 0.868786
O O1 0.985429 0.263258 0.652631
O O2 0.570967 0.213442 0.877392
O O3 0.718006 0.305708 0.004902
O O4 0.796999 0.037510 0.900100
O O5 0.147264 0.876528 0.716543
O O6 0.783602 0.784057 0.049126
O O7 0.000000 0.000000 0.000000
O O8 0.591380 0.218169 0.611729
O O9 0.004847 0.173084 0.410610
O O10 0.738705 0.946391 0.563515
O O11 0.692237 0.666756 0.692097
O O12 0.440245 0.453018 0.799565
O O13 0.500000 0.500000 0.000000
#
# Coordination Sequence:
#
# PCOD8041100 Si02
#       6
#     2   2   2   2   2   2
#     4   9  19  35  56  78 105 137 170 213 258 307
#     4  11  22  36  55  77 103 138 179 218 256 302
#     4   9  18  33  54  76 104 136 174 215 254 303
#     4   9  17  31  53  81 105 134 170 213 260 302
#     4  10  20  33  55  81 104 134 172 215 261 306
#     4  10  19  30  52  83 111 132 164 213 265 311
#
# _framework density 20.406569000000001
#
# number of rings (size 3 to 8) (size 9 to 14) (size 15 to 20)
#    0.000    2.333    0.000    4.500    0.000    8.000 
#    0.000    0.833    0.000    5.000    0.000    0.000 
#    0.000    0.000    0.000    0.000    0.000    0.000 
#
# Total GULP energy -148765.802468 kJ/mol
# GULP energy per Si atom -12397.150206 kJ/mol
# Density = 2.036012 g / cm^3
# Si number density = 20.406569 Si / 1000 Ang^3
#
#
#
# Elastic Constant Matrix: (Units=GPa)
#
#
# Indices 1 2 3 4 5 6 
#
# 1 35.3006 18.8869 32.6094 -6.6981 -1.2151 20.7326
# 2 18.8869 104.0322 66.9243 2.5157 -15.2051 29.7918
# 3 32.6094 66.9243 150.7387 0.6510 -9.6868 29.7317
# 4 -6.6981 2.5157 0.6510 43.5076 13.8869 -9.5746
# 5 -1.2151 -15.2051 -9.6868 13.8869 21.2899 -1.7241
# 6 20.7326 29.7918 29.7317 -9.5746 -1.7241 22.0954
#
#
#
# Elastic Compliance Matrix: (Units=1/GPa)
#
#
# Indices 1 2 3 4 5 6 
#
# 1 0.079754 0.022625 -0.005025 -0.019276 0.022480 -0.105177
# 2 0.022625 0.032981 -0.003806 -0.024032 0.033250 -0.068396
# 3 -0.005025 -0.003806 0.010770 -0.003066 0.003433 -0.005706
# 4 -0.019276 -0.024032 -0.003066 0.053137 -0.048336 0.073869
# 5 0.022480 0.033250 0.003433 -0.048336 0.098303 -0.083820
# 6 -0.105177 -0.068396 -0.005706 0.073869 -0.083820 0.269316
#
#
# Mechanical properties :
#
#
# Convention : Reuss Voigt Hill
#
# Bulk Modulus (GPa) = 6.61849 58.54587 32.58218
# Shear Modulus (GPa) = 8.81776 28.82196 18.81986
#
# Velocity S-wave (km/s) = 2.08097 3.76225 3.04014
# Velocity P-wave (km/s) = 3.00404 6.90107 5.32207
#
# Compressibility (1/GPa) = 0.15109189
#
# Stress axis : x y z
#
# Youngs Moduli (GPa) = 12.53863 30.32056 92.84769
#
# Poissons Ratio (x) = -0.68600 0.46656
# Poissons Ratio (y) = -0.28368 0.35340
# Poissons Ratio (z) = 0.06301 0.11541
#
# Static dielectric constant tensor:
#      x y z
#    x 3.097090 0.167630 0.077880 
#    y 0.167630 4.309880 0.429800 
#    z 0.077880 0.429800 3.955400 
# 
# 
# High freq. dielectric constant tensor:
#      x y z
#    x 1.737160 0.016450 -0.005230 
#    y 0.016450 1.803310 0.017120 
#    z -0.005230 0.017120 1.813200 
# 
# From -- ./inp_files/378148.got.cif
#   From: 2010.06.25/outbox.cif.g09.slc.cpg/sg2_190_cif.got.tgz:378148.got - 2010.06.27 13:26:56.
