data_PCOD8041447
_publ_section_title
;
Structure prediction by ZEFSAII (Michael W. Deem and Ramdas Pophale) SiO2 
 PCOD8041447
Probable space group: P -1
;
_chemical_formula_sum "Si O2"
_cell_formula_units_Z 14
_cell_length_a 7.534139
_cell_length_b 18.024508
_cell_length_c 11.271809
_cell_angle_alpha 148.526120
_cell_angle_beta 104.280909
_cell_angle_gamma 55.816624
_cell_volume 557.158869
_symmetry_space_group_name_H-M "P -1"
_symmetry_group_IT_number 2
_symmetry_cell_setting 'triclinic'
loop_
_space_group_symop_operation_xyz
x,y,z
-x,-y,-z
loop_
_atom_site_type_symbol
_atom_site_label
_atom_site_fract_x
_atom_site_fract_y
_atom_site_fract_z
Si Si1 0.609124 0.641452 0.661372
Si Si2 0.113863 0.952598 0.297722
Si Si3 0.404107 0.639226 0.283591
Si Si4 0.876548 0.382560 0.144402
Si Si5 0.651791 0.978553 0.387266
Si Si6 0.681826 0.959376 0.757943
Si Si7 0.223847 0.628457 0.474527
O O1 0.356653 0.694177 0.645739
O O2 0.682225 0.560327 0.697516
O O3 0.858152 0.474946 0.393013
O O4 0.531544 0.848843 0.933415
O O5 0.197681 0.964893 0.460434
O O6 0.241450 0.970244 0.236544
O O7 0.805849 0.130878 0.475080
O O8 0.191397 0.746836 0.018721
O O9 0.289624 0.588373 0.290894
O O10 0.500000 0.500000 0.000000
O O11 0.655665 0.576554 0.294496
O O12 0.144404 0.248372 0.937608
O O13 0.500000 0.000000 0.500000
O O14 0.448944 0.107666 0.421008
O O15 0.916078 0.794884 0.657203
#
# Coordination Sequence:
#
# PCOD8041447 Si02
#       7
#     2   2   2   2   2   2   2
#     4  10  20  36  60  86 113 151 198 235 278 340
#     4  10  20  38  61  85 117 150 193 239 282 337
#     4  10  19  32  58  90 112 144 194 241 281 329
#     4  11  22  38  62  87 113 152 197 240 278 338
#     4  10  22  38  57  84 120 155 185 233 300 343
#     4  10  20  37  59  86 119 154 183 234 294 341
#     4   9  19  35  57  88 117 147 193 239 283 336
#
# _framework density 25.127479999999998
#
# number of rings (size 3 to 8) (size 9 to 14) (size 15 to 20)
#    0.000    2.000    1.429    3.429    0.000    2.857 
#    0.000    3.571    0.000   12.000    0.000    0.000 
#    0.000    0.000    0.000    0.000    0.000    0.000 
#
# Total GULP energy -173454.596789 kJ/mol
# GULP energy per Si atom -12389.614056 kJ/mol
# Density = 2.507029 g / cm^3
# Si number density = 25.127480 Si / 1000 Ang^3
#
#
#
# Elastic Constant Matrix: (Units=GPa)
#
#
# Indices 1 2 3 4 5 6 
#
# 1 58.6578 31.4793 22.3875 -2.9784 -15.3307 -15.2827
# 2 31.4793 141.5657 50.2401 0.1173 -1.7149 -14.2093
# 3 22.3875 50.2401 103.7409 -3.8606 -21.2818 -16.4353
# 4 -2.9784 0.1173 -3.8606 35.4363 -4.5882 -3.1222
# 5 -15.3307 -1.7149 -21.2818 -4.5882 38.8841 -6.8777
# 6 -15.2827 -14.2093 -16.4353 -3.1222 -6.8777 28.1701
#
#
#
# Elastic Compliance Matrix: (Units=1/GPa)
#
#
# Indices 1 2 3 4 5 6 
#
# 1 0.028603 -0.005355 0.003299 0.006731 0.017119 0.019667
# 2 -0.005355 0.009751 -0.005064 -0.001906 -0.005102 -0.002398
# 3 0.003299 -0.005064 0.016077 0.004753 0.012598 0.012218
# 4 0.006731 -0.001906 0.004753 0.031759 0.010982 0.011664
# 5 0.017119 -0.005102 0.012598 0.010982 0.045083 0.026288
# 6 0.019667 -0.002398 0.012218 0.011664 0.026288 0.059798
#
#
# Mechanical properties :
#
#
# Convention : Reuss Voigt Hill
#
# Bulk Modulus (GPa) = 24.88179 56.90867 40.89523
# Shear Modulus (GPa) = 22.86156 33.82193 28.34174
#
# Velocity S-wave (km/s) = 3.01960 3.67279 3.36209
# Velocity P-wave (km/s) = 4.69905 6.37832 5.60196
#
# Compressibility (1/GPa) = 0.04019004
#
# Stress axis : x y z
#
# Youngs Moduli (GPa) = 34.96161 102.55431 62.20076
#
# Poissons Ratio (x) = 0.54921 -0.20520
# Poissons Ratio (y) = 0.18723 0.31499
# Poissons Ratio (z) = -0.11534 0.51935
#
# Static dielectric constant tensor:
#      x y z
#    x 4.437870 -0.402940 -0.343400 
#    y -0.402940 5.519080 -0.105630 
#    z -0.343400 -0.105630 4.539090 
# 
# 
# High freq. dielectric constant tensor:
#      x y z
#    x 1.984570 -0.016340 -0.030690 
#    y -0.016340 2.017630 -0.010450 
#    z -0.030690 -0.010450 1.996090 
# 
# From -- ./inp_files/405115.got.cif
#   From: 2010.06.25/outbox.cif.g09.slc.cpg/sg2_203_cif.got.tgz:405115.got - 2010.06.27 13:26:56.
