data_PCOD8041696
_publ_section_title
;
Structure prediction by ZEFSAII (Michael W. Deem and Ramdas Pophale) SiO2 
 PCOD8041696
Probable space group: P -1
;
_chemical_formula_sum "Si O2"
_cell_formula_units_Z 16
_cell_length_a 11.462717
_cell_length_b 9.516791
_cell_length_c 12.062579
_cell_angle_alpha 130.414474
_cell_angle_beta 80.549527
_cell_angle_gamma 121.908109
_cell_volume 817.425656
_symmetry_space_group_name_H-M "P -1"
_symmetry_group_IT_number 2
_symmetry_cell_setting 'triclinic'
loop_
_space_group_symop_operation_xyz
x,y,z
-x,-y,-z
loop_
_atom_site_type_symbol
_atom_site_label
_atom_site_fract_x
_atom_site_fract_y
_atom_site_fract_z
Si Si1 0.705960 0.081676 0.931855
Si Si2 0.675591 0.381093 0.671312
Si Si3 0.646162 0.756087 0.365864
Si Si4 0.833518 0.872603 0.943709
Si Si5 0.699375 0.097545 0.693002
Si Si6 0.358596 0.253430 0.881265
Si Si7 0.379619 0.848664 0.652772
Si Si8 0.621095 0.323630 0.216557
O O1 0.770461 0.151039 0.831671
O O2 0.806860 0.037814 0.965778
O O3 0.547158 0.862850 0.853314
O O4 0.702746 0.286633 0.086418
O O5 0.509551 0.291447 0.659050
O O6 0.773727 0.644950 0.768515
O O7 0.720480 0.316397 0.745017
O O8 0.706220 0.265197 0.505777
O O9 0.712981 0.782011 0.246639
O O10 0.640123 0.557347 0.326458
O O11 0.747587 0.978508 0.538393
O O12 0.757477 0.795912 0.035046
O O13 0.000000 0.000000 0.000000
O O14 0.535214 0.901076 0.637022
O O15 0.398505 0.075885 0.801091
O O16 0.500000 0.500000 0.000000
O O17 0.307803 0.678650 0.679860
#
# Coordination Sequence:
#
# PCOD8041696 Si02
#       8
#     2   2   2   2   2   2   2   2
#     4  10  21  36  55  84 124 155 194 246 304 351
#     4  11  20  37  56  88 122 158 196 243 298 355
#     4  11  20  32  59  94 120 149 194 247 307 347
#     4  12  26  42  61  86 121 163 203 243 298 360
#     4  10  20  32  57  92 123 148 191 253 305 347
#     4  12  20  37  64  89 118 154 206 247 285 352
#     4  10  19  33  56  89 127 151 191 248 304 348
#     4  10  20  31  56  93 120 151 191 252 300 347
#
# _framework density 19.573644999999999
#
# number of rings (size 3 to 8) (size 9 to 14) (size 15 to 20)
#    0.000    1.250    6.250    0.750    7.000    1.500 
#    0.000    1.250    0.000    0.750    0.000    0.000 
#    0.000    0.000    0.000    0.000    0.000    0.000 
#
# Total GULP energy -198322.248271 kJ/mol
# GULP energy per Si atom -12395.140517 kJ/mol
# Density = 1.952909 g / cm^3
# Si number density = 19.573645 Si / 1000 Ang^3
#
#
#
# Elastic Constant Matrix: (Units=GPa)
#
#
# Indices 1 2 3 4 5 6 
#
# 1 67.4176 39.8337 32.0599 -3.9285 -3.9459 -11.4159
# 2 39.8337 92.9793 38.7658 -18.0109 -6.2886 -28.0978
# 3 32.0599 38.7658 100.3033 -15.1709 -17.1846 -4.9226
# 4 -3.9285 -18.0109 -15.1709 36.0285 -12.6332 -2.1290
# 5 -3.9459 -6.2886 -17.1846 -12.6332 20.1227 5.6912
# 6 -11.4159 -28.0978 -4.9226 -2.1290 5.6912 35.1725
#
#
#
# Elastic Compliance Matrix: (Units=1/GPa)
#
#
# Indices 1 2 3 4 5 6 
#
# 1 0.022154 -0.008918 -0.006290 -0.007737 -0.008708 0.000127
# 2 -0.008918 0.022935 -0.001885 0.013396 0.008071 0.014669
# 3 -0.006290 -0.001885 0.019030 0.014881 0.024906 -0.004013
# 4 -0.007737 0.013396 0.014881 0.057753 0.050030 0.005673
# 5 -0.008708 0.008071 0.024906 0.050030 0.105133 -0.006876
# 6 0.000127 0.014669 -0.004013 0.005673 -0.006876 0.041085
#
#
# Mechanical properties :
#
#
# Convention : Reuss Voigt Hill
#
# Bulk Modulus (GPa) = 33.40866 53.55767 43.48317
# Shear Modulus (GPa) = 16.01260 28.26745 22.14003
#
# Velocity S-wave (km/s) = 2.86329 3.80433 3.36685
# Velocity P-wave (km/s) = 5.29495 6.83511 6.11373
#
# Compressibility (1/GPa) = 0.02993235
#
# Stress axis : x y z
#
# Youngs Moduli (GPa) = 45.13759 43.60133 52.54972
#
# Poissons Ratio (x) = 0.38884 0.33056
# Poissons Ratio (y) = 0.40254 0.09905
# Poissons Ratio (z) = 0.28394 0.08218
#
# Static dielectric constant tensor:
#      x y z
#    x 3.045170 -0.435000 -0.126500 
#    y -0.435000 3.652360 -0.360200 
#    z -0.126500 -0.360200 4.100180 
# 
# 
# High freq. dielectric constant tensor:
#      x y z
#    x 1.702080 -0.043380 -0.024650 
#    y -0.043380 1.758870 -0.018290 
#    z -0.024650 -0.018290 1.780860 
# 
# From -- ./inp_files/182514.got.cif
#   From: 2010.06.25/outbox.cif.g09.slc.cpg/sg2_92_cif.got.tgz:182514.got - 2010.06.27 13:26:56.
