data_PCOD8041310
_publ_section_title
;
Structure prediction by ZEFSAII (Michael W. Deem and Ramdas Pophale) SiO2 
 PCOD8041310
Probable space group: P -1
;
_chemical_formula_sum "Si O2"
_cell_formula_units_Z 16
_cell_length_a 12.560844
_cell_length_b 12.560854
_cell_length_c 25.269057
_cell_angle_alpha 22.723110
_cell_angle_beta 145.972618
_cell_angle_gamma 144.261206
_cell_volume 840.943314
_symmetry_space_group_name_H-M "P -1"
_symmetry_group_IT_number 2
_symmetry_cell_setting 'triclinic'
loop_
_space_group_symop_operation_xyz
x,y,z
-x,-y,-z
loop_
_atom_site_type_symbol
_atom_site_label
_atom_site_fract_x
_atom_site_fract_y
_atom_site_fract_z
Si Si1 0.618837 0.617795 0.147629
Si Si2 0.884106 0.045473 0.665811
Si Si3 0.469463 0.119020 0.809333
Si Si4 0.711283 0.549907 0.334193
Si Si5 0.071657 0.721219 0.809328
Si Si6 0.765442 0.766472 0.852376
Si Si7 0.854871 0.327898 0.817241
Si Si8 0.987796 0.176833 0.835382
O O1 0.603147 0.557422 0.230976
O O2 0.460622 0.375453 0.163909
O O3 0.831643 0.610753 0.215667
O O4 0.568041 0.921453 0.978013
O O5 0.788415 0.834102 0.769040
O O6 0.924155 0.868983 0.712542
O O7 0.734321 0.234316 0.500004
O O8 0.081790 0.234758 0.683455
O O9 0.418485 0.363308 0.712548
O O10 0.623200 0.269750 0.759496
O O11 0.277308 0.939290 0.783416
O O12 0.970771 0.617323 0.759492
O O13 0.100528 0.453947 0.978008
O O14 0.826446 0.047333 0.784330
O O15 0.890431 0.351812 0.757759
O O16 0.938072 0.070278 0.991657
#
# Coordination Sequence:
#
# PCOD8041310 Si02
#       8
#     2   2   2   2   2   2   2   2
#     4  10  19  32  53  78 105 136 168 211 257 304
#     4  10  20  34  52  77 107 140 167 211 258 305
#     4   9  19  33  51  79 106 133 170 211 255 304
#     4  10  20  34  52  77 107 140 167 211 258 305
#     4   9  19  33  51  79 106 133 170 211 255 304
#     4  10  19  32  53  78 105 136 168 211 257 304
#     4   9  18  32  55  76 102 138 167 212 258 299
#     4   9  18  34  51  78 106 130 173 212 254 303
#
# _framework density 19.026251999999999
#
# number of rings (size 3 to 8) (size 9 to 14) (size 15 to 20)
#    0.000    2.500    1.250    0.750    1.750    1.500 
#    0.000    5.000    0.000    1.500    0.000    0.000 
#    0.000    0.000    0.000    0.000    0.000    0.000 
#
# Total GULP energy -198411.673260 kJ/mol
# GULP energy per Si atom -12400.729579 kJ/mol
# Density = 1.898295 g / cm^3
# Si number density = 19.026252 Si / 1000 Ang^3
#
#
#
# Elastic Constant Matrix: (Units=GPa)
#
#
# Indices 1 2 3 4 5 6 
#
# 1 144.7073 77.3626 37.6004 -12.0472 19.8828 -1.6546
# 2 77.3626 125.1243 29.9137 -12.9947 12.2092 -0.6941
# 3 37.6004 29.9137 53.2906 -6.0272 16.0164 -0.8993
# 4 -12.0472 -12.9947 -6.0272 12.7788 1.0669 1.2607
# 5 19.8828 12.2092 16.0164 1.0669 11.3618 -5.2270
# 6 -1.6546 -0.6941 -0.8993 1.2607 -5.2270 27.3661
#
#
#
# Elastic Compliance Matrix: (Units=1/GPa)
#
#
# Indices 1 2 3 4 5 6 
#
# 1 0.013225 -0.005340 0.001351 0.009908 -0.022063 -0.003962
# 2 -0.005340 0.012782 -0.001527 0.007634 -0.003440 -0.001058
# 3 0.001351 -0.001527 0.041968 0.026482 -0.068277 -0.012839
# 4 0.009908 0.007634 0.026482 0.116689 -0.082814 -0.019530
# 5 -0.022063 -0.003440 -0.068277 -0.082814 0.256994 0.049237
# 6 -0.003962 -0.001058 -0.012839 -0.019530 0.049237 0.046157
#
#
# Mechanical properties :
#
#
# Convention : Reuss Voigt Hill
#
# Bulk Modulus (GPa) = 17.56188 68.09729 42.82959
# Shear Modulus (GPa) = 9.65567 22.18439 15.92003
#
# Velocity S-wave (km/s) = 2.25520 3.41836 2.89578
# Velocity P-wave (km/s) = 4.00395 7.17281 5.80865
#
# Compressibility (1/GPa) = 0.05694150
#
# Stress axis : x y z
#
# Youngs Moduli (GPa) = 75.61176 78.23717 23.82762
#
# Poissons Ratio (x) = 0.41781 -0.03218
# Poissons Ratio (y) = 0.40379 0.03639
# Poissons Ratio (z) = -0.10213 0.11949
#
# Static dielectric constant tensor:
#      x y z
#    x 3.537250 0.043470 0.091290 
#    y 0.043470 3.600750 -0.087530 
#    z 0.091290 -0.087530 3.170910 
# 
# 
# High freq. dielectric constant tensor:
#      x y z
#    x 1.733390 0.007290 0.003920 
#    y 0.007290 1.748640 -0.007330 
#    z 0.003920 -0.007330 1.702570 
# 
# From -- ./inp_files/307339.got.cif
#   From: 2010.06.25/outbox.cif.g09.slc.cpg/sg2_154_cif.got.tgz:307339.got - 2010.06.27 13:26:56.
