data_PCOD8041210
_publ_section_title
;
Structure prediction by ZEFSAII (Michael W. Deem and Ramdas Pophale) SiO2 
 PCOD8041210
Probable space group: P -1
;
_chemical_formula_sum "Si O2"
_cell_formula_units_Z 16
_cell_length_a 12.101647
_cell_length_b 8.891365
_cell_length_c 14.654701
_cell_angle_alpha 133.707052
_cell_angle_beta 58.536181
_cell_angle_gamma 92.633184
_cell_volume 836.092644
_symmetry_space_group_name_H-M "P -1"
_symmetry_group_IT_number 2
_symmetry_cell_setting 'triclinic'
loop_
_space_group_symop_operation_xyz
x,y,z
-x,-y,-z
loop_
_atom_site_type_symbol
_atom_site_label
_atom_site_fract_x
_atom_site_fract_y
_atom_site_fract_z
Si Si1 0.936351 0.425869 0.581005
Si Si2 0.362339 0.364308 0.504013
Si Si3 0.705753 0.904007 0.959440
Si Si4 0.175119 0.871107 0.854792
Si Si5 0.450821 0.792757 0.021154
Si Si6 0.764872 0.969080 0.631468
Si Si7 0.362740 0.761985 0.567123
Si Si8 0.689616 0.296812 0.631958
O O1 0.862109 0.647679 0.777364
O O2 0.804429 0.381087 0.585326
O O3 0.000000 0.500000 0.500000
O O4 0.063995 0.182276 0.471378
O O5 0.238764 0.583308 0.712343
O O6 0.294386 0.215799 0.427560
O O7 0.412714 0.479585 0.447965
O O8 0.506119 0.192698 0.433423
O O9 0.660377 0.026060 0.931238
O O10 0.570646 0.866052 0.036311
O O11 0.735549 0.065226 0.083576
O O12 0.210579 0.933823 0.763784
O O13 0.000000 0.000000 0.000000
O O14 0.342947 0.817893 0.162473
O O15 0.536239 0.519950 0.831858
O O16 0.766263 0.084355 0.583226
O O17 0.343302 0.814178 0.489957
#
# Coordination Sequence:
#
# PCOD8041210 Si02
#       8
#     2   2   2   2   2   2   2   2
#     4  11  22  38  60  87 113 148 193 234 284 337
#     4   9  20  35  59  79 112 145 197 231 276 323
#     4  10  20  35  59  88 110 141 194 247 278 318
#     4  10  19  31  55  85 108 138 188 243 274 315
#     4  10  22  35  59  84 113 147 192 236 286 332
#     4  12  22  38  58  85 119 155 184 231 291 347
#     4   9  20  37  56  80 113 144 196 232 274 330
#     4  11  24  38  56  85 123 152 183 230 293 349
#
# _framework density 19.136633
#
# number of rings (size 3 to 8) (size 9 to 14) (size 15 to 20)
#    0.750    1.000    1.250    3.750    5.250    0.500 
#    0.000    0.000    0.000    3.000    0.000    0.000 
#    0.000    0.000    0.000    0.000    0.000    0.000 
#
# Total GULP energy -198349.587136 kJ/mol
# GULP energy per Si atom -12396.849196 kJ/mol
# Density = 1.909308 g / cm^3
# Si number density = 19.136633 Si / 1000 Ang^3
#
#
#
# Elastic Constant Matrix: (Units=GPa)
#
#
# Indices 1 2 3 4 5 6 
#
# 1 73.6685 6.4060 42.6586 -8.7338 -1.5659 -16.4881
# 2 6.4060 59.9115 17.8676 -11.4547 -7.1293 -20.8724
# 3 42.6586 17.8676 119.0128 -12.5121 -15.9051 -14.5845
# 4 -8.7338 -11.4547 -12.5121 22.3235 -4.0702 4.3273
# 5 -1.5659 -7.1293 -15.9051 -4.0702 31.5295 3.2234
# 6 -16.4881 -20.8724 -14.5845 4.3273 3.2234 25.9615
#
#
#
# Elastic Compliance Matrix: (Units=1/GPa)
#
#
# Indices 1 2 3 4 5 6 
#
# 1 0.019955 0.004584 -0.006140 0.003965 -0.001833 0.012476
# 2 0.004584 0.026769 -0.001162 0.011685 0.005035 0.021208
# 3 -0.006140 -0.001162 0.012163 0.004858 0.006151 0.000426
# 4 0.003965 0.011685 0.004858 0.056577 0.012215 0.003695
# 5 -0.001833 0.005035 0.006151 0.012215 0.037480 -0.000350
# 6 0.012476 0.021208 0.000426 0.003695 -0.000350 0.063159
#
#
# Mechanical properties :
#
#
# Convention : Reuss Voigt Hill
#
# Bulk Modulus (GPa) = 18.70869 42.93969 30.82419
# Shear Modulus (GPa) = 20.88950 28.34026 24.61488
#
# Velocity S-wave (km/s) = 3.30752 3.85248 3.59035
# Velocity P-wave (km/s) = 4.93800 6.50200 5.77320
#
# Compressibility (1/GPa) = 0.05345109
#
# Stress axis : x y z
#
# Youngs Moduli (GPa) = 50.11400 37.35602 82.21921
#
# Poissons Ratio (x) = -0.17123 0.50482
# Poissons Ratio (y) = -0.22972 0.09551
# Poissons Ratio (z) = 0.30770 0.04340
#
# Static dielectric constant tensor:
#      x y z
#    x 3.478890 -0.025730 -0.111240 
#    y -0.025730 3.134100 -0.028280 
#    z -0.111240 -0.028280 3.596490 
# 
# 
# High freq. dielectric constant tensor:
#      x y z
#    x 1.747770 -0.004590 -0.005370 
#    y -0.004590 1.707660 -0.007530 
#    z -0.005370 -0.007530 1.753300 
# 
# From -- ./inp_files/514680.got.cif
#   From: 2010.06.25/outbox.cif.g09.slc.cpg/sg2_258_cif.got.tgz:514680.got - 2010.06.27 13:26:56.
