data_PCOD8041080
_publ_section_title
;
Structure prediction by ZEFSAII (Michael W. Deem and Ramdas Pophale) SiO2 
 PCOD8041080
Probable space group: P -1
;
_chemical_formula_sum "Si O2"
_cell_formula_units_Z 16
_cell_length_a 19.861652
_cell_length_b 7.438431
_cell_length_c 8.806517
_cell_angle_alpha 129.865746
_cell_angle_beta 61.036810
_cell_angle_gamma 142.592365
_cell_volume 605.785832
_symmetry_space_group_name_H-M "P -1"
_symmetry_group_IT_number 2
_symmetry_cell_setting 'triclinic'
loop_
_space_group_symop_operation_xyz
x,y,z
-x,-y,-z
loop_
_atom_site_type_symbol
_atom_site_label
_atom_site_fract_x
_atom_site_fract_y
_atom_site_fract_z
Si Si1 0.110747 0.356197 0.495583
Si Si2 0.259539 0.246197 0.305677
Si Si3 0.477299 0.538978 0.315029
Si Si4 0.963278 0.022340 0.209109
Si Si5 0.225659 0.072822 0.597786
Si Si6 0.644780 0.069721 0.644185
Si Si7 0.114026 0.613511 0.914833
Si Si8 0.396382 0.613942 0.943104
O O1 0.218613 0.417673 0.399735
O O2 0.142291 0.654238 0.725712
O O3 0.000000 0.000000 0.500000
O O4 0.070928 0.334354 0.357036
O O5 0.393419 0.509662 0.288756
O O6 0.219774 0.113706 0.448122
O O7 0.210671 0.954970 0.082573
O O8 0.554353 0.890800 0.512735
O O9 0.402280 0.214324 0.332743
O O10 0.557484 0.537618 0.131347
O O11 0.889798 0.092049 0.296186
O O12 0.889205 0.660500 0.173572
O O13 0.000000 0.000000 0.000000
O O14 0.242547 0.825974 0.475825
O O15 0.326140 0.428332 0.765013
O O16 0.671201 0.389462 0.854333
O O17 0.000000 0.500000 0.000000
O O18 0.500000 0.000000 0.000000
#
# Coordination Sequence:
#
# PCOD8041080 Si02
#       8
#     2   2   2   2   2   2   2   2
#     4  10  19  37  53  74 109 139 182 234 270 314
#     4  11  18  30  54  79 106 140 184 216 281 319
#     4   8  16  24  40  74 104 133 167 221 266 329
#     4  11  23  39  55  78 114 150 185 227 270 322
#     4  10  19  30  48  76 108 149 177 220 274 324
#     4   8  15  27  42  64 111 139 170 209 278 321
#     4  11  20  35  59  77 104 147 183 228 277 316
#     4   9  16  27  43  71 108 141 172 220 275 325
#
# _framework density 26.411975999999999
#
# number of rings (size 3 to 8) (size 9 to 14) (size 15 to 20)
#    0.000    2.250    5.000    2.250    5.250    1.000 
#    0.000    2.500    0.000    0.000    0.000    3.500 
#    0.000    9.500    0.000    0.125    0.000    0.000 
#
# Total GULP energy -198348.682752 kJ/mol
# GULP energy per Si atom -12396.792672 kJ/mol
# Density = 2.635186 g / cm^3
# Si number density = 26.411976 Si / 1000 Ang^3
#
#
#
# Elastic Constant Matrix: (Units=GPa)
#
#
# Indices 1 2 3 4 5 6 
#
# 1 209.8283 49.8530 107.8854 6.3354 -11.9390 39.9462
# 2 49.8530 53.1262 47.3185 7.1458 -0.4940 16.5667
# 3 107.8854 47.3185 266.3512 9.3828 -8.6948 29.8872
# 4 6.3354 7.1458 9.3828 45.2097 14.7643 -7.6592
# 5 -11.9390 -0.4940 -8.6948 14.7643 47.7354 3.4154
# 6 39.9462 16.5667 29.8872 -7.6592 3.4154 49.1947
#
#
#
# Elastic Compliance Matrix: (Units=1/GPa)
#
#
# Indices 1 2 3 4 5 6 
#
# 1 0.007598 -0.004043 -0.001768 -0.001509 0.002298 -0.004128
# 2 -0.004043 0.026893 -0.002417 -0.004184 0.000478 -0.004989
# 3 -0.001768 -0.002417 0.005070 -0.000854 0.000794 -0.001019
# 4 -0.001509 -0.004184 -0.000854 0.027728 -0.009735 0.008146
# 5 0.002298 0.000478 0.000794 -0.009735 0.025097 -0.005767
# 6 -0.004128 -0.004989 -0.001019 0.008146 -0.005767 0.027647
#
#
# Mechanical properties :
#
#
# Convention : Reuss Voigt Hill
#
# Bulk Modulus (GPa) = 43.28125 104.37993 73.83059
# Shear Modulus (GPa) = 34.67603 50.04455 42.36029
#
# Velocity S-wave (km/s) = 3.62731 4.35761 4.00913
# Velocity P-wave (km/s) = 5.82802 8.05755 7.03171
#
# Compressibility (1/GPa) = 0.02310469
#
# Stress axis : x y z
#
# Youngs Moduli (GPa) = 131.62112 37.18392 197.23136
#
# Poissons Ratio (x) = 0.15035 0.34864
# Poissons Ratio (y) = 0.53220 0.47673
# Poissons Ratio (z) = 0.23266 0.08988
#
# Static dielectric constant tensor:
#      x y z
#    x 7.457930 -0.956240 1.977980 
#    y -0.956240 5.866940 -1.974270 
#    z 1.977980 -1.974270 8.636140 
# 
# 
# High freq. dielectric constant tensor:
#      x y z
#    x 2.072800 0.014150 -0.010230 
#    y 0.014150 2.062110 -0.001480 
#    z -0.010230 -0.001480 2.083370 
# 
# From -- ./inp_files/329567.got.cif
#   From: 2010.06.25/outbox.cif.g09.slc.cpg/sg2_165_cif.got.tgz:329567.got - 2010.06.27 13:26:56.
