data_PCOD8041353
_publ_section_title
;
Structure prediction by ZEFSAII (Michael W. Deem and Ramdas Pophale) SiO2 
 PCOD8041353
Probable space group: P -1
;
_chemical_formula_sum "Si O2"
_cell_formula_units_Z 16
_cell_length_a 8.721181
_cell_length_b 14.239829
_cell_length_c 12.280584
_cell_angle_alpha 49.529703
_cell_angle_beta 132.895804
_cell_angle_gamma 106.276729
_cell_volume 813.486201
_symmetry_space_group_name_H-M "P -1"
_symmetry_group_IT_number 2
_symmetry_cell_setting 'triclinic'
loop_
_space_group_symop_operation_xyz
x,y,z
-x,-y,-z
loop_
_atom_site_type_symbol
_atom_site_label
_atom_site_fract_x
_atom_site_fract_y
_atom_site_fract_z
Si Si1 0.827729 0.396507 0.298533
Si Si2 0.523551 0.882903 0.760311
Si Si3 0.522465 0.364556 0.978603
Si Si4 0.064329 0.135393 0.174012
Si Si5 0.342686 0.637802 0.195547
Si Si6 0.916227 0.120637 0.550112
Si Si7 0.279117 0.383846 0.444636
Si Si8 0.227012 0.137216 0.493985
O O1 0.675588 0.503303 0.222700
O O2 0.907868 0.256181 0.503444
O O3 0.037055 0.441008 0.333785
O O4 0.700744 0.376658 0.143388
O O5 0.736219 0.886303 0.795556
O O6 0.331198 0.883432 0.582877
O O7 0.439221 0.011537 0.696689
O O8 0.576514 0.753039 0.955237
O O9 0.640970 0.337677 0.941905
O O10 0.131741 0.164152 0.306488
O O11 0.977557 0.006784 0.229890
O O12 0.872705 0.255568 0.945967
O O13 0.327043 0.494060 0.311402
O O14 0.551374 0.656505 0.344304
O O15 0.040578 0.113754 0.500350
O O16 0.301941 0.259670 0.474476
#
# Coordination Sequence:
#
# PCOD8041353 Si02
#       8
#     2   2   2   2   2   2   2   2
#     4   9  19  36  57  85 109 136 176 222 263 317
#     4  10  19  32  54  86 113 136 173 223 270 311
#     4  10  20  35  59  83 109 138 178 221 264 316
#     4  11  20  33  57  82 110 141 178 219 264 316
#     4  11  23  38  54  76 108 146 179 221 267 315
#     4   9  17  32  54  83 113 136 169 219 270 312
#     4  10  23  39  54  76 109 142 180 221 269 317
#     4  10  19  35  58  81 108 141 177 220 267 318
#
# _framework density 19.668434000000001
#
# number of rings (size 3 to 8) (size 9 to 14) (size 15 to 20)
#    0.000    2.000    0.000    6.750    0.000    6.500 
#    0.000    6.250    0.000    0.000    0.000    0.000 
#    0.000    0.000    0.000    0.000    0.000    0.000 
#
# Total GULP energy -198364.199817 kJ/mol
# GULP energy per Si atom -12397.762489 kJ/mol
# Density = 1.962367 g / cm^3
# Si number density = 19.668434 Si / 1000 Ang^3
#
#
#
# Elastic Constant Matrix: (Units=GPa)
#
#
# Indices 1 2 3 4 5 6 
#
# 1 102.0484 27.4771 35.9417 -11.2456 19.6760 6.1352
# 2 27.4771 92.1001 44.6733 -26.2807 9.7175 9.1480
# 3 35.9417 44.6733 68.4869 -19.3803 11.0300 -1.1834
# 4 -11.2456 -26.2807 -19.3803 28.2494 -0.1571 6.6984
# 5 19.6760 9.7175 11.0300 -0.1571 29.0093 -10.6373
# 6 6.1352 9.1480 -1.1834 6.6984 -10.6373 25.3265
#
#
#
# Elastic Compliance Matrix: (Units=1/GPa)
#
#
# Indices 1 2 3 4 5 6 
#
# 1 0.015464 0.003585 -0.005953 0.008556 -0.014373 -0.013619
# 2 0.003585 0.025072 -0.009409 0.023710 -0.015631 -0.023200
# 3 -0.005953 -0.009409 0.025647 0.005477 -0.001004 0.004169
# 4 0.008556 0.023710 0.005477 0.074710 -0.031295 -0.043285
# 5 -0.014373 -0.015631 -0.001004 -0.031295 0.066234 0.045177
# 6 -0.013619 -0.023200 0.004169 -0.043285 0.045177 0.081781
#
#
# Mechanical properties :
#
#
# Convention : Reuss Voigt Hill
#
# Bulk Modulus (GPa) = 23.45927 53.20219 38.33073
# Shear Modulus (GPa) = 15.30597 26.81991 21.06294
#
# Velocity S-wave (km/s) = 2.79265 3.69670 3.27601
# Velocity P-wave (km/s) = 4.72777 6.73269 5.81725
#
# Compressibility (1/GPa) = 0.04262708
#
# Stress axis : x y z
#
# Youngs Moduli (GPa) = 64.66808 39.88591 38.99164
#
# Poissons Ratio (x) = -0.14298 0.23211
# Poissons Ratio (y) = -0.23181 0.36688
# Poissons Ratio (z) = 0.38496 0.37529
#
# Static dielectric constant tensor:
#      x y z
#    x 3.497110 0.066620 0.154210 
#    y 0.066620 3.776890 -0.489460 
#    z 0.154210 -0.489460 3.571980 
# 
# 
# High freq. dielectric constant tensor:
#      x y z
#    x 1.769670 0.008640 0.015590 
#    y 0.008640 1.766180 -0.037970 
#    z 0.015590 -0.037970 1.748370 
# 
# From -- ./inp_files/179048.got.cif
#   From: 2010.06.25/outbox.cif.g09.slc.cpg/sg2_90_cif.got.tgz:179048.got - 2010.06.27 13:26:56.
