data_PCOD8041821
_publ_section_title
;
Structure prediction by ZEFSAII (Michael W. Deem and Ramdas Pophale) SiO2 
 PCOD8041821
Probable space group: P -1
;
_chemical_formula_sum "Si O2"
_cell_formula_units_Z 16
_cell_length_a 11.089570
_cell_length_b 12.135967
_cell_length_c 11.224219
_cell_angle_alpha 132.673522
_cell_angle_beta 127.205445
_cell_angle_gamma 48.244280
_cell_volume 795.505386
_symmetry_space_group_name_H-M "P -1"
_symmetry_group_IT_number 2
_symmetry_cell_setting 'triclinic'
loop_
_space_group_symop_operation_xyz
x,y,z
-x,-y,-z
loop_
_atom_site_type_symbol
_atom_site_label
_atom_site_fract_x
_atom_site_fract_y
_atom_site_fract_z
Si Si1 0.557224 0.874416 0.053330
Si Si2 0.243172 0.980811 0.360908
Si Si3 0.230712 0.756827 0.489216
Si Si4 0.514690 0.679107 0.414954
Si Si5 0.354164 0.682592 0.761684
Si Si6 0.139460 0.126855 0.660707
Si Si7 0.064410 0.018204 0.925955
Si Si8 0.304104 0.120316 0.254547
O O1 0.755826 0.797887 0.144371
O O2 0.470069 0.967667 0.191959
O O3 0.516891 0.719330 0.888752
O O4 0.500000 0.000000 0.000000
O O5 0.196974 0.097885 0.535411
O O6 0.255254 0.082939 0.329222
O O7 0.093595 0.919848 0.213542
O O8 0.423140 0.819429 0.362559
O O9 0.367588 0.679774 0.411989
O O10 0.312113 0.654993 0.581662
O O11 0.056601 0.744680 0.348358
O O12 0.181246 0.951615 0.622030
O O13 0.605270 0.493284 0.277120
O O14 0.655512 0.719886 0.596782
O O15 0.198218 0.832699 0.837417
O O16 0.154106 0.143236 0.086359
O O17 0.000000 0.000000 0.000000
#
# Coordination Sequence:
#
# PCOD8041821 Si02
#       8
#     2   2   2   2   2   2   2   2
#     4  11  20  35  56  88 113 151 197 234 279 348
#     4  10  19  38  62  82 112 152 202 233 279 347
#     4  10  19  34  56  83 114 148 189 235 285 344
#     4  11  22  35  56  91 117 149 187 241 300 334
#     4  11  21  36  57  85 122 147 185 248 294 331
#     4  10  19  33  60  86 104 151 200 235 269 339
#     4   9  20  38  60  81 108 154 196 231 278 345
#     4  10  20  36  61  84 112 153 197 237 275 353
#
# _framework density 20.113002000000002
#
# number of rings (size 3 to 8) (size 9 to 14) (size 15 to 20)
#    0.000    1.750    5.000    0.750    0.000    0.000 
#    0.000   10.000    0.000    0.000    0.000    0.000 
#    0.000    0.000    0.000    0.000    0.000    0.000 
#
# Total GULP energy -198270.751856 kJ/mol
# GULP energy per Si atom -12391.921991 kJ/mol
# Density = 2.006722 g / cm^3
# Si number density = 20.113002 Si / 1000 Ang^3
#
#
#
# Elastic Constant Matrix: (Units=GPa)
#
#
# Indices 1 2 3 4 5 6 
#
# 1 79.4328 13.7688 39.3380 -8.5072 11.0648 -1.4876
# 2 13.7688 45.4683 39.9045 6.9234 7.0798 0.3994
# 3 39.3380 39.9045 128.6570 -10.2046 38.1983 -10.4475
# 4 -8.5072 6.9234 -10.2046 31.6322 -0.1962 4.0077
# 5 11.0648 7.0798 38.1983 -0.1962 40.5668 -10.5398
# 6 -1.4876 0.3994 -10.4475 4.0077 -10.5398 17.5848
#
#
#
# Elastic Compliance Matrix: (Units=1/GPa)
#
#
# Indices 1 2 3 4 5 6 
#
# 1 0.015204 -0.001670 -0.003778 0.003514 -0.000863 -0.002238
# 2 -0.001670 0.035162 -0.013413 -0.012131 0.006270 -0.002386
# 3 -0.003778 -0.013413 0.017581 0.007381 -0.012881 0.001028
# 4 0.003514 -0.012131 0.007381 0.038627 -0.007822 -0.008534
# 5 -0.000863 0.006270 -0.012881 -0.007822 0.040628 0.018266
# 6 -0.002238 -0.002386 0.001028 -0.008534 0.018266 0.070236
#
#
# Mechanical properties :
#
#
# Convention : Reuss Voigt Hill
#
# Bulk Modulus (GPa) = 33.08334 48.84230 40.96282
# Shear Modulus (GPa) = 18.85117 28.65989 23.75553
#
# Velocity S-wave (km/s) = 3.06480 3.77894 3.44045
# Velocity P-wave (km/s) = 5.38595 6.58613 6.01604
#
# Compressibility (1/GPa) = 0.03022669
#
# Stress axis : x y z
#
# Youngs Moduli (GPa) = 65.77125 28.43939 56.87937
#
# Poissons Ratio (x) = 0.04749 0.21488
# Poissons Ratio (y) = 0.10982 0.76293
# Poissons Ratio (z) = 0.24847 0.38146
#
# Static dielectric constant tensor:
#      x y z
#    x 3.924120 -0.192030 0.480470 
#    y -0.192030 3.431260 -0.462900 
#    z 0.480470 -0.462900 4.155410 
# 
# 
# High freq. dielectric constant tensor:
#      x y z
#    x 1.795290 -0.005410 0.014700 
#    y -0.005410 1.736290 -0.027370 
#    z 0.014700 -0.027370 1.791000 
# 
# From -- ./inp_files/379077.got.cif
#   From: 2010.06.25/outbox.cif.g09.slc.cpg/sg2_190_cif.got.tgz:379077.got - 2010.06.27 13:26:56.
