data_PCOD8041722
_publ_section_title
;
Structure prediction by ZEFSAII (Michael W. Deem and Ramdas Pophale) SiO2 
 PCOD8041722
Probable space group: P -1
;
_chemical_formula_sum "Si O2"
_cell_formula_units_Z 16
_cell_length_a 11.348499
_cell_length_b 5.363308
_cell_length_c 17.151488
_cell_angle_alpha 83.377402
_cell_angle_beta 127.276757
_cell_angle_gamma 97.197299
_cell_volume 823.103496
_symmetry_space_group_name_H-M "P -1"
_symmetry_group_IT_number 2
_symmetry_cell_setting 'triclinic'
loop_
_space_group_symop_operation_xyz
x,y,z
-x,-y,-z
loop_
_atom_site_type_symbol
_atom_site_label
_atom_site_fract_x
_atom_site_fract_y
_atom_site_fract_z
Si Si1 0.591736 0.267004 0.021890
Si Si2 0.764314 0.388560 0.230808
Si Si3 0.479467 0.646219 0.171806
Si Si4 0.674243 0.016074 0.327798
Si Si5 0.536483 0.665177 0.679667
Si Si6 0.299215 0.341969 0.520287
Si Si7 0.917672 0.402573 0.672038
Si Si8 0.782442 0.860875 0.661553
O O1 0.635697 0.307933 0.946369
O O2 0.500000 0.500000 0.000000
O O3 0.733347 0.270261 0.136079
O O4 0.500000 0.000000 0.000000
O O5 0.625260 0.529542 0.199864
O O6 0.908833 0.580285 0.280010
O O7 0.791880 0.167387 0.312539
O O8 0.535718 0.911043 0.222824
O O9 0.401089 0.467885 0.213137
O O10 0.753111 0.799147 0.414779
O O11 0.604620 0.184668 0.359714
O O12 0.467894 0.461105 0.596530
O O13 0.667861 0.840057 0.687974
O O14 0.181209 0.549985 0.446497
O O15 0.304335 0.149365 0.456012
O O16 0.886409 0.622665 0.714610
O O17 0.877622 0.125281 0.700225
#
# Coordination Sequence:
#
# PCOD8041722 Si02
#       8
#     2   2   2   2   2   2   2   2
#     4  10  19  35  60  87 111 141 182 229 280 332
#     4  10  21  37  58  81 121 145 182 227 281 345
#     4   9  20  34  57  91 110 142 181 236 288 326
#     4  10  19  33  57  84 114 145 182 235 287 320
#     4  10  20  36  58  83 112 144 189 246 276 315
#     4   9  21  35  55  85 109 146 196 230 279 321
#     4  10  24  37  55  82 112 158 187 221 277 334
#     4  10  23  39  57  80 110 152 198 228 272 325
#
# _framework density 19.438624999999998
#
# number of rings (size 3 to 8) (size 9 to 14) (size 15 to 20)
#    0.750    1.500    1.250    1.125    5.250    1.500 
#    0.000    6.250    0.000    1.500    0.000    0.000 
#    0.000    0.000    0.000    0.000    0.000    0.000 
#
# Total GULP energy -198231.384156 kJ/mol
# GULP energy per Si atom -12389.461510 kJ/mol
# Density = 1.939438 g / cm^3
# Si number density = 19.438625 Si / 1000 Ang^3
#
#
#
# Elastic Constant Matrix: (Units=GPa)
#
#
# Indices 1 2 3 4 5 6 
#
# 1 58.2782 42.8198 43.4555 0.7523 -8.7528 25.0384
# 2 42.8198 146.7689 38.3322 2.0359 -6.0046 23.8852
# 3 43.4555 38.3322 73.5554 -7.4458 -22.1574 24.1455
# 4 0.7523 2.0359 -7.4458 17.7295 -0.2003 -1.9242
# 5 -8.7528 -6.0046 -22.1574 -0.2003 19.1915 -1.8829
# 6 25.0384 23.8852 24.1455 -1.9242 -1.8829 39.6941
#
#
#
# Elastic Compliance Matrix: (Units=1/GPa)
#
#
# Indices 1 2 3 4 5 6 
#
# 1 0.039918 -0.004481 -0.022059 -0.011649 -0.009776 -0.010094
# 2 -0.004481 0.008903 -0.002473 -0.002030 -0.002255 -0.001232
# 3 -0.022059 -0.002473 0.045146 0.019642 0.040593 -0.009182
# 4 -0.011649 -0.002030 0.019642 0.065646 0.017477 0.000633
# 5 -0.009776 -0.002255 0.040593 0.017477 0.092822 -0.011919
# 6 -0.010094 -0.001232 -0.009182 0.000633 -0.011919 0.037352
#
#
# Mechanical properties :
#
#
# Convention : Reuss Voigt Hill
#
# Bulk Modulus (GPa) = 27.82153 58.64642 43.23397
# Shear Modulus (GPa) = 13.89689 25.58936 19.74313
#
# Velocity S-wave (km/s) = 2.67668 3.63218 3.19041
# Velocity P-wave (km/s) = 4.88840 6.91563 5.98842
#
# Compressibility (1/GPa) = 0.03594339
#
# Stress axis : x y z
#
# Youngs Moduli (GPa) = 25.05123 112.32286 22.15017
#
# Poissons Ratio (x) = 0.50328 0.48860
# Poissons Ratio (y) = 0.11225 0.05477
# Poissons Ratio (z) = 0.55259 0.27776
#
# Static dielectric constant tensor:
#      x y z
#    x 3.111060 -0.015380 -0.394650 
#    y -0.015380 3.713350 -0.092500 
#    z -0.394650 -0.092500 3.766420 
# 
# 
# High freq. dielectric constant tensor:
#      x y z
#    x 1.711550 -0.004880 -0.031500 
#    y -0.004880 1.773330 -0.006360 
#    z -0.031500 -0.006360 1.740070 
# 
# From -- ./inp_files/75842.got.cif
#   From: 2010.06.25/outbox.cif.g09.slc.cpg/sg2_38_cif.got.tgz:75842.got - 2010.06.27 13:26:56.
