data_PCOD8041158
_publ_section_title
;
Structure prediction by ZEFSAII (Michael W. Deem and Ramdas Pophale) SiO2 
 PCOD8041158
Probable space group: P -1
;
_chemical_formula_sum "Si O2"
_cell_formula_units_Z 14
_cell_length_a 9.614984
_cell_length_b 9.338160
_cell_length_c 9.435019
_cell_angle_alpha 90.143082
_cell_angle_beta 84.028974
_cell_angle_gamma 75.323767
_cell_volume 814.682880
_symmetry_space_group_name_H-M "P -1"
_symmetry_group_IT_number 2
_symmetry_cell_setting 'triclinic'
loop_
_space_group_symop_operation_xyz
x,y,z
-x,-y,-z
loop_
_atom_site_type_symbol
_atom_site_label
_atom_site_fract_x
_atom_site_fract_y
_atom_site_fract_z
Si Si1 0.848201 0.470747 0.858866
Si Si2 0.619686 0.842484 0.127011
Si Si3 0.368087 0.431690 0.677028
Si Si4 0.361640 0.439222 0.354387
Si Si5 0.779223 0.311486 0.114654
Si Si6 0.477927 0.826631 0.849843
Si Si7 0.080582 0.269741 0.994041
O O1 0.787198 0.473634 0.706456
O O2 0.850036 0.634414 0.905857
O O3 0.741011 0.410405 0.975686
O O4 0.011051 0.365040 0.861253
O O5 0.629306 0.721361 0.246638
O O6 0.531192 0.003623 0.191844
O O7 0.541685 0.792888 0.999959
O O8 0.781883 0.859021 0.070277
O O9 0.324766 0.413274 0.519619
O O10 0.526651 0.459514 0.670953
O O11 0.249512 0.572253 0.752091
O O12 0.422285 0.280277 0.273655
O O13 0.683196 0.195942 0.135769
O O14 0.950573 0.220368 0.090723
#
# Coordination Sequence:
#
# PCOD8041158 Si02
#       7
#     2   2   2   2   2   2   2
#     4   9  15  30  53  71 100 122 159 210 242 280
#     4  11  19  34  50  74 101 129 168 202 243 294
#     4  10  19  31  52  75 101 130 163 205 245 290
#     4  10  19  32  50  79  99 127 167 203 245 289
#     4   9  17  33  51  74  96 129 161 203 249 280
#     4  10  21  31  52  74  97 134 167 201 243 289
#     4   9  17  30  53  74 102 122 161 208 246 285
#
# _framework density 17.184601000000001
#
# number of rings (size 3 to 8) (size 9 to 14) (size 15 to 20)
#    0.857    1.429    2.857    0.857    0.000    3.429 
#    0.000    2.857    0.000    0.000    0.000    4.000 
#    0.000    0.000    0.000    0.000    0.000    0.000 
#
# Total GULP energy -173451.120648 kJ/mol
# GULP energy per Si atom -12389.365761 kJ/mol
# Density = 1.714549 g / cm^3
# Si number density = 17.184601 Si / 1000 Ang^3
#
#
#
# Elastic Constant Matrix: (Units=GPa)
#
#
# Indices 1 2 3 4 5 6 
#
# 1 58.4202 19.3486 29.2221 1.5826 5.8347 1.2688
# 2 19.3486 52.5781 35.4751 7.4191 0.8431 6.6311
# 3 29.2221 35.4751 105.4215 4.0925 13.1159 3.9896
# 4 1.5826 7.4191 4.0925 15.2317 3.7633 -2.0006
# 5 5.8347 0.8431 13.1159 3.7633 26.2653 0.1522
# 6 1.2688 6.6311 3.9896 -2.0006 0.1522 15.3248
#
#
#
# Elastic Compliance Matrix: (Units=1/GPa)
#
#
# Indices 1 2 3 4 5 6 
#
# 1 0.021089 -0.005886 -0.003670 0.002700 -0.003063 0.002139
# 2 -0.005886 0.030496 -0.008405 -0.015316 0.006793 -0.012587
# 3 -0.003670 -0.008405 0.013991 0.002345 -0.006242 0.000666
# 4 0.002700 -0.015316 0.002345 0.077385 -0.012460 0.016019
# 5 -0.003063 0.006793 -0.006242 -0.012460 0.043456 -0.003119
# 6 0.002139 -0.012587 0.000666 0.016019 -0.003119 0.072472
#
#
# Mechanical properties :
#
#
# Convention : Reuss Voigt Hill
#
# Bulk Modulus (GPa) = 33.72118 42.72348 38.22233
# Shear Modulus (GPa) = 16.40989 20.18928 18.29959
#
# Velocity S-wave (km/s) = 3.09353 3.43132 3.26679
# Velocity P-wave (km/s) = 5.69433 6.37292 6.04316
#
# Compressibility (1/GPa) = 0.02965496
#
# Stress axis : x y z
#
# Youngs Moduli (GPa) = 47.41869 32.79125 71.47217
#
# Poissons Ratio (x) = 0.19302 0.26227
# Poissons Ratio (y) = 0.27912 0.60070
# Poissons Ratio (z) = 0.17401 0.27560
#
# Static dielectric constant tensor:
#      x y z
#    x 3.258800 -0.029660 -0.004330 
#    y -0.029660 2.939360 0.071200 
#    z -0.004330 0.071200 3.040070 
# 
# 
# High freq. dielectric constant tensor:
#      x y z
#    x 1.669880 0.001710 0.003440 
#    y 0.001710 1.643010 0.005470 
#    z 0.003440 0.005470 1.637780 
# 
# From -- ./inp_files/154606.got.cif
#   From: 2010.06.25/outbox.cif.g09.slc.cpg/sg2_78_cif.got.tgz:154606.got - 2010.06.27 13:26:56.
