data_PCOD8041203
_publ_section_title
;
Structure prediction by ZEFSAII (Michael W. Deem and Ramdas Pophale) SiO2 
 PCOD8041203
Probable space group: P -1
;
_chemical_formula_sum "Si O2"
_cell_formula_units_Z 16
_cell_length_a 9.625335
_cell_length_b 12.733513
_cell_length_c 8.729717
_cell_angle_alpha 50.798278
_cell_angle_beta 74.187319
_cell_angle_gamma 60.830905
_cell_volume 722.986024
_symmetry_space_group_name_H-M "P -1"
_symmetry_group_IT_number 2
_symmetry_cell_setting 'triclinic'
loop_
_space_group_symop_operation_xyz
x,y,z
-x,-y,-z
loop_
_atom_site_type_symbol
_atom_site_label
_atom_site_fract_x
_atom_site_fract_y
_atom_site_fract_z
Si Si1 0.165027 0.512944 0.680610
Si Si2 0.109299 0.246173 0.811827
Si Si3 0.826626 0.521325 0.968518
Si Si4 0.654223 0.359436 0.029535
Si Si5 0.865474 0.018605 0.756502
Si Si6 0.226288 0.698521 0.271580
Si Si7 0.791458 0.052423 0.394164
Si Si8 0.822094 0.756515 0.540585
O O1 0.090765 0.397796 0.761231
O O2 0.276369 0.542607 0.495165
O O3 0.013341 0.676637 0.588669
O O4 0.265077 0.459370 0.858464
O O5 0.216743 0.232393 0.640058
O O6 0.943762 0.252298 0.801226
O O7 0.181615 0.106518 0.035450
O O8 0.813653 0.381510 0.014407
O O9 0.747366 0.660852 0.747730
O O10 0.000000 0.500000 0.000000
O O11 0.646648 0.338975 0.868287
O O12 0.500000 0.500000 0.000000
O O13 0.654161 0.213118 0.244593
O O14 0.775680 0.168130 0.744782
O O15 0.804309 0.048367 0.575423
O O16 0.054827 0.966724 0.736366
O O17 0.741815 0.922271 0.479370
#
# Coordination Sequence:
#
# PCOD8041203 Si02
#       8
#     2   2   2   2   2   2   2   2
#     4  10  19  31  54  87 121 151 193 248 308 347
#     4  11  18  30  52  91 123 149 188 254 313 344
#     4  10  21  38  60  90 120 157 205 251 298 349
#     4  12  26  42  61  87 126 168 201 242 302 373
#     4  11  21  32  58  89 123 152 197 263 307 342
#     4  11  19  36  54  85 121 156 201 249 304 355
#     4  11  22  36  56  88 125 157 202 250 309 355
#     4  10  19  32  56  89 122 154 194 253 308 350
#
# _framework density 22.130443
#
# number of rings (size 3 to 8) (size 9 to 14) (size 15 to 20)
#    0.000    1.250    3.750    6.375    5.250    0.000 
#    0.000    3.125    0.000    0.000    0.000    5.250 
#    0.000    0.000    0.000    0.000    0.000    0.000 
#
# Total GULP energy -198260.544417 kJ/mol
# GULP energy per Si atom -12391.284026 kJ/mol
# Density = 2.208007 g / cm^3
# Si number density = 22.130443 Si / 1000 Ang^3
#
#
#
# Elastic Constant Matrix: (Units=GPa)
#
#
# Indices 1 2 3 4 5 6 
#
# 1 15.5393 16.8256 9.8722 -2.4305 -3.7219 4.1734
# 2 16.8256 145.3134 67.1067 -0.0995 -1.0395 15.4218
# 3 9.8722 67.1067 208.3455 10.6011 -17.1959 3.3736
# 4 -2.4305 -0.0995 10.6011 47.5098 12.4719 -3.8585
# 5 -3.7219 -1.0395 -17.1959 12.4719 10.1715 -5.6370
# 6 4.1734 15.4218 3.3736 -3.8585 -5.6370 25.7994
#
#
#
# Elastic Compliance Matrix: (Units=1/GPa)
#
#
# Indices 1 2 3 4 5 6 
#
# 1 0.084031 -0.011621 0.004336 -0.009618 0.049936 0.002259
# 2 -0.011621 0.011478 -0.005401 0.006494 -0.025036 -0.008774
# 3 0.004336 -0.005401 0.009486 -0.010090 0.033359 0.007067
# 4 -0.009618 0.006494 -0.010090 0.042482 -0.078551 -0.011816
# 5 0.049936 -0.025036 0.033359 -0.078551 0.297674 0.055817
# 6 0.002259 -0.008774 0.007067 -0.011816 0.055817 0.053144
#
#
# Mechanical properties :
#
#
# Convention : Reuss Voigt Hill
#
# Bulk Modulus (GPa) = 12.55931 61.86747 37.21339
# Shear Modulus (GPa) = 9.08745 35.05573 22.07159
#
# Velocity S-wave (km/s) = 2.02860 3.98433 3.16150
# Velocity P-wave (km/s) = 3.34282 7.01306 5.49352
#
# Compressibility (1/GPa) = 0.07962222
#
# Stress axis : x y z
#
# Youngs Moduli (GPa) = 11.90037 87.12311 105.41615
#
# Poissons Ratio (x) = 1.01247 -0.45706
# Poissons Ratio (y) = 0.13830 0.56936
# Poissons Ratio (z) = -0.05160 0.47056
#
# Static dielectric constant tensor:
#      x y z
#    x 3.295870 0.288540 -0.263060 
#    y 0.288540 4.179860 0.506830 
#    z -0.263060 0.506830 4.982550 
# 
# 
# High freq. dielectric constant tensor:
#      x y z
#    x 1.792240 0.033340 -0.018730 
#    y 0.033340 1.875570 0.017390 
#    z -0.018730 0.017390 1.907470 
# 
# From -- ./inp_files/261594.got.cif
#   From: 2010.06.25/outbox.cif.g09.slc.cpg/sg2_131_cif.got.tgz:261594.got - 2010.06.27 13:26:56.
