data_PCOD8041457
_publ_section_title
;
Structure prediction by ZEFSAII (Michael W. Deem and Ramdas Pophale) SiO2 
 PCOD8041457
Probable space group: P -1
;
_chemical_formula_sum "Si O2"
_cell_formula_units_Z 10
_cell_length_a 9.082430
_cell_length_b 16.422145
_cell_length_c 9.012136
_cell_angle_alpha 128.688150
_cell_angle_beta 148.263827
_cell_angle_gamma 40.117715
_cell_volume 454.326469
_symmetry_space_group_name_H-M "P -1"
_symmetry_group_IT_number 2
_symmetry_cell_setting 'triclinic'
loop_
_space_group_symop_operation_xyz
x,y,z
-x,-y,-z
loop_
_atom_site_type_symbol
_atom_site_label
_atom_site_fract_x
_atom_site_fract_y
_atom_site_fract_z
Si Si1 0.374839 0.996141 0.049171
Si Si2 0.602424 0.593736 0.309130
Si Si3 0.579484 0.385257 0.146568
Si Si4 0.284134 0.237798 0.727626
Si Si5 0.601799 0.141922 0.581190
O O1 0.992061 0.035331 0.757779
O O2 0.381506 0.093541 0.274736
O O3 0.500000 0.000000 0.000000
O O4 0.617473 0.852198 0.150216
O O5 0.493527 0.527018 0.260262
O O6 0.524702 0.724813 0.457116
O O7 0.000000 0.500000 0.500000
O O8 0.362955 0.631705 0.001560
O O9 0.914038 0.283491 0.407366
O O10 0.294433 0.359913 0.918541
O O11 0.551926 0.160604 0.736815
#
# Coordination Sequence:
#
# PCOD8041457 Si02
#       5
#     2   2   2   2   2
#     4  12  26  42  59  85 126 164 199 245 297 353
#     4  10  19  34  60  95 128 140 192 254 307 341
#     4  10  19  32  59  93 122 151 179 249 312 338
#     4  11  21  38  62  91 121 152 202 249 295 349
#     4  11  22  38  65  91 114 158 204 244 295 354
#
# _framework density 22.010604000000001
#
# number of rings (size 3 to 8) (size 9 to 14) (size 15 to 20)
#    0.000    1.200    4.000    5.400    2.800    0.000 
#    0.000    0.000    0.000    7.200    0.000    0.000 
#    0.000    0.000    0.000    0.000    0.000    0.000 
#
# Total GULP energy -123949.432910 kJ/mol
# GULP energy per Si atom -12394.943291 kJ/mol
# Density = 2.196051 g / cm^3
# Si number density = 22.010604 Si / 1000 Ang^3
#
#
#
# Elastic Constant Matrix: (Units=GPa)
#
#
# Indices 1 2 3 4 5 6 
#
# 1 53.7503 7.5220 12.6720 -6.6968 -10.9370 24.9181
# 2 7.5220 128.2264 31.7184 6.6773 -13.8315 42.6001
# 3 12.6720 31.7184 97.5737 -6.6215 11.0115 9.1670
# 4 -6.6968 6.6773 -6.6215 45.6801 8.4032 8.6830
# 5 -10.9370 -13.8315 11.0115 8.4032 14.8809 -7.5638
# 6 24.9181 42.6001 9.1670 8.6830 -7.5638 30.7175
#
#
#
# Elastic Compliance Matrix: (Units=1/GPa)
#
#
# Indices 1 2 3 4 5 6 
#
# 1 0.072565 0.035621 -0.015287 0.014546 0.039708 -0.098038
# 2 0.035621 0.033656 -0.012339 0.005598 0.029820 -0.066129
# 3 -0.015287 -0.012339 0.018986 0.005635 -0.032719 0.014198
# 4 0.014546 0.005598 0.005635 0.036629 -0.028601 -0.038642
# 5 0.039708 0.029820 -0.032719 -0.028601 0.155620 -0.017398
# 6 -0.098038 -0.066129 0.014198 -0.038642 -0.017398 0.206195
#
#
# Mechanical properties :
#
#
# Convention : Reuss Voigt Hill
#
# Bulk Modulus (GPa) = 7.08230 42.59722 24.83976
# Shear Modulus (GPa) = 9.01344 33.43157 21.22251
#
# Velocity S-wave (km/s) = 2.02582 3.90152 3.10852
# Velocity P-wave (km/s) = 2.94900 6.30006 4.91871
#
# Compressibility (1/GPa) = 0.14119701
#
# Stress axis : x y z
#
# Youngs Moduli (GPa) = 13.78074 29.71221 52.67023
#
# Poissons Ratio (x) = -1.05838 0.80516
# Poissons Ratio (y) = -0.49088 0.64992
# Poissons Ratio (z) = 0.21066 0.36663
#
# Static dielectric constant tensor:
#      x y z
#    x 3.354510 0.473220 0.122560 
#    y 0.473220 4.434620 0.256930 
#    z 0.122560 0.256930 4.184050 
# 
# 
# High freq. dielectric constant tensor:
#      x y z
#    x 1.795240 0.039940 0.016850 
#    y 0.039940 1.880810 0.004670 
#    z 0.016850 0.004670 1.885730 
# 
# From -- ./inp_files/21987.got.cif
#   From: 2010.06.25/outbox.cif.g09.slc.cpg/sg2_11_cif.got.tgz:21987.got - 2010.06.27 13:26:56.
