data_PCOD8041863
_publ_section_title
;
Structure prediction by ZEFSAII (Michael W. Deem and Ramdas Pophale) SiO2 
 PCOD8041863
Probable space group: P -1
;
_chemical_formula_sum "Si O2"
_cell_formula_units_Z 14
_cell_length_a 26.790293
_cell_length_b 11.943419
_cell_length_c 8.689870
_cell_angle_alpha 140.843582
_cell_angle_beta 36.011484
_cell_angle_gamma 158.191906
_cell_volume 603.510787
_symmetry_space_group_name_H-M "P -1"
_symmetry_group_IT_number 2
_symmetry_cell_setting 'triclinic'
loop_
_space_group_symop_operation_xyz
x,y,z
-x,-y,-z
loop_
_atom_site_type_symbol
_atom_site_label
_atom_site_fract_x
_atom_site_fract_y
_atom_site_fract_z
Si Si1 0.421883 0.801654 0.636648
Si Si2 0.821025 0.497270 0.887770
Si Si3 0.696770 0.891264 0.066341
Si Si4 0.863108 0.867455 0.768426
Si Si5 0.875321 0.996153 0.212834
Si Si6 0.300530 0.755562 0.403917
Si Si7 0.375298 0.334925 0.312063
O O1 0.358366 0.498087 0.444620
O O2 0.500000 0.000000 0.500000
O O3 0.526695 0.959185 0.693195
O O4 0.292743 0.718173 0.916870
O O5 0.748834 0.289316 0.695133
O O6 0.976873 0.674337 0.728160
O O7 0.846926 0.748393 0.068948
O O8 0.542914 0.587348 0.214203
O O9 0.764735 0.190546 0.278050
O O10 0.807150 0.916126 0.838169
O O11 0.667574 0.874180 0.939597
O O12 0.748051 0.518460 0.709675
O O13 0.000000 0.000000 0.500000
O O14 0.893721 0.032224 0.022001
O O15 0.736882 0.877520 0.491107
#
# Coordination Sequence:
#
# PCOD8041863 Si02
#       7
#     2   2   2   2   2   2   2
#     4  10  19  33  62  93 126 161 214 259 304 371
#     4   9  19  36  60  88 126 165 207 254 311 373
#     4  10  22  41  65  92 126 160 212 259 304 374
#     4  11  25  40  65  93 126 163 208 259 315 370
#     4   9  20  38  62  89 121 169 204 254 316 372
#     4  10  22  40  61  93 120 169 208 255 310 368
#     4   9  20  40  63  91 124 169 205 251 321 365
#
# _framework density 23.197597999999999
#
# number of rings (size 3 to 8) (size 9 to 14) (size 15 to 20)
#    0.000    2.286    0.000    1.286   10.000    2.286 
#    0.000    5.000    0.000    0.000    0.000    0.000 
#    0.000    0.000    0.000    0.000    0.000    0.000 
#
# Total GULP energy -173506.976950 kJ/mol
# GULP energy per Si atom -12393.355496 kJ/mol
# Density = 2.314480 g / cm^3
# Si number density = 23.197598 Si / 1000 Ang^3
#
#
#
# Elastic Constant Matrix: (Units=GPa)
#
#
# Indices 1 2 3 4 5 6 
#
# 1 60.3184 22.2629 28.0439 4.3708 9.8086 17.1971
# 2 22.2629 58.1575 35.0711 -10.9473 16.8318 22.2390
# 3 28.0439 35.0711 121.1855 -11.3431 15.1323 16.9469
# 4 4.3708 -10.9473 -11.3431 46.4666 5.7739 1.4826
# 5 9.8086 16.8318 15.1323 5.7739 46.1996 -0.0400
# 6 17.1971 22.2390 16.9469 1.4826 -0.0400 34.1904
#
#
#
# Elastic Compliance Matrix: (Units=1/GPa)
#
#
# Indices 1 2 3 4 5 6 
#
# 1 0.021957 -0.004131 -0.003043 -0.003351 -0.001747 -0.006705
# 2 -0.004131 0.032744 -0.003821 0.009097 -0.010953 -0.017734
# 3 -0.003043 -0.003821 0.010684 0.002255 -0.001744 -0.001379
# 4 -0.003351 0.009097 0.002255 0.025549 -0.006540 -0.006465
# 5 -0.001747 -0.010953 -0.001744 -0.006540 0.027403 0.009183
# 6 -0.006705 -0.017734 -0.001379 -0.006465 0.009183 0.045130
#
#
# Mechanical properties :
#
#
# Convention : Reuss Voigt Hill
#
# Bulk Modulus (GPa) = 23.04498 45.60192 34.32345
# Shear Modulus (GPa) = 25.00986 35.65689 30.33337
#
# Velocity S-wave (km/s) = 3.28704 3.92483 3.62001
# Velocity P-wave (km/s) = 4.93578 6.34348 5.68339
#
# Compressibility (1/GPa) = 0.04339340
#
# Stress axis : x y z
#
# Youngs Moduli (GPa) = 45.54378 30.54014 93.60152
#
# Poissons Ratio (x) = 0.12616 0.28487
# Poissons Ratio (y) = 0.18814 0.35765
# Poissons Ratio (z) = 0.13861 0.11669
#
# Static dielectric constant tensor:
#      x y z
#    x 3.923380 0.191410 0.072170 
#    y 0.191410 4.329840 0.010260 
#    z 0.072170 0.010260 4.358220 
# 
# 
# High freq. dielectric constant tensor:
#      x y z
#    x 1.890180 0.019060 0.006650 
#    y 0.019060 1.908330 0.001780 
#    z 0.006650 0.001780 1.927040 
# 
# From -- ./inp_files/181620.got.cif
#   From: 2010.06.25/outbox.cif.g09.slc.cpg/sg2_91_cif.got.tgz:181620.got - 2010.06.27 13:26:56.
