data_PCOD8041244
_publ_section_title
;
Structure prediction by ZEFSAII (Michael W. Deem and Ramdas Pophale) SiO2 
 PCOD8041244
Probable space group: P -1
;
_chemical_formula_sum "Si O2"
_cell_formula_units_Z 16
_cell_length_a 12.244931
_cell_length_b 16.599533
_cell_length_c 12.953471
_cell_angle_alpha 67.439672
_cell_angle_beta 156.930669
_cell_angle_gamma 110.281218
_cell_volume 952.601320
_symmetry_space_group_name_H-M "P -1"
_symmetry_group_IT_number 2
_symmetry_cell_setting 'triclinic'
loop_
_space_group_symop_operation_xyz
x,y,z
-x,-y,-z
loop_
_atom_site_type_symbol
_atom_site_label
_atom_site_fract_x
_atom_site_fract_y
_atom_site_fract_z
Si Si1 0.232845 0.615668 0.176087
Si Si2 0.924585 0.964539 0.813808
Si Si3 0.697299 0.409213 0.329530
Si Si4 0.151827 0.514139 0.786916
Si Si5 0.834379 0.561028 0.683193
Si Si6 0.079716 0.774673 0.098126
Si Si7 0.414052 0.048370 0.269553
Si Si8 0.472229 0.767285 0.639158
O O1 0.527665 0.602303 0.381903
O O2 0.185548 0.541080 0.256730
O O3 0.235291 0.707788 0.190479
O O4 0.989193 0.614262 0.880658
O O5 0.751683 0.985878 0.757350
O O6 0.690247 0.989368 0.512187
O O7 0.031711 0.865013 0.950776
O O8 0.185184 0.029543 0.990969
O O9 0.762907 0.418009 0.261046
O O10 0.657873 0.308042 0.368262
O O11 0.953454 0.440279 0.605779
O O12 0.425345 0.466746 0.095124
O O13 0.999714 0.570041 0.715795
O O14 0.270434 0.790790 0.356304
O O15 0.778555 0.736186 0.883419
O O16 0.495522 0.149021 0.300392
#
# Coordination Sequence:
#
# PCOD8041244 Si02
#       8
#     2   2   2   2   2   2   2   2
#     4  10  20  30  44  65  85 113 150 179 211 257
#     4   9  16  27  40  58  87 119 145 169 209 260
#     4  10  20  32  48  69  88 114 151 181 216 266
#     4  10  20  34  49  64  89 119 146 183 224 257
#     4  10  19  32  46  61  87 115 143 182 219 252
#     4  11  20  29  44  65  92 121 148 181 213 253
#     4   9  16  26  40  60  86 118 145 168 210 261
#     4  11  19  28  45  66  92 119 146 181 214 256
#
# _framework density 16.796112000000001
#
# number of rings (size 3 to 8) (size 9 to 14) (size 15 to 20)
#    0.000    2.000    0.000    7.500    0.000    2.000 
#    0.000    0.000    0.000    0.000    0.000    0.000 
#    0.000    6.000    0.000    0.000    0.000    1.125 
#
# Total GULP energy -198361.544936 kJ/mol
# GULP energy per Si atom -12397.596559 kJ/mol
# Density = 1.675788 g / cm^3
# Si number density = 16.796112 Si / 1000 Ang^3
#
#
#
# Elastic Constant Matrix: (Units=GPa)
#
#
# Indices 1 2 3 4 5 6 
#
# 1 55.8491 31.6950 12.1467 -4.4763 11.4294 -3.0247
# 2 31.6950 110.8117 31.2592 4.8904 5.7271 -2.0693
# 3 12.1467 31.2592 89.7019 3.6120 17.9811 -0.5495
# 4 -4.4763 4.8904 3.6120 21.9187 0.3282 5.0397
# 5 11.4294 5.7271 17.9811 0.3282 16.7633 0.9425
# 6 -3.0247 -2.0693 -0.5495 5.0397 0.9425 16.9970
#
#
#
# Elastic Compliance Matrix: (Units=1/GPa)
#
#
# Indices 1 2 3 4 5 6 
#
# 1 0.025912 -0.007386 0.002459 0.006120 -0.018068 0.002979
# 2 -0.007386 0.012223 -0.004175 -0.003829 0.005364 0.000877
# 3 0.002459 -0.004175 0.015796 -0.001322 -0.017268 0.001789
# 4 0.006120 -0.003829 -0.001322 0.051314 -0.001633 -0.014544
# 5 -0.018068 0.005364 -0.017268 -0.001633 0.089121 -0.007578
# 6 0.002979 0.000877 0.001789 -0.014544 -0.007578 0.064261
#
#
# Mechanical properties :
#
#
# Convention : Reuss Voigt Hill
#
# Bulk Modulus (GPa) = 27.99073 45.17384 36.58228
# Shear Modulus (GPa) = 17.31673 23.21990 20.26832
#
# Velocity S-wave (km/s) = 3.21440 3.72217 3.47757
# Velocity P-wave (km/s) = 5.52066 6.73992 6.16053
#
# Compressibility (1/GPa) = 0.03572612
#
# Stress axis : x y z
#
# Youngs Moduli (GPa) = 38.59286 81.81535 63.30903
#
# Poissons Ratio (x) = 0.60425 -0.15565
# Poissons Ratio (y) = 0.28503 0.26430
# Poissons Ratio (z) = -0.09488 0.34156
#
# Static dielectric constant tensor:
#      x y z
#    x 2.730440 0.028180 0.186570 
#    y 0.028180 2.966960 0.080760 
#    z 0.186570 0.080760 3.655200 
# 
# 
# High freq. dielectric constant tensor:
#      x y z
#    x 1.586770 -0.005730 0.020190 
#    y -0.005730 1.637040 0.007190 
#    z 0.020190 0.007190 1.680200 
# 
# From -- ./inp_files/436736.got.cif
#   From: 2010.06.25/outbox.cif.g09.slc.cpg/sg2_219_cif.got.tgz:436736.got - 2010.06.27 13:26:56.
