data_PCOD8041069
_publ_section_title
;
Structure prediction by ZEFSAII (Michael W. Deem and Ramdas Pophale) SiO2 
 PCOD8041069
Probable space group: P -1
;
_chemical_formula_sum "Si O2"
_cell_formula_units_Z 14
_cell_length_a 5.247183
_cell_length_b 13.098932
_cell_length_c 14.449028
_cell_angle_alpha 69.347224
_cell_angle_beta 64.497337
_cell_angle_gamma 89.488456
_cell_volume 826.651066
_symmetry_space_group_name_H-M "P -1"
_symmetry_group_IT_number 2
_symmetry_cell_setting 'triclinic'
loop_
_space_group_symop_operation_xyz
x,y,z
-x,-y,-z
loop_
_atom_site_type_symbol
_atom_site_label
_atom_site_fract_x
_atom_site_fract_y
_atom_site_fract_z
Si Si1 0.662798 0.095699 0.879594
Si Si2 0.501550 0.114657 0.517761
Si Si3 0.565685 0.180390 0.179452
Si Si4 0.454741 0.718641 0.034642
Si Si5 0.889854 0.869767 0.574459
Si Si6 0.017226 0.621940 0.995868
Si Si7 0.707697 0.950076 0.226755
O O1 0.537871 0.089374 0.797748
O O2 0.996516 0.087523 0.833409
O O3 0.629585 0.216040 0.884247
O O4 0.500000 0.000000 0.000000
O O5 0.824443 0.184964 0.443531
O O6 0.395972 0.101180 0.642674
O O7 0.294096 0.180625 0.470079
O O8 0.500000 0.000000 0.500000
O O9 0.438825 0.192234 0.092290
O O10 0.788208 0.292861 0.132973
O O11 0.296840 0.154529 0.297000
O O12 0.752774 0.082666 0.183648
O O13 0.174193 0.634439 0.067918
O O14 0.699992 0.649613 0.046271
O O15 0.000000 0.000000 0.500000
O O16 0.000000 0.500000 0.000000
#
# Coordination Sequence:
#
# PCOD8041069 Si02
#       7
#     2   2   2   2   2   2   2
#     4  12  22  33  48  73 106 143 183 197 240 311
#     4  10  20  31  47  66 104 141 172 205 248 285
#     4  10  22  30  55  74 108 142 170 204 261 299
#     4  10  22  35  53  74 107 137 170 215 255 301
#     4  10  19  30  47  70 101 140 166 205 252 301
#     4  10  21  37  55  75 103 133 173 219 266 303
#     4  12  22  32  49  73 109 148 173 200 244 307
#
# _framework density 16.935804000000001
#
# number of rings (size 3 to 8) (size 9 to 14) (size 15 to 20)
#    0.857    0.571    4.286    3.429    4.000    0.000 
#    0.000    0.000    0.000    0.000    0.000    0.000 
#    0.000   22.857    0.000    0.000    0.000    0.000 
#
# Total GULP energy -173476.489293 kJ/mol
# GULP energy per Si atom -12391.177807 kJ/mol
# Density = 1.689726 g / cm^3
# Si number density = 16.935804 Si / 1000 Ang^3
#
#
#
# Elastic Constant Matrix: (Units=GPa)
#
#
# Indices 1 2 3 4 5 6 
#
# 1 143.6670 31.6193 30.0974 9.5024 -10.9824 -7.4029
# 2 31.6193 89.9991 31.0416 11.1522 -15.4677 0.9444
# 3 30.0974 31.0416 77.0040 13.3777 0.5176 -0.1199
# 4 9.5024 11.1522 13.3777 14.2514 -0.5123 -3.0316
# 5 -10.9824 -15.4677 0.5176 -0.5123 31.2284 9.7440
# 6 -7.4029 0.9444 -0.1199 -3.0316 9.7440 23.2572
#
#
#
# Elastic Compliance Matrix: (Units=1/GPa)
#
#
# Indices 1 2 3 4 5 6 
#
# 1 0.008102 -0.001643 -0.002237 -0.001578 0.001483 0.001807
# 2 -0.001643 0.015842 -0.004402 -0.008131 0.009100 -0.006061
# 3 -0.002237 -0.004402 0.017734 -0.011964 -0.003259 -0.000636
# 4 -0.001578 -0.008131 -0.011964 0.091707 -0.007520 0.014871
# 5 0.001483 0.009100 -0.003259 -0.007520 0.042864 -0.018853
# 6 0.001807 -0.006061 -0.000636 0.014871 -0.018853 0.053653
#
#
# Mechanical properties :
#
#
# Convention : Reuss Voigt Hill
#
# Bulk Modulus (GPa) = 39.81899 55.13187 47.47543
# Shear Modulus (GPa) = 19.62035 28.27486 23.94760
#
# Velocity S-wave (km/s) = 3.40739 4.09042 3.76443
# Velocity P-wave (km/s) = 6.24845 7.41167 6.85478
#
# Compressibility (1/GPa) = 0.02511365
#
# Stress axis : x y z
#
# Youngs Moduli (GPa) = 123.43052 63.12366 56.38745
#
# Poissons Ratio (x) = 0.10374 0.12614
# Poissons Ratio (y) = 0.20284 0.24820
# Poissons Ratio (z) = 0.27612 0.27786
#
# Static dielectric constant tensor:
#      x y z
#    x 3.369700 -0.129450 -0.085350 
#    y -0.129450 2.828020 0.158050 
#    z -0.085350 0.158050 3.087260 
# 
# 
# High freq. dielectric constant tensor:
#      x y z
#    x 1.685240 -0.002950 -0.003410 
#    y -0.002950 1.597110 0.017170 
#    z -0.003410 0.017170 1.641100 
# 
# From -- ./inp_files/96449.got.cif
#   From: 2010.06.25/outbox.cif.g09.slc.cpg/sg2_49_cif.got.tgz:96449.got - 2010.06.27 13:26:56.
