data_PCOD8041484
_publ_section_title
;
Structure prediction by ZEFSAII (Michael W. Deem and Ramdas Pophale) SiO2 
 PCOD8041484
Probable space group: P -1
;
_chemical_formula_sum "Si O2"
_cell_formula_units_Z 16
_cell_length_a 17.350378
_cell_length_b 8.600046
_cell_length_c 8.323556
_cell_angle_alpha 125.109653
_cell_angle_beta 125.338457
_cell_angle_gamma 60.832410
_cell_volume 806.235409
_symmetry_space_group_name_H-M "P -1"
_symmetry_group_IT_number 2
_symmetry_cell_setting 'triclinic'
loop_
_space_group_symop_operation_xyz
x,y,z
-x,-y,-z
loop_
_atom_site_type_symbol
_atom_site_label
_atom_site_fract_x
_atom_site_fract_y
_atom_site_fract_z
Si Si1 0.158070 0.768519 0.791450
Si Si2 0.960208 0.953780 0.756321
Si Si3 0.666552 0.067991 0.977686
Si Si4 0.706079 0.677066 0.996735
Si Si5 0.219936 0.747917 0.224020
Si Si6 0.661131 0.974116 0.551745
Si Si7 0.828979 0.669025 0.446121
Si Si8 0.528287 0.835838 0.067079
O O1 0.149669 0.553719 0.600656
O O2 0.052046 0.915312 0.721549
O O3 0.187619 0.765954 0.010885
O O4 0.239937 0.840861 0.830877
O O5 0.925695 0.751375 0.613158
O O6 0.871563 0.137663 0.708450
O O7 0.000000 0.000000 0.000000
O O8 0.685857 0.857379 0.959237
O O9 0.637483 0.042310 0.744514
O O10 0.572454 0.218953 0.032770
O O11 0.741990 0.479187 0.817888
O O12 0.788857 0.699043 0.234118
O O13 0.610161 0.663455 0.980417
O O14 0.308384 0.854694 0.415022
O O15 0.752485 0.788508 0.552374
O O16 0.568935 0.922037 0.325698
O O17 0.500000 0.000000 0.000000
#
# Coordination Sequence:
#
# PCOD8041484 Si02
#       8
#     2   2   2   2   2   2   2   2
#     4   9  17  30  50  75 100 128 167 208 245 288
#     4   9  16  29  53  77  98 128 167 205 243 294
#     4  10  19  33  50  74 103 130 163 211 249 285
#     4   9  18  34  52  72 100 133 167 202 248 301
#     4   8  16  31  51  73  98 130 166 204 247 299
#     4   9  17  32  52  74  99 128 167 209 245 285
#     4   9  17  32  52  73  98 133 166 199 245 301
#     4   9  18  33  52  72 100 136 167 200 246 297
#
# _framework density 19.845320000000001
#
# number of rings (size 3 to 8) (size 9 to 14) (size 15 to 20)
#    0.000    3.000    0.000    1.500    0.000    0.000 
#    0.000   20.000    0.000    0.000    0.000    0.000 
#    0.000    0.000    0.000    0.000    0.000    0.000 
#
# Total GULP energy -198231.524494 kJ/mol
# GULP energy per Si atom -12389.470281 kJ/mol
# Density = 1.980015 g / cm^3
# Si number density = 19.845320 Si / 1000 Ang^3
#
#
#
# Elastic Constant Matrix: (Units=GPa)
#
#
# Indices 1 2 3 4 5 6 
#
# 1 136.8943 42.5923 47.7283 8.9686 35.5472 -18.6259
# 2 42.5923 81.5989 31.8465 18.2965 14.1279 -11.6183
# 3 47.7283 31.8465 47.8438 16.9421 15.3301 -8.2695
# 4 8.9686 18.2965 16.9421 29.5058 4.4779 -3.8482
# 5 35.5472 14.1279 15.3301 4.4779 28.0509 -3.4882
# 6 -18.6259 -11.6183 -8.2695 -3.8482 -3.4882 21.7251
#
#
#
# Elastic Compliance Matrix: (Units=1/GPa)
#
#
# Indices 1 2 3 4 5 6 
#
# 1 0.015697 -0.001900 -0.011003 0.005622 -0.012927 0.007173
# 2 -0.001900 0.018105 -0.006852 -0.005946 -0.001501 0.004151
# 3 -0.011003 -0.006852 0.043605 -0.016887 -0.003752 -0.000094
# 4 0.005622 -0.005946 -0.016887 0.046259 -0.001900 0.003101
# 5 -0.012927 -0.001501 -0.003752 -0.001900 0.054532 -0.004894
# 6 0.007173 0.004151 -0.000094 0.003101 -0.004894 0.054128
#
#
# Mechanical properties :
#
#
# Convention : Reuss Voigt Hill
#
# Bulk Modulus (GPa) = 26.38794 56.74126 41.56460
# Shear Modulus (GPa) = 17.57671 25.46767 21.52219
#
# Velocity S-wave (km/s) = 2.97928 3.58622 3.29674
# Velocity P-wave (km/s) = 5.01602 6.76770 5.95660
#
# Compressibility (1/GPa) = 0.03789609
#
# Stress axis : x y z
#
# Youngs Moduli (GPa) = 63.70801 55.23276 22.93332
#
# Poissons Ratio (x) = 0.10495 0.25234
# Poissons Ratio (y) = 0.12105 0.15714
# Poissons Ratio (z) = 0.70098 0.37846
#
# Static dielectric constant tensor:
#      x y z
#    x 4.101130 -0.565320 0.181360 
#    y -0.565320 3.623550 0.270300 
#    z 0.181360 0.270300 3.795640 
# 
# 
# High freq. dielectric constant tensor:
#      x y z
#    x 1.772300 -0.029070 0.012870 
#    y -0.029070 1.749540 0.009560 
#    z 0.012870 0.009560 1.764380 
# 
# From -- ./inp_files/193147.got.cif
#   From: 2010.06.25/outbox.cif.g09.slc.cpg/sg2_97_cif.got.tgz:193147.got - 2010.06.27 13:26:56.
