data_PCOD8041073
_publ_section_title
;
Structure prediction by ZEFSAII (Michael W. Deem and Ramdas Pophale) SiO2 
 PCOD8041073
Probable space group: P -1
;
_chemical_formula_sum "Si O2"
_cell_formula_units_Z 16
_cell_length_a 5.217909
_cell_length_b 14.141349
_cell_length_c 12.057982
_cell_angle_alpha 72.296643
_cell_angle_beta 87.071885
_cell_angle_gamma 73.584532
_cell_volume 812.461145
_symmetry_space_group_name_H-M "P -1"
_symmetry_group_IT_number 2
_symmetry_cell_setting 'triclinic'
loop_
_space_group_symop_operation_xyz
x,y,z
-x,-y,-z
loop_
_atom_site_type_symbol
_atom_site_label
_atom_site_fract_x
_atom_site_fract_y
_atom_site_fract_z
Si Si1 0.390043 0.597750 0.548242
Si Si2 0.453643 0.775091 0.053654
Si Si3 0.706467 0.074807 0.171692
Si Si4 0.938771 0.522054 0.623511
Si Si5 0.003556 0.693482 0.187001
Si Si6 0.768941 0.985470 0.432161
Si Si7 0.086651 0.802637 0.358621
Si Si8 0.291766 0.950890 0.165358
O O1 0.500000 0.500000 0.500000
O O2 0.158690 0.577875 0.640218
O O3 0.280757 0.701599 0.444724
O O4 0.643734 0.602712 0.615295
O O5 0.758530 0.719173 0.097871
O O6 0.354509 0.886867 0.073721
O O7 0.271377 0.700655 0.116188
O O8 0.423834 0.807622 0.912267
O O9 0.719576 0.072633 0.305855
O O10 0.529168 0.000637 0.165326
O O11 0.005989 0.035809 0.129396
O O12 0.952094 0.421708 0.730015
O O13 0.000000 0.500000 0.500000
O O14 0.940439 0.771723 0.264948
O O15 0.858037 0.868942 0.421446
O O16 0.500000 0.000000 0.500000
O O17 0.000000 0.000000 0.500000
O O18 0.276217 0.873402 0.293994
#
# Coordination Sequence:
#
# PCOD8041073 Si02
#       8
#     2   2   2   2   2   2   2   2
#     4  10  19  31  50  76 108 145 170 204 265 327
#     4  11  21  31  51  74 107 140 184 206 254 330
#     4  11  21  38  52  72 102 140 182 226 268 296
#     4  10  19  30  47  73 115 145 167 203 251 316
#     4  11  21  32  50  82 112 147 172 204 260 334
#     4  11  24  40  55  77 103 141 191 235 260 302
#     4  10  21  35  55  78 111 150 175 218 272 311
#     4  10  20  31  52  76 104 141 174 212 258 326
#
# _framework density 19.693249999999999
#
# number of rings (size 3 to 8) (size 9 to 14) (size 15 to 20)
#    0.000    1.500    2.500    6.000    5.250    4.000 
#    0.000    0.000    0.000    0.000    0.000    0.000 
#    0.000   20.000    0.000    0.000    0.000    0.000 
#
# Total GULP energy -198315.935283 kJ/mol
# GULP energy per Si atom -12394.745955 kJ/mol
# Density = 1.964843 g / cm^3
# Si number density = 19.693250 Si / 1000 Ang^3
#
#
#
# Elastic Constant Matrix: (Units=GPa)
#
#
# Indices 1 2 3 4 5 6 
#
# 1 149.0575 14.7919 46.2646 -9.0125 13.5325 -1.0896
# 2 14.7919 39.5949 33.3792 -18.2775 3.0909 -9.8190
# 3 46.2646 33.3792 137.8697 -32.1935 13.2854 -1.7153
# 4 -9.0125 -18.2775 -32.1935 33.1358 -3.5591 -2.7295
# 5 13.5325 3.0909 13.2854 -3.5591 29.0186 -8.6438
# 6 -1.0896 -9.8190 -1.7153 -2.7295 -8.6438 23.7460
#
#
#
# Elastic Compliance Matrix: (Units=1/GPa)
#
#
# Indices 1 2 3 4 5 6 
#
# 1 0.007776 -0.002062 -0.002222 -0.001691 -0.003197 -0.002015
# 2 -0.002062 0.046822 -0.005937 0.022468 0.008781 0.024616
# 3 -0.002222 -0.005937 0.011251 0.006511 -0.003343 -0.002213
# 4 -0.001691 0.022468 0.006511 0.050678 0.007010 0.018060
# 5 -0.003197 0.008781 -0.003343 0.007010 0.043308 0.019813
# 6 -0.002015 0.024616 -0.002213 0.018060 0.019813 0.061327
#
#
# Mechanical properties :
#
#
# Convention : Reuss Voigt Hill
#
# Bulk Modulus (GPa) = 22.02330 57.26594 39.64462
# Shear Modulus (GPa) = 19.47479 32.65252 26.06366
#
# Velocity S-wave (km/s) = 3.14810 4.07634 3.64192
# Velocity P-wave (km/s) = 4.94181 7.16223 6.15301
#
# Compressibility (1/GPa) = 0.04540645
#
# Stress axis : x y z
#
# Youngs Moduli (GPa) = 128.59367 21.35742 88.87954
#
# Poissons Ratio (x) = 0.04405 0.19749
# Poissons Ratio (y) = 0.26521 0.52771
# Poissons Ratio (z) = 0.28573 0.12681
#
# Static dielectric constant tensor:
#      x y z
#    x 2.777020 0.152080 0.079040 
#    y 0.152080 3.113990 -0.234690 
#    z 0.079040 -0.234690 3.783990 
# 
# 
# High freq. dielectric constant tensor:
#      x y z
#    x 1.799670 -0.003270 0.001410 
#    y -0.003270 1.699320 -0.039710 
#    z 0.001410 -0.039710 1.766090 
# 
# From -- ./inp_files/367601.got.cif
#   From: 2010.06.25/outbox.cif.g09.slc.cpg/sg2_184_cif.got.tgz:367601.got - 2010.06.27 13:26:56.
