data_PCOD8041315
_publ_section_title
;
Structure prediction by ZEFSAII (Michael W. Deem and Ramdas Pophale) SiO2 
 PCOD8041315
Probable space group: P -1
;
_chemical_formula_sum "Si O2"
_cell_formula_units_Z 10
_cell_length_a 16.125989
_cell_length_b 9.959771
_cell_length_c 9.260838
_cell_angle_alpha 136.212210
_cell_angle_beta 145.442451
_cell_angle_gamma 37.850824
_cell_volume 506.622833
_symmetry_space_group_name_H-M "P -1"
_symmetry_group_IT_number 2
_symmetry_cell_setting 'triclinic'
loop_
_space_group_symop_operation_xyz
x,y,z
-x,-y,-z
loop_
_atom_site_type_symbol
_atom_site_label
_atom_site_fract_x
_atom_site_fract_y
_atom_site_fract_z
Si Si1 0.343044 0.904007 0.066316
Si Si2 0.486770 0.282628 0.343019
Si Si3 0.084385 0.785739 0.555121
Si Si4 0.731511 0.905230 0.207567
Si Si5 0.349548 0.315900 0.479903
O O1 0.535057 0.723524 0.243977
O O2 0.283667 0.138336 0.244433
O O3 0.217698 0.813738 0.868297
O O4 0.333169 0.935297 0.903163
O O5 0.500000 0.500000 0.500000
O O6 0.470016 0.271142 0.481136
O O7 0.654573 0.061205 0.358454
O O8 0.328109 0.280489 0.034417
O O9 0.186702 0.560033 0.433426
O O10 0.934376 0.776280 0.418089
O O11 0.000000 0.000000 0.500000
#
# Coordination Sequence:
#
# PCOD8041315 Si02
#       5
#     2   2   2   2   2
#     4   9  19  35  55  77 102 134 172 212 252 300
#     4  10  19  33  52  74 103 137 167 205 254 304
#     4  10  19  32  53  80 104 130 169 216 254 295
#     4   9  20  34  52  77 102 130 172 211 251 301
#     4  10  20  34  56  78 101 135 174 208 252 305
#
# _framework density 19.738548999999999
#
# number of rings (size 3 to 8) (size 9 to 14) (size 15 to 20)
#    0.000    2.400    0.000    3.000    0.000    8.800 
#    0.000    1.000    0.000   30.000    0.000    0.000 
#    0.000    0.000    0.000    0.000    0.000    0.000 
#
# Total GULP energy -123924.347687 kJ/mol
# GULP energy per Si atom -12392.434769 kJ/mol
# Density = 1.969362 g / cm^3
# Si number density = 19.738549 Si / 1000 Ang^3
#
#
#
# Elastic Constant Matrix: (Units=GPa)
#
#
# Indices 1 2 3 4 5 6 
#
# 1 98.9153 42.5478 54.9979 5.1845 18.1157 -25.9660
# 2 42.5478 114.2369 41.9878 14.8350 8.4005 -24.3259
# 3 54.9979 41.9878 98.3126 22.7978 27.5478 -13.8662
# 4 5.1845 14.8350 22.7978 29.7253 8.6249 6.0252
# 5 18.1157 8.4005 27.5478 8.6249 35.3264 -0.0893
# 6 -25.9660 -24.3259 -13.8662 6.0252 -0.0893 30.6737
#
#
#
# Elastic Compliance Matrix: (Units=1/GPa)
#
#
# Indices 1 2 3 4 5 6 
#
# 1 0.018334 -0.001989 -0.007599 0.002653 -0.003626 0.009976
# 2 -0.001989 0.012910 -0.001837 -0.006837 0.001075 0.009070
# 3 -0.007599 -0.001837 0.021171 -0.012144 -0.009201 0.004039
# 4 0.002653 -0.006837 -0.012144 0.050433 -0.002625 -0.018580
# 5 -0.003626 0.001075 -0.009201 -0.002625 0.037712 -0.005750
# 6 0.009976 0.009070 0.004039 -0.018580 -0.005750 0.053698
#
#
# Mechanical properties :
#
#
# Convention : Reuss Voigt Hill
#
# Bulk Modulus (GPa) = 33.82489 65.61463 49.71976
# Shear Modulus (GPa) = 22.02983 30.60715 26.31849
#
# Velocity S-wave (km/s) = 3.34441 3.94207 3.65547
# Velocity P-wave (km/s) = 5.66454 7.35078 6.56205
#
# Compressibility (1/GPa) = 0.02956402
#
# Stress axis : x y z
#
# Youngs Moduli (GPa) = 54.54282 77.45776 47.23340
#
# Poissons Ratio (x) = 0.15408 0.35894
# Poissons Ratio (y) = 0.10850 0.08679
# Poissons Ratio (z) = 0.41449 0.14233
#
# Static dielectric constant tensor:
#      x y z
#    x 3.699200 -0.058240 0.506110 
#    y -0.058240 3.552050 0.119330 
#    z 0.506110 0.119330 4.175080 
# 
# 
# High freq. dielectric constant tensor:
#      x y z
#    x 1.746460 -0.008570 0.022160 
#    y -0.008570 1.757450 0.023180 
#    z 0.022160 0.023180 1.779370 
# 
# From -- ./inp_files/17998.got.cif
#   From: 2010.06.25/outbox.cif.g09.slc.cpg/sg2_9_cif.got.tgz:17998.got - 2010.06.27 13:26:56.
