data_PCOD8041659
_publ_section_title
;
Structure prediction by ZEFSAII (Michael W. Deem and Ramdas Pophale) SiO2 
 PCOD8041659
Probable space group: P -1
;
_chemical_formula_sum "Si O2"
_cell_formula_units_Z 16
_cell_length_a 21.454198
_cell_length_b 9.773257
_cell_length_c 11.416969
_cell_angle_alpha 103.695571
_cell_angle_beta 51.644842
_cell_angle_gamma 144.744130
_cell_volume 869.797717
_symmetry_space_group_name_H-M "P -1"
_symmetry_group_IT_number 2
_symmetry_cell_setting 'triclinic'
loop_
_space_group_symop_operation_xyz
x,y,z
-x,-y,-z
loop_
_atom_site_type_symbol
_atom_site_label
_atom_site_fract_x
_atom_site_fract_y
_atom_site_fract_z
Si Si1 0.972548 0.185375 0.637576
Si Si2 0.412631 0.636427 0.347998
Si Si3 0.045899 0.992329 0.595889
Si Si4 0.242526 0.634185 0.590694
Si Si5 0.562083 0.799947 0.446274
Si Si6 0.645100 0.647884 0.209356
Si Si7 0.612379 0.723821 0.020955
Si Si8 0.009673 0.961201 0.110787
O O1 0.956149 0.997285 0.658705
O O2 0.123698 0.496142 0.593053
O O3 0.009016 0.228318 0.462991
O O4 0.806454 0.016471 0.821294
O O5 0.246196 0.311491 0.419553
O O6 0.398503 0.785187 0.388380
O O7 0.429110 0.620337 0.462360
O O8 0.567181 0.815664 0.127852
O O9 0.990726 0.898690 0.777604
O O10 0.305074 0.867251 0.633846
O O11 0.145877 0.380611 0.742255
O O12 0.662301 0.813772 0.303443
O O13 0.469008 0.642704 0.647991
O O14 0.567589 0.559404 0.154024
O O15 0.828277 0.877143 0.022182
O O16 0.500000 0.500000 0.000000
O O17 0.000000 0.000000 0.000000
#
# Coordination Sequence:
#
# PCOD8041659 Si02
#       8
#     2   2   2   2   2   2   2   2
#     4   9  17  31  51  78 104 141 183 221 267 319
#     4   9  18  30  52  82 107 143 182 218 270 325
#     4   9  16  30  51  78 107 140 180 222 261 320
#     4  10  20  35  55  81 113 149 178 225 279 327
#     4  10  21  35  56  77 115 144 180 228 281 330
#     4  10  20  36  53  83 105 143 190 227 273 327
#     4  11  18  31  55  84 108 138 188 235 261 321
#     4  10  19  33  56  83 113 141 183 226 267 326
#
# _framework density 18.395081000000001
#
# number of rings (size 3 to 8) (size 9 to 14) (size 15 to 20)
#    0.000    2.500    3.750    1.875    0.000    0.500 
#    0.000    0.000    0.000    6.750    0.000    0.000 
#    0.000    0.000    0.000    0.000    0.000    0.000 
#
# Total GULP energy -198237.074203 kJ/mol
# GULP energy per Si atom -12389.817138 kJ/mol
# Density = 1.835321 g / cm^3
# Si number density = 18.395081 Si / 1000 Ang^3
#
#
#
# Elastic Constant Matrix: (Units=GPa)
#
#
# Indices 1 2 3 4 5 6 
#
# 1 79.3116 42.5764 46.6763 9.4055 -8.1564 17.6811
# 2 42.5764 82.2778 39.5675 9.8698 6.1897 9.3040
# 3 46.6763 39.5675 105.8023 25.0519 -15.0082 -0.2253
# 4 9.4055 9.8698 25.0519 22.6186 2.8620 4.1215
# 5 -8.1564 6.1897 -15.0082 2.8620 39.0753 5.5316
# 6 17.6811 9.3040 -0.2253 4.1215 5.5316 19.9126
#
#
#
# Elastic Compliance Matrix: (Units=1/GPa)
#
#
# Indices 1 2 3 4 5 6 
#
# 1 0.028384 -0.008299 -0.010179 0.006776 0.006315 -0.024597
# 2 -0.008299 0.019058 -0.004681 0.001157 -0.006636 0.000015
# 3 -0.010179 -0.004681 0.021627 -0.021055 0.006480 0.014028
# 4 0.006776 0.001157 -0.021055 0.068744 -0.009279 -0.018446
# 5 0.006315 -0.006636 0.006480 -0.009279 0.032479 -0.009536
# 6 -0.024597 0.000015 0.014028 -0.018446 -0.009536 0.078679
#
#
# Mechanical properties :
#
#
# Convention : Reuss Voigt Hill
#
# Bulk Modulus (GPa) = 43.95511 58.33689 51.14600
# Shear Modulus (GPa) = 16.50850 25.55938 21.03394
#
# Velocity S-wave (km/s) = 2.99898 3.73160 3.38517
# Velocity P-wave (km/s) = 5.99489 7.09568 6.56839
#
# Compressibility (1/GPa) = 0.02275048
#
# Stress axis : x y z
#
# Youngs Moduli (GPa) = 35.23148 52.47008 46.23785
#
# Poissons Ratio (x) = 0.43545 0.47066
# Poissons Ratio (y) = 0.29239 0.21645
# Poissons Ratio (z) = 0.35863 0.24563
#
# Static dielectric constant tensor:
#      x y z
#    x 3.989370 0.136360 -0.229120 
#    y 0.136360 3.255290 0.503530 
#    z -0.229120 0.503530 3.574270 
# 
# 
# High freq. dielectric constant tensor:
#      x y z
#    x 1.714980 0.030810 -0.023730 
#    y 0.030810 1.680970 0.040210 
#    z -0.023730 0.040210 1.711140 
# 
# From -- ./inp_files/458345.got.cif
#   From: 2010.06.25/outbox.cif.g09.slc.cpg/sg2_230_cif.got.tgz:458345.got - 2010.06.27 13:26:56.
