data_PCOD8041794
_publ_section_title
;
Structure prediction by ZEFSAII (Michael W. Deem and Ramdas Pophale) SiO2 
 PCOD8041794
Probable space group: P -1
;
_chemical_formula_sum "Si O2"
_cell_formula_units_Z 16
_cell_length_a 14.258854
_cell_length_b 10.811415
_cell_length_c 13.096185
_cell_angle_alpha 50.667258
_cell_angle_beta 90.292516
_cell_angle_gamma 128.824354
_cell_volume 923.521480
_symmetry_space_group_name_H-M "P -1"
_symmetry_group_IT_number 2
_symmetry_cell_setting 'triclinic'
loop_
_space_group_symop_operation_xyz
x,y,z
-x,-y,-z
loop_
_atom_site_type_symbol
_atom_site_label
_atom_site_fract_x
_atom_site_fract_y
_atom_site_fract_z
Si Si1 0.046949 0.698381 0.214273
Si Si2 0.097883 0.073322 0.367299
Si Si3 0.778166 0.109641 0.539989
Si Si4 0.160566 0.143968 0.886624
Si Si5 0.731247 0.197401 0.708714
Si Si6 0.441802 0.545582 0.831615
Si Si7 0.898604 0.727401 0.358568
Si Si8 0.426967 0.610111 0.026256
O O1 0.880071 0.389517 0.338599
O O2 0.017560 0.784736 0.260415
O O3 0.159857 0.709979 0.245305
O O4 0.131531 0.911257 0.010551
O O5 0.138335 0.943779 0.450125
O O6 0.258584 0.400708 0.190896
O O7 0.000000 0.000000 0.500000
O O8 0.996364 0.955068 0.326044
O O9 0.775189 0.141454 0.644181
O O10 0.597953 0.856583 0.630751
O O11 0.306885 0.393837 0.828068
O O12 0.191819 0.258705 0.714189
O O13 0.000000 0.000000 0.000000
O O14 0.765424 0.429598 0.563679
O O15 0.544019 0.922697 0.878407
O O16 0.385135 0.529532 0.949398
O O17 0.478956 0.409534 0.914103
#
# Coordination Sequence:
#
# PCOD8041794 Si02
#       8
#     2   2   2   2   2   2   2   2
#     4  10  15  29  51  77  96 127 157 196 242 293
#     4  11  20  32  49  71 100 130 161 201 241 280
#     4   9  17  29  51  74  96 124 168 198 232 285
#     4  10  19  27  45  75 108 126 149 192 258 296
#     4  10  15  29  54  74  96 122 160 205 240 279
#     4   9  16  28  47  74  99 125 153 204 242 284
#     4  10  19  31  46  74 104 125 155 199 245 289
#     4   9  17  28  49  73  95 123 169 197 232 284
#
# _framework density 17.32499
#
# number of rings (size 3 to 8) (size 9 to 14) (size 15 to 20)
#    0.000    2.250    3.750    3.000    0.000    0.000 
#    0.000   11.875    0.000    3.750    0.000    0.000 
#    0.000    0.000    0.000    0.000    0.000    0.000 
#
# Total GULP energy -198294.430696 kJ/mol
# GULP energy per Si atom -12393.401919 kJ/mol
# Density = 1.728556 g / cm^3
# Si number density = 17.324990 Si / 1000 Ang^3
#
#
#
# Elastic Constant Matrix: (Units=GPa)
#
#
# Indices 1 2 3 4 5 6 
#
# 1 56.9557 42.2844 50.3832 0.8363 -1.4492 20.7802
# 2 42.2844 67.9468 48.3517 -10.4198 -0.3061 27.5458
# 3 50.3832 48.3517 138.1733 -25.8850 10.6405 18.0302
# 4 0.8363 -10.4198 -25.8850 28.7651 3.2241 -3.3796
# 5 -1.4492 -0.3061 10.6405 3.2241 30.5676 3.4257
# 6 20.7802 27.5458 18.0302 -3.3796 3.4257 28.9120
#
#
#
# Elastic Compliance Matrix: (Units=1/GPa)
#
#
# Indices 1 2 3 4 5 6 
#
# 1 0.051590 -0.019171 -0.016164 -0.025895 0.012090 -0.013195
# 2 -0.019171 0.037465 -0.001739 0.010101 0.001225 -0.019796
# 3 -0.016164 -0.001739 0.016796 0.016651 -0.009038 0.005817
# 4 -0.025895 0.010101 0.016651 0.056491 -0.013646 0.006825
# 5 0.012090 0.001225 -0.009038 -0.013646 0.039056 -0.010443
# 6 -0.013195 -0.019796 0.005817 0.006825 -0.010443 0.061339
#
#
# Mechanical properties :
#
#
# Convention : Reuss Voigt Hill
#
# Bulk Modulus (GPa) = 31.54121 60.56828 46.05475
# Shear Modulus (GPa) = 14.39056 25.78604 20.08830
#
# Velocity S-wave (km/s) = 2.88518 3.86213 3.40883
# Velocity P-wave (km/s) = 5.41703 7.41107 6.49108
#
# Compressibility (1/GPa) = 0.03170455
#
# Stress axis : x y z
#
# Youngs Moduli (GPa) = 19.38357 26.69185 59.53833
#
# Poissons Ratio (x) = 0.51170 0.96235
# Poissons Ratio (y) = 0.37160 0.10353
# Poissons Ratio (z) = 0.31331 0.04641
#
# Static dielectric constant tensor:
#      x y z
#    x 2.945570 0.307730 0.183190 
#    y 0.307730 3.079670 -0.306350 
#    z 0.183190 -0.306350 3.715090 
# 
# 
# High freq. dielectric constant tensor:
#      x y z
#    x 1.627250 0.030900 0.006810 
#    y 0.030900 1.643780 -0.034800 
#    z 0.006810 -0.034800 1.674620 
# 
# From -- ./inp_files/392172.got.cif
#   From: 2010.06.25/outbox.cif.g09.slc.cpg/sg2_197_cif.got.tgz:392172.got - 2010.06.27 13:26:56.
