data_PCOD8041356
_publ_section_title
;
Structure prediction by ZEFSAII (Michael W. Deem and Ramdas Pophale) SiO2 
 PCOD8041356
Probable space group: P -1
;
_chemical_formula_sum "Si O2"
_cell_formula_units_Z 16
_cell_length_a 15.114906
_cell_length_b 9.376101
_cell_length_c 11.262817
_cell_angle_alpha 120.761016
_cell_angle_beta 99.687164
_cell_angle_gamma 38.951185
_cell_volume 780.591513
_symmetry_space_group_name_H-M "P -1"
_symmetry_group_IT_number 2
_symmetry_cell_setting 'triclinic'
loop_
_space_group_symop_operation_xyz
x,y,z
-x,-y,-z
loop_
_atom_site_type_symbol
_atom_site_label
_atom_site_fract_x
_atom_site_fract_y
_atom_site_fract_z
Si Si1 0.695597 0.185089 0.167847
Si Si2 0.383817 0.244606 0.239644
Si Si3 0.526485 0.712235 0.958420
Si Si4 0.507654 0.663882 0.506405
Si Si5 0.999746 0.764086 0.916445
Si Si6 0.815096 0.844109 0.278542
Si Si7 0.866348 0.175156 0.876353
Si Si8 0.042191 0.799402 0.332605
O O1 0.595197 0.253869 0.068704
O O2 0.599976 0.486747 0.329910
O O3 0.740524 0.975740 0.186477
O O4 0.849709 0.023537 0.074768
O O5 0.458599 0.235033 0.146577
O O6 0.403341 0.323556 0.397504
O O7 0.205040 0.471548 0.266840
O O8 0.468973 0.937580 0.135975
O O9 0.689727 0.391310 0.901509
O O10 0.500000 0.500000 0.500000
O O11 0.324375 0.987746 0.587803
O O12 0.056570 0.491637 0.827685
O O13 0.956796 0.874796 0.817231
O O14 0.133164 0.686688 0.960693
O O15 0.901740 0.882817 0.344681
O O16 0.952185 0.123978 0.761466
O O17 0.000000 0.000000 0.500000
#
# Coordination Sequence:
#
# PCOD8041356 Si02
#       8
#     2   2   2   2   2   2   2   2
#     4  11  21  35  62  91 117 151 207 252 297 350
#     4  10  19  32  54  87 118 145 192 251 300 341
#     4  10  20  34  58  85 114 153 198 248 295 349
#     4  10  19  34  55  91 118 151 188 256 304 346
#     4  11  23  41  60  87 122 165 200 240 301 367
#     4  11  21  36  64  91 116 156 204 251 293 357
#     4  10  24  39  60  85 125 159 195 245 305 361
#     4  11  22  36  62  90 119 153 202 252 301 351
#
# _framework density 20.497275999999999
#
# number of rings (size 3 to 8) (size 9 to 14) (size 15 to 20)
#    0.000    1.500    3.750    3.375    5.250    0.500 
#    0.000    0.625    2.750    2.250    0.000    0.000 
#    0.000    0.000    0.000    0.000    0.000    0.000 
#
# Total GULP energy -198339.959397 kJ/mol
# GULP energy per Si atom -12396.247462 kJ/mol
# Density = 2.045062 g / cm^3
# Si number density = 20.497276 Si / 1000 Ang^3
#
#
#
# Elastic Constant Matrix: (Units=GPa)
#
#
# Indices 1 2 3 4 5 6 
#
# 1 68.1372 48.4677 34.3226 -1.7847 5.1522 -22.8477
# 2 48.4677 97.3940 42.4357 -6.2073 7.8726 -10.2257
# 3 34.3226 42.4357 110.6088 3.6240 12.1406 -5.3098
# 4 -1.7847 -6.2073 3.6240 15.1271 -12.7349 4.0689
# 5 5.1522 7.8726 12.1406 -12.7349 33.7060 -0.5707
# 6 -22.8477 -10.2257 -5.3098 4.0689 -0.5707 31.4039
#
#
#
# Elastic Compliance Matrix: (Units=1/GPa)
#
#
# Indices 1 2 3 4 5 6 
#
# 1 0.032095 -0.012676 -0.003429 -0.009127 -0.003824 0.019756
# 2 -0.012676 0.018217 -0.004033 0.011119 0.003246 -0.005354
# 3 -0.003429 -0.004033 0.012823 -0.011301 -0.007428 -0.000311
# 4 -0.009127 0.011119 -0.011301 0.116740 0.046650 -0.019209
# 5 -0.003824 0.003246 -0.007428 0.046650 0.049658 -0.008123
# 6 0.019756 -0.005354 -0.000311 -0.019209 -0.008123 0.046762
#
#
# Mechanical properties :
#
#
# Convention : Reuss Voigt Hill
#
# Bulk Modulus (GPa) = 43.74709 58.51023 51.12866
# Shear Modulus (GPa) = 15.42296 26.10832 20.76564
#
# Velocity S-wave (km/s) = 2.74604 3.57283 3.18636
# Velocity P-wave (km/s) = 5.60745 6.75481 6.20770
#
# Compressibility (1/GPa) = 0.02285866
#
# Stress axis : x y z
#
# Youngs Moduli (GPa) = 31.15712 54.89262 77.98593
#
# Poissons Ratio (x) = 0.69585 0.26740
# Poissons Ratio (y) = 0.39496 0.31453
# Poissons Ratio (z) = 0.10683 0.22139
#
# Static dielectric constant tensor:
#      x y z
#    x 4.812410 -1.101450 -0.966130 
#    y -1.101450 4.212140 0.752340 
#    z -0.966130 0.752340 4.422280 
# 
# 
# High freq. dielectric constant tensor:
#      x y z
#    x 1.795830 -0.035030 0.005870 
#    y -0.035030 1.787270 0.009520 
#    z 0.005870 0.009520 1.793560 
# 
# From -- ./inp_files/448213.got.cif
#   From: 2010.06.25/outbox.cif.g09.slc.cpg/sg2_225_cif.got.tgz:448213.got - 2010.06.27 13:26:56.
