data_PCOD8041773
_publ_section_title
;
Structure prediction by ZEFSAII (Michael W. Deem and Ramdas Pophale) SiO2 
 PCOD8041773
Probable space group: P -1
;
_chemical_formula_sum "Si O2"
_cell_formula_units_Z 16
_cell_length_a 14.796409
_cell_length_b 12.065243
_cell_length_c 18.096511
_cell_angle_alpha 44.147533
_cell_angle_beta 159.669077
_cell_angle_gamma 133.250572
_cell_volume 780.782192
_symmetry_space_group_name_H-M "P -1"
_symmetry_group_IT_number 2
_symmetry_cell_setting 'triclinic'
loop_
_space_group_symop_operation_xyz
x,y,z
-x,-y,-z
loop_
_atom_site_type_symbol
_atom_site_label
_atom_site_fract_x
_atom_site_fract_y
_atom_site_fract_z
Si Si1 0.286473 0.765361 0.970971
Si Si2 0.698480 0.891325 0.115370
Si Si3 0.415045 0.617047 0.289045
Si Si4 0.086435 0.502425 0.220421
Si Si5 0.078158 0.969399 0.180050
Si Si6 0.739820 0.134930 0.477827
Si Si7 0.781747 0.760024 0.947136
Si Si8 0.464984 0.952820 0.226138
O O1 0.529315 0.781556 0.093715
O O2 0.352691 0.639410 0.145194
O O3 0.037746 0.678226 0.782718
O O4 0.217168 0.936785 0.866701
O O5 0.964018 0.801021 0.344740
O O6 0.528663 0.919344 0.897924
O O7 0.154384 0.556649 0.162448
O O8 0.639343 0.489350 0.529015
O O9 0.544157 0.781397 0.341862
O O10 0.879619 0.614493 0.045401
O O11 0.253350 0.943903 0.398117
O O12 0.241294 0.077110 0.195295
O O13 0.973713 0.799949 0.144746
O O14 0.831072 0.070904 0.962041
O O15 0.522868 0.270996 0.245648
O O16 0.657773 0.005566 0.414409
#
# Coordination Sequence:
#
# PCOD8041773 Si02
#       8
#     2   2   2   2   2   2   2   2
#     4  10  21  39  58  82 110 145 186 227 273 322
#     4   9  20  37  60  83 108 139 188 237 265 314
#     4  10  21  37  55  82 116 145 179 222 274 334
#     4  11  22  36  54  82 116 152 175 216 279 332
#     4   9  18  34  52  81 113 141 182 226 269 321
#     4  10  19  33  58  84 106 146 184 224 278 317
#     4  10  20  34  52  80 116 145 181 224 266 327
#     4   9  17  34  58  83 111 138 181 233 270 319
#
# _framework density 20.492272
#
# number of rings (size 3 to 8) (size 9 to 14) (size 15 to 20)
#    0.000    2.250    1.250    1.500    0.000    2.000 
#    4.500    4.375    0.000    7.500    0.000    0.000 
#    0.000    0.000    0.000    0.000    0.000    0.000 
#
# Total GULP energy -198300.384872 kJ/mol
# GULP energy per Si atom -12393.774055 kJ/mol
# Density = 2.044563 g / cm^3
# Si number density = 20.492272 Si / 1000 Ang^3
#
#
#
# Elastic Constant Matrix: (Units=GPa)
#
#
# Indices 1 2 3 4 5 6 
#
# 1 100.3901 35.0195 42.6907 3.3858 11.8927 2.6346
# 2 35.0195 54.7060 29.8362 8.6238 2.5994 4.4363
# 3 42.6907 29.8362 93.7094 4.0173 11.1832 -3.9401
# 4 3.3858 8.6238 4.0173 20.1412 -8.5736 -0.7947
# 5 11.8927 2.5994 11.1832 -8.5736 31.8732 5.5205
# 6 2.6346 4.4363 -3.9401 -0.7947 5.5205 26.1963
#
#
#
# Elastic Compliance Matrix: (Units=1/GPa)
#
#
# Indices 1 2 3 4 5 6 
#
# 1 0.014481 -0.006889 -0.003991 -0.000167 -0.003457 -0.000166
# 2 -0.006889 0.027601 -0.005535 -0.009502 0.000612 -0.005231
# 3 -0.003991 -0.005535 0.015065 -0.001742 -0.004597 0.004520
# 4 -0.000167 -0.009502 -0.001742 0.061807 0.018177 -0.000592
# 5 -0.003457 0.000612 -0.004597 0.018177 0.040580 -0.008447
# 6 -0.000166 -0.005231 0.004520 -0.000592 -0.008447 0.041518
#
#
# Mechanical properties :
#
#
# Convention : Reuss Voigt Hill
#
# Bulk Modulus (GPa) = 41.12342 51.54425 46.33383
# Shear Modulus (GPa) = 20.66213 25.05942 22.86078
#
# Velocity S-wave (km/s) = 3.17880 3.50075 3.34365
# Velocity P-wave (km/s) = 5.79520 6.44577 6.12913
#
# Compressibility (1/GPa) = 0.02431705
#
# Stress axis : x y z
#
# Youngs Moduli (GPa) = 69.05611 36.23000 66.37869
#
# Poissons Ratio (x) = 0.24960 0.26491
# Poissons Ratio (y) = 0.47574 0.36742
# Poissons Ratio (z) = 0.27559 0.20054
#
# Static dielectric constant tensor:
#      x y z
#    x 3.871490 -0.080540 0.025730 
#    y -0.080540 3.221010 0.079530 
#    z 0.025730 0.079530 3.625090 
# 
# 
# High freq. dielectric constant tensor:
#      x y z
#    x 1.807810 -0.010770 0.006680 
#    y -0.010770 1.754120 0.008950 
#    z 0.006680 0.008950 1.806610 
# 
# From -- ./inp_files/70577.got.cif
#   From: 2010.06.25/outbox.cif.g09.slc.cpg/sg2_36_cif.got.tgz:70577.got - 2010.06.27 13:26:56.
