data_PCOD8041433
_publ_section_title
;
Structure prediction by ZEFSAII (Michael W. Deem and Ramdas Pophale) SiO2 
 PCOD8041433
Probable space group: P -1
;
_chemical_formula_sum "Si O2"
_cell_formula_units_Z 16
_cell_length_a 9.381656
_cell_length_b 18.749519
_cell_length_c 18.749167
_cell_angle_alpha 158.220024
_cell_angle_beta 131.684223
_cell_angle_gamma 48.314947
_cell_volume 900.370804
_symmetry_space_group_name_H-M "P -1"
_symmetry_group_IT_number 2
_symmetry_cell_setting 'triclinic'
loop_
_space_group_symop_operation_xyz
x,y,z
-x,-y,-z
loop_
_atom_site_type_symbol
_atom_site_label
_atom_site_fract_x
_atom_site_fract_y
_atom_site_fract_z
Si Si1 0.607770 0.236448 0.697671
Si Si2 0.676913 0.411142 0.525729
Si Si3 0.592695 0.394602 0.105408
Si Si4 0.077400 0.552624 0.947400
Si Si5 0.607781 0.802308 0.263538
Si Si6 0.323094 0.025723 0.911136
Si Si7 0.354194 0.365250 0.134693
Si Si8 0.999146 0.649261 0.850698
O O1 0.480232 0.384608 0.739023
O O2 0.499948 0.245858 0.745829
O O3 0.637505 0.024345 0.475627
O O4 0.818065 0.294945 0.832892
O O5 0.500000 0.500000 0.500000
O O6 0.720724 0.178543 0.321464
O O7 0.627805 0.476621 0.651313
O O8 0.867376 0.491279 0.636519
O O9 0.524057 0.364987 0.134960
O O10 0.826358 0.352157 0.147890
O O11 0.519826 0.239038 0.884621
O O12 0.181923 0.332926 0.794999
O O13 0.093038 0.593243 0.906699
O O14 0.854057 0.578359 0.921720
O O15 0.500000 0.000000 0.000000
O O16 0.372232 0.151257 0.976574
O O17 0.132627 0.136556 0.991304
#
# Coordination Sequence:
#
# PCOD8041433 Si02
#       8
#     2   2   2   2   2   2   2   2
#     4  10  19  32  58  80 117 155 196 227 265 331
#     4  10  19  39  64  81 103 140 194 231 277 340
#     4  11  21  40  49  88 128 146 180 234 296 315
#     4   9  17  36  51  84 106 154 202 224 266 319
#     4  10  19  32  58  80 117 155 196 227 265 331
#     4  10  19  39  64  81 103 140 194 231 277 340
#     4  10  24  35  60  84 118 150 180 242 283 336
#     4  10  20  33  62  86 110 150 184 238 275 338
#
# _framework density 17.770455999999999
#
# number of rings (size 3 to 8) (size 9 to 14) (size 15 to 20)
#    0.000    2.250    5.000    0.750    0.000    8.000 
#    0.000    2.500    0.000    0.000    0.000    0.000 
#    0.000    0.000    0.000    0.000    0.000    0.000 
#
# Total GULP energy -198406.889516 kJ/mol
# GULP energy per Si atom -12400.430595 kJ/mol
# Density = 1.773001 g / cm^3
# Si number density = 17.770456 Si / 1000 Ang^3
#
#
#
# Elastic Constant Matrix: (Units=GPa)
#
#
# Indices 1 2 3 4 5 6 
#
# 1 133.8329 54.0090 49.4961 -1.3723 5.4999 -19.4791
# 2 54.0090 111.1183 64.8227 0.3952 6.2764 -18.0768
# 3 49.4961 64.8227 172.2629 18.2197 1.3188 -8.8378
# 4 -1.3723 0.3952 18.2197 29.2281 0.9601 3.5139
# 5 5.4999 6.2764 1.3188 0.9601 6.9080 -3.9205
# 6 -19.4791 -18.0768 -8.8378 3.5139 -3.9205 19.7769
#
#
#
# Elastic Compliance Matrix: (Units=1/GPa)
#
#
# Indices 1 2 3 4 5 6 
#
# 1 0.010227 -0.002942 -0.001588 0.000826 -0.001776 0.006175
# 2 -0.002942 0.014438 -0.004382 0.001794 -0.006350 0.006764
# 3 -0.001588 -0.004382 0.008454 -0.005436 0.004416 0.000050
# 4 0.000826 0.001794 -0.005436 0.039128 -0.011966 -0.009301
# 5 -0.001776 -0.006350 0.004416 -0.011966 0.169921 0.030230
# 6 0.006175 0.006764 0.000050 -0.009301 0.030230 0.070495
#
#
# Mechanical properties :
#
#
# Convention : Reuss Voigt Hill
#
# Bulk Modulus (GPa) = 65.38306 83.76331 74.57319
# Shear Modulus (GPa) = 14.89928 27.77502 21.33715
#
# Velocity S-wave (km/s) = 2.89871 3.95775 3.46888
# Velocity P-wave (km/s) = 6.93371 8.25371 7.62234
#
# Compressibility (1/GPa) = 0.01529448
#
# Stress axis : x y z
#
# Youngs Moduli (GPa) = 97.78018 69.26002 118.28651
#
# Poissons Ratio (x) = 0.20379 0.18787
# Poissons Ratio (y) = 0.28770 0.51831
# Poissons Ratio (z) = 0.15530 0.30349
#
# Static dielectric constant tensor:
#      x y z
#    x 3.083250 -0.169400 0.047730 
#    y -0.169400 3.374430 0.070890 
#    z 0.047730 0.070890 3.607450 
# 
# 
# High freq. dielectric constant tensor:
#      x y z
#    x 1.663610 -0.012140 0.003410 
#    y -0.012140 1.691210 0.000830 
#    z 0.003410 0.000830 1.693930 
# 
# From -- ./inp_files/270775.got.cif
#   From: 2010.06.25/outbox.cif.g09.slc.cpg/sg2_136_cif.got.tgz:270775.got - 2010.06.27 13:26:56.
