data_PCOD8041390
_publ_section_title
;
Structure prediction by ZEFSAII (Michael W. Deem and Ramdas Pophale) SiO2 
 PCOD8041390
Probable space group: P -1
;
_chemical_formula_sum "Si O2"
_cell_formula_units_Z 16
_cell_length_a 15.053254
_cell_length_b 12.268901
_cell_length_c 10.824125
_cell_angle_alpha 95.413471
_cell_angle_beta 40.438504
_cell_angle_gamma 127.219646
_cell_volume 728.543164
_symmetry_space_group_name_H-M "P -1"
_symmetry_group_IT_number 2
_symmetry_cell_setting 'triclinic'
loop_
_space_group_symop_operation_xyz
x,y,z
-x,-y,-z
loop_
_atom_site_type_symbol
_atom_site_label
_atom_site_fract_x
_atom_site_fract_y
_atom_site_fract_z
Si Si1 0.254594 0.192187 0.685475
Si Si2 0.981744 0.420759 0.801833
Si Si3 0.006276 0.672569 0.468462
Si Si4 0.494509 0.388859 0.914964
Si Si5 0.529616 0.854146 0.707441
Si Si6 0.665318 0.520519 0.476184
Si Si7 0.698338 0.200520 0.610642
Si Si8 0.669820 0.922365 0.841446
O O1 0.303923 0.125571 0.533130
O O2 0.477856 0.346418 0.559815
O O3 0.239000 0.296081 0.639352
O O4 0.000000 0.000000 0.000000
O O5 0.871339 0.300201 0.778027
O O6 0.091554 0.394041 0.764738
O O7 0.207755 0.653868 0.577141
O O8 0.736865 0.319836 0.097505
O O9 0.078915 0.659409 0.514246
O O10 0.722582 0.466289 0.725121
O O11 0.073013 0.846333 0.427414
O O12 0.513430 0.427592 0.754965
O O13 0.500000 0.500000 0.000000
O O14 0.278505 0.162911 0.159336
O O15 0.526308 0.820122 0.852626
O O16 0.648233 0.051744 0.582996
O O17 0.465119 0.088350 0.918878
#
# Coordination Sequence:
#
# PCOD8041390 Si02
#       8
#     2   2   2   2   2   2   2   2
#     4  11  27  50  67  82 123 176 223 269 311 368
#     4  11  20  37  66  97 130 159 204 264 324 369
#     4  10  19  32  55  89 133 170 189 242 304 377
#     4  11  23  37  61  95 129 165 204 251 318 384
#     4  11  23  38  67 100 126 168 218 254 308 383
#     4  10  25  45  67  90 123 168 215 263 323 373
#     4  11  19  34  62 101 133 164 194 246 322 387
#     4  11  19  35  62  98 137 158 198 246 318 385
#
# _framework density 21.961635999999999
#
# number of rings (size 3 to 8) (size 9 to 14) (size 15 to 20)
#    0.000    1.250    5.000    2.625    0.000    8.000 
#    0.000    1.250    0.000    0.000    0.000    0.000 
#    0.000    0.000    0.000    0.000    0.000    0.000 
#
# Total GULP energy -198306.657998 kJ/mol
# GULP energy per Si atom -12394.166125 kJ/mol
# Density = 2.191165 g / cm^3
# Si number density = 21.961636 Si / 1000 Ang^3
#
#
#
# Elastic Constant Matrix: (Units=GPa)
#
#
# Indices 1 2 3 4 5 6 
#
# 1 99.7333 39.2104 28.9831 -5.4287 7.9080 -20.4282
# 2 39.2104 122.2587 32.9973 -0.1081 11.8087 -21.6444
# 3 28.9831 32.9973 69.5244 3.5274 0.5643 -8.1184
# 4 -5.4287 -0.1081 3.5274 28.1268 -3.8377 1.1229
# 5 7.9080 11.8087 0.5643 -3.8377 22.2635 -8.4266
# 6 -20.4282 -21.6444 -8.1184 1.1229 -8.4266 31.4622
#
#
#
# Elastic Compliance Matrix: (Units=1/GPa)
#
#
# Indices 1 2 3 4 5 6 
#
# 1 0.013458 -0.002086 -0.004061 0.002746 -0.000854 0.005929
# 2 -0.002086 0.010962 -0.003775 -0.000528 -0.003437 0.004311
# 3 -0.004061 -0.003775 0.018008 -0.002710 0.002599 0.000206
# 4 0.002746 -0.000528 -0.002710 0.037223 0.006187 0.001049
# 5 -0.000854 -0.003437 0.002599 0.006187 0.052423 0.011572
# 6 0.005929 0.004311 0.000206 0.001049 0.011572 0.041715
#
#
# Mechanical properties :
#
#
# Convention : Reuss Voigt Hill
#
# Bulk Modulus (GPa) = 44.27559 54.87756 49.57658
# Shear Modulus (GPa) = 24.85565 29.05888 26.95727
#
# Velocity S-wave (km/s) = 3.36784 3.64148 3.50733
# Velocity P-wave (km/s) = 5.94368 6.53626 6.24700
#
# Compressibility (1/GPa) = 0.02258581
#
# Stress axis : x y z
#
# Youngs Moduli (GPa) = 74.30302 91.22461 55.52976
#
# Poissons Ratio (x) = 0.19028 0.22548
# Poissons Ratio (y) = 0.15498 0.20963
# Poissons Ratio (z) = 0.30171 0.34438
#
# Static dielectric constant tensor:
#      x y z
#    x 3.980450 -0.268540 -0.277280 
#    y -0.268540 4.134700 0.510250 
#    z -0.277280 0.510250 6.053110 
# 
# 
# High freq. dielectric constant tensor:
#      x y z
#    x 1.852580 -0.016780 -0.004300 
#    y -0.016780 1.877790 -0.012820 
#    z -0.004300 -0.012820 1.848740 
# 
# From -- ./inp_files/452345.got.cif
#   From: 2010.06.25/outbox.cif.g09.slc.cpg/sg2_227_cif.got.tgz:452345.got - 2010.06.27 13:26:56.
