data_PCOD8041141
_publ_section_title
;
Structure prediction by ZEFSAII (Michael W. Deem and Ramdas Pophale) SiO2 
 PCOD8041141
Probable space group: P -1
;
_chemical_formula_sum "Si O2"
_cell_formula_units_Z 16
_cell_length_a 18.254308
_cell_length_b 18.504072
_cell_length_c 11.027866
_cell_angle_alpha 137.694595
_cell_angle_beta 43.856458
_cell_angle_gamma 158.291891
_cell_volume 918.697423
_symmetry_space_group_name_H-M "P -1"
_symmetry_group_IT_number 2
_symmetry_cell_setting 'triclinic'
loop_
_space_group_symop_operation_xyz
x,y,z
-x,-y,-z
loop_
_atom_site_type_symbol
_atom_site_label
_atom_site_fract_x
_atom_site_fract_y
_atom_site_fract_z
Si Si1 0.081168 0.141843 0.186575
Si Si2 0.776142 0.098860 0.154462
Si Si3 0.008093 0.491409 0.336824
Si Si4 0.631095 0.330785 0.825495
Si Si5 0.459861 0.403990 0.202891
Si Si6 0.916623 0.634035 0.664763
Si Si7 0.816053 0.864404 0.383203
Si Si8 0.819148 0.946353 0.731110
O O1 0.293973 0.276100 0.137309
O O2 0.115246 0.292557 0.291322
O O3 0.916575 0.002351 0.316216
O O4 0.000000 0.000000 0.000000
O O5 0.817272 0.251478 0.234870
O O6 0.943275 0.214534 0.199447
O O7 0.566591 0.912799 0.243934
O O8 0.771407 0.014106 0.942168
O O9 0.209316 0.599336 0.196384
O O10 0.000000 0.500000 0.500000
O O11 0.996255 0.604744 0.445018
O O12 0.705933 0.414266 0.701923
O O13 0.594164 0.415250 0.032440
O O14 0.599325 0.628690 0.318909
O O15 0.336150 0.280539 0.321915
O O16 0.792717 0.935658 0.604042
O O17 0.953369 0.888626 0.304519
#
# Coordination Sequence:
#
# PCOD8041141 Si02
#       8
#     2   2   2   2   2   2   2   2
#     4  11  22  34  47  70 102 133 161 185 228 295
#     4   9  16  30  49  71  93 119 156 199 244 279
#     4   8  17  29  45  70  96 120 157 198 233 280
#     4   9  16  28  47  69  93 121 151 193 240 272
#     4  10  19  31  50  74  97 124 159 196 239 286
#     4  10  20  31  45  71 101 126 158 190 228 290
#     4  10  19  32  48  69  98 130 159 196 239 276
#     4   9  18  31  50  72  95 122 160 204 240 281
#
# _framework density 17.415963999999999
#
# number of rings (size 3 to 8) (size 9 to 14) (size 15 to 20)
#    0.000    2.750    0.000    4.875    0.000    7.500 
#    0.000    0.000    0.000    0.750    0.000    4.375 
#    0.000    0.000    0.000    0.000    0.000    0.000 
#
# Total GULP energy -198233.806615 kJ/mol
# GULP energy per Si atom -12389.612913 kJ/mol
# Density = 1.737632 g / cm^3
# Si number density = 17.415964 Si / 1000 Ang^3
#
#
#
# Elastic Constant Matrix: (Units=GPa)
#
#
# Indices 1 2 3 4 5 6 
#
# 1 59.8026 30.2006 49.0159 -4.4757 -4.9414 -7.1484
# 2 30.2006 117.2300 54.2394 0.6709 0.5059 4.3355
# 3 49.0159 54.2394 95.8951 2.3129 -2.3874 -6.3219
# 4 -4.4757 0.6709 2.3129 23.1778 -2.7721 -0.4308
# 5 -4.9414 0.5059 -2.3874 -2.7721 27.6264 2.5809
# 6 -7.1484 4.3355 -6.3219 -0.4308 2.5809 18.1468
#
#
#
# Elastic Compliance Matrix: (Units=1/GPa)
#
#
# Indices 1 2 3 4 5 6 
#
# 1 0.031540 -0.001596 -0.014831 0.008294 0.004550 0.007188
# 2 -0.001596 0.012130 -0.006430 -0.000189 -0.000550 -0.005693
# 3 -0.014831 -0.006430 0.021956 -0.004979 -0.001458 0.003432
# 4 0.008294 -0.000189 -0.004979 0.045940 0.005490 0.001888
# 5 0.004550 -0.000550 -0.001458 0.005490 0.037804 -0.003830
# 6 0.007188 -0.005693 0.003432 0.001888 -0.003830 0.061083
#
#
# Mechanical properties :
#
#
# Convention : Reuss Voigt Hill
#
# Bulk Modulus (GPa) = 50.22204 59.98216 55.10210
# Shear Modulus (GPa) = 19.02553 23.08832 21.05693
#
# Velocity S-wave (km/s) = 3.30876 3.64496 3.48092
# Velocity P-wave (km/s) = 6.59519 7.22704 6.91833
#
# Compressibility (1/GPa) = 0.01991158
#
# Stress axis : x y z
#
# Youngs Moduli (GPa) = 31.70580 82.43850 45.54615
#
# Poissons Ratio (x) = 0.13158 0.67552
# Poissons Ratio (y) = 0.05060 0.29285
# Poissons Ratio (z) = 0.47024 0.53005
#
# Static dielectric constant tensor:
#      x y z
#    x 3.245810 -0.118150 -0.439710 
#    y -0.118150 3.583730 0.038020 
#    z -0.439710 0.038020 3.574430 
# 
# 
# High freq. dielectric constant tensor:
#      x y z
#    x 1.624950 0.000270 -0.015580 
#    y 0.000270 1.690970 0.000160 
#    z -0.015580 0.000160 1.667410 
# 
# From -- ./inp_files/472640.got.cif
#   From: 2010.06.25/outbox.cif.g09.slc.cpg/sg2_237_cif.got.tgz:472640.got - 2010.06.27 13:26:56.
