data_PCOD8041947
_publ_section_title
;
Structure prediction by ZEFSAII (Michael W. Deem and Ramdas Pophale) SiO2 
 PCOD8041947
Probable space group: P -1
;
_chemical_formula_sum "Si O2"
_cell_formula_units_Z 16
_cell_length_a 11.096693
_cell_length_b 13.154901
_cell_length_c 14.488181
_cell_angle_alpha 50.302771
_cell_angle_beta 136.697474
_cell_angle_gamma 147.722980
_cell_volume 773.010029
_symmetry_space_group_name_H-M "P -1"
_symmetry_group_IT_number 2
_symmetry_cell_setting 'triclinic'
loop_
_space_group_symop_operation_xyz
x,y,z
-x,-y,-z
loop_
_atom_site_type_symbol
_atom_site_label
_atom_site_fract_x
_atom_site_fract_y
_atom_site_fract_z
Si Si1 0.918432 0.164468 0.857285
Si Si2 0.098642 0.232185 0.366560
Si Si3 0.875403 0.601753 0.469071
Si Si4 0.855332 0.979063 0.614463
Si Si5 0.415639 0.616579 0.378448
Si Si6 0.782273 0.851506 0.848947
Si Si7 0.566473 0.957432 0.314381
Si Si8 0.778612 0.452628 0.300403
O O1 0.617148 0.017112 0.794745
O O2 0.023874 0.354766 0.760795
O O3 0.945209 0.059242 0.861909
O O4 0.072396 0.206479 0.011210
O O5 0.255051 0.453395 0.303073
O O6 0.284714 0.261517 0.527873
O O7 0.031171 0.090632 0.332210
O O8 0.841811 0.145865 0.320497
O O9 0.687930 0.476613 0.522679
O O10 0.749396 0.491424 0.365868
O O11 0.942983 0.794163 0.390763
O O12 0.129749 0.650064 0.593075
O O13 0.758933 0.865555 0.720464
O O14 0.611629 0.905554 0.466802
O O15 0.412467 0.771693 0.269435
O O16 0.494013 0.686651 0.820712
#
# Coordination Sequence:
#
# PCOD8041947 Si02
#       8
#     2   2   2   2   2   2   2   2
#     4  11  24  42  61  87 118 158 201 235 294 360
#     4  10  22  34  58  89 122 154 189 243 297 344
#     4  11  21  33  62  93 121 151 191 250 293 345
#     4  11  21  38  60  92 120 153 194 243 296 344
#     4  10  19  34  54  91 122 149 189 241 296 344
#     4  11  25  41  61  85 121 160 192 244 296 351
#     4  11  21  37  61  90 118 153 196 243 292 342
#     4  11  22  39  58  90 122 153 197 242 297 347
#
# _framework density 20.698308000000001
#
# number of rings (size 3 to 8) (size 9 to 14) (size 15 to 20)
#    0.000    1.250    3.750    4.125    3.500    1.000 
#    0.000    0.625    0.000    0.750    0.000    0.000 
#    0.000    0.000    0.000    0.000    0.000    0.000 
#
# Total GULP energy -198220.444091 kJ/mol
# GULP energy per Si atom -12388.777756 kJ/mol
# Density = 2.065120 g / cm^3
# Si number density = 20.698308 Si / 1000 Ang^3
#
#
#
# Elastic Constant Matrix: (Units=GPa)
#
#
# Indices 1 2 3 4 5 6 
#
# 1 65.0578 19.1265 19.8730 5.2256 10.2976 -0.4772
# 2 19.1265 83.5074 13.6071 4.0833 -1.9862 0.6901
# 3 19.8730 13.6071 82.2041 12.0626 17.0386 9.1800
# 4 5.2256 4.0833 12.0626 20.3126 1.7567 8.0423
# 5 10.2976 -1.9862 17.0386 1.7567 11.3569 12.6202
# 6 -0.4772 0.6901 9.1800 8.0423 12.6202 33.5439
#
#
#
# Elastic Compliance Matrix: (Units=1/GPa)
#
#
# Indices 1 2 3 4 5 6 
#
# 1 0.026936 -0.008345 0.007128 -0.014212 -0.062918 0.025683
# 2 -0.008345 0.015674 -0.006947 0.005145 0.033823 -0.012499
# 3 0.007128 -0.006947 0.026752 -0.019944 -0.072481 0.024974
# 4 -0.014212 0.005145 -0.019944 0.073605 0.079409 -0.042373
# 5 -0.062918 0.033823 -0.072481 0.079409 0.426788 -0.161363
# 6 0.025683 -0.012499 0.024974 -0.042373 -0.161363 0.094468
#
#
# Mechanical properties :
#
#
# Convention : Reuss Voigt Hill
#
# Bulk Modulus (GPa) = 18.85524 37.33139 28.09332
# Shear Modulus (GPa) = 7.16097 24.92021 16.04059
#
# Velocity S-wave (km/s) = 1.86204 3.47360 2.78685
# Velocity P-wave (km/s) = 3.70840 5.84491 4.89465
#
# Compressibility (1/GPa) = 0.05303567
#
# Stress axis : x y z
#
# Youngs Moduli (GPa) = 37.12556 63.79853 37.37974
#
# Poissons Ratio (x) = 0.53237 -0.26644
# Poissons Ratio (y) = 0.30980 0.25967
# Poissons Ratio (z) = -0.26463 0.44320
#
# Static dielectric constant tensor:
#      x y z
#    x 3.890200 -0.310870 0.101710 
#    y -0.310870 4.008370 0.049850 
#    z 0.101710 0.049850 3.437760 
# 
# 
# High freq. dielectric constant tensor:
#      x y z
#    x 1.811900 -0.012660 0.017240 
#    y -0.012660 1.833220 0.010690 
#    z 0.017240 0.010690 1.752280 
# 
# From -- ./inp_files/522358.got.cif
#   From: 2010.06.25/outbox.cif.g09.slc.cpg/sg2_262_cif.got.tgz:522358.got - 2010.06.27 13:26:56.
