data_PCOD8041685
_publ_section_title
;
Structure prediction by ZEFSAII (Michael W. Deem and Ramdas Pophale) SiO2 
 PCOD8041685
Probable space group: P -1
;
_chemical_formula_sum "Si O2"
_cell_formula_units_Z 14
_cell_length_a 13.612044
_cell_length_b 8.786850
_cell_length_c 9.051323
_cell_angle_alpha 89.421087
_cell_angle_beta 37.208591
_cell_angle_gamma 111.897646
_cell_volume 508.348781
_symmetry_space_group_name_H-M "P -1"
_symmetry_group_IT_number 2
_symmetry_cell_setting 'triclinic'
loop_
_space_group_symop_operation_xyz
x,y,z
-x,-y,-z
loop_
_atom_site_type_symbol
_atom_site_label
_atom_site_fract_x
_atom_site_fract_y
_atom_site_fract_z
Si Si1 0.767667 0.328804 0.657313
Si Si2 0.809188 0.929382 0.616182
Si Si3 0.536688 0.988190 0.753692
Si Si4 0.853256 0.636280 0.750639
Si Si5 0.457390 0.323183 0.793972
Si Si6 0.845887 0.742855 0.309029
Si Si7 0.299564 0.064591 0.707535
O O1 0.764313 0.503812 0.708324
O O2 0.003286 0.408210 0.342732
O O3 0.617408 0.210975 0.692031
O O4 0.681613 0.175307 0.901291
O O5 0.725155 0.008731 0.605384
O O6 0.618815 0.767766 0.949511
O O7 0.875180 0.828744 0.435480
O O8 0.014225 0.129787 0.449180
O O9 0.532783 0.938935 0.586794
O O10 0.666628 0.585566 0.082781
O O11 0.705342 0.506938 0.486102
O O12 0.393287 0.151276 0.757406
O O13 0.737570 0.793816 0.323159
O O14 0.082123 0.841940 0.974138
#
# Coordination Sequence:
#
# PCOD8041685 Si02
#       7
#     2   2   2   2   2   2   2
#     4   9  19  35  60  82 108 162 201 242 269 327
#     4  10  20  36  57  88 124 148 186 245 294 354
#     4   9  19  40  60  85 115 149 205 242 282 341
#     4  10  19  33  56  88 116 145 202 237 281 344
#     4  12  22  36  60  94 121 151 182 242 313 348
#     4  10  21  35  53  86 122 156 183 227 301 350
#     4  10  21  37  56  87 123 148 189 247 293 347
#
# _framework density 27.540147999999999
#
# number of rings (size 3 to 8) (size 9 to 14) (size 15 to 20)
#    0.000    2.000    1.429    3.000    2.000    0.000 
#    2.571    0.000    0.000    8.571    0.000    0.000 
#    0.000    0.000    0.000    0.000    0.000    0.000 
#
# Total GULP energy -173555.023144 kJ/mol
# GULP energy per Si atom -12396.787367 kJ/mol
# Density = 2.747747 g / cm^3
# Si number density = 27.540148 Si / 1000 Ang^3
#
#
#
# Elastic Constant Matrix: (Units=GPa)
#
#
# Indices 1 2 3 4 5 6 
#
# 1 37.6701 6.6266 17.7350 2.7259 -4.8212 19.6505
# 2 6.6266 147.3106 52.6602 -7.1979 -4.8797 9.3410
# 3 17.7350 52.6602 114.7257 -3.3407 -5.0341 12.9751
# 4 2.7259 -7.1979 -3.3407 71.3484 -2.7087 1.4592
# 5 -4.8212 -4.8797 -5.0341 -2.7087 41.4366 5.0744
# 6 19.6505 9.3410 12.9751 1.4592 5.0744 41.4024
#
#
#
# Elastic Compliance Matrix: (Units=1/GPa)
#
#
# Indices 1 2 3 4 5 6 
#
# 1 0.038563 0.001054 -0.004167 -0.000958 0.006242 -0.017966
# 2 0.001054 0.008218 -0.003730 0.000673 0.000842 -0.001312
# 3 -0.004167 -0.003730 0.011194 0.000344 0.000552 -0.000768
# 4 -0.000958 0.000673 0.000344 0.014183 0.000989 -0.000426
# 5 0.006242 0.000842 0.000552 0.000989 0.025891 -0.006534
# 6 -0.017966 -0.001312 -0.000768 -0.000426 -0.006534 0.034033
#
#
# Mechanical properties :
#
#
# Convention : Reuss Voigt Hill
#
# Bulk Modulus (GPa) = 22.57919 50.41667 36.49793
# Shear Modulus (GPa) = 31.14659 45.68312 38.41486
#
# Velocity S-wave (km/s) = 3.36661 4.07723 3.73884
# Velocity P-wave (km/s) = 4.82996 6.36486 5.64978
#
# Compressibility (1/GPa) = 0.04428856
#
# Stress axis : x y z
#
# Youngs Moduli (GPa) = 25.93169 121.67726 89.33308
#
# Poissons Ratio (x) = -0.12827 0.37227
# Poissons Ratio (y) = -0.02734 0.33324
# Poissons Ratio (z) = 0.10806 0.45390
#
# Static dielectric constant tensor:
#      x y z
#    x 5.298440 -0.218830 -0.416130 
#    y -0.218830 5.580330 0.200490 
#    z -0.416130 0.200490 4.956230 
# 
# 
# High freq. dielectric constant tensor:
#      x y z
#    x 2.133830 -0.010780 -0.022930 
#    y -0.010780 2.133340 -0.002220 
#    z -0.022930 -0.002220 2.092140 
# 
# From -- ./inp_files/333320.got.cif
#   From: 2010.06.25/outbox.cif.g09.slc.cpg/sg2_167_cif.got.tgz:333320.got - 2010.06.27 13:26:56.
