data_PCOD8041316
_publ_section_title
;
Structure prediction by ZEFSAII (Michael W. Deem and Ramdas Pophale) SiO2 
 PCOD8041316
Probable space group: P -1
;
_chemical_formula_sum "Si O2"
_cell_formula_units_Z 14
_cell_length_a 8.956278
_cell_length_b 20.452380
_cell_length_c 16.243868
_cell_angle_alpha 28.771551
_cell_angle_beta 36.883732
_cell_angle_gamma 29.439220
_cell_volume 695.485008
_symmetry_space_group_name_H-M "P -1"
_symmetry_group_IT_number 2
_symmetry_cell_setting 'triclinic'
loop_
_space_group_symop_operation_xyz
x,y,z
-x,-y,-z
loop_
_atom_site_type_symbol
_atom_site_label
_atom_site_fract_x
_atom_site_fract_y
_atom_site_fract_z
Si Si1 0.817958 0.768269 0.588726
Si Si2 0.275875 0.443417 0.673385
Si Si3 0.997216 0.809930 0.145828
Si Si4 0.873708 0.145860 0.780905
Si Si5 0.411242 0.875964 0.396414
Si Si6 0.775098 0.985089 0.504067
Si Si7 0.844157 0.504593 0.646266
O O1 0.824969 0.822845 0.618151
O O2 0.024419 0.565641 0.718922
O O3 0.950349 0.836449 0.390105
O O4 0.466800 0.850574 0.625637
O O5 0.500000 0.500000 0.500000
O O6 0.505243 0.248541 0.813404
O O7 0.082557 0.460899 0.660977
O O8 0.645522 0.869218 0.236673
O O9 0.100853 0.774332 0.234753
O O10 0.205473 0.642577 0.181327
O O11 0.022665 0.950246 0.940755
O O12 0.528921 0.692593 0.584932
O O13 0.098495 0.959156 0.391619
O O14 0.352304 0.994404 0.369632
O O15 0.000000 0.500000 0.500000
#
# Coordination Sequence:
#
# PCOD8041316 Si02
#       7
#     2   2   2   2   2   2   2
#     4  10  19  35  54  83 100 139 177 218 258 311
#     4  10  19  32  53  80 106 133 177 224 261 307
#     4  10  21  36  55  79 109 138 172 222 271 316
#     4  10  21  36  55  79 109 138 172 222 271 316
#     4  10  19  35  54  83 100 139 177 218 258 311
#     4  10  20  32  56  76 108 138 178 216 250 308
#     4  10  19  32  53  80 106 133 177 224 261 307
#
# _framework density 20.129836000000001
#
# number of rings (size 3 to 8) (size 9 to 14) (size 15 to 20)
#    0.000    2.000    2.857    2.571   10.000    0.571 
#    0.000    0.000    0.000   10.286    0.000    0.000 
#    0.000    0.000    0.000    0.000    0.000    0.000 
#
# Total GULP energy -173466.084161 kJ/mol
# GULP energy per Si atom -12390.434583 kJ/mol
# Density = 2.008402 g / cm^3
# Si number density = 20.129836 Si / 1000 Ang^3
#
#
#
# Elastic Constant Matrix: (Units=GPa)
#
#
# Indices 1 2 3 4 5 6 
#
# 1 122.3301 54.9176 13.2944 -15.6188 -11.7616 4.6457
# 2 54.9176 103.6364 16.0441 -18.7475 -1.6825 0.6682
# 3 13.2944 16.0441 48.7200 -14.0985 -4.8407 5.0805
# 4 -15.6188 -18.7475 -14.0985 22.6466 2.7995 -5.6954
# 5 -11.7616 -1.6825 -4.8407 2.7995 18.9469 -5.5178
# 6 4.6457 0.6682 5.0805 -5.6954 -5.5178 35.5571
#
#
#
# Elastic Compliance Matrix: (Units=1/GPa)
#
#
# Indices 1 2 3 4 5 6 
#
# 1 0.011624 -0.005589 0.000065 0.002643 0.006341 -0.000016
# 2 -0.005589 0.014167 -0.001361 0.007785 -0.003304 0.001393
# 3 0.000065 -0.001361 0.025528 0.014115 0.004144 -0.000726
# 4 0.002643 0.007785 0.014115 0.063233 -0.001242 0.007427
# 5 0.006341 -0.003304 0.004144 -0.001242 0.059919 0.007741
# 6 -0.000016 0.001393 -0.000726 0.007427 0.007741 0.030594
#
#
# Mechanical properties :
#
#
# Convention : Reuss Voigt Hill
#
# Bulk Modulus (GPa) = 26.63130 49.24429 37.93779
# Shear Modulus (GPa) = 21.61220 28.12548 24.86884
#
# Velocity S-wave (km/s) = 3.28020 3.74197 3.51867
# Velocity P-wave (km/s) = 5.25402 6.57163 5.94941
#
# Compressibility (1/GPa) = 0.03754981
#
# Stress axis : x y z
#
# Youngs Moduli (GPa) = 86.02764 70.58723 39.17246
#
# Poissons Ratio (x) = 0.39448 -0.00255
# Poissons Ratio (y) = 0.48077 0.05332
# Poissons Ratio (z) = -0.00559 0.09608
#
# Static dielectric constant tensor:
#      x y z
#    x 3.798010 -0.129290 -0.017390 
#    y -0.129290 4.317310 -0.589930 
#    z -0.017390 -0.589930 3.328310 
# 
# 
# High freq. dielectric constant tensor:
#      x y z
#    x 1.804690 0.000860 -0.008190 
#    y 0.000860 1.799480 -0.027600 
#    z -0.008190 -0.027600 1.717780 
# 
# From -- ./inp_files/309626.got.cif
#   From: 2010.06.25/outbox.cif.g09.slc.cpg/sg2_155_cif.got.tgz:309626.got - 2010.06.27 13:26:56.
