data_PCOD8041147
_publ_section_title
;
Structure prediction by ZEFSAII (Michael W. Deem and Ramdas Pophale) SiO2 
 PCOD8041147
Probable space group: P -1
;
_chemical_formula_sum "Si O2"
_cell_formula_units_Z 16
_cell_length_a 31.710319
_cell_length_b 8.483771
_cell_length_c 9.812197
_cell_angle_alpha 148.551508
_cell_angle_beta 34.742180
_cell_angle_gamma 140.155832
_cell_volume 764.810612
_symmetry_space_group_name_H-M "P -1"
_symmetry_group_IT_number 2
_symmetry_cell_setting 'triclinic'
loop_
_space_group_symop_operation_xyz
x,y,z
-x,-y,-z
loop_
_atom_site_type_symbol
_atom_site_label
_atom_site_fract_x
_atom_site_fract_y
_atom_site_fract_z
Si Si1 0.309557 0.681488 0.629259
Si Si2 0.048949 0.965918 0.640942
Si Si3 0.040123 0.606707 0.683131
Si Si4 0.699094 0.680666 0.333564
Si Si5 0.467398 0.540249 0.469780
Si Si6 0.522863 0.249053 0.852247
Si Si7 0.789724 0.256546 0.655898
Si Si8 0.781055 0.890997 0.689475
O O1 0.316455 0.505933 0.621855
O O2 0.391971 0.787676 0.423101
O O3 0.254958 0.466681 0.508297
O O4 0.274254 0.979626 0.966273
O O5 0.046559 0.788116 0.658177
O O6 0.000830 0.749681 0.494472
O O7 0.135843 0.077983 0.442566
O O8 0.011086 0.257973 0.974035
O O9 0.123707 0.633424 0.544507
O O10 0.619341 0.649812 0.447213
O O11 0.737930 0.039227 0.522075
O O12 0.755811 0.555672 0.991228
O O13 0.500000 0.500000 0.500000
O O14 0.470750 0.907014 0.706296
O O15 0.514944 0.377532 0.118866
O O16 0.500000 0.500000 0.000000
O O17 0.789354 0.076939 0.664785
#
# Coordination Sequence:
#
# PCOD8041147 Si02
#       8
#     2   2   2   2   2   2   2   2
#     4  10  19  31  51  75 101 135 186 233 266 323
#     4   9  15  23  36  55  92 135 171 210 259 323
#     4   9  15  23  36  57  88 133 179 210 251 321
#     4  10  19  32  51  72 103 138 180 231 276 328
#     4  12  26  42  60  86 118 152 188 239 302 346
#     4  12  24  40  64  86 112 150 196 244 283 339
#     4   9  17  27  43  67  95 134 182 225 263 318
#     4   9  17  27  41  68  99 134 176 223 273 318
#
# _framework density 20.920210000000001
#
# number of rings (size 3 to 8) (size 9 to 14) (size 15 to 20)
#    0.000    2.000    1.250    3.750    3.500    6.000 
#    0.000    0.000    0.000    0.000    0.000    0.000 
#    0.000    0.000    0.000   78.750    0.000   35.000 
#
# Total GULP energy -198401.162984 kJ/mol
# GULP energy per Si atom -12400.072687 kJ/mol
# Density = 2.087259 g / cm^3
# Si number density = 20.920210 Si / 1000 Ang^3
#
#
#
# Elastic Constant Matrix: (Units=GPa)
#
#
# Indices 1 2 3 4 5 6 
#
# 1 79.6805 54.3341 51.8913 -6.6188 0.9444 41.3682
# 2 54.3341 71.1015 49.8585 3.8142 -0.2274 46.4646
# 3 51.8913 49.8585 185.5183 -0.3800 -0.5367 33.9519
# 4 -6.6188 3.8142 -0.3800 39.7009 17.3915 -1.3394
# 5 0.9444 -0.2274 -0.5367 17.3915 23.5987 1.1117
# 6 41.3682 46.4646 33.9519 -1.3394 1.1117 40.6120
#
#
#
# Elastic Compliance Matrix: (Units=1/GPa)
#
#
# Indices 1 2 3 4 5 6 
#
# 1 0.031854 -0.014401 -0.002620 0.009738 -0.008026 -0.013240
# 2 -0.014401 0.070660 -0.003100 -0.019580 0.018667 -0.064739
# 3 -0.002620 -0.003100 0.006874 -0.000221 0.000373 0.000451
# 4 0.009738 -0.019580 -0.000221 0.043954 -0.033685 0.015039
# 5 -0.008026 0.018667 0.000373 -0.033685 0.068486 -0.016479
# 6 -0.013240 -0.064739 0.000451 0.015039 -0.016479 0.112748
#
#
# Mechanical properties :
#
#
# Convention : Reuss Voigt Hill
#
# Bulk Modulus (GPa) = 14.46206 72.05199 43.25703
# Shear Modulus (GPa) = 12.56702 32.79677 22.68190
#
# Velocity S-wave (km/s) = 2.45360 3.96372 3.29631
# Velocity P-wave (km/s) = 3.86715 7.44743 5.93376
#
# Compressibility (1/GPa) = 0.06914642
#
# Stress axis : x y z
#
# Youngs Moduli (GPa) = 31.39306 14.15233 145.46812
#
# Poissons Ratio (x) = 0.20381 0.38111
# Poissons Ratio (y) = 0.45209 0.45097
# Poissons Ratio (z) = 0.08225 0.04387
#
# Static dielectric constant tensor:
#      x y z
#    x 3.404620 0.536990 -0.017570 
#    y 0.536990 3.918060 -0.009270 
#    z -0.017570 -0.009270 4.208480 
# 
# 
# High freq. dielectric constant tensor:
#      x y z
#    x 1.779390 0.047320 -0.003940 
#    y 0.047320 1.799830 0.005370 
#    z -0.003940 0.005370 1.842110 
# 
# From -- ./inp_files/352515.got.cif
#   From: 2010.06.25/outbox.cif.g09.slc.cpg/sg2_177_cif.got.tgz:352515.got - 2010.06.27 13:26:56.
