data_PCOD8041413
_publ_section_title
;
Structure prediction by ZEFSAII (Michael W. Deem and Ramdas Pophale) SiO2 
 PCOD8041413
Probable space group: P -1
;
_chemical_formula_sum "Si O2"
_cell_formula_units_Z 16
_cell_length_a 13.870673
_cell_length_b 11.519081
_cell_length_c 13.810521
_cell_angle_alpha 31.795538
_cell_angle_beta 57.957305
_cell_angle_gamma 78.023378
_cell_volume 826.272466
_symmetry_space_group_name_H-M "P -1"
_symmetry_group_IT_number 2
_symmetry_cell_setting 'triclinic'
loop_
_space_group_symop_operation_xyz
x,y,z
-x,-y,-z
loop_
_atom_site_type_symbol
_atom_site_label
_atom_site_fract_x
_atom_site_fract_y
_atom_site_fract_z
Si Si1 0.038516 0.113513 0.004336
Si Si2 0.242899 0.154743 0.148199
Si Si3 0.127696 0.880031 0.596030
Si Si4 0.687641 0.775703 0.266105
Si Si5 0.843942 0.268024 0.973342
Si Si6 0.460834 0.208435 0.848932
Si Si7 0.046113 0.184968 0.551489
Si Si8 0.176953 0.554124 0.947763
O O1 0.200185 0.253197 0.830742
O O2 0.954868 0.875682 0.292209
O O3 0.986393 0.309365 0.905785
O O4 0.000000 0.000000 0.000000
O O5 0.230608 0.020278 0.353295
O O6 0.370302 0.194680 0.995652
O O7 0.267618 0.441478 0.949174
O O8 0.108332 0.970059 0.289911
O O9 0.177050 0.717446 0.741571
O O10 0.133312 0.098157 0.507671
O O11 0.974573 0.691749 0.771417
O O12 0.591540 0.503145 0.565647
O O13 0.613803 0.851738 0.172531
O O14 0.750928 0.998079 0.157141
O O15 0.880187 0.503772 0.715090
O O16 0.765797 0.272132 0.108116
O O17 0.500000 0.000000 0.000000
#
# Coordination Sequence:
#
# PCOD8041413 Si02
#       8
#     2   2   2   2   2   2   2   2
#     4  10  22  36  58  95 127 158 192 244 312 372
#     4  11  21  37  60  90 117 160 210 245 292 364
#     4  10  19  32  56  94 128 161 192 232 310 372
#     4  10  25  43  61  90 119 163 214 248 301 362
#     4  11  21  37  65  95 131 155 188 255 319 369
#     4  11  26  46  65  81 117 168 217 258 289 351
#     4  11  19  34  59  94 130 155 194 245 308 373
#     4  10  19  33  59  91 127 159 185 250 308 364
#
# _framework density 19.364073000000001
#
# number of rings (size 3 to 8) (size 9 to 14) (size 15 to 20)
#    0.000    1.500    5.000    0.750    1.750    6.000 
#    0.000    0.625    0.000    1.500    0.000    0.000 
#    0.000    0.000    0.000    0.000    0.000    0.000 
#
# Total GULP energy -198394.375117 kJ/mol
# GULP energy per Si atom -12399.648445 kJ/mol
# Density = 1.932000 g / cm^3
# Si number density = 19.364073 Si / 1000 Ang^3
#
#
#
# Elastic Constant Matrix: (Units=GPa)
#
#
# Indices 1 2 3 4 5 6 
#
# 1 87.0250 56.3609 53.1626 -0.6850 19.8077 -9.4172
# 2 56.3609 134.2191 66.4942 4.4347 9.4809 -9.1091
# 3 53.1626 66.4942 118.4318 5.8633 23.8460 -8.6388
# 4 -0.6850 4.4347 5.8633 36.9251 4.8137 4.0540
# 5 19.8077 9.4809 23.8460 4.8137 32.4567 -1.7517
# 6 -9.4172 -9.1091 -8.6388 4.0540 -1.7517 36.6689
#
#
#
# Elastic Compliance Matrix: (Units=1/GPa)
#
#
# Indices 1 2 3 4 5 6 
#
# 1 0.019581 -0.005602 -0.004095 0.002448 -0.007558 0.002041
# 2 -0.005602 0.012053 -0.004882 -0.001342 0.003724 0.000731
# 3 -0.004095 -0.004882 0.014449 -0.001042 -0.006485 0.000945
# 4 0.002448 -0.001342 -0.001042 0.028435 -0.004732 -0.003320
# 5 -0.007558 0.003724 -0.006485 -0.004732 0.039795 -0.000120
# 6 0.002041 0.000731 0.000945 -0.003320 -0.000120 0.028561
#
#
# Mechanical properties :
#
#
# Convention : Reuss Voigt Hill
#
# Bulk Modulus (GPa) = 59.08663 76.85681 67.97172
# Shear Modulus (GPa) = 28.14139 32.12068 30.13103
#
# Velocity S-wave (km/s) = 3.81632 4.07723 3.94893
# Velocity P-wave (km/s) = 7.07099 7.87030 7.48133
#
# Compressibility (1/GPa) = 0.01692430
#
# Stress axis : x y z
#
# Youngs Moduli (GPa) = 51.06990 82.96928 69.20767
#
# Poissons Ratio (x) = 0.46482 0.28339
# Poissons Ratio (y) = 0.28611 0.33789
# Poissons Ratio (z) = 0.20912 0.40507
#
# Static dielectric constant tensor:
#      x y z
#    x 4.257910 -0.813390 0.492880 
#    y -0.813390 4.312480 -0.158110 
#    z 0.492880 -0.158110 3.569140 
# 
# 
# High freq. dielectric constant tensor:
#      x y z
#    x 1.742080 0.000170 0.036000 
#    y 0.000170 1.766950 0.004270 
#    z 0.036000 0.004270 1.740710 
# 
# From -- ./inp_files/433065.got.cif
#   From: 2010.06.25/outbox.cif.g09.slc.cpg/sg2_217_cif.got.tgz:433065.got - 2010.06.27 13:26:56.
