data_PCOD8041130
_publ_section_title
;
Structure prediction by ZEFSAII (Michael W. Deem and Ramdas Pophale) SiO2 
 PCOD8041130
Probable space group: P -1
;
_chemical_formula_sum "Si O2"
_cell_formula_units_Z 16
_cell_length_a 15.964467
_cell_length_b 12.142343
_cell_length_c 15.587180
_cell_angle_alpha 59.298710
_cell_angle_beta 18.780647
_cell_angle_gamma 59.870213
_cell_volume 834.535535
_symmetry_space_group_name_H-M "P -1"
_symmetry_group_IT_number 2
_symmetry_cell_setting 'triclinic'
loop_
_space_group_symop_operation_xyz
x,y,z
-x,-y,-z
loop_
_atom_site_type_symbol
_atom_site_label
_atom_site_fract_x
_atom_site_fract_y
_atom_site_fract_z
Si Si1 0.689429 0.377088 0.754769
Si Si2 0.768454 0.747638 0.662015
Si Si3 0.754894 0.919779 0.754149
Si Si4 0.693442 0.654902 0.203683
Si Si5 0.171095 0.619779 0.026300
Si Si6 0.301969 0.340840 0.411169
Si Si7 0.650490 0.670012 0.045115
Si Si8 0.220538 0.647807 0.771767
O O1 0.754084 0.524662 0.637258
O O2 0.626399 0.338736 0.732092
O O3 0.933410 0.294663 0.588407
O O4 0.430823 0.354339 0.069959
O O5 0.713802 0.885401 0.707131
O O6 0.734637 0.765437 0.585068
O O7 0.804008 0.785151 0.810792
O O8 0.000000 0.000000 0.500000
O O9 0.500000 0.000000 0.000000
O O10 0.598854 0.698942 0.183471
O O11 0.474035 0.709564 0.462101
O O12 0.737589 0.502553 0.226613
O O13 0.967010 0.710513 0.942904
O O14 0.900876 0.673745 0.309068
O O15 0.406845 0.672968 0.829808
O O16 0.178713 0.464682 0.079730
O O17 0.187334 0.677073 0.892722
#
# Coordination Sequence:
#
# PCOD8041130 Si02
#       8
#     2   2   2   2   2   2   2   2
#     4  10  19  31  48  70  98 126 159 201 239 285
#     4  11  21  34  49  68  94 126 167 203 243 283
#     4  11  23  37  51  68  96 129 167 213 247 271
#     4   9  17  28  47  66  96 131 162 187 227 289
#     4  10  20  31  49  74 106 131 158 192 238 294
#     4  11  19  30  48  71  97 130 161 192 234 296
#     4   9  20  34  50  72  98 135 168 197 241 288
#     4   9  17  29  43  70 100 129 153 189 232 281
#
# _framework density 19.172342
#
# number of rings (size 3 to 8) (size 9 to 14) (size 15 to 20)
#    0.000    2.000    0.000    6.000    0.000   10.000 
#    0.000    0.000    0.000    0.000    0.000    0.000 
#    0.000   20.000    0.000    0.000    0.000    0.000 
#
# Total GULP energy -198357.615970 kJ/mol
# GULP energy per Si atom -12397.350998 kJ/mol
# Density = 1.912871 g / cm^3
# Si number density = 19.172342 Si / 1000 Ang^3
#
#
#
# Elastic Constant Matrix: (Units=GPa)
#
#
# Indices 1 2 3 4 5 6 
#
# 1 130.7906 29.9116 46.1778 0.9566 7.8416 20.8079
# 2 29.9116 39.4586 21.5546 -3.3827 4.5591 19.9007
# 3 46.1778 21.5546 124.6948 0.4686 1.4213 11.7266
# 4 0.9566 -3.3827 0.4686 14.9842 2.9768 0.6443
# 5 7.8416 4.5591 1.4213 2.9768 34.1594 6.3451
# 6 20.8079 19.9007 11.7266 0.6443 6.3451 23.1196
#
#
#
# Elastic Compliance Matrix: (Units=1/GPa)
#
#
# Indices 1 2 3 4 5 6 
#
# 1 0.010262 -0.004399 -0.002665 -0.001233 -0.000838 -0.003833
# 2 -0.004399 0.051441 -0.003656 0.013614 0.000343 -0.038938
# 3 -0.002665 -0.003656 0.009586 -0.001117 0.000701 0.000523
# 4 -0.001233 0.013614 -0.001117 0.071521 -0.005779 -0.010449
# 5 -0.000838 0.000343 0.000701 -0.005779 0.031450 -0.008367
# 6 -0.003833 -0.038938 0.000523 -0.010449 -0.008367 0.082542
#
#
# Mechanical properties :
#
#
# Convention : Reuss Voigt Hill
#
# Bulk Modulus (GPa) = 20.06109 54.47024 37.26567
# Shear Modulus (GPa) = 16.95731 27.60598 22.28164
#
# Velocity S-wave (km/s) = 2.97723 3.79870 3.41277
# Velocity P-wave (km/s) = 4.72279 6.90744 5.91682
#
# Compressibility (1/GPa) = 0.04984773
#
# Stress axis : x y z
#
# Youngs Moduli (GPa) = 97.44768 19.43992 104.32264
#
# Poissons Ratio (x) = 0.08551 0.27804
# Poissons Ratio (y) = 0.42865 0.38142
# Poissons Ratio (z) = 0.25972 0.07108
#
# Static dielectric constant tensor:
#      x y z
#    x 3.658240 0.258550 0.027990 
#    y 0.258550 3.093660 0.064840 
#    z 0.027990 0.064840 3.623380 
# 
# 
# High freq. dielectric constant tensor:
#      x y z
#    x 1.753440 0.022880 -0.003760 
#    y 0.022880 1.671020 0.007510 
#    z -0.003760 0.007510 1.762520 
# 
# From -- ./inp_files/509853.got.cif
#   From: 2010.06.25/outbox.cif.g09.slc.cpg/sg2_255_cif.got.tgz:509853.got - 2010.06.27 13:26:56.
