data_PCOD8041131
_publ_section_title
;
Structure prediction by ZEFSAII (Michael W. Deem and Ramdas Pophale) SiO2 
 PCOD8041131
Probable space group: P -1
;
_chemical_formula_sum "Si O2"
_cell_formula_units_Z 14
_cell_length_a 10.391915
_cell_length_b 11.064031
_cell_length_c 12.576252
_cell_angle_alpha 47.188146
_cell_angle_beta 69.093530
_cell_angle_gamma 42.215726
_cell_volume 680.546367
_symmetry_space_group_name_H-M "P -1"
_symmetry_group_IT_number 2
_symmetry_cell_setting 'triclinic'
loop_
_space_group_symop_operation_xyz
x,y,z
-x,-y,-z
loop_
_atom_site_type_symbol
_atom_site_label
_atom_site_fract_x
_atom_site_fract_y
_atom_site_fract_z
Si Si1 0.222219 0.188975 0.565003
Si Si2 0.133381 0.331297 0.723243
Si Si3 0.866818 0.562677 0.847615
Si Si4 0.379724 0.399871 0.697867
Si Si5 0.870936 0.379392 0.161864
Si Si6 0.410600 0.928374 0.465993
Si Si7 0.752711 0.156933 0.614540
O O1 0.204762 0.142314 0.721955
O O2 0.350813 0.249513 0.495489
O O3 0.004056 0.412941 0.447601
O O4 0.330792 0.963758 0.589039
O O5 0.321452 0.266474 0.757277
O O6 0.004173 0.355541 0.839857
O O7 0.001132 0.584484 0.849635
O O8 0.677239 0.818340 0.699419
O O9 0.798689 0.486157 0.999962
O O10 0.323507 0.479476 0.790771
O O11 0.619063 0.214251 0.721128
O O12 0.258344 0.637366 0.519387
O O13 0.015783 0.093394 0.287886
O O14 0.347373 0.833255 0.467673
#
# Coordination Sequence:
#
# PCOD8041131 Si02
#       7
#     2   2   2   2   2   2   2
#     4   9  16  26  46  68  93 116 151 189 234 265
#     4   9  16  29  45  70  94 117 149 191 230 272
#     4   8  16  29  44  64  97 121 148 186 230 278
#     4  10  19  31  48  71  95 121 153 188 227 277
#     4   9  17  31  44  66  97 126 148 184 230 276
#     4   9  16  29  45  70  94 117 149 191 230 272
#     4  10  19  31  48  71  95 121 153 188 227 277
#
# _framework density 20.571707
#
# number of rings (size 3 to 8) (size 9 to 14) (size 15 to 20)
#    0.000    2.857    1.429    1.286    0.000    0.000 
#    2.571    2.857    0.000    0.000    0.000   32.000 
#    0.000    0.000    0.000    0.000    0.000    0.000 
#
# Total GULP energy -173437.897640 kJ/mol
# GULP energy per Si atom -12388.421260 kJ/mol
# Density = 2.052488 g / cm^3
# Si number density = 20.571707 Si / 1000 Ang^3
#
#
#
# Elastic Constant Matrix: (Units=GPa)
#
#
# Indices 1 2 3 4 5 6 
#
# 1 27.5258 5.9718 4.2576 4.3353 2.7779 -3.2786
# 2 5.9718 125.8999 36.2709 43.1218 -0.9611 -2.4502
# 3 4.2576 36.2709 61.0665 31.7557 0.3387 3.3769
# 4 4.3353 43.1218 31.7557 40.1558 -3.3157 -4.2957
# 5 2.7779 -0.9611 0.3387 -3.3157 12.8442 2.5783
# 6 -3.2786 -2.4502 3.3769 -4.2957 2.5783 16.7176
#
#
#
# Elastic Compliance Matrix: (Units=1/GPa)
#
#
# Indices 1 2 3 4 5 6 
#
# 1 0.039237 -0.000493 -0.001683 -0.002306 -0.010891 0.009050
# 2 -0.000493 0.012689 -0.000322 -0.013642 -0.002188 -0.001340
# 3 -0.001683 -0.000322 0.030575 -0.025349 -0.004527 -0.012369
# 4 -0.002306 -0.013642 -0.025349 0.062715 0.012967 0.016784
# 5 -0.010891 -0.002188 -0.004527 0.012967 0.085812 -0.011445
# 6 0.009050 -0.001340 -0.012369 0.016784 -0.011445 0.069972
#
#
# Mechanical properties :
#
#
# Convention : Reuss Voigt Hill
#
# Bulk Modulus (GPa) = 12.90247 34.16587 23.53417
# Shear Modulus (GPa) = 15.06793 25.14297 20.10545
#
# Velocity S-wave (km/s) = 2.70933 3.49981 3.12963
# Velocity P-wave (km/s) = 4.00910 5.74245 4.95220
#
# Compressibility (1/GPa) = 0.07750455
#
# Stress axis : x y z
#
# Youngs Moduli (GPa) = 25.48607 78.81008 32.70638
#
# Poissons Ratio (x) = 0.03887 0.05506
# Poissons Ratio (y) = 0.01257 0.01052
# Poissons Ratio (z) = 0.04290 0.02535
#
# Static dielectric constant tensor:
#      x y z
#    x 3.256390 -0.053780 0.205310 
#    y -0.053780 4.224830 0.511510 
#    z 0.205310 0.511510 3.630860 
# 
# 
# High freq. dielectric constant tensor:
#      x y z
#    x 1.757590 -0.014080 0.020460 
#    y -0.014080 1.827130 0.035680 
#    z 0.020460 0.035680 1.755500 
# 
# From -- ./inp_files/168584.got.cif
#   From: 2010.06.25/outbox.cif.g09.slc.cpg/sg2_85_cif.got.tgz:168584.got - 2010.06.27 13:26:56.
