data_PCOD8041460
_publ_section_title
;
Structure prediction by ZEFSAII (Michael W. Deem and Ramdas Pophale) SiO2 
 PCOD8041460
Probable space group: P -1
;
_chemical_formula_sum "Si O2"
_cell_formula_units_Z 16
_cell_length_a 10.600097
_cell_length_b 19.116256
_cell_length_c 15.653407
_cell_angle_alpha 136.898070
_cell_angle_beta 153.948880
_cell_angle_gamma 59.165586
_cell_volume 836.135319
_symmetry_space_group_name_H-M "P -1"
_symmetry_group_IT_number 2
_symmetry_cell_setting 'triclinic'
loop_
_space_group_symop_operation_xyz
x,y,z
-x,-y,-z
loop_
_atom_site_type_symbol
_atom_site_label
_atom_site_fract_x
_atom_site_fract_y
_atom_site_fract_z
Si Si1 0.359759 0.111016 0.817602
Si Si2 0.892468 0.724806 0.835250
Si Si3 0.779276 0.059347 0.893234
Si Si4 0.293675 0.517683 0.465420
Si Si5 0.214847 0.297919 0.937186
Si Si6 0.813185 0.331448 0.585743
Si Si7 0.857402 0.137855 0.729620
Si Si8 0.473619 0.114234 0.078889
O O1 0.600456 0.082488 0.884022
O O2 0.335414 0.227787 0.883159
O O3 0.531681 0.150840 0.049075
O O4 0.000000 0.000000 0.500000
O O5 0.918174 0.606555 0.726407
O O6 0.516493 0.687674 0.587313
O O7 0.014293 0.815795 0.913467
O O8 0.110605 0.774883 0.097547
O O9 0.504730 0.969797 0.582643
O O10 0.000000 0.000000 0.000000
O O11 0.500000 0.500000 0.500000
O O12 0.074374 0.566483 0.326860
O O13 0.511120 0.610428 0.751943
O O14 0.080487 0.364112 0.852270
O O15 0.928993 0.202406 0.738834
O O16 0.748205 0.212527 0.392922
O O17 0.112030 0.090393 0.864184
O O18 0.500000 0.000000 0.000000
#
# Coordination Sequence:
#
# PCOD8041460 Si02
#       8
#     2   2   2   2   2   2   2   2
#     4  11  21  38  61  90 123 158 204 254 302 361
#     4  10  22  39  57  85 130 162 195 253 315 354
#     4  12  25  39  59  92 128 164 202 247 314 378
#     4  10  19  39  59  91 124 158 207 257 299 359
#     4  11  19  37  64  93 120 154 213 255 298 357
#     4  10  20  35  62  92 119 161 208 253 299 365
#     4  10  20  38  58  88 124 160 196 258 304 362
#     4  10  19  32  60  90 119 153 205 251 303 357
#
# _framework density 19.135659
#
# number of rings (size 3 to 8) (size 9 to 14) (size 15 to 20)
#    0.000    1.500    7.500    1.875    3.500    2.000 
#    2.250    0.625    0.000    0.750    0.000    0.000 
#    0.000    0.000    0.000    0.000    0.000    0.000 
#
# Total GULP energy -198238.833804 kJ/mol
# GULP energy per Si atom -12389.927113 kJ/mol
# Density = 1.909211 g / cm^3
# Si number density = 19.135659 Si / 1000 Ang^3
#
#
#
# Elastic Constant Matrix: (Units=GPa)
#
#
# Indices 1 2 3 4 5 6 
#
# 1 65.3209 35.8096 31.2933 1.0850 -2.8263 -6.5166
# 2 35.8096 152.0849 50.6640 14.3119 -4.0409 9.7555
# 3 31.2933 50.6640 72.6672 2.5664 -11.9080 1.0521
# 4 1.0850 14.3119 2.5664 32.7090 6.2443 -5.7120
# 5 -2.8263 -4.0409 -11.9080 6.2443 29.4837 3.2652
# 6 -6.5166 9.7555 1.0521 -5.7120 3.2652 36.2581
#
#
#
# Elastic Compliance Matrix: (Units=1/GPa)
#
#
# Indices 1 2 3 4 5 6 
#
# 1 0.020991 -0.003136 -0.007457 0.002720 -0.002614 0.005497
# 2 -0.003136 0.009696 -0.005148 -0.004448 0.000307 -0.003752
# 3 -0.007457 -0.005148 0.021892 -0.000956 0.007783 -0.001442
# 4 0.002720 -0.004448 -0.000956 0.035685 -0.009197 0.008163
# 5 -0.002614 0.000307 0.007783 -0.009197 0.039440 -0.005779
# 6 0.005497 -0.003752 -0.001442 0.008163 -0.005779 0.031426
#
#
# Mechanical properties :
#
#
# Convention : Reuss Voigt Hill
#
# Bulk Modulus (GPa) = 47.40099 58.40076 52.90088
# Shear Modulus (GPa) = 25.29813 31.17723 28.23768
#
# Velocity S-wave (km/s) = 3.63993 4.04081 3.84560
# Velocity P-wave (km/s) = 6.51846 7.23577 6.88646
#
# Compressibility (1/GPa) = 0.02109660
#
# Stress axis : x y z
#
# Youngs Moduli (GPa) = 47.63982 103.13475 45.67944
#
# Poissons Ratio (x) = 0.32347 0.34062
# Poissons Ratio (y) = 0.14942 0.23515
# Poissons Ratio (z) = 0.35524 0.53092
#
# Static dielectric constant tensor:
#      x y z
#    x 3.443030 0.008170 -0.185520 
#    y 0.008170 3.737570 0.321840 
#    z -0.185520 0.321840 3.411120 
# 
# 
# High freq. dielectric constant tensor:
#      x y z
#    x 1.721720 -0.001710 -0.033420 
#    y -0.001710 1.761000 0.006760 
#    z -0.033420 0.006760 1.724180 
# 
# From -- ./inp_files/570596.got.cif
#   From: 2010.06.25/outbox.cif.g09.slc.cpg/sg2_286_cif.got.tgz:570596.got - 2010.06.27 13:26:56.
