data_PCOD8041856
_publ_section_title
;
Structure prediction by ZEFSAII (Michael W. Deem and Ramdas Pophale) SiO2 
 PCOD8041856
Probable space group: P -1
;
_chemical_formula_sum "Si O2"
_cell_formula_units_Z 12
_cell_length_a 14.530181
_cell_length_b 9.556828
_cell_length_c 16.263941
_cell_angle_alpha 31.049499
_cell_angle_beta 35.207151
_cell_angle_gamma 29.146808
_cell_volume 545.630057
_symmetry_space_group_name_H-M "P -1"
_symmetry_group_IT_number 2
_symmetry_cell_setting 'triclinic'
loop_
_space_group_symop_operation_xyz
x,y,z
-x,-y,-z
loop_
_atom_site_type_symbol
_atom_site_label
_atom_site_fract_x
_atom_site_fract_y
_atom_site_fract_z
Si Si1 0.782999 0.877160 0.823513
Si Si2 0.067450 0.240088 0.828671
Si Si3 0.467840 0.839715 0.828774
Si Si4 0.590121 0.749659 0.176411
Si Si5 0.904041 0.433414 0.677387
Si Si6 0.983505 0.186885 0.181230
O O1 0.904654 0.993728 0.723450
O O2 0.937279 0.526716 0.844997
O O3 0.628325 0.153673 0.730785
O O4 0.658256 0.841259 0.000101
O O5 0.021947 0.398294 0.691218
O O6 0.298356 0.040630 0.782340
O O7 0.000000 0.000000 0.000000
O O8 0.675750 0.744682 0.691348
O O9 0.408665 0.054788 0.845518
O O10 0.500000 0.500000 0.000000
O O11 0.749704 0.351897 0.276614
O O12 0.000000 0.500000 0.500000
O O13 0.923422 0.087066 0.821393
O O14 0.000000 0.500000 0.000000
#
# Coordination Sequence:
#
# PCOD8041856 Si02
#       6
#     2   2   2   2   2   2
#     4  10  19  33  61  97 127 160 222 286 330 378
#     4  12  22  39  70 102 133 179 236 281 332 411
#     4  12  22  39  70 102 133 179 236 281 332 411
#     4  10  19  33  61  97 127 160 222 286 330 378
#     4  12  28  46  65 103 149 177 218 292 357 399
#     4  10  20  38  66  93 127 173 222 274 329 401
#
# _framework density 21.992923999999999
#
# number of rings (size 3 to 8) (size 9 to 14) (size 15 to 20)
#    0.000    1.000    5.000    4.000    0.000    4.667 
#    0.000    1.667    0.000    0.000    0.000    0.000 
#    0.000    0.000    0.000    0.000    0.000    0.000 
#
# Total GULP energy -148668.242351 kJ/mol
# GULP energy per Si atom -12389.020196 kJ/mol
# Density = 2.194287 g / cm^3
# Si number density = 21.992924 Si / 1000 Ang^3
#
#
#
# Elastic Constant Matrix: (Units=GPa)
#
#
# Indices 1 2 3 4 5 6 
#
# 1 199.7810 83.0983 14.9692 -1.9156 28.6378 -36.2670
# 2 83.0983 157.3655 15.2519 3.7811 11.6481 -14.6504
# 3 14.9692 15.2519 47.3292 19.2891 9.8888 -3.0675
# 4 -1.9156 3.7811 19.2891 22.7059 7.1062 4.2409
# 5 28.6378 11.6481 9.8888 7.1062 14.4511 -6.3468
# 6 -36.2670 -14.6504 -3.0675 4.2409 -6.3468 65.6644
#
#
#
# Elastic Compliance Matrix: (Units=1/GPa)
#
#
# Indices 1 2 3 4 5 6 
#
# 1 0.009711 -0.003644 -0.001021 0.007628 -0.018378 0.002234
# 2 -0.003644 0.008300 -0.001530 -0.001060 0.002117 0.000041
# 3 -0.001021 -0.001530 0.034616 -0.027739 -0.005943 0.001929
# 4 0.007628 -0.001060 -0.027739 0.081530 -0.038126 -0.006270
# 5 -0.018378 0.002117 -0.005943 -0.038126 0.128907 0.004967
# 6 0.002234 0.000041 0.001929 -0.006270 0.004967 0.017447
#
#
# Mechanical properties :
#
#
# Convention : Reuss Voigt Hill
#
# Bulk Modulus (GPa) = 24.85283 70.12383 47.48833
# Shear Modulus (GPa) = 16.32320 39.97468 28.14894
#
# Velocity S-wave (km/s) = 2.72729 4.26798 3.58146
# Velocity P-wave (km/s) = 4.60895 7.49943 6.22430
#
# Compressibility (1/GPa) = 0.04023687
#
# Stress axis : x y z
#
# Youngs Moduli (GPa) = 102.97992 120.48756 28.88803
#
# Poissons Ratio (x) = 0.43904 0.02951
# Poissons Ratio (y) = 0.37524 0.04419
# Poissons Ratio (z) = 0.10518 0.18431
#
# Static dielectric constant tensor:
#      x y z
#    x 5.948320 -0.901870 0.291410 
#    y -0.901870 5.046240 -0.259510 
#    z 0.291410 -0.259510 3.349040 
# 
# 
# High freq. dielectric constant tensor:
#      x y z
#    x 1.901720 -0.008920 0.016090 
#    y -0.008920 1.894850 -0.001270 
#    z 0.016090 -0.001270 1.789320 
# 
# From -- ./inp_files/177615.got.cif
#   From: 2010.06.25/outbox.cif.g09.slc.cpg/sg2_89_cif.got.tgz:177615.got - 2010.06.27 13:26:56.
