data_PCOD8041850
_publ_section_title
;
Structure prediction by ZEFSAII (Michael W. Deem and Ramdas Pophale) SiO2 
 PCOD8041850
Probable space group: P -1
;
_chemical_formula_sum "Si O2"
_cell_formula_units_Z 16
_cell_length_a 8.726343
_cell_length_b 8.805071
_cell_length_c 20.816001
_cell_angle_alpha 40.794358
_cell_angle_beta 47.048560
_cell_angle_gamma 60.912493
_cell_volume 763.373291
_symmetry_space_group_name_H-M "P -1"
_symmetry_group_IT_number 2
_symmetry_cell_setting 'triclinic'
loop_
_space_group_symop_operation_xyz
x,y,z
-x,-y,-z
loop_
_atom_site_type_symbol
_atom_site_label
_atom_site_fract_x
_atom_site_fract_y
_atom_site_fract_z
Si Si1 0.397432 0.020184 0.715427
Si Si2 0.225731 0.243092 0.887828
Si Si3 0.577141 0.647545 0.852274
Si Si4 0.231163 0.721545 0.026022
Si Si5 0.048607 0.230474 0.074687
Si Si6 0.347042 0.123900 0.552381
Si Si7 0.123968 0.032197 0.251344
Si Si8 0.411117 0.647919 0.333197
O O1 0.433318 0.112175 0.604073
O O2 0.483578 0.213640 0.680139
O O3 0.530395 0.786020 0.756238
O O4 0.155237 0.943802 0.825142
O O5 0.418128 0.405526 0.753707
O O6 0.013930 0.352194 0.888531
O O7 0.220537 0.206993 0.977212
O O8 0.267259 0.995981 0.923818
O O9 0.671466 0.391782 0.900427
O O10 0.764772 0.787118 0.790534
O O11 0.358051 0.622790 0.961582
O O12 0.156690 0.143938 0.135709
O O13 0.000000 0.500000 0.000000
O O14 0.319073 0.394861 0.460809
O O15 0.120525 0.990858 0.653885
O O16 0.500000 0.000000 0.500000
O O17 0.227558 0.784775 0.308316
#
# Coordination Sequence:
#
# PCOD8041850 Si02
#       8
#     2   2   2   2   2   2   2   2
#     4  10  21  43  65  91 120 168 216 245 315 380
#     4  11  20  36  60  96 126 160 211 242 304 390
#     4  10  19  38  63  91 121 168 199 252 313 370
#     4  10  19  33  61  91 128 154 201 251 295 375
#     4  11  23  36  61  97 136 167 194 257 323 376
#     4  11  26  44  66  91 121 164 215 272 319 361
#     4  10  23  42  62  90 127 166 206 255 323 363
#     4  11  23  43  68  88 123 172 213 262 303 371
#
# _framework density 20.959602
#
# number of rings (size 3 to 8) (size 9 to 14) (size 15 to 20)
#    0.000    1.500    3.750    2.250    7.000    0.500 
#    2.250    2.500    2.750    0.000    0.000    0.000 
#    0.000    0.000    0.000    0.000    0.000    0.000 
#
# Total GULP energy -198266.454328 kJ/mol
# GULP energy per Si atom -12391.653396 kJ/mol
# Density = 2.091190 g / cm^3
# Si number density = 20.959602 Si / 1000 Ang^3
#
#
#
# Elastic Constant Matrix: (Units=GPa)
#
#
# Indices 1 2 3 4 5 6 
#
# 1 95.4513 31.8573 41.6865 2.2826 20.4214 -17.4452
# 2 31.8573 75.8421 34.4762 6.3275 12.4175 -21.0979
# 3 41.6865 34.4762 100.8096 8.7105 23.4848 -9.7827
# 4 2.2826 6.3275 8.7105 39.7794 -7.1576 6.0433
# 5 20.4214 12.4175 23.4848 -7.1576 41.7259 -6.5138
# 6 -17.4452 -21.0979 -9.7827 6.0433 -6.5138 33.1280
#
#
#
# Elastic Compliance Matrix: (Units=1/GPa)
#
#
# Indices 1 2 3 4 5 6 
#
# 1 0.014597 -0.002479 -0.003806 -0.000954 -0.003737 0.004423
# 2 -0.002479 0.019466 -0.003961 -0.003913 -0.001404 0.010359
# 3 -0.003806 -0.003961 0.014381 -0.003207 -0.005731 -0.000822
# 4 -0.000954 -0.003913 -0.003207 0.028999 0.007190 -0.007818
# 5 -0.003737 -0.001404 -0.005731 0.007190 0.030698 0.000170
# 6 0.004423 0.010359 -0.000822 -0.007818 0.000170 0.040329
#
#
# Mechanical properties :
#
#
# Convention : Reuss Voigt Hill
#
# Bulk Modulus (GPa) = 35.77841 54.23810 45.00825
# Shear Modulus (GPa) = 28.04579 33.86553 30.95566
#
# Velocity S-wave (km/s) = 3.66196 4.02400 3.84724
# Velocity P-wave (km/s) = 5.91499 6.89375 6.42304
#
# Compressibility (1/GPa) = 0.02794982
#
# Stress axis : x y z
#
# Youngs Moduli (GPa) = 68.50732 51.37275 69.53836
#
# Poissons Ratio (x) = 0.12738 0.26465
# Poissons Ratio (y) = 0.16986 0.27547
# Poissons Ratio (z) = 0.26073 0.20351
#
# Static dielectric constant tensor:
#      x y z
#    x 4.090450 -0.301340 0.219920 
#    y -0.301340 3.843220 -0.196490 
#    z 0.219920 -0.196490 3.986130 
# 
# 
# High freq. dielectric constant tensor:
#      x y z
#    x 1.828470 -0.019420 0.005430 
#    y -0.019420 1.803720 -0.017710 
#    z 0.005430 -0.017710 1.826200 
# 
# From -- ./inp_files/217650.got.cif
#   From: 2010.06.25/outbox.cif.g09.slc.cpg/sg2_109_cif.got.tgz:217650.got - 2010.06.27 13:26:56.
