data_PCOD8041509
_publ_section_title
;
Structure prediction by ZEFSAII (Michael W. Deem and Ramdas Pophale) SiO2 
 PCOD8041509
Probable space group: P -1
;
_chemical_formula_sum "Si O2"
_cell_formula_units_Z 14
_cell_length_a 12.111727
_cell_length_b 12.268039
_cell_length_c 11.829616
_cell_angle_alpha 114.568931
_cell_angle_beta 130.960966
_cell_angle_gamma 31.634038
_cell_volume 649.669575
_symmetry_space_group_name_H-M "P -1"
_symmetry_group_IT_number 2
_symmetry_cell_setting 'triclinic'
loop_
_space_group_symop_operation_xyz
x,y,z
-x,-y,-z
loop_
_atom_site_type_symbol
_atom_site_label
_atom_site_fract_x
_atom_site_fract_y
_atom_site_fract_z
Si Si1 0.928246 0.764177 0.177544
Si Si2 0.502716 0.652092 0.974174
Si Si3 0.145294 0.708721 0.515541
Si Si4 0.094787 0.881921 0.235192
Si Si5 0.365767 0.785313 0.583858
Si Si6 0.460072 0.635148 0.180753
Si Si7 0.644317 0.730799 0.920425
O O1 0.141705 0.622544 0.365232
O O2 0.040477 0.776198 0.160984
O O3 0.643712 0.005377 0.142380
O O4 0.886467 0.661307 0.049259
O O5 0.626124 0.435801 0.952849
O O6 0.682303 0.619897 0.008053
O O7 0.508806 0.687016 0.126915
O O8 0.188012 0.859959 0.809767
O O9 0.305388 0.721685 0.605209
O O10 0.276435 0.548238 0.640138
O O11 0.841525 0.960028 0.447797
O O12 0.348535 0.739935 0.427588
O O13 0.193477 0.858456 0.168916
O O14 0.642229 0.653665 0.766618
#
# Coordination Sequence:
#
# PCOD8041509 Si02
#       7
#     2   2   2   2   2   2   2
#     4   8  17  28  53  76  99 129 164 203 254 296
#     4  10  20  34  50  74 103 132 168 203 237 297
#     4   9  15  30  47  75  98 128 166 200 247 291
#     4  10  19  33  52  79  99 126 166 208 248 291
#     4   9  15  28  52  72 101 125 160 212 248 284
#     4  11  20  31  53  75 101 134 165 203 244 288
#     4   9  15  32  51  75  99 134 161 201 255 290
#
# _framework density 21.549415
#
# number of rings (size 3 to 8) (size 9 to 14) (size 15 to 20)
#    0.000    2.571    2.857    2.143    0.000    2.286 
#    0.000    1.429    0.000    0.000    0.000    5.000 
#    0.000    0.000    0.000    0.000    0.000    0.000 
#
# Total GULP energy -173446.266041 kJ/mol
# GULP energy per Si atom -12389.019003 kJ/mol
# Density = 2.150037 g / cm^3
# Si number density = 21.549415 Si / 1000 Ang^3
#
#
#
# Elastic Constant Matrix: (Units=GPa)
#
#
# Indices 1 2 3 4 5 6 
#
# 1 71.9800 7.1400 54.3843 12.1719 -8.2091 7.4548
# 2 7.1400 20.6695 16.7590 10.3486 8.9033 7.5315
# 3 54.3843 16.7590 128.9018 12.3138 -1.6883 10.4819
# 4 12.1719 10.3486 12.3138 36.4874 -0.6467 0.3134
# 5 -8.2091 8.9033 -1.6883 -0.6467 33.7598 -0.9313
# 6 7.4548 7.5315 10.4819 0.3134 -0.9313 19.5917
#
#
#
# Elastic Compliance Matrix: (Units=1/GPa)
#
#
# Indices 1 2 3 4 5 6 
#
# 1 0.021971 0.001301 -0.008612 -0.004680 0.004370 -0.003970
# 2 0.001301 0.087103 -0.007516 -0.022768 -0.024315 -0.030749
# 3 -0.008612 -0.007516 0.012327 0.000857 0.000510 -0.000418
# 4 -0.004680 -0.022768 0.000857 0.035156 0.005853 0.009791
# 5 0.004370 -0.024315 0.000510 0.005853 0.037485 0.009100
# 6 -0.003970 -0.030749 -0.000418 0.009791 0.009100 0.064873
#
#
# Mechanical properties :
#
#
# Convention : Reuss Voigt Hill
#
# Bulk Modulus (GPa) = 10.89963 42.01312 26.45637
# Shear Modulus (GPa) = 15.66652 27.51899 21.59275
#
# Velocity S-wave (km/s) = 2.69923 3.57742 3.16889
# Velocity P-wave (km/s) = 3.84492 6.04999 5.06881
#
# Compressibility (1/GPa) = 0.09174626
#
# Stress axis : x y z
#
# Youngs Moduli (GPa) = 45.51396 11.48072 81.12128
#
# Poissons Ratio (x) = -0.01493 0.69859
# Poissons Ratio (y) = -0.05919 0.60973
# Poissons Ratio (z) = 0.39195 0.08629
#
# Static dielectric constant tensor:
#      x y z
#    x 3.612440 -0.064710 -0.076200 
#    y -0.064710 3.899480 0.085730 
#    z -0.076200 0.085730 4.226840 
# 
# 
# High freq. dielectric constant tensor:
#      x y z
#    x 1.799340 -0.026360 -0.014110 
#    y -0.026360 1.859000 -0.001430 
#    z -0.014110 -0.001430 1.851900 
# 
# From -- ./inp_files/220533.got.cif
#   From: 2010.06.25/outbox.cif.g09.slc.cpg/sg2_111_cif.got.tgz:220533.got - 2010.06.27 13:26:56.
