data_PCOD8041011
_publ_section_title
;
Structure prediction by ZEFSAII (Michael W. Deem and Ramdas Pophale) SiO2 
 PCOD8041011
Probable space group: P -1
;
_chemical_formula_sum "Si O2"
_cell_formula_units_Z 14
_cell_length_a 22.983438
_cell_length_b 6.448906
_cell_length_c 9.348031
_cell_angle_alpha 124.160134
_cell_angle_beta 43.884468
_cell_angle_gamma 95.647136
_cell_volume 671.965532
_symmetry_space_group_name_H-M "P -1"
_symmetry_group_IT_number 2
_symmetry_cell_setting 'triclinic'
loop_
_space_group_symop_operation_xyz
x,y,z
-x,-y,-z
loop_
_atom_site_type_symbol
_atom_site_label
_atom_site_fract_x
_atom_site_fract_y
_atom_site_fract_z
Si Si1 0.616594 0.332998 0.217691
Si Si2 0.260393 0.607431 0.731916
Si Si3 0.106408 0.239408 0.561943
Si Si4 0.730532 0.661098 0.664893
Si Si5 0.069972 0.655036 0.208490
Si Si6 0.155772 0.249983 0.150727
Si Si7 0.749838 0.395466 0.809876
O O1 0.500000 0.500000 0.500000
O O2 0.658223 0.411775 0.312434
O O3 0.646310 0.450485 0.072943
O O4 0.662988 0.983120 0.981513
O O5 0.314035 0.362139 0.415974
O O6 0.181539 0.555138 0.932668
O O7 0.207557 0.921672 0.864968
O O8 0.158140 0.408647 0.594125
O O9 0.119831 0.214303 0.355680
O O10 0.985442 0.408215 0.851129
O O11 0.157781 0.916377 0.418216
O O12 0.741617 0.411221 0.658146
O O13 0.071427 0.474049 0.276061
O O14 0.000000 0.000000 0.500000
O O15 0.235712 0.344376 0.062678
#
# Coordination Sequence:
#
# PCOD8041011 Si02
#       7
#     2   2   2   2   2   2   2
#     4  11  23  45  71  91 118 159 208 259 317 379
#     4  12  24  40  62  95 126 168 205 257 312 365
#     4  10  20  36  60  88 125 168 209 253 290 355
#     4  10  24  42  61  93 133 157 206 256 310 373
#     4  12  20  34  63  94 125 171 218 247 301 358
#     4  11  18  35  62  89 123 165 209 250 303 360
#     4  10  18  42  62  87 126 164 199 260 308 360
#
# _framework density 20.834402999999998
#
# number of rings (size 3 to 8) (size 9 to 14) (size 15 to 20)
#    0.000    1.143    8.571    0.429    0.000    4.000 
#    0.000    2.143    0.000    0.000    0.000    0.000 
#    0.000    0.000    0.000    0.000    0.000    0.000 
#
# Total GULP energy -173453.347114 kJ/mol
# GULP energy per Si atom -12389.524794 kJ/mol
# Density = 2.078698 g / cm^3
# Si number density = 20.834403 Si / 1000 Ang^3
#
#
#
# Elastic Constant Matrix: (Units=GPa)
#
#
# Indices 1 2 3 4 5 6 
#
# 1 132.3279 36.0923 53.5755 -3.6719 1.9724 -8.0541
# 2 36.0923 124.6804 28.8630 -16.3643 0.8420 -15.1829
# 3 53.5755 28.8630 61.5123 -10.7433 -14.2225 -9.8922
# 4 -3.6719 -16.3643 -10.7433 17.0768 3.5969 -0.7855
# 5 1.9724 0.8420 -14.2225 3.5969 37.9766 -2.1279
# 6 -8.0541 -15.1829 -9.8922 -0.7855 -2.1279 23.2341
#
#
#
# Elastic Compliance Matrix: (Units=1/GPa)
#
#
# Indices 1 2 3 4 5 6 
#
# 1 0.013251 -0.001907 -0.013496 -0.006504 -0.005258 -0.003101
# 2 -0.001907 0.010865 -0.000946 0.009924 -0.001085 0.006272
# 3 -0.013496 -0.000946 0.036438 0.016836 0.013447 0.012018
# 4 -0.006504 0.009924 0.016836 0.077943 -0.000174 0.014017
# 5 -0.005258 -0.001085 0.013447 -0.000174 0.032025 0.006121
# 6 -0.003101 0.006272 0.012018 0.014017 0.006121 0.052216
#
#
# Mechanical properties :
#
#
# Convention : Reuss Voigt Hill
#
# Bulk Modulus (GPa) = 35.90062 61.73136 48.81599
# Shear Modulus (GPa) = 18.88781 28.99013 23.93897
#
# Velocity S-wave (km/s) = 3.01419 3.73427 3.39338
# Velocity P-wave (km/s) = 5.42058 6.94887 6.23175
#
# Compressibility (1/GPa) = 0.02785467
#
# Stress axis : x y z
#
# Youngs Moduli (GPa) = 75.46829 92.03688 27.44391
#
# Poissons Ratio (x) = 0.17553 0.37039
# Poissons Ratio (y) = 0.14393 0.02596
# Poissons Ratio (z) = 1.01855 0.08707
#
# Static dielectric constant tensor:
#      x y z
#    x 4.026960 0.036480 -0.049370 
#    y 0.036480 4.242290 -0.273570 
#    z -0.049370 -0.273570 3.383810 
# 
# 
# High freq. dielectric constant tensor:
#      x y z
#    x 1.820510 0.001990 0.003850 
#    y 0.001990 1.833610 -0.017720 
#    z 0.003850 -0.017720 1.769570 
# 
# From -- ./inp_files/46037.got.cif
#   From: 2010.06.25/outbox.cif.g09.slc.cpg/sg2_24_cif.got.tgz:46037.got - 2010.06.27 13:26:56.
