data_PCOD8041915
_publ_section_title
;
Structure prediction by ZEFSAII (Michael W. Deem and Ramdas Pophale) SiO2 
 PCOD8041915
Probable space group: P -1
;
_chemical_formula_sum "Si O2"
_cell_formula_units_Z 16
_cell_length_a 7.836057
_cell_length_b 9.888408
_cell_length_c 16.275841
_cell_angle_alpha 44.593830
_cell_angle_beta 93.211218
_cell_angle_gamma 81.606434
_cell_volume 852.393109
_symmetry_space_group_name_H-M "P -1"
_symmetry_group_IT_number 2
_symmetry_cell_setting 'triclinic'
loop_
_space_group_symop_operation_xyz
x,y,z
-x,-y,-z
loop_
_atom_site_type_symbol
_atom_site_label
_atom_site_fract_x
_atom_site_fract_y
_atom_site_fract_z
Si Si1 0.323667 0.064722 0.858754
Si Si2 0.516649 0.270214 0.314935
Si Si3 0.764264 0.962909 0.558209
Si Si4 0.112382 0.301236 0.460576
Si Si5 0.408938 0.737827 0.135709
Si Si6 0.075430 0.895063 0.349810
Si Si7 0.095360 0.751776 0.238327
Si Si8 0.314517 0.982187 0.711476
O O1 0.428380 0.218693 0.828434
O O2 0.112371 0.155020 0.824722
O O3 0.387556 0.021578 0.785153
O O4 0.382196 0.856902 0.998386
O O5 0.360897 0.185047 0.381082
O O6 0.462246 0.506413 0.216620
O O7 0.559333 0.210485 0.246158
O O8 0.684016 0.175040 0.419501
O O9 0.923328 0.830148 0.562570
O O10 0.808584 0.995504 0.639772
O O11 0.130409 0.515133 0.345150
O O12 0.948578 0.304771 0.516886
O O13 0.294517 0.174789 0.566421
O O14 0.221298 0.805350 0.149515
O O15 0.159484 0.830846 0.291064
O O16 0.881705 0.050893 0.266328
#
# Coordination Sequence:
#
# PCOD8041915 Si02
#       8
#     2   2   2   2   2   2   2   2
#     4  10  24  42  60  80 115 150 200 234 281 327
#     4  10  21  35  55  84 118 144 189 231 284 333
#     4  10  19  34  53  87 117 148 178 230 283 349
#     4   9  18  34  56  86 114 147 183 226 293 339
#     4  11  24  40  60  85 107 159 195 233 280 337
#     4   9  20  32  57  84 117 147 183 221 292 343
#     4  11  21  39  60  85 117 147 188 242 282 334
#     4   8  20  36  57  82 115 143 181 240 277 338
#
# _framework density 18.770682999999998
#
# number of rings (size 3 to 8) (size 9 to 14) (size 15 to 20)
#    0.750    1.500    1.250    1.125    3.500    0.500 
#    0.000    1.250    0.000    1.500    0.000    0.000 
#    0.000    0.000    0.000    0.000    0.000    0.000 
#
# Total GULP energy -198240.374412 kJ/mol
# GULP energy per Si atom -12390.023401 kJ/mol
# Density = 1.872796 g / cm^3
# Si number density = 18.770683 Si / 1000 Ang^3
#
#
#
# Elastic Constant Matrix: (Units=GPa)
#
#
# Indices 1 2 3 4 5 6 
#
# 1 48.5075 19.6853 21.3501 -0.9026 6.3966 2.0187
# 2 19.6853 115.7050 62.0890 6.7274 12.6206 1.1955
# 3 21.3501 62.0890 82.0584 -0.8845 3.3776 11.4335
# 4 -0.9026 6.7274 -0.8845 28.3895 4.1770 3.2635
# 5 6.3966 12.6206 3.3776 4.1770 22.6569 3.2231
# 6 2.0187 1.1955 11.4335 3.2635 3.2231 27.3303
#
#
#
# Elastic Compliance Matrix: (Units=1/GPa)
#
#
# Indices 1 2 3 4 5 6 
#
# 1 0.024156 -0.000352 -0.005926 0.001431 -0.006185 0.001269
# 2 -0.000352 0.016753 -0.013181 -0.004010 -0.007405 0.006160
# 3 -0.005926 -0.013181 0.024977 0.004044 0.006059 -0.010632
# 4 0.001431 -0.004010 0.004044 0.037710 -0.004936 -0.005543
# 5 -0.006185 -0.007405 0.006059 -0.004936 0.051036 -0.007183
# 6 0.001269 0.006160 -0.010632 -0.005543 -0.007183 0.042183
#
#
# Mechanical properties :
#
#
# Convention : Reuss Voigt Hill
#
# Bulk Modulus (GPa) = 37.07962 50.27997 43.67980
# Shear Modulus (GPa) = 20.43143 25.21844 22.82494
#
# Velocity S-wave (km/s) = 3.30278 3.66936 3.49089
# Velocity P-wave (km/s) = 5.86015 6.69304 6.29040
#
# Compressibility (1/GPa) = 0.02696899
#
# Stress axis : x y z
#
# Youngs Moduli (GPa) = 41.39839 59.69125 40.03639
#
# Poissons Ratio (x) = 0.02099 0.23724
# Poissons Ratio (y) = 0.01456 0.52773
# Poissons Ratio (z) = 0.24531 0.78680
#
# Static dielectric constant tensor:
#      x y z
#    x 3.344020 -0.095440 0.016990 
#    y -0.095440 3.406410 0.182630 
#    z 0.016990 0.182630 3.260310 
# 
# 
# High freq. dielectric constant tensor:
#      x y z
#    x 1.720350 -0.007380 -0.003900 
#    y -0.007380 1.736740 0.014530 
#    z -0.003900 0.014530 1.706470 
# 
# From -- ./inp_files/197532.got.cif
#   From: 2010.06.25/outbox.cif.g09.slc.cpg/sg2_99_cif.got.tgz:197532.got - 2010.06.27 13:26:56.
