data_PCOD8041740
_publ_section_title
;
Structure prediction by ZEFSAII (Michael W. Deem and Ramdas Pophale) SiO2 
 PCOD8041740
Probable space group: P -1
;
_chemical_formula_sum "Si O2"
_cell_formula_units_Z 14
_cell_length_a 8.221000
_cell_length_b 11.117488
_cell_length_c 11.795345
_cell_angle_alpha 133.609166
_cell_angle_beta 101.652247
_cell_angle_gamma 60.656708
_cell_volume 664.440692
_symmetry_space_group_name_H-M "P -1"
_symmetry_group_IT_number 2
_symmetry_cell_setting 'triclinic'
loop_
_space_group_symop_operation_xyz
x,y,z
-x,-y,-z
loop_
_atom_site_type_symbol
_atom_site_label
_atom_site_fract_x
_atom_site_fract_y
_atom_site_fract_z
Si Si1 0.161876 0.548651 0.974807
Si Si2 0.003603 0.150150 0.185706
Si Si3 0.248085 0.705409 0.302467
Si Si4 0.349061 0.602936 0.825738
Si Si5 0.969586 0.063682 0.384126
Si Si6 0.419733 0.954857 0.070207
Si Si7 0.776228 0.822106 0.179367
O O1 0.280828 0.607040 0.946940
O O2 0.206835 0.330855 0.821280
O O3 0.220950 0.561358 0.121835
O O4 0.935845 0.698999 0.024813
O O5 0.825531 0.356811 0.258886
O O6 0.970715 0.111231 0.284570
O O7 0.211230 0.132803 0.190502
O O8 0.000000 0.000000 0.000000
O O9 0.469397 0.605280 0.307722
O O10 0.117064 0.749041 0.425918
O O11 0.181467 0.903303 0.351203
O O12 0.409480 0.763486 0.923812
O O13 0.828038 0.977650 0.334940
O O14 0.561625 0.930540 0.175222
O O15 0.500000 0.000000 0.000000
#
# Coordination Sequence:
#
# PCOD8041740 Si02
#       7
#     2   2   2   2   2   2   2
#     4  10  20  35  60  90 115 145 199 237 281 338
#     4  10  21  37  58  86 115 153 196 236 281 349
#     4  10  20  37  62  85 116 157 191 231 288 351
#     4  11  21  36  62  87 112 159 196 235 280 352
#     4  10  22  39  59  87 119 154 191 232 294 344
#     4  11  20  33  58  87 115 146 193 243 291 327
#     4  10  19  33  57  88 114 147 188 246 280 328
#
# _framework density 21.070353999999998
#
# number of rings (size 3 to 8) (size 9 to 14) (size 15 to 20)
#    0.000    1.714    1.429    6.429    2.000    0.571 
#    0.000    0.714    6.286    1.714    0.000    0.000 
#    0.000    0.000    0.000    0.000    0.000    0.000 
#
# Total GULP energy -173462.321428 kJ/mol
# GULP energy per Si atom -12390.165816 kJ/mol
# Density = 2.102240 g / cm^3
# Si number density = 21.070354 Si / 1000 Ang^3
#
#
#
# Elastic Constant Matrix: (Units=GPa)
#
#
# Indices 1 2 3 4 5 6 
#
# 1 127.1467 76.4472 31.6215 2.6672 -17.2728 -13.7090
# 2 76.4472 133.6799 49.0178 -8.6617 -22.2264 -27.4439
# 3 31.6215 49.0178 67.7304 -14.5934 -21.3737 4.7718
# 4 2.6672 -8.6617 -14.5934 28.4772 3.8446 -10.5455
# 5 -17.2728 -22.2264 -21.3737 3.8446 25.0384 3.6316
# 6 -13.7090 -27.4439 4.7718 -10.5455 3.6316 65.3346
#
#
#
# Elastic Compliance Matrix: (Units=1/GPa)
#
#
# Indices 1 2 3 4 5 6 
#
# 1 0.012606 -0.006951 -0.000942 -0.004525 0.002574 -0.001079
# 2 -0.006951 0.015999 -0.007477 0.003829 0.001517 0.006342
# 3 -0.000942 -0.007477 0.027693 0.008037 0.015835 -0.004944
# 4 -0.004525 0.003829 0.008037 0.043543 -0.000582 0.007133
# 5 0.002574 0.001517 0.015835 -0.000582 0.057139 -0.003249
# 6 -0.001079 0.006342 -0.004944 0.007133 -0.003249 0.019436
#
#
# Mechanical properties :
#
#
# Convention : Reuss Voigt Hill
#
# Bulk Modulus (GPa) = 39.12477 71.41445 55.26961
# Shear Modulus (GPa) = 23.18298 35.20141 29.19219
#
# Velocity S-wave (km/s) = 3.32062 4.09181 3.72622
# Velocity P-wave (km/s) = 5.77157 7.50272 6.69335
#
# Compressibility (1/GPa) = 0.02555925
#
# Stress axis : x y z
#
# Youngs Moduli (GPa) = 79.32430 62.50245 36.11086
#
# Poissons Ratio (x) = 0.43443 0.03402
# Poissons Ratio (y) = 0.55135 0.27000
# Poissons Ratio (z) = 0.07473 0.46733
#
# Static dielectric constant tensor:
#      x y z
#    x 4.110150 -0.477110 -0.139290 
#    y -0.477110 4.214270 0.067580 
#    z -0.139290 0.067580 3.432820 
# 
# 
# High freq. dielectric constant tensor:
#      x y z
#    x 1.825200 -0.020070 -0.014760 
#    y -0.020070 1.834220 -0.002680 
#    z -0.014760 -0.002680 1.782200 
# 
# From -- ./inp_files/266900.got.cif
#   From: 2010.06.25/outbox.cif.g09.slc.cpg/sg2_134_cif.got.tgz:266900.got - 2010.06.27 13:26:56.
