data_PCOD8041882
_publ_section_title
;
Structure prediction by ZEFSAII (Michael W. Deem and Ramdas Pophale) SiO2 
 PCOD8041882
Probable space group: P -1
;
_chemical_formula_sum "Si O2"
_cell_formula_units_Z 16
_cell_length_a 15.469442
_cell_length_b 13.783786
_cell_length_c 8.488318
_cell_angle_alpha 137.197641
_cell_angle_beta 119.703011
_cell_angle_gamma 48.545249
_cell_volume 921.542617
_symmetry_space_group_name_H-M "P -1"
_symmetry_group_IT_number 2
_symmetry_cell_setting 'triclinic'
loop_
_space_group_symop_operation_xyz
x,y,z
-x,-y,-z
loop_
_atom_site_type_symbol
_atom_site_label
_atom_site_fract_x
_atom_site_fract_y
_atom_site_fract_z
Si Si1 0.654327 0.479833 0.233484
Si Si2 0.008362 0.158946 0.239007
Si Si3 0.594865 0.261446 0.722840
Si Si4 0.197381 0.641988 0.479737
Si Si5 0.871898 0.371699 0.094767
Si Si6 0.210887 0.078138 0.540415
Si Si7 0.122895 0.441873 0.964507
Si Si8 0.216039 0.807795 0.404889
O O1 0.541148 0.661820 0.333811
O O2 0.695721 0.449037 0.414173
O O3 0.752243 0.475540 0.205342
O O4 0.621195 0.341075 0.993745
O O5 0.134785 0.109757 0.352620
O O6 0.922602 0.258203 0.420895
O O7 0.977207 0.275946 0.197481
O O8 0.000000 0.000000 0.000000
O O9 0.652438 0.301771 0.672752
O O10 0.658137 0.060813 0.558666
O O11 0.214827 0.772275 0.546023
O O12 0.195279 0.504743 0.202914
O O13 0.895815 0.493491 0.155460
O O14 0.868672 0.236746 0.818314
O O15 0.202363 0.243500 0.795494
O O16 0.169786 0.001355 0.553933
O O17 0.000000 0.500000 0.000000
#
# Coordination Sequence:
#
# PCOD8041882 Si02
#       8
#     2   2   2   2   2   2   2   2
#     4   9  16  35  59  78 104 130 175 221 258 305
#     4  11  18  32  54  77 104 129 177 226 251 304
#     4   8  17  34  57  79 103 132 170 223 263 289
#     4  10  20  32  54  79 102 139 175 203 265 308
#     4   9  19  33  54  79  99 138 177 207 266 304
#     4  10  19  34  51  75 108 135 174 213 256 302
#     4  11  22  37  49  74 111 147 168 207 259 319
#     4   8  17  33  51  79 103 133 170 213 256 306
#
# _framework density 17.362193000000001
#
# number of rings (size 3 to 8) (size 9 to 14) (size 15 to 20)
#    0.750    1.750    2.500    0.750    0.000    2.500 
#    0.000    1.250    0.000    0.000    0.000    0.000 
#    0.000    0.000    0.000    0.000    0.000    0.000 
#
# Total GULP energy -198294.845282 kJ/mol
# GULP energy per Si atom -12393.427830 kJ/mol
# Density = 1.732268 g / cm^3
# Si number density = 17.362193 Si / 1000 Ang^3
#
#
#
# Elastic Constant Matrix: (Units=GPa)
#
#
# Indices 1 2 3 4 5 6 
#
# 1 56.1958 56.5596 17.2677 -7.8291 -6.2549 19.6084
# 2 56.5596 145.9837 57.6597 -0.3246 -8.2339 3.3417
# 3 17.2677 57.6597 79.8881 6.3226 -6.4980 11.5823
# 4 -7.8291 -0.3246 6.3226 38.1276 3.3024 -1.9055
# 5 -6.2549 -8.2339 -6.4980 3.3024 18.5664 0.4525
# 6 19.6084 3.3417 11.5823 -1.9055 0.4525 31.9470
#
#
#
# Elastic Compliance Matrix: (Units=1/GPa)
#
#
# Indices 1 2 3 4 5 6 
#
# 1 0.049861 -0.021967 0.010049 0.005907 0.010296 -0.031743
# 2 -0.021967 0.019449 -0.011695 -0.001363 -0.003007 0.015650
# 3 0.010049 -0.011695 0.021418 -0.002800 0.006509 -0.012969
# 4 0.005907 -0.001363 -0.002800 0.028256 -0.004603 -0.000717
# 5 0.010296 -0.003007 0.006509 -0.004603 0.059324 -0.009479
# 6 -0.031743 0.015650 -0.012969 -0.000717 -0.009479 0.053941
#
#
# Mechanical properties :
#
#
# Convention : Reuss Voigt Hill
#
# Bulk Modulus (GPa) = 22.98716 60.56021 41.77368
# Shear Modulus (GPa) = 17.00831 27.76690 22.38760
#
# Velocity S-wave (km/s) = 3.13328 4.00343 3.59478
# Velocity P-wave (km/s) = 5.13405 7.50508 6.42980
#
# Compressibility (1/GPa) = 0.04350255
#
# Stress axis : x y z
#
# Youngs Moduli (GPa) = 20.05589 51.41599 46.69053
#
# Poissons Ratio (x) = 1.12944 -0.46921
# Poissons Ratio (y) = 0.44056 0.54605
# Poissons Ratio (z) = -0.20155 0.60132
#
# Static dielectric constant tensor:
#      x y z
#    x 3.082630 0.072200 -0.132370 
#    y 0.072200 3.276460 -0.029410 
#    z -0.132370 -0.029410 3.152780 
# 
# 
# High freq. dielectric constant tensor:
#      x y z
#    x 1.647210 0.001690 -0.012000 
#    y 0.001690 1.669150 -0.002360 
#    z -0.012000 -0.002360 1.661630 
# 
# From -- ./inp_files/335570.got.cif
#   From: 2010.06.25/outbox.cif.g09.slc.cpg/sg2_168_cif.got.tgz:335570.got - 2010.06.27 13:26:56.
