data_PCOD8041727
_publ_section_title
;
Structure prediction by ZEFSAII (Michael W. Deem and Ramdas Pophale) SiO2 
 PCOD8041727
Probable space group: P -1
;
_chemical_formula_sum "Si O2"
_cell_formula_units_Z 14
_cell_length_a 26.281831
_cell_length_b 17.665692
_cell_length_c 8.602633
_cell_angle_alpha 150.010407
_cell_angle_beta 38.657618
_cell_angle_gamma 159.334859
_cell_volume 694.626487
_symmetry_space_group_name_H-M "P -1"
_symmetry_group_IT_number 2
_symmetry_cell_setting 'triclinic'
loop_
_space_group_symop_operation_xyz
x,y,z
-x,-y,-z
loop_
_atom_site_type_symbol
_atom_site_label
_atom_site_fract_x
_atom_site_fract_y
_atom_site_fract_z
Si Si1 0.073914 0.799531 0.740246
Si Si2 0.869758 0.693693 0.196353
Si Si3 0.151948 0.180613 0.032619
Si Si4 0.144833 0.459155 0.733547
Si Si5 0.896131 0.247085 0.077489
Si Si6 0.678318 0.125211 0.219425
Si Si7 0.344900 0.596201 0.057241
O O1 0.150508 0.898423 0.903458
O O2 0.027132 0.568648 0.367826
O O3 0.932998 0.688897 0.898317
O O4 0.167962 0.036106 0.808480
O O5 0.804129 0.474354 0.090025
O O6 0.735169 0.568915 0.209295
O O7 0.000000 0.000000 0.500000
O O8 0.172075 0.329503 0.387807
O O9 0.282842 0.388759 0.967214
O O10 0.000000 0.000000 0.000000
O O11 0.237552 0.713511 0.856218
O O12 0.972538 0.244552 0.771737
O O13 0.754517 0.100596 0.077025
O O14 0.680378 0.269800 0.588752
O O15 0.514823 0.824120 0.031604
#
# Coordination Sequence:
#
# PCOD8041727 Si02
#       7
#     2   2   2   2   2   2   2
#     4  10  19  33  57  86 110 142 189 233 280 325
#     4  11  18  33  56  88 107 137 188 241 272 319
#     4  11  18  35  58  86 106 144 192 234 274 331
#     4  10  21  32  60  85 109 145 189 237 275 323
#     4  10  20  34  57  84 115 146 184 232 280 333
#     4  10  20  38  52  83 119 149 182 230 282 345
#     4  10  21  34  59  81 114 150 186 230 286 329
#
# _framework density 20.154716000000001
#
# number of rings (size 3 to 8) (size 9 to 14) (size 15 to 20)
#    0.000    1.714    4.286    1.286    0.000    0.571 
#    0.000    0.714    0.000   13.714    0.000    0.000 
#    0.000    0.000    0.000    0.000    0.000    0.000 
#
# Total GULP energy -173445.284531 kJ/mol
# GULP energy per Si atom -12388.948895 kJ/mol
# Density = 2.010884 g / cm^3
# Si number density = 20.154716 Si / 1000 Ang^3
#
#
#
# Elastic Constant Matrix: (Units=GPa)
#
#
# Indices 1 2 3 4 5 6 
#
# 1 164.5007 78.3892 27.7856 18.8684 -6.7849 -5.2165
# 2 78.3892 98.7055 13.2131 11.5456 8.5450 2.2376
# 3 27.7856 13.2131 29.9915 9.9998 2.0927 3.6924
# 4 18.8684 11.5456 9.9998 24.3048 1.2252 -1.9580
# 5 -6.7849 8.5450 2.0927 1.2252 29.5998 7.6008
# 6 -5.2165 2.2376 3.6924 -1.9580 7.6008 27.4341
#
#
#
# Elastic Compliance Matrix: (Units=1/GPa)
#
#
# Indices 1 2 3 4 5 6 
#
# 1 0.012079 -0.008880 -0.007178 -0.002286 0.005332 0.002347
# 2 -0.008880 0.017818 0.001746 -0.002079 -0.006795 -0.001643
# 3 -0.007178 0.001746 0.045159 -0.014332 -0.002733 -0.007851
# 4 -0.002286 -0.002079 -0.014332 0.050411 -0.002528 0.005962
# 5 0.005332 -0.006795 -0.002733 -0.002528 0.039635 -0.009226
# 6 0.002347 -0.001643 -0.007851 0.005962 -0.009226 0.041069
#
#
# Mechanical properties :
#
#
# Convention : Reuss Voigt Hill
#
# Bulk Modulus (GPa) = 21.53599 59.10815 40.32207
# Shear Modulus (GPa) = 19.97836 27.85507 23.91672
#
# Velocity S-wave (km/s) = 3.15183 3.72164 3.44852
# Velocity P-wave (km/s) = 4.89427 6.91797 5.99217
#
# Compressibility (1/GPa) = 0.04643389
#
# Stress axis : x y z
#
# Youngs Moduli (GPa) = 82.78677 56.12319 22.14403
#
# Poissons Ratio (x) = 0.49835 0.15894
# Poissons Ratio (y) = 0.73511 -0.03866
# Poissons Ratio (z) = 0.59421 -0.09799
#
# Static dielectric constant tensor:
#      x y z
#    x 4.019950 -0.173950 -0.441620 
#    y -0.173950 3.606720 -0.315280 
#    z -0.441620 -0.315280 4.423860 
# 
# 
# High freq. dielectric constant tensor:
#      x y z
#    x 1.800590 -0.026640 -0.003750 
#    y -0.026640 1.755720 -0.010270 
#    z -0.003750 -0.010270 1.770050 
# 
# From -- ./inp_files/172079.got.cif
#   From: 2010.06.25/outbox.cif.g09.slc.cpg/sg2_87_cif.got.tgz:172079.got - 2010.06.27 13:26:56.
