data_PCOD8041935
_publ_section_title
;
Structure prediction by ZEFSAII (Michael W. Deem and Ramdas Pophale) SiO2 
 PCOD8041935
Probable space group: P -1
;
_chemical_formula_sum "Si O2"
_cell_formula_units_Z 14
_cell_length_a 13.724290
_cell_length_b 13.806093
_cell_length_c 12.787779
_cell_angle_alpha 47.375112
_cell_angle_beta 46.723215
_cell_angle_gamma 21.264915
_cell_volume 633.013433
_symmetry_space_group_name_H-M "P -1"
_symmetry_group_IT_number 2
_symmetry_cell_setting 'triclinic'
loop_
_space_group_symop_operation_xyz
x,y,z
-x,-y,-z
loop_
_atom_site_type_symbol
_atom_site_label
_atom_site_fract_x
_atom_site_fract_y
_atom_site_fract_z
Si Si1 0.148445 0.532216 0.749286
Si Si2 0.217867 0.770904 0.145159
Si Si3 0.835642 0.410290 0.533338
Si Si4 0.378803 0.960955 0.109261
Si Si5 0.201152 0.205440 0.855898
Si Si6 0.446186 0.973674 0.450710
Si Si7 0.801217 0.345269 0.971117
O O1 0.210217 0.560584 0.578435
O O2 0.399242 0.332153 0.793713
O O3 0.096130 0.423680 0.837178
O O4 0.888452 0.821867 0.781667
O O5 0.191295 0.714747 0.313773
O O6 0.498778 0.612219 0.047834
O O7 0.210618 0.668003 0.134348
O O8 0.962592 0.087777 0.095351
O O9 0.595561 0.704995 0.544021
O O10 0.124726 0.229585 0.480899
O O11 0.500000 0.000000 0.000000
O O12 0.309510 0.001035 0.007996
O O13 0.438211 0.039785 0.721072
O O14 0.944159 0.363595 0.868515
O O15 0.500000 0.000000 0.500000
#
# Coordination Sequence:
#
# PCOD8041935 Si02
#       7
#     2   2   2   2   2   2   2
#     4  10  21  35  56  85 111 142 180 229 284 334
#     4  10  22  39  56  78 109 152 191 226 266 320
#     4  11  21  38  58  78 112 152 186 221 280 339
#     4  10  19  34  54  82 115 141 178 226 280 337
#     4  10  21  36  59  86 115 145 182 230 285 330
#     4  11  23  35  55  87 116 143 179 230 284 337
#     4  10  22  37  57  81 109 146 191 229 267 324
#
# _framework density 22.116434000000002
#
# number of rings (size 3 to 8) (size 9 to 14) (size 15 to 20)
#    0.000    1.714    0.000    6.429    0.000   10.286 
#    0.000    0.000    0.000    5.143    0.000    0.000 
#    0.000    0.000    0.000    0.000    0.000    0.000 
#
# Total GULP energy -173623.689642 kJ/mol
# GULP energy per Si atom -12401.692117 kJ/mol
# Density = 2.206610 g / cm^3
# Si number density = 22.116434 Si / 1000 Ang^3
#
#
#
# Elastic Constant Matrix: (Units=GPa)
#
#
# Indices 1 2 3 4 5 6 
#
# 1 44.8125 -0.2458 2.2107 8.0443 1.8236 -13.7688
# 2 -0.2458 83.2397 7.5330 -3.7829 7.6099 -12.2967
# 3 2.2107 7.5330 98.5292 -11.7095 11.2039 0.5217
# 4 8.0443 -3.7829 -11.7095 26.2169 -4.5440 5.2801
# 5 1.8236 7.6099 11.2039 -4.5440 21.0987 0.7312
# 6 -13.7688 -12.2967 0.5217 5.2801 0.7312 28.0704
#
#
#
# Elastic Compliance Matrix: (Units=1/GPa)
#
#
# Indices 1 2 3 4 5 6 
#
# 1 0.031622 0.003158 -0.002118 -0.015393 -0.006756 0.020005
# 2 0.003158 0.013700 -0.000763 -0.001911 -0.005500 0.008068
# 3 -0.002118 -0.000763 0.011402 0.005378 -0.004352 -0.002483
# 4 -0.015393 -0.001911 0.005378 0.050523 0.010678 -0.018269
# 5 -0.006756 -0.005500 -0.004352 0.010678 0.054890 -0.009081
# 6 0.020005 0.008068 -0.002483 -0.018269 -0.009081 0.052691
#
#
# Mechanical properties :
#
#
# Convention : Reuss Voigt Hill
#
# Bulk Modulus (GPa) = 17.45826 27.28636 22.37231
# Shear Modulus (GPa) = 21.42564 29.54943 25.48754
#
# Velocity S-wave (km/s) = 3.11588 3.65922 3.39842
# Velocity P-wave (km/s) = 4.56682 5.49705 5.05338
#
# Compressibility (1/GPa) = 0.05727949
#
# Stress axis : x y z
#
# Youngs Moduli (GPa) = 31.62363 72.99469 87.70122
#
# Poissons Ratio (x) = -0.23055 0.18575
# Poissons Ratio (y) = -0.09988 0.06689
# Poissons Ratio (z) = 0.06698 0.05567
#
# Static dielectric constant tensor:
#      x y z
#    x 3.935250 -0.384650 0.447530 
#    y -0.384650 4.196960 -0.250930 
#    z 0.447530 -0.250930 4.074420 
# 
# 
# High freq. dielectric constant tensor:
#      x y z
#    x 1.845580 -0.016070 0.022440 
#    y -0.016070 1.880400 0.000220 
#    z 0.022440 0.000220 1.872180 
# 
# From -- ./inp_files/454621.got.cif
#   From: 2010.06.25/outbox.cif.g09.slc.cpg/sg2_228_cif.got.tgz:454621.got - 2010.06.27 13:26:56.
