data_PCOD8041464
_publ_section_title
;
Structure prediction by ZEFSAII (Michael W. Deem and Ramdas Pophale) SiO2 
 PCOD8041464
Probable space group: P -1
;
_chemical_formula_sum "Si O2"
_cell_formula_units_Z 14
_cell_length_a 7.818115
_cell_length_b 14.241221
_cell_length_c 13.702328
_cell_angle_alpha 147.513990
_cell_angle_beta 71.552502
_cell_angle_gamma 127.464069
_cell_volume 577.054959
_symmetry_space_group_name_H-M "P -1"
_symmetry_group_IT_number 2
_symmetry_cell_setting 'triclinic'
loop_
_space_group_symop_operation_xyz
x,y,z
-x,-y,-z
loop_
_atom_site_type_symbol
_atom_site_label
_atom_site_fract_x
_atom_site_fract_y
_atom_site_fract_z
Si Si1 0.792037 0.086759 0.634917
Si Si2 0.234805 0.254772 0.805344
Si Si3 0.454267 0.681180 0.913865
Si Si4 0.305590 0.340151 0.312988
Si Si5 0.923115 0.404114 0.724322
Si Si6 0.875772 0.060214 0.286565
Si Si7 0.411522 0.611914 0.353960
O O1 0.757122 0.894203 0.404561
O O2 0.568178 0.895595 0.580864
O O3 0.762767 0.233511 0.696615
O O4 0.046804 0.276492 0.813604
O O5 0.099418 0.091504 0.781906
O O6 0.500000 0.500000 0.000000
O O7 0.600888 0.767169 0.860047
O O8 0.429431 0.461547 0.765567
O O9 0.197944 0.612689 0.892204
O O10 0.600192 0.892138 0.149994
O O11 0.500000 0.500000 0.500000
O O12 0.289013 0.498467 0.382311
O O13 0.046980 0.136623 0.229567
O O14 0.941852 0.278495 0.522504
O O15 0.798062 0.498630 0.788569
#
# Coordination Sequence:
#
# PCOD8041464 Si02
#       7
#     2   2   2   2   2   2   2
#     4  10  19  35  55  85 118 151 193 236 288 342
#     4  10  19  32  61  87 113 152 193 238 286 343
#     4  10  22  40  60  85 119 152 195 239 290 345
#     4  10  20  39  63  85 116 156 193 239 290 347
#     4  11  22  39  62  86 119 154 194 245 286 343
#     4  11  20  38  61  87 118 154 194 239 294 342
#     4  10  22  38  61  87 118 157 192 239 293 343
#
# _framework density 24.261119000000001
#
# number of rings (size 3 to 8) (size 9 to 14) (size 15 to 20)
#    0.857    0.857    1.429    6.000    0.000    0.571 
#    0.000    6.429    0.000    7.714    0.000    0.000 
#    0.000    0.000    0.000    0.000    0.000    0.000 
#
# Total GULP energy -173445.081891 kJ/mol
# GULP energy per Si atom -12388.934421 kJ/mol
# Density = 2.420590 g / cm^3
# Si number density = 24.261119 Si / 1000 Ang^3
#
#
#
# Elastic Constant Matrix: (Units=GPa)
#
#
# Indices 1 2 3 4 5 6 
#
# 1 122.2680 26.5917 20.4937 7.3541 36.0640 -24.1987
# 2 26.5917 116.0081 9.1506 24.3617 1.7008 -28.3280
# 3 20.4937 9.1506 84.2378 9.2465 39.5675 -7.6701
# 4 7.3541 24.3617 9.2465 24.3979 1.1468 7.2572
# 5 36.0640 1.7008 39.5675 1.1468 44.1629 -8.2961
# 6 -24.1987 -28.3280 -7.6701 7.2572 -8.2961 35.9315
#
#
#
# Elastic Compliance Matrix: (Units=1/GPa)
#
#
# Indices 1 2 3 4 5 6 
#
# 1 0.013556 0.001007 0.004714 -0.009144 -0.013270 0.009713
# 2 0.001007 0.019238 0.001867 -0.026851 0.001601 0.022037
# 3 0.004714 0.001867 0.023604 -0.013195 -0.023422 0.006942
# 4 -0.009144 -0.026851 -0.013195 0.088768 0.009395 -0.045904
# 5 -0.013270 0.001601 -0.023422 0.009395 0.053753 -0.002161
# 6 0.009713 0.022037 0.006942 -0.045904 -0.002161 0.062000
#
#
# Mechanical properties :
#
#
# Convention : Reuss Voigt Hill
#
# Bulk Modulus (GPa) = 13.97141 48.33175 31.15158
# Shear Modulus (GPa) = 18.54594 38.65033 28.59814
#
# Velocity S-wave (km/s) = 2.76783 3.99569 3.43704
# Velocity P-wave (km/s) = 3.99823 6.42278 5.34967
#
# Compressibility (1/GPa) = 0.07157474
#
# Stress axis : x y z
#
# Youngs Moduli (GPa) = 73.76817 51.97918 42.36638
#
# Poissons Ratio (x) = -0.05236 -0.19971
# Poissons Ratio (y) = -0.07431 -0.07911
# Poissons Ratio (z) = -0.34773 -0.09706
#
# Static dielectric constant tensor:
#      x y z
#    x 4.199550 -0.026970 0.349600 
#    y -0.026970 5.343410 0.042890 
#    z 0.349600 0.042890 4.230030 
# 
# 
# High freq. dielectric constant tensor:
#      x y z
#    x 1.941260 -0.012100 0.029010 
#    y -0.012100 1.971820 -0.005180 
#    z 0.029010 -0.005180 1.959170 
# 
# From -- ./inp_files/505572.got.cif
#   From: 2010.06.25/outbox.cif.g09.slc.cpg/sg2_253_cif.got.tgz:505572.got - 2010.06.27 13:26:56.
