data_PCOD8041514
_publ_section_title
;
Structure prediction by ZEFSAII (Michael W. Deem and Ramdas Pophale) SiO2 
 PCOD8041514
Probable space group: P -1
;
_chemical_formula_sum "Si O2"
_cell_formula_units_Z 12
_cell_length_a 24.354668
_cell_length_b 5.062878
_cell_length_c 11.676278
_cell_angle_alpha 65.946754
_cell_angle_beta 29.854371
_cell_angle_gamma 76.347933
_cell_volume 632.234955
_symmetry_space_group_name_H-M "P -1"
_symmetry_group_IT_number 2
_symmetry_cell_setting 'triclinic'
loop_
_space_group_symop_operation_xyz
x,y,z
-x,-y,-z
loop_
_atom_site_type_symbol
_atom_site_label
_atom_site_fract_x
_atom_site_fract_y
_atom_site_fract_z
Si Si1 0.640378 0.310351 0.784241
Si Si2 0.605668 0.933525 0.685938
Si Si3 0.812935 0.338571 0.146288
Si Si4 0.113061 0.625382 0.611998
Si Si5 0.982091 0.657691 0.619788
Si Si6 0.925924 0.806753 0.042770
O O1 0.662936 0.663811 0.657653
O O2 0.749843 0.243687 0.659496
O O3 0.614028 0.137073 0.745053
O O4 0.526712 0.193961 0.090325
O O5 0.680947 0.144408 0.414050
O O6 0.833802 0.552727 0.182201
O O7 0.896587 0.121175 0.039522
O O8 0.852234 0.532688 0.925785
O O9 0.072603 0.598731 0.558927
O O10 0.076624 0.305644 0.801132
O O11 0.051125 0.848293 0.751628
O O12 0.000000 0.500000 0.500000
O O13 0.000000 0.000000 0.500000
#
# Coordination Sequence:
#
# PCOD8041514 Si02
#       6
#     2   2   2   2   2   2
#     4  10  20  32  52  82 114 138 167 210 270 332
#     4  10  19  33  52  82 113 138 167 210 271 330
#     4  11  19  37  56  78 114 137 176 219 270 328
#     4  10  20  36  55  79 115 137 176 224 266 331
#     4  11  25  38  52  76 106 149 186 221 260 307
#     4  10  21  30  56  88 103 139 168 219 289 321
#
# _framework density 18.980284000000001
#
# number of rings (size 3 to 8) (size 9 to 14) (size 15 to 20)
#    0.000    1.667    3.333    2.000    0.000   11.333 
#    0.000    0.000    0.000    2.000    0.000    0.000 
#    0.000    0.000    0.000    0.000    0.000    0.000 
#
# Total GULP energy -148723.556799 kJ/mol
# GULP energy per Si atom -12393.629733 kJ/mol
# Density = 1.893708 g / cm^3
# Si number density = 18.980284 Si / 1000 Ang^3
#
#
#
# Elastic Constant Matrix: (Units=GPa)
#
#
# Indices 1 2 3 4 5 6 
#
# 1 96.5933 27.7230 45.5768 -0.7488 10.7626 3.7201
# 2 27.7230 90.4241 16.9008 -15.1860 12.9782 15.7501
# 3 45.5768 16.9008 178.7916 -11.1594 -11.8816 -16.0273
# 4 -0.7488 -15.1860 -11.1594 31.0456 -6.3412 -0.9132
# 5 10.7626 12.9782 -11.8816 -6.3412 35.4421 4.1965
# 6 3.7201 15.7501 -16.0273 -0.9132 4.1965 24.4344
#
#
#
# Elastic Compliance Matrix: (Units=1/GPa)
#
#
# Indices 1 2 3 4 5 6 
#
# 1 0.013645 -0.003021 -0.003913 -0.003585 -0.004752 -0.002014
# 2 -0.003021 0.015350 -0.001357 0.006066 -0.002937 -0.009594
# 3 -0.003913 -0.001357 0.007713 0.003028 0.004110 0.005937
# 4 -0.003585 0.006066 0.003028 0.037521 0.006730 -0.001131
# 5 -0.004752 -0.002937 0.004110 0.006730 0.033335 -0.000161
# 6 -0.002014 -0.009594 0.005937 -0.001131 -0.000161 0.051297
#
#
# Mechanical properties :
#
#
# Convention : Reuss Voigt Hill
#
# Bulk Modulus (GPa) = 49.68835 60.69002 55.18919
# Shear Modulus (GPa) = 27.44938 36.55831 32.00384
#
# Velocity S-wave (km/s) = 3.80703 4.39352 4.11075
# Velocity P-wave (km/s) = 6.74984 7.60145 7.18827
#
# Compressibility (1/GPa) = 0.02012544
#
# Stress axis : x y z
#
# Youngs Moduli (GPa) = 73.28480 65.14504 129.64644
#
# Poissons Ratio (x) = 0.19683 0.50730
# Poissons Ratio (y) = 0.22142 0.17599
# Poissons Ratio (z) = 0.28676 0.08843
#
# Static dielectric constant tensor:
#      x y z
#    x 3.244420 0.115200 -0.187750 
#    y 0.115200 3.392530 0.000640 
#    z -0.187750 0.000640 4.124910 
# 
# 
# High freq. dielectric constant tensor:
#      x y z
#    x 1.692490 0.029660 -0.012800 
#    y 0.029660 1.748040 0.002940 
#    z -0.012800 0.002940 1.749460 
# 
# From -- ./inp_files/28301.got.cif
#   From: 2010.06.25/outbox.cif.g09.slc.cpg/sg2_15_cif.got.tgz:28301.got - 2010.06.27 13:26:56.
