data_PCOD8041153
_publ_section_title
;
Structure prediction by ZEFSAII (Michael W. Deem and Ramdas Pophale) SiO2 
 PCOD8041153
Probable space group: P -1
;
_chemical_formula_sum "Si O2"
_cell_formula_units_Z 16
_cell_length_a 19.934756
_cell_length_b 9.010565
_cell_length_c 11.241370
_cell_angle_alpha 82.384619
_cell_angle_beta 32.065219
_cell_angle_gamma 102.160281
_cell_volume 838.861001
_symmetry_space_group_name_H-M "P -1"
_symmetry_group_IT_number 2
_symmetry_cell_setting 'triclinic'
loop_
_space_group_symop_operation_xyz
x,y,z
-x,-y,-z
loop_
_atom_site_type_symbol
_atom_site_label
_atom_site_fract_x
_atom_site_fract_y
_atom_site_fract_z
Si Si1 0.097750 0.380211 0.535414
Si Si2 0.099972 0.987574 0.248568
Si Si3 0.006709 0.276400 0.947077
Si Si4 0.256008 0.700012 0.589418
Si Si5 0.645479 0.658205 0.842670
Si Si6 0.202764 0.770443 0.410088
Si Si7 0.401682 0.136676 0.917970
Si Si8 0.945400 0.058839 0.278138
O O1 0.266045 0.428552 0.237775
O O2 0.110898 0.568688 0.501110
O O3 0.968828 0.230900 0.647118
O O4 0.050765 0.272313 0.745785
O O5 0.079194 0.064718 0.149529
O O6 0.286347 0.103913 0.987062
O O7 0.000000 0.000000 0.500000
O O8 0.833118 0.230959 0.215148
O O9 0.998614 0.118915 0.054765
O O10 0.141331 0.473978 0.787130
O O11 0.296127 0.772293 0.384125
O O12 0.422120 0.784126 0.399179
O O13 0.500000 0.500000 0.000000
O O14 0.575049 0.700695 0.052934
O O15 0.771478 0.854628 0.562819
O O16 0.067980 0.787873 0.655240
O O17 0.326051 0.939305 0.119146
#
# Coordination Sequence:
#
# PCOD8041153 Si02
#       8
#     2   2   2   2   2   2   2   2
#     4  10  20  33  55  82 108 139 182 222 262 321
#     4  11  20  38  51  77 113 150 174 210 273 329
#     4   9  18  35  55  81 106 138 184 223 263 311
#     4   9  18  32  56  81 107 138 174 229 273 308
#     4  10  19  31  51  80 109 135 173 225 270 310
#     4   9  17  32  56  83 105 135 178 230 272 311
#     4  11  20  35  54  78 114 142 175 219 277 322
#     4   9  19  35  58  76 110 148 176 213 269 327
#
# _framework density 19.073481999999998
#
# number of rings (size 3 to 8) (size 9 to 14) (size 15 to 20)
#    0.000    2.250    3.750    2.625    0.000    4.500 
#    0.000    1.250    0.000    0.000    0.000    0.000 
#    0.000    0.000    0.000    0.000    0.000    0.000 
#
# Total GULP energy -198304.146568 kJ/mol
# GULP energy per Si atom -12394.009160 kJ/mol
# Density = 1.903007 g / cm^3
# Si number density = 19.073482 Si / 1000 Ang^3
#
#
#
# Elastic Constant Matrix: (Units=GPa)
#
#
# Indices 1 2 3 4 5 6 
#
# 1 86.8843 34.4158 47.8164 -7.7838 -32.0021 -2.0383
# 2 34.4158 116.3954 21.3094 -5.1012 -13.5149 10.6244
# 3 47.8164 21.3094 80.7956 3.7205 -23.3697 -6.1256
# 4 -7.7838 -5.1012 3.7205 21.9569 -1.0200 -2.5606
# 5 -32.0021 -13.5149 -23.3697 -1.0200 39.3809 -3.4122
# 6 -2.0383 10.6244 -6.1256 -2.5606 -3.4122 28.1247
#
#
#
# Elastic Compliance Matrix: (Units=1/GPa)
#
#
# Indices 1 2 3 4 5 6 
#
# 1 0.024226 -0.003717 -0.009744 0.010408 0.013210 0.003588
# 2 -0.003717 0.010248 -0.000996 0.000704 -0.000453 -0.004349
# 3 -0.009744 -0.000996 0.020115 -0.006457 0.003850 0.003931
# 4 0.010408 0.000704 -0.006457 0.051328 0.006592 0.004555
# 5 0.013210 -0.000453 0.003850 0.006592 0.039061 0.007306
# 6 0.003588 -0.004349 0.003931 0.004555 0.007306 0.039616
#
#
# Mechanical properties :
#
#
# Convention : Reuss Voigt Hill
#
# Bulk Modulus (GPa) = 38.94741 54.57314 46.76028
# Shear Modulus (GPa) = 22.51571 29.92810 26.22190
#
# Velocity S-wave (km/s) = 3.43953 3.96548 3.71183
# Velocity P-wave (km/s) = 6.01978 7.04563 6.55281
#
# Compressibility (1/GPa) = 0.02567565
#
# Stress axis : x y z
#
# Youngs Moduli (GPa) = 41.27712 97.58018 49.71361
#
# Poissons Ratio (x) = 0.36270 0.48440
# Poissons Ratio (y) = 0.15343 0.04953
# Poissons Ratio (z) = 0.40219 0.09722
#
# Static dielectric constant tensor:
#      x y z
#    x 3.395040 -0.080370 -0.011670 
#    y -0.080370 3.725930 0.015570 
#    z -0.011670 0.015570 3.332770 
# 
# 
# High freq. dielectric constant tensor:
#      x y z
#    x 1.715890 -0.004500 -0.008190 
#    y -0.004500 1.759600 0.001510 
#    z -0.008190 0.001510 1.717140 
# 
# From -- ./inp_files/303829.got.cif
#   From: 2010.06.25/outbox.cif.g09.slc.cpg/sg2_152_cif.got.tgz:303829.got - 2010.06.27 13:26:56.
