data_PCOD8041900
_publ_section_title
;
Structure prediction by ZEFSAII (Michael W. Deem and Ramdas Pophale) SiO2 
 PCOD8041900
Probable space group: P -1
;
_chemical_formula_sum "Si O2"
_cell_formula_units_Z 16
_cell_length_a 9.328915
_cell_length_b 14.672272
_cell_length_c 23.310734
_cell_angle_alpha 159.641244
_cell_angle_beta 126.686324
_cell_angle_gamma 55.374342
_cell_volume 889.779731
_symmetry_space_group_name_H-M "P -1"
_symmetry_group_IT_number 2
_symmetry_cell_setting 'triclinic'
loop_
_space_group_symop_operation_xyz
x,y,z
-x,-y,-z
loop_
_atom_site_type_symbol
_atom_site_label
_atom_site_fract_x
_atom_site_fract_y
_atom_site_fract_z
Si Si1 0.651705 0.470062 0.599148
Si Si2 0.841318 0.652485 0.923941
Si Si3 0.385130 0.137073 0.271567
Si Si4 0.647518 0.927316 0.947974
Si Si5 0.439320 0.293883 0.784060
Si Si6 0.817625 0.161984 0.551748
Si Si7 0.510344 0.731744 0.975002
Si Si8 0.758552 0.290148 0.940942
O O1 0.498362 0.277848 0.430234
O O2 0.718019 0.642499 0.662323
O O3 0.574000 0.674644 0.748072
O O4 0.808761 0.302852 0.569978
O O5 0.825264 0.853841 0.984043
O O6 0.811126 0.362294 0.721431
O O7 0.698685 0.718642 0.978823
O O8 0.038694 0.674456 0.010587
O O9 0.241896 0.959816 0.164237
O O10 0.522091 0.946649 0.155725
O O11 0.500000 0.000000 0.000000
O O12 0.655960 0.170652 0.048744
O O13 0.462902 0.450445 0.822758
O O14 0.634787 0.244725 0.829426
O O15 0.352688 0.018959 0.586780
O O16 0.308317 0.449131 0.888102
O O17 0.000000 0.000000 0.500000
#
# Coordination Sequence:
#
# PCOD8041900 Si02
#       8
#     2   2   2   2   2   2   2   2
#     4   9  17  31  54  78  96 141 173 208 257 307
#     4  10  20  34  56  78 103 140 176 211 263 308
#     4   9  17  33  56  77 102 131 177 217 255 305
#     4   8  16  33  53  76 103 136 169 211 260 309
#     4  10  20  34  52  74 108 141 172 212 261 306
#     4  11  20  34  51  78 109 136 171 217 257 311
#     4   9  19  34  53  79 104 139 171 215 260 312
#     4  10  19  34  53  78 104 138 176 215 256 308
#
# _framework density 17.981978999999999
#
# number of rings (size 3 to 8) (size 9 to 14) (size 15 to 20)
#    0.000    2.500    2.500    0.000    0.000    1.000 
#    2.250    2.500    0.000   12.000    0.000    0.000 
#    0.000    0.000    0.000    0.000    0.000    0.000 
#
# Total GULP energy -198236.416662 kJ/mol
# GULP energy per Si atom -12389.776041 kJ/mol
# Density = 1.794105 g / cm^3
# Si number density = 17.981979 Si / 1000 Ang^3
#
#
#
# Elastic Constant Matrix: (Units=GPa)
#
#
# Indices 1 2 3 4 5 6 
#
# 1 69.2484 46.2084 32.3203 1.7102 5.7391 -1.8397
# 2 46.2084 121.4863 49.6441 10.6432 9.4355 1.2222
# 3 32.3203 49.6441 81.5007 2.2144 11.8617 0.7642
# 4 1.7102 10.6432 2.2144 26.2555 2.6431 4.5682
# 5 5.7391 9.4355 11.8617 2.6431 23.4784 -0.7595
# 6 -1.8397 1.2222 0.7642 4.5682 -0.7595 26.4493
#
#
#
# Elastic Compliance Matrix: (Units=1/GPa)
#
#
# Indices 1 2 3 4 5 6 
#
# 1 0.020655 -0.006137 -0.004440 0.001279 -0.000431 0.001615
# 2 -0.006137 0.013208 -0.005405 -0.004416 -0.000584 -0.000135
# 3 -0.004440 -0.005405 0.018182 0.001752 -0.006160 -0.001064
# 4 0.001279 -0.004416 0.001752 0.041300 -0.004299 -0.007014
# 5 -0.000431 -0.000584 -0.006160 -0.004299 0.046602 0.002256
# 6 0.001615 -0.000135 -0.001064 -0.007014 0.002256 0.039234
#
#
# Mechanical properties :
#
#
# Convention : Reuss Voigt Hill
#
# Bulk Modulus (GPa) = 49.79938 58.73121 54.26530
# Shear Modulus (GPa) = 22.95276 24.84080 23.89678
#
# Velocity S-wave (km/s) = 3.57659 3.72079 3.64940
# Velocity P-wave (km/s) = 6.69404 7.15479 6.92825
#
# Compressibility (1/GPa) = 0.02008057
#
# Stress axis : x y z
#
# Youngs Moduli (GPa) = 48.41410 75.71141 54.99897
#
# Poissons Ratio (x) = 0.46462 0.24421
# Poissons Ratio (y) = 0.29710 0.29729
# Poissons Ratio (z) = 0.21497 0.40925
#
# Static dielectric constant tensor:
#      x y z
#    x 3.290080 0.604010 0.133420 
#    y 0.604010 4.531270 0.421540 
#    z 0.133420 0.421540 3.554980 
# 
# 
# High freq. dielectric constant tensor:
#      x y z
#    x 1.655860 0.016530 -0.005710 
#    y 0.016530 1.713660 0.012390 
#    z -0.005710 0.012390 1.697200 
# 
# From -- ./inp_files/176489.got.cif
#   From: 2010.06.25/outbox.cif.g09.slc.cpg/sg2_89_cif.got.tgz:176489.got - 2010.06.27 13:26:56.
