data_PCOD8041275
_publ_section_title
;
Structure prediction by ZEFSAII (Michael W. Deem and Ramdas Pophale) SiO2 
 PCOD8041275
Probable space group: P -1
;
_chemical_formula_sum "Si O2"
_cell_formula_units_Z 12
_cell_length_a 15.681725
_cell_length_b 11.850263
_cell_length_c 9.458328
_cell_angle_alpha 141.909190
_cell_angle_beta 143.928345
_cell_angle_gamma 45.420797
_cell_volume 627.897785
_symmetry_space_group_name_H-M "P -1"
_symmetry_group_IT_number 2
_symmetry_cell_setting 'triclinic'
loop_
_space_group_symop_operation_xyz
x,y,z
-x,-y,-z
loop_
_atom_site_type_symbol
_atom_site_label
_atom_site_fract_x
_atom_site_fract_y
_atom_site_fract_z
Si Si1 0.860527 0.362557 0.833274
Si Si2 0.179058 0.350900 0.174878
Si Si3 0.488786 0.235855 0.584180
Si Si4 0.590139 0.505532 0.770104
Si Si5 0.828087 0.023484 0.312831
Si Si6 0.558088 0.166409 0.916500
O O1 0.833076 0.455732 0.732599
O O2 0.764511 0.483116 0.944264
O O3 0.800516 0.164596 0.548977
O O4 0.036174 0.340783 0.072371
O O5 0.315991 0.327873 0.441752
O O6 0.205578 0.186018 0.926821
O O7 0.573898 0.334766 0.680569
O O8 0.550280 0.266944 0.853131
O O9 0.514876 0.017274 0.368400
O O10 0.500000 0.500000 0.500000
O O11 0.537648 0.701740 0.967831
O O12 0.729550 0.118246 0.142868
O O13 0.000000 0.000000 0.500000
#
# Coordination Sequence:
#
# PCOD8041275 Si02
#       6
#     2   2   2   2   2   2
#     4  10  19  32  50  81 106 133 176 220 263 304
#     4   9  18  33  53  73 106 142 174 211 259 320
#     4  10  21  37  56  77 108 147 178 214 263 324
#     4  12  21  33  55  86 110 133 178 229 267 303
#     4   9  17  31  53  76 100 135 178 216 253 310
#     4  10  21  36  55  79 108 144 179 213 269 323
#
# _framework density 19.11139
#
# number of rings (size 3 to 8) (size 9 to 14) (size 15 to 20)
#    0.000    2.000    3.333    0.500    0.000    2.000 
#    0.000    0.833    0.000   16.000    0.000    0.000 
#    0.000    0.000    0.000    0.000    0.000    0.000 
#
# Total GULP energy -148673.248319 kJ/mol
# GULP energy per Si atom -12389.437360 kJ/mol
# Density = 1.906789 g / cm^3
# Si number density = 19.111390 Si / 1000 Ang^3
#
#
#
# Elastic Constant Matrix: (Units=GPa)
#
#
# Indices 1 2 3 4 5 6 
#
# 1 107.5828 44.2444 34.5910 -10.6503 -0.6415 -17.3718
# 2 44.2444 82.5320 26.0605 -7.9077 -0.7830 -13.6729
# 3 34.5910 26.0605 59.5497 -9.0139 -4.5509 -15.4073
# 4 -10.6503 -7.9077 -9.0139 29.8301 -4.0584 -0.2522
# 5 -0.6415 -0.7830 -4.5509 -4.0584 27.3680 0.6866
# 6 -17.3718 -13.6729 -15.4073 -0.2522 0.6866 30.0079
#
#
#
# Elastic Compliance Matrix: (Units=1/GPa)
#
#
# Indices 1 2 3 4 5 6 
#
# 1 0.013583 -0.005120 -0.004520 0.002106 -0.000349 0.003235
# 2 -0.005120 0.016526 -0.003270 0.001586 -0.000029 0.002901
# 3 -0.004520 -0.003270 0.024149 0.005488 0.004423 0.008238
# 4 0.002106 0.001586 0.005488 0.037268 0.006410 0.004926
# 5 -0.000349 -0.000029 0.004423 0.006410 0.038185 0.001236
# 6 0.003235 0.002901 0.008238 0.004926 0.001236 0.040762
#
#
# Mechanical properties :
#
#
# Convention : Reuss Voigt Hill
#
# Bulk Modulus (GPa) = 35.16330 51.05069 43.10700
# Shear Modulus (GPa) = 24.29870 27.09244 25.69557
#
# Velocity S-wave (km/s) = 3.56957 3.76920 3.67074
# Velocity P-wave (km/s) = 5.95216 6.76111 6.36949
#
# Compressibility (1/GPa) = 0.02843874
#
# Stress axis : x y z
#
# Youngs Moduli (GPa) = 73.62148 60.51091 41.40896
#
# Poissons Ratio (x) = 0.30981 0.18718
# Poissons Ratio (y) = 0.37693 0.13540
# Poissons Ratio (z) = 0.33278 0.19786
#
# Static dielectric constant tensor:
#      x y z
#    x 3.343600 -0.291680 -0.029410 
#    y -0.291680 3.999430 0.299220 
#    z -0.029410 0.299220 3.799160 
# 
# 
# High freq. dielectric constant tensor:
#      x y z
#    x 1.703160 -0.019470 0.010620 
#    y -0.019470 1.763910 0.013630 
#    z 0.010620 0.013630 1.741430 
# 
# From -- ./inp_files/157572.got.cif
#   From: 2010.06.25/outbox.cif.g09.slc.cpg/sg2_79_cif.got.tgz:157572.got - 2010.06.27 13:26:56.
