data_PCOD8041573
_publ_section_title
;
Structure prediction by ZEFSAII (Michael W. Deem and Ramdas Pophale) SiO2 
 PCOD8041573
Probable space group: P -1
;
_chemical_formula_sum "Si O2"
_cell_formula_units_Z 16
_cell_length_a 8.247528
_cell_length_b 16.172825
_cell_length_c 12.637262
_cell_angle_alpha 60.215835
_cell_angle_beta 72.811101
_cell_angle_gamma 35.326418
_cell_volume 825.459808
_symmetry_space_group_name_H-M "P -1"
_symmetry_group_IT_number 2
_symmetry_cell_setting 'triclinic'
loop_
_space_group_symop_operation_xyz
x,y,z
-x,-y,-z
loop_
_atom_site_type_symbol
_atom_site_label
_atom_site_fract_x
_atom_site_fract_y
_atom_site_fract_z
Si Si1 0.400464 0.342073 0.421734
Si Si2 0.146852 0.203588 0.686140
Si Si3 0.522604 0.481194 0.690444
Si Si4 0.623615 0.095105 0.376729
Si Si5 0.601920 0.242110 0.872635
Si Si6 0.106336 0.219803 0.451463
Si Si7 0.252335 0.351317 0.667340
Si Si8 0.768913 0.045146 0.148486
O O1 0.469350 0.418673 0.319822
O O2 0.611001 0.180795 0.415424
O O3 0.442838 0.312427 0.560305
O O4 0.070450 0.460668 0.389704
O O5 0.242411 0.187156 0.559985
O O6 0.241908 0.241765 0.724710
O O7 0.801210 0.348929 0.645358
O O8 0.292224 0.039759 0.800657
O O9 0.561787 0.372137 0.830411
O O10 0.224997 0.601213 0.609342
O O11 0.314752 0.184043 0.355639
O O12 0.719013 0.099542 0.244815
O O13 0.858762 0.910266 0.486824
O O14 0.371337 0.319791 0.779245
O O15 0.555844 0.200755 0.013805
O O16 0.906291 0.078148 0.866766
#
# Coordination Sequence:
#
# PCOD8041573 Si02
#       8
#     2   2   2   2   2   2   2   2
#     4  10  21  34  52  86 116 135 175 222 280 323
#     4   9  18  34  56  82 108 136 180 227 269 312
#     4  10  21  32  55  79 110 144 181 222 262 319
#     4  10  20  36  53  77 116 142 171 225 276 322
#     4  10  21  38  58  79 105 145 193 218 259 314
#     4  10  19  33  54  81 110 142 174 221 276 327
#     4  10  20  33  57  83 110 141 174 230 267 320
#     4   9  21  39  57  78 107 147 184 223 259 321
#
# _framework density 19.383137999999999
#
# number of rings (size 3 to 8) (size 9 to 14) (size 15 to 20)
#    0.000    2.250    1.250    1.125    8.750    1.000 
#    0.000    3.125    0.000    0.000    0.000    0.000 
#    0.000    0.000    0.000    0.000    0.000    0.000 
#
# Total GULP energy -198286.128322 kJ/mol
# GULP energy per Si atom -12392.883020 kJ/mol
# Density = 1.933902 g / cm^3
# Si number density = 19.383138 Si / 1000 Ang^3
#
#
#
# Elastic Constant Matrix: (Units=GPa)
#
#
# Indices 1 2 3 4 5 6 
#
# 1 50.2787 15.3181 26.9954 -9.3128 -12.0062 4.3557
# 2 15.3181 56.5362 37.8238 -3.5883 -9.1571 14.9462
# 3 26.9954 37.8238 107.5686 -8.0373 -16.1742 3.6802
# 4 -9.3128 -3.5883 -8.0373 23.2044 1.4701 -2.6119
# 5 -12.0062 -9.1571 -16.1742 1.4701 23.7478 -4.3341
# 6 4.3557 14.9462 3.6802 -2.6119 -4.3341 29.5950
#
#
#
# Elastic Compliance Matrix: (Units=1/GPa)
#
#
# Indices 1 2 3 4 5 6 
#
# 1 0.026445 -0.002673 -0.003672 0.008339 0.009325 0.000016
# 2 -0.002673 0.027470 -0.008462 -0.001228 0.001300 -0.012345
# 3 -0.003672 -0.008462 0.013971 0.002191 0.004990 0.004001
# 4 0.008339 -0.001228 0.002191 0.047241 0.002990 0.003728
# 5 0.009325 0.001300 0.004990 0.002990 0.051479 0.005153
# 6 0.000016 -0.012345 0.004001 0.003728 0.005153 0.040608
#
#
# Mechanical properties :
#
#
# Convention : Reuss Voigt Hill
#
# Bulk Modulus (GPa) = 26.12957 41.62868 33.87912
# Shear Modulus (GPa) = 20.03329 24.25919 22.14624
#
# Velocity S-wave (km/s) = 3.21836 3.54158 3.38383
# Velocity P-wave (km/s) = 5.22688 6.18442 5.72571
#
# Compressibility (1/GPa) = 0.03827082
#
# Stress axis : x y z
#
# Youngs Moduli (GPa) = 37.81426 36.40387 71.57908
#
# Poissons Ratio (x) = 0.09731 0.26285
# Poissons Ratio (y) = 0.10108 0.60570
# Poissons Ratio (z) = 0.13886 0.30805
#
# Static dielectric constant tensor:
#      x y z
#    x 3.426600 0.105380 -0.349950 
#    y 0.105380 3.599360 -0.138130 
#    z -0.349950 -0.138130 3.454080 
# 
# 
# High freq. dielectric constant tensor:
#      x y z
#    x 1.748750 0.008650 -0.024710 
#    y 0.008650 1.754990 -0.010320 
#    z -0.024710 -0.010320 1.722740 
# 
# From -- ./inp_files/258921.got.cif
#   From: 2010.06.25/outbox.cif.g09.slc.cpg/sg2_130_cif.got.tgz:258921.got - 2010.06.27 13:26:56.
