data_PCOD8041375
_publ_section_title
;
Structure prediction by ZEFSAII (Michael W. Deem and Ramdas Pophale) SiO2 
 PCOD8041375
Probable space group: P -1
;
_chemical_formula_sum "Si O2"
_cell_formula_units_Z 12
_cell_length_a 11.098142
_cell_length_b 12.124613
_cell_length_c 11.847917
_cell_angle_alpha 59.802059
_cell_angle_beta 154.253556
_cell_angle_gamma 121.511737
_cell_volume 588.169211
_symmetry_space_group_name_H-M "P -1"
_symmetry_group_IT_number 2
_symmetry_cell_setting 'triclinic'
loop_
_space_group_symop_operation_xyz
x,y,z
-x,-y,-z
loop_
_atom_site_type_symbol
_atom_site_label
_atom_site_fract_x
_atom_site_fract_y
_atom_site_fract_z
Si Si1 0.442093 0.374379 0.871761
Si Si2 0.953049 0.670372 0.645328
Si Si3 0.290850 0.338222 0.013987
Si Si4 0.257730 0.081805 0.241479
Si Si5 0.177754 0.616442 0.252819
Si Si6 0.176882 0.250453 0.279153
O O1 0.236204 0.312545 0.630770
O O2 0.290910 0.326681 0.885513
O O3 0.499770 0.531347 0.833444
O O4 0.728431 0.318414 0.133206
O O5 0.833101 0.536934 0.678011
O O6 0.924223 0.778061 0.661520
O O7 0.971710 0.343446 0.780110
O O8 0.386857 0.214397 0.215692
O O9 0.141074 0.115772 0.248455
O O10 0.500000 0.000000 0.500000
O O11 0.000000 0.000000 0.000000
O O12 0.496046 0.687382 0.482262
O O13 0.010676 0.654080 0.983813
#
# Coordination Sequence:
#
# PCOD8041375 Si02
#       6
#     2   2   2   2   2   2
#     4  10  22  35  59  85 116 149 175 223 276 343
#     4  11  20  33  53  84 114 146 179 216 285 340
#     4   9  21  39  57  85 115 144 189 226 273 324
#     4  11  23  38  59  81 106 146 190 236 272 310
#     4  10  19  32  55  82 112 146 177 227 282 327
#     4  11  21  35  54  79 114 143 183 233 273 328
#
# _framework density 20.402290000000001
#
# number of rings (size 3 to 8) (size 9 to 14) (size 15 to 20)
#    0.000    1.667    0.000    7.000    0.000   11.333 
#    0.000    0.000    0.000    6.000    0.000    0.000 
#    0.000    0.000    0.000    0.000    0.000    0.000 
#
# Total GULP energy -148807.876526 kJ/mol
# GULP energy per Si atom -12400.656377 kJ/mol
# Density = 2.035585 g / cm^3
# Si number density = 20.402290 Si / 1000 Ang^3
#
#
#
# Elastic Constant Matrix: (Units=GPa)
#
#
# Indices 1 2 3 4 5 6 
#
# 1 179.7643 32.0894 57.9393 6.9269 -13.2019 -19.4937
# 2 32.0894 60.2754 25.2651 -7.2932 -7.1004 -14.5337
# 3 57.9393 25.2651 147.7070 13.3520 -3.2085 -7.3011
# 4 6.9269 -7.2932 13.3520 28.9607 -5.1591 -7.0673
# 5 -13.2019 -7.1004 -3.2085 -5.1591 33.1945 9.7726
# 6 -19.4937 -14.5337 -7.3011 -7.0673 9.7726 30.3557
#
#
#
# Elastic Compliance Matrix: (Units=1/GPa)
#
#
# Indices 1 2 3 4 5 6 
#
# 1 0.007032 -0.002105 -0.002216 -0.000349 0.001354 0.002458
# 2 -0.002105 0.023467 -0.003608 0.011147 0.002373 0.010847
# 3 -0.002216 -0.003608 0.008591 -0.004990 -0.001035 -0.001913
# 4 -0.000349 0.011147 -0.004990 0.043639 0.004863 0.012506
# 5 0.001354 0.002373 -0.001035 0.004863 0.034220 -0.008128
# 6 0.002458 0.010847 -0.001913 0.012506 -0.008128 0.044782
#
#
# Mechanical properties :
#
#
# Convention : Reuss Voigt Hill
#
# Bulk Modulus (GPa) = 43.04445 68.70383 55.87414
# Shear Modulus (GPa) = 26.97822 36.66571 31.82197
#
# Velocity S-wave (km/s) = 3.64031 4.24386 3.95362
# Velocity P-wave (km/s) = 6.22999 7.60010 6.94890
#
# Compressibility (1/GPa) = 0.02323180
#
# Stress axis : x y z
#
# Youngs Moduli (GPa) = 142.20147 42.61234 116.40620
#
# Poissons Ratio (x) = 0.08971 0.25794
# Poissons Ratio (y) = 0.29936 0.42001
# Poissons Ratio (z) = 0.31510 0.15375
#
# Static dielectric constant tensor:
#      x y z
#    x 3.915810 -0.327260 0.007400 
#    y -0.327260 3.600860 0.059830 
#    z 0.007400 0.059830 3.445580 
# 
# 
# High freq. dielectric constant tensor:
#      x y z
#    x 1.807560 -0.024840 -0.000150 
#    y -0.024840 1.753460 0.003880 
#    z -0.000150 0.003880 1.810990 
# 
# From -- ./inp_files/73755.got.cif
#   From: 2010.06.25/outbox.cif.g09.slc.cpg/sg2_37_cif.got.tgz:73755.got - 2010.06.27 13:26:56.
