data_PCOD8041330
_publ_section_title
;
Structure prediction by ZEFSAII (Michael W. Deem and Ramdas Pophale) SiO2 
 PCOD8041330
Probable space group: P -1
;
_chemical_formula_sum "Si O2"
_cell_formula_units_Z 16
_cell_length_a 14.634926
_cell_length_b 11.941404
_cell_length_c 14.103397
_cell_angle_alpha 49.170526
_cell_angle_beta 147.413668
_cell_angle_gamma 108.712594
_cell_volume 829.032218
_symmetry_space_group_name_H-M "P -1"
_symmetry_group_IT_number 2
_symmetry_cell_setting 'triclinic'
loop_
_space_group_symop_operation_xyz
x,y,z
-x,-y,-z
loop_
_atom_site_type_symbol
_atom_site_label
_atom_site_fract_x
_atom_site_fract_y
_atom_site_fract_z
Si Si1 0.009269 0.358351 0.819863
Si Si2 0.691559 0.958109 0.873040
Si Si3 0.569906 0.014093 0.201800
Si Si4 0.942086 0.101195 0.992789
Si Si5 0.687462 0.720227 0.713424
Si Si6 0.381820 0.567665 0.260593
Si Si7 0.090112 0.155170 0.266150
Si Si8 0.394217 0.283564 0.732027
O O1 0.840928 0.561809 0.529955
O O2 0.116168 0.230427 0.893346
O O3 0.881775 0.300447 0.803838
O O4 0.195200 0.341160 0.050198
O O5 0.614109 0.916745 0.922733
O O6 0.509938 0.070746 0.574284
O O7 0.764679 0.089231 0.891420
O O8 0.774681 0.971120 0.458204
O O9 0.616442 0.835749 0.291432
O O10 0.508222 0.170179 0.987856
O O11 0.121754 0.033394 0.267487
O O12 0.000000 0.000000 0.000000
O O13 0.611194 0.594316 0.693855
O O14 0.837906 0.711758 0.767846
O O15 0.500000 0.500000 0.500000
O O16 0.483749 0.634954 0.242468
O O17 0.148204 0.731769 0.980265
#
# Coordination Sequence:
#
# PCOD8041330 Si02
#       8
#     2   2   2   2   2   2   2   2
#     4  10  20  35  57  84 112 142 178 229 279 324
#     4  10  19  35  58  81 111 146 180 218 274 335
#     4  10  23  40  56  77 108 151 192 226 267 322
#     4   9  18  32  55  85 112 139 174 223 278 325
#     4  10  19  32  53  85 113 136 174 225 280 331
#     4  12  21  33  57  85 111 141 179 228 285 332
#     4  10  19  34  55  81 113 145 181 223 273 331
#     4  11  23  39  56  78 111 147 189 231 270 322
#
# _framework density 19.299610999999999
#
# number of rings (size 3 to 8) (size 9 to 14) (size 15 to 20)
#    0.000    1.750    0.000    6.750    0.000    2.000 
#    0.000    1.250    0.000    3.750    0.000    0.000 
#    0.000    0.000    0.000    0.000    0.000    0.000 
#
# Total GULP energy -198278.998209 kJ/mol
# GULP energy per Si atom -12392.437388 kJ/mol
# Density = 1.925568 g / cm^3
# Si number density = 19.299611 Si / 1000 Ang^3
#
#
#
# Elastic Constant Matrix: (Units=GPa)
#
#
# Indices 1 2 3 4 5 6 
#
# 1 102.3899 47.7031 64.5795 1.7357 -3.0371 4.3643
# 2 47.7031 102.8211 56.8605 5.2836 -10.0908 1.3366
# 3 64.5795 56.8605 134.3497 6.8112 -3.5687 -4.8130
# 4 1.7357 5.2836 6.8112 26.0817 -7.8353 2.7990
# 5 -3.0371 -10.0908 -3.5687 -7.8353 32.4636 3.8793
# 6 4.3643 1.3366 -4.8130 2.7990 3.8793 29.8480
#
#
#
# Elastic Compliance Matrix: (Units=1/GPa)
#
#
# Indices 1 2 3 4 5 6 
#
# 1 0.015475 -0.003872 -0.005997 0.001796 0.000410 -0.003278
# 2 -0.003872 0.014157 -0.004058 -0.000328 0.003652 -0.001166
# 3 -0.005997 -0.004058 0.012271 -0.002833 -0.001577 0.003508
# 4 0.001796 -0.000328 -0.002833 0.042948 0.010854 -0.006143
# 5 0.000410 0.003652 -0.001577 0.010854 0.035148 -0.006064
# 6 -0.003278 -0.001166 0.003508 -0.006143 -0.006064 0.035964
#
#
# Mechanical properties :
#
#
# Convention : Reuss Voigt Hill
#
# Bulk Modulus (GPa) = 71.18975 75.31630 73.25303
# Shear Modulus (GPa) = 26.52503 29.03983 27.78243
#
# Velocity S-wave (km/s) = 3.71129 3.88323 3.79823
# Velocity P-wave (km/s) = 7.43852 7.69516 7.56793
#
# Compressibility (1/GPa) = 0.01404697
#
# Stress axis : x y z
#
# Youngs Moduli (GPa) = 64.62194 70.63678 81.49303
#
# Poissons Ratio (x) = 0.27353 0.48872
# Poissons Ratio (y) = 0.25024 0.33073
# Poissons Ratio (z) = 0.38754 0.28667
#
# Static dielectric constant tensor:
#      x y z
#    x 3.455330 0.034410 0.058320 
#    y 0.034410 3.793600 0.230550 
#    z 0.058320 0.230550 3.510300 
# 
# 
# High freq. dielectric constant tensor:
#      x y z
#    x 1.740060 -0.002000 0.011010 
#    y -0.002000 1.757160 0.017650 
#    z 0.011010 0.017650 1.743760 
# 
# From -- ./inp_files/313045.got.cif
#   From: 2010.06.25/outbox.cif.g09.slc.cpg/sg2_157_cif.got.tgz:313045.got - 2010.06.27 13:26:56.
