data_PCOD8041676
_publ_section_title
;
Structure prediction by ZEFSAII (Michael W. Deem and Ramdas Pophale) SiO2 
 PCOD8041676
Probable space group: P -1
;
_chemical_formula_sum "Si O2"
_cell_formula_units_Z 16
_cell_length_a 9.860902
_cell_length_b 15.719923
_cell_length_c 11.448005
_cell_angle_alpha 123.102568
_cell_angle_beta 60.708347
_cell_angle_gamma 74.018490
_cell_volume 868.314564
_symmetry_space_group_name_H-M "P -1"
_symmetry_group_IT_number 2
_symmetry_cell_setting 'triclinic'
loop_
_space_group_symop_operation_xyz
x,y,z
-x,-y,-z
loop_
_atom_site_type_symbol
_atom_site_label
_atom_site_fract_x
_atom_site_fract_y
_atom_site_fract_z
Si Si1 0.250860 0.096334 0.130061
Si Si2 0.928197 0.418773 0.451610
Si Si3 0.859138 0.005351 0.712572
Si Si4 0.367436 0.712533 0.255471
Si Si5 0.957668 0.186229 0.853701
Si Si6 0.493928 0.468008 0.161645
Si Si7 0.589569 0.088340 0.664933
Si Si8 0.855650 0.806167 0.998774
O O1 0.158479 0.042676 0.193519
O O2 0.248948 0.075806 0.975626
O O3 0.089011 0.272324 0.359568
O O4 0.500000 0.000000 0.000000
O O5 0.662272 0.519205 0.670138
O O6 0.000000 0.500000 0.500000
O O7 0.980570 0.361886 0.251855
O O8 0.097820 0.854745 0.435949
O O9 0.857994 0.122327 0.835904
O O10 0.647339 0.086297 0.774664
O O11 0.396200 0.629190 0.296989
O O12 0.452872 0.786883 0.297055
O O13 0.513905 0.592299 0.999548
O O14 0.756153 0.356392 0.014509
O O15 0.202242 0.079447 0.603050
O O16 0.993534 0.196617 0.982039
O O17 0.353635 0.139892 0.797676
#
# Coordination Sequence:
#
# PCOD8041676 Si02
#       8
#     2   2   2   2   2   2   2   2
#     4  10  21  37  61  84 111 148 199 238 271 339
#     4  10  22  38  59  82 112 157 191 230 283 339
#     4  11  18  38  60  88 110 148 198 236 278 340
#     4  10  19  33  56  87 108 146 194 240 273 326
#     4  11  23  35  61  87 117 151 186 238 299 331
#     4  11  20  34  56  85 118 146 191 236 279 338
#     4  11  19  38  62  84 112 153 193 240 280 341
#     4  10  23  39  57  85 120 149 190 237 290 339
#
# _framework density 18.426501999999999
#
# number of rings (size 3 to 8) (size 9 to 14) (size 15 to 20)
#    0.750    0.750    5.000    1.875    1.750    1.000 
#    0.000    0.625    5.500    0.000    0.000    0.000 
#    0.000    0.000    0.000    0.000    0.000    0.000 
#
# Total GULP energy -198323.236718 kJ/mol
# GULP energy per Si atom -12395.202295 kJ/mol
# Density = 1.838456 g / cm^3
# Si number density = 18.426502 Si / 1000 Ang^3
#
#
#
# Elastic Constant Matrix: (Units=GPa)
#
#
# Indices 1 2 3 4 5 6 
#
# 1 69.5501 30.7183 26.2855 -0.6559 7.9149 -13.0427
# 2 30.7183 85.6275 18.7017 5.2048 2.0643 6.0159
# 3 26.2855 18.7017 83.0021 -0.2159 -5.0260 -0.2068
# 4 -0.6559 5.2048 -0.2159 31.8270 0.6735 -3.2290
# 5 7.9149 2.0643 -5.0260 0.6735 23.8982 -7.5135
# 6 -13.0427 6.0159 -0.2068 -3.2290 -7.5135 27.2068
#
#
#
# Elastic Compliance Matrix: (Units=1/GPa)
#
#
# Indices 1 2 3 4 5 6 
#
# 1 0.022685 -0.007797 -0.005659 0.002984 -0.004441 0.011684
# 2 -0.007797 0.015533 -0.001145 -0.003489 -0.001412 -0.007985
# 3 -0.005659 -0.001145 0.014378 -0.000039 0.004662 -0.001068
# 4 0.002984 -0.003489 -0.000039 0.032671 0.000324 0.006168
# 5 -0.004441 -0.001412 0.004662 0.000324 0.048031 0.011522
# 6 0.011684 -0.007985 -0.001068 0.006168 0.011522 0.048028
#
#
# Mechanical properties :
#
#
# Convention : Reuss Voigt Hill
#
# Bulk Modulus (GPa) = 42.74838 43.28788 43.01813
# Shear Modulus (GPa) = 22.90146 27.41801 25.15973
#
# Velocity S-wave (km/s) = 3.52924 3.86160 3.69915
# Velocity P-wave (km/s) = 6.31325 6.58983 6.45302
#
# Compressibility (1/GPa) = 0.02339270
#
# Stress axis : x y z
#
# Youngs Moduli (GPa) = 44.08107 64.37907 69.55239
#
# Poissons Ratio (x) = 0.50199 0.39362
# Poissons Ratio (y) = 0.34372 0.07964
# Poissons Ratio (z) = 0.24947 0.07371
#
# Static dielectric constant tensor:
#      x y z
#    x 6.375100 5.445870 -1.596010 
#    y 5.445870 12.196410 -2.395680 
#    z -1.596010 -2.395680 4.147130 
# 
# 
# High freq. dielectric constant tensor:
#      x y z
#    x 1.688430 0.009960 -0.011220 
#    y 0.009960 1.710140 -0.000120 
#    z -0.011220 -0.000120 1.718940 
# 
# From -- ./inp_files/403225.got.cif
#   From: 2010.06.25/outbox.cif.g09.slc.cpg/sg2_202_cif.got.tgz:403225.got - 2010.06.27 13:26:56.
