data_PCOD8041819
_publ_section_title
;
Structure prediction by ZEFSAII (Michael W. Deem and Ramdas Pophale) SiO2 
 PCOD8041819
Probable space group: P -1
;
_chemical_formula_sum "Si O2"
_cell_formula_units_Z 14
_cell_length_a 9.288236
_cell_length_b 9.538398
_cell_length_c 10.348695
_cell_angle_alpha 65.704883
_cell_angle_beta 117.636012
_cell_angle_gamma 114.965642
_cell_volume 709.303507
_symmetry_space_group_name_H-M "P -1"
_symmetry_group_IT_number 2
_symmetry_cell_setting 'triclinic'
loop_
_space_group_symop_operation_xyz
x,y,z
-x,-y,-z
loop_
_atom_site_type_symbol
_atom_site_label
_atom_site_fract_x
_atom_site_fract_y
_atom_site_fract_z
Si Si1 0.743135 0.409091 0.974590
Si Si2 0.230774 0.102259 0.631195
Si Si3 0.988783 0.733365 0.986196
Si Si4 0.263813 0.876087 0.246876
Si Si5 0.451711 0.628726 0.343415
Si Si6 0.545466 0.094198 0.117331
Si Si7 0.113715 0.027554 0.333821
O O1 0.877677 0.312279 0.035177
O O2 0.664418 0.456068 0.791849
O O3 0.596436 0.287682 0.045717
O O4 0.837582 0.574219 0.024113
O O5 0.374952 0.255124 0.686050
O O6 0.205710 0.125789 0.459013
O O7 0.290495 0.943041 0.737123
O O8 0.063491 0.092700 0.647035
O O9 0.082632 0.816783 0.121913
O O10 0.908162 0.853379 0.831931
O O11 0.355392 0.735218 0.344819
O O12 0.382474 0.034284 0.164628
O O13 0.227492 0.921843 0.360231
O O14 0.500000 0.500000 0.500000
O O15 0.500000 0.000000 0.000000
#
# Coordination Sequence:
#
# PCOD8041819 Si02
#       7
#     2   2   2   2   2   2   2
#     4  10  19  33  60  84 114 145 199 223 285 337
#     4  10  21  35  61  81 112 152 194 231 285 347
#     4  10  19  34  58  87 112 150 182 243 274 344
#     4  10  22  36  62  82 116 150 195 238 280 331
#     4  10  20  37  58  83 112 155 188 235 283 343
#     4  11  17  37  58  86 109 153 193 232 275 344
#     4  11  21  37  56  89 113 149 193 240 284 335
#
# _framework density 19.737673000000001
#
# number of rings (size 3 to 8) (size 9 to 14) (size 15 to 20)
#    0.000    1.714    5.714    1.286    0.000    2.286 
#    0.000    1.429    3.143    0.000    0.000    0.000 
#    0.000    0.000    0.000    0.000    0.000    0.000 
#
# Total GULP energy -173585.612639 kJ/mol
# GULP energy per Si atom -12398.972331 kJ/mol
# Density = 1.969275 g / cm^3
# Si number density = 19.737673 Si / 1000 Ang^3
#
#
#
# Elastic Constant Matrix: (Units=GPa)
#
#
# Indices 1 2 3 4 5 6 
#
# 1 96.7851 45.1070 38.7154 7.1248 -9.6555 8.9651
# 2 45.1070 83.8634 32.1963 -12.0038 -7.5695 22.8003
# 3 38.7154 32.1963 76.2151 -21.3033 6.3652 2.4888
# 4 7.1248 -12.0038 -21.3033 28.2988 -3.4551 3.7340
# 5 -9.6555 -7.5695 6.3652 -3.4551 32.1698 1.4208
# 6 8.9651 22.8003 2.4888 3.7340 1.4208 28.5548
#
#
#
# Elastic Compliance Matrix: (Units=1/GPa)
#
#
# Indices 1 2 3 4 5 6 
#
# 1 0.021691 -0.010718 -0.012479 -0.019583 0.004125 0.005191
# 2 -0.010718 0.026401 -0.000905 0.016580 0.005842 -0.020095
# 3 -0.012479 -0.000905 0.026552 0.021937 -0.006847 -0.000201
# 4 -0.019583 0.016580 0.021937 0.066353 0.001594 -0.017759
# 5 0.004125 0.005842 -0.006847 0.001594 0.035548 -0.007340
# 6 0.005191 -0.020095 -0.000201 -0.017759 -0.007340 0.052141
#
#
# Mechanical properties :
#
#
# Convention : Reuss Voigt Hill
#
# Bulk Modulus (GPa) = 37.82196 54.32236 46.07216
# Shear Modulus (GPa) = 17.50069 27.19433 22.34751
#
# Velocity S-wave (km/s) = 2.98092 3.71588 3.36851
# Velocity P-wave (km/s) = 5.57241 6.78176 6.20661
#
# Compressibility (1/GPa) = 0.02643966
#
# Stress axis : x y z
#
# Youngs Moduli (GPa) = 46.10135 37.87798 37.66185
#
# Poissons Ratio (x) = 0.40599 0.46997
# Poissons Ratio (y) = 0.49413 0.03409
# Poissons Ratio (z) = 0.57528 0.03429
#
# Static dielectric constant tensor:
#      x y z
#    x 3.541330 0.325280 0.195630 
#    y 0.325280 3.624880 -0.084380 
#    z 0.195630 -0.084380 3.672760 
# 
# 
# High freq. dielectric constant tensor:
#      x y z
#    x 1.759410 0.025270 0.019240 
#    y 0.025270 1.755050 -0.003270 
#    z 0.019240 -0.003270 1.767250 
# 
# From -- ./inp_files/157707.got.cif
#   From: 2010.06.25/outbox.cif.g09.slc.cpg/sg2_79_cif.got.tgz:157707.got - 2010.06.27 13:26:56.
