data_PCOD8041150
_publ_section_title
;
Structure prediction by ZEFSAII (Michael W. Deem and Ramdas Pophale) SiO2 
 PCOD8041150
Probable space group: P -1
;
_chemical_formula_sum "Si O2"
_cell_formula_units_Z 12
_cell_length_a 8.928262
_cell_length_b 10.522356
_cell_length_c 15.209842
_cell_angle_alpha 135.368546
_cell_angle_beta 44.082459
_cell_angle_gamma 104.758418
_cell_volume 594.522199
_symmetry_space_group_name_H-M "P -1"
_symmetry_group_IT_number 2
_symmetry_cell_setting 'triclinic'
loop_
_space_group_symop_operation_xyz
x,y,z
-x,-y,-z
loop_
_atom_site_type_symbol
_atom_site_label
_atom_site_fract_x
_atom_site_fract_y
_atom_site_fract_z
Si Si1 0.248176 0.610054 0.009265
Si Si2 0.410418 0.217971 0.028087
Si Si3 0.517748 0.584128 0.369808
Si Si4 0.508745 0.195632 0.169231
Si Si5 0.935554 0.944707 0.179444
Si Si6 0.941572 0.613185 0.895762
O O1 0.394073 0.710017 0.045322
O O2 0.412590 0.460955 0.784800
O O3 0.203261 0.474260 0.030702
O O4 0.980972 0.801348 0.177001
O O5 0.343902 0.255039 0.178189
O O6 0.153462 0.356157 0.149160
O O7 0.536944 0.962815 0.829905
O O8 0.443866 0.414129 0.352344
O O9 0.287880 0.818185 0.595189
O O10 0.757055 0.550920 0.308256
O O11 0.806232 0.062139 0.951721
O O12 0.867500 0.843227 0.077362
#
# Coordination Sequence:
#
# PCOD8041150 Si02
#       6
#     2   2   2   2   2   2
#     4   9  19  33  51  73  99 134 163 192 242 293
#     4   9  17  35  53  70 101 129 160 206 243 285
#     4   9  18  33  53  74  98 129 163 200 241 289
#     4   8  18  36  54  70  94 132 166 198 246 290
#     4   9  18  33  53  74  98 129 163 200 241 289
#     4  10  19  31  51  77 100 126 162 203 244 284
#
# _framework density 20.184277000000002
#
# number of rings (size 3 to 8) (size 9 to 14) (size 15 to 20)
#    0.000    3.667    0.000    2.500    0.000    5.333 
#    0.000   23.333    0.000   10.000    0.000    0.000 
#    0.000    0.000    0.000    0.000    0.000    0.000 
#
# Total GULP energy -148681.416574 kJ/mol
# GULP energy per Si atom -12390.118048 kJ/mol
# Density = 2.013834 g / cm^3
# Si number density = 20.184277 Si / 1000 Ang^3
#
#
#
# Elastic Constant Matrix: (Units=GPa)
#
#
# Indices 1 2 3 4 5 6 
#
# 1 134.5509 45.6793 40.5528 8.0281 -20.5708 0.2113
# 2 45.6793 56.7366 24.8265 9.9722 0.2974 14.6745
# 3 40.5528 24.8265 152.8022 26.7278 -9.1481 1.6687
# 4 8.0281 9.9722 26.7278 12.0333 0.1869 2.0280
# 5 -20.5708 0.2974 -9.1481 0.1869 12.2311 11.8724
# 6 0.2113 14.6745 1.6687 2.0280 11.8724 24.4421
#
#
#
# Elastic Compliance Matrix: (Units=1/GPa)
#
#
# Indices 1 2 3 4 5 6 
#
# 1 0.018334 -0.010358 0.000212 -0.001997 0.047768 -0.016991
# 2 -0.010358 0.034245 0.001168 -0.020737 0.002298 -0.019946
# 3 0.000212 0.001168 0.012154 -0.027079 0.017292 -0.007685
# 4 -0.001997 -0.020737 -0.027079 0.158217 -0.050479 0.025708
# 5 0.047768 0.002298 0.017292 -0.050479 0.330299 -0.159223
# 6 -0.016991 -0.019946 -0.007685 0.025708 -0.159223 0.128767
#
#
# Mechanical properties :
#
#
# Convention : Reuss Voigt Hill
#
# Bulk Modulus (GPa) = 21.37849 62.91187 42.14518
# Shear Modulus (GPa) = 6.98748 25.27670 16.13209
#
# Velocity S-wave (km/s) = 1.86262 3.54262 2.83015
# Velocity P-wave (km/s) = 3.90390 6.92603 5.62185
#
# Compressibility (1/GPa) = 0.04677600
#
# Stress axis : x y z
#
# Youngs Moduli (GPa) = 54.54465 29.20093 82.27605
#
# Poissons Ratio (x) = 0.30247 -0.01744
# Poissons Ratio (y) = 0.56498 -0.09607
# Poissons Ratio (z) = -0.01156 -0.03409
#
# Static dielectric constant tensor:
#      x y z
#    x 3.842470 0.260920 -0.054160 
#    y 0.260920 3.704090 0.373590 
#    z -0.054160 0.373590 3.211850 
# 
# 
# High freq. dielectric constant tensor:
#      x y z
#    x 1.801230 0.020460 -0.008770 
#    y 0.020460 1.783610 0.035340 
#    z -0.008770 0.035340 1.743260 
# 
# From -- ./inp_files/86415.got.cif
#   From: 2010.06.25/outbox.cif.g09.slc.cpg/sg2_44_cif.got.tgz:86415.got - 2010.06.27 13:26:56.
