data_PCOD8041402
_publ_section_title
;
Structure prediction by ZEFSAII (Michael W. Deem and Ramdas Pophale) SiO2 
 PCOD8041402
Probable space group: P -1
;
_chemical_formula_sum "Si O2"
_cell_formula_units_Z 16
_cell_length_a 14.613473
_cell_length_b 19.049381
_cell_length_c 11.228961
_cell_angle_alpha 38.877585
_cell_angle_beta 31.569824
_cell_angle_gamma 31.857725
_cell_volume 846.599681
_symmetry_space_group_name_H-M "P -1"
_symmetry_group_IT_number 2
_symmetry_cell_setting 'triclinic'
loop_
_space_group_symop_operation_xyz
x,y,z
-x,-y,-z
loop_
_atom_site_type_symbol
_atom_site_label
_atom_site_fract_x
_atom_site_fract_y
_atom_site_fract_z
Si Si1 0.685013 0.684910 0.279642
Si Si2 0.876112 0.629370 0.620925
Si Si3 0.236883 0.580512 0.448820
Si Si4 0.329217 0.861387 0.278641
Si Si5 0.005445 0.160684 0.199115
Si Si6 0.905351 0.393405 0.169663
Si Si7 0.898006 0.682762 0.266866
Si Si8 0.528077 0.653736 0.123135
O O1 0.606913 0.584781 0.514578
O O2 0.545539 0.807608 0.181042
O O3 0.701495 0.741074 0.314796
O O4 0.916708 0.578911 0.099155
O O5 0.816035 0.711091 0.455359
O O6 0.065219 0.635467 0.459589
O O7 0.940999 0.477352 0.725560
O O8 0.665453 0.699496 0.843407
O O9 0.104198 0.630609 0.650605
O O10 0.385833 0.636915 0.206301
O O11 0.184902 0.856971 0.547433
O O12 0.371702 0.767260 0.242072
O O13 0.227541 0.013187 0.145991
O O14 0.001611 0.247082 0.198407
O O15 0.987863 0.239572 0.991694
O O16 0.676885 0.512330 0.215360
#
# Coordination Sequence:
#
# PCOD8041402 Si02
#       8
#     2   2   2   2   2   2   2   2
#     4  10  19  32  56  84 113 146 184 231 285 339
#     4  10  21  38  55  86 112 151 193 235 265 334
#     4  11  19  31  56  85 115 145 183 231 292 322
#     4  11  22  34  56  89 114 144 187 230 294 338
#     4  10  21  38  55  79 121 148 179 239 281 337
#     4  11  18  33  55  84 118 140 182 239 288 329
#     4   9  20  39  55  75 119 151 185 233 276 326
#     4  12  20  34  59  88 115 144 185 240 277 337
#
# _framework density 18.899132999999999
#
# number of rings (size 3 to 8) (size 9 to 14) (size 15 to 20)
#    0.000    1.500    6.250    2.250    0.000    2.000 
#    2.250    2.500    0.000    0.750    0.000    0.000 
#    0.000    0.000    0.000    0.000    0.000    0.000 
#
# Total GULP energy -198288.275468 kJ/mol
# GULP energy per Si atom -12393.017217 kJ/mol
# Density = 1.885612 g / cm^3
# Si number density = 18.899133 Si / 1000 Ang^3
#
#
#
# Elastic Constant Matrix: (Units=GPa)
#
#
# Indices 1 2 3 4 5 6 
#
# 1 78.6394 33.4671 42.7026 4.0769 13.7405 -12.0509
# 2 33.4671 89.9917 27.4762 0.6704 -0.8137 4.5557
# 3 42.7026 27.4762 84.3405 -6.1865 6.7692 -9.2165
# 4 4.0769 0.6704 -6.1865 21.2697 -2.3433 0.7030
# 5 13.7405 -0.8137 6.7692 -2.3433 28.4101 -1.6613
# 6 -12.0509 4.5557 -9.2165 0.7030 -1.6613 16.8971
#
#
#
# Elastic Compliance Matrix: (Units=1/GPa)
#
#
# Indices 1 2 3 4 5 6 
#
# 1 0.024890 -0.007455 -0.008402 -0.008574 -0.010106 0.014542
# 2 -0.007455 0.015236 -0.002592 0.000996 0.004129 -0.010474
# 3 -0.008402 -0.002592 0.017873 0.006811 0.000540 0.004225
# 4 -0.008574 0.000996 0.006811 0.051468 0.006554 -0.004166
# 5 -0.010106 0.004129 0.000540 0.006554 0.040364 -0.004331
# 6 0.014542 -0.010474 0.004225 -0.004166 -0.004331 0.074429
#
#
# Mechanical properties :
#
#
# Convention : Reuss Voigt Hill
#
# Bulk Modulus (GPa) = 47.39039 51.14038 49.26538
# Shear Modulus (GPa) = 18.64337 23.27041 20.95689
#
# Velocity S-wave (km/s) = 3.14421 3.51279 3.33360
# Velocity P-wave (km/s) = 6.18961 6.60086 6.39854
#
# Compressibility (1/GPa) = 0.02110133
#
# Stress axis : x y z
#
# Youngs Moduli (GPa) = 40.17643 65.63396 55.94941
#
# Poissons Ratio (x) = 0.48928 0.47011
# Poissons Ratio (y) = 0.29950 0.14502
# Poissons Ratio (z) = 0.33758 0.17013
#
# Static dielectric constant tensor:
#      x y z
#    x 3.492400 0.024830 -0.033370 
#    y 0.024830 3.236260 0.005380 
#    z -0.033370 0.005380 3.661390 
# 
# 
# High freq. dielectric constant tensor:
#      x y z
#    x 1.725770 0.005120 -0.007530 
#    y 0.005120 1.702560 0.002140 
#    z -0.007530 0.002140 1.730340 
# 
# From -- ./inp_files/348005.got.cif
#   From: 2010.06.25/outbox.cif.g09.slc.cpg/sg2_175_cif.got.tgz:348005.got - 2010.06.27 13:26:56.
