data_PCOD8041286
_publ_section_title
;
Structure prediction by ZEFSAII (Michael W. Deem and Ramdas Pophale) SiO2 
 PCOD8041286
Probable space group: P -1
;
_chemical_formula_sum "Si O2"
_cell_formula_units_Z 16
_cell_length_a 9.260046
_cell_length_b 11.045250
_cell_length_c 11.736558
_cell_angle_alpha 52.341354
_cell_angle_beta 77.420433
_cell_angle_gamma 66.857665
_cell_volume 873.439890
_symmetry_space_group_name_H-M "P -1"
_symmetry_group_IT_number 2
_symmetry_cell_setting 'triclinic'
loop_
_space_group_symop_operation_xyz
x,y,z
-x,-y,-z
loop_
_atom_site_type_symbol
_atom_site_label
_atom_site_fract_x
_atom_site_fract_y
_atom_site_fract_z
Si Si1 0.342922 0.703349 0.445677
Si Si2 0.887124 0.960010 0.632424
Si Si3 0.191736 0.630067 0.181766
Si Si4 0.953032 0.279791 0.076163
Si Si5 0.491667 0.410079 0.734461
Si Si6 0.052780 0.653241 0.419872
Si Si7 0.896255 0.680374 0.645773
Si Si8 0.826050 0.534255 0.134600
O O1 0.438309 0.598500 0.595153
O O2 0.460410 0.704075 0.320756
O O3 0.224138 0.615439 0.468296
O O4 0.259316 0.884943 0.399087
O O5 0.820297 0.825627 0.665079
O O6 0.986950 0.891389 0.769438
O O7 0.000000 0.000000 0.500000
O O8 0.365042 0.628607 0.179863
O O9 0.066625 0.720529 0.251877
O O10 0.203910 0.440603 0.274588
O O11 0.133857 0.735097 0.017352
O O12 0.828767 0.417790 0.094053
O O13 0.106608 0.326787 0.995649
O O14 0.350445 0.375809 0.844148
O O15 0.000000 0.500000 0.500000
O O16 0.922920 0.759065 0.473272
O O17 0.070801 0.574538 0.719407
#
# Coordination Sequence:
#
# PCOD8041286 Si02
#       8
#     2   2   2   2   2   2   2   2
#     4  10  19  32  51  83 105 136 180 213 253 317
#     4  11  19  33  58  77 104 138 175 222 261 305
#     4   9  19  31  51  83 110 132 171 221 260 303
#     4   9  19  33  52  81 102 132 180 220 257 307
#     4  10  19  33  54  78 107 140 171 217 261 309
#     4   9  15  28  50  77 104 128 169 217 255 288
#     4   9  16  31  54  80 103 134 182 218 250 298
#     4   9  16  32  55  76 100 139 180 218 251 298
#
# _framework density 18.318376000000001
#
# number of rings (size 3 to 8) (size 9 to 14) (size 15 to 20)
#    0.000    2.500    2.500    1.500    0.000    0.500 
#    0.000    3.750    0.000    1.500    0.000    0.000 
#    0.000    0.000    0.000    0.000    0.000    0.000 
#
# Total GULP energy -198223.675948 kJ/mol
# GULP energy per Si atom -12388.979747 kJ/mol
# Density = 1.827668 g / cm^3
# Si number density = 18.318376 Si / 1000 Ang^3
#
#
#
# Elastic Constant Matrix: (Units=GPa)
#
#
# Indices 1 2 3 4 5 6 
#
# 1 51.9957 28.4969 18.4474 9.5973 -2.3617 -10.1068
# 2 28.4969 104.2696 41.6080 6.9725 -0.5911 -15.7942
# 3 18.4474 41.6080 104.8972 13.4124 8.1760 -8.3204
# 4 9.5973 6.9725 13.4124 27.5000 -1.8520 -2.4713
# 5 -2.3617 -0.5911 8.1760 -1.8520 24.5036 8.8165
# 6 -10.1068 -15.7942 -8.3204 -2.4713 8.8165 25.6079
#
#
#
# Elastic Compliance Matrix: (Units=1/GPa)
#
#
# Indices 1 2 3 4 5 6 
#
# 1 0.024630 -0.005021 -0.001102 -0.006272 0.000125 0.005618
# 2 -0.005021 0.013305 -0.004030 0.000770 -0.000634 0.005207
# 3 -0.001102 -0.004030 0.012612 -0.004890 -0.005747 0.002683
# 4 -0.006272 0.000770 -0.004890 0.040942 0.004577 -0.001214
# 5 0.000125 -0.000634 -0.005747 0.004577 0.049886 -0.018942
# 6 0.005618 0.005207 0.002683 -0.001214 -0.018942 0.051756
#
#
# Mechanical properties :
#
#
# Convention : Reuss Voigt Hill
#
# Bulk Modulus (GPa) = 33.06856 48.69634 40.88245
# Shear Modulus (GPa) = 22.36971 27.02964 24.69967
#
# Velocity S-wave (km/s) = 3.49830 3.84545 3.67598
# Velocity P-wave (km/s) = 5.86590 6.80865 6.35478
#
# Compressibility (1/GPa) = 0.03024021
#
# Stress axis : x y z
#
# Youngs Moduli (GPa) = 40.60022 75.16167 79.29121
#
# Poissons Ratio (x) = 0.37735 0.08740
# Poissons Ratio (y) = 0.20384 0.31958
# Poissons Ratio (z) = 0.04475 0.30293
#
# Static dielectric constant tensor:
#      x y z
#    x 3.200840 0.110590 0.016170 
#    y 0.110590 3.629700 0.467510 
#    z 0.016170 0.467510 3.450520 
# 
# 
# High freq. dielectric constant tensor:
#      x y z
#    x 1.685750 0.004910 -0.002450 
#    y 0.004910 1.699330 0.038780 
#    z -0.002450 0.038780 1.702490 
# 
# From -- ./inp_files/251899.got.cif
#   From: 2010.06.25/outbox.cif.g09.slc.cpg/sg2_126_cif.got.tgz:251899.got - 2010.06.27 13:26:56.
