data_PCOD8041036
_publ_section_title
;
Structure prediction by ZEFSAII (Michael W. Deem and Ramdas Pophale) SiO2 
 PCOD8041036
Probable space group: P -1
;
_chemical_formula_sum "Si O2"
_cell_formula_units_Z 16
_cell_length_a 12.560510
_cell_length_b 13.473089
_cell_length_c 14.871295
_cell_angle_alpha 125.365508
_cell_angle_beta 151.123750
_cell_angle_gamma 70.867597
_cell_volume 882.689848
_symmetry_space_group_name_H-M "P -1"
_symmetry_group_IT_number 2
_symmetry_cell_setting 'triclinic'
loop_
_space_group_symop_operation_xyz
x,y,z
-x,-y,-z
loop_
_atom_site_type_symbol
_atom_site_label
_atom_site_fract_x
_atom_site_fract_y
_atom_site_fract_z
Si Si1 0.554575 0.895469 0.427843
Si Si2 0.716492 0.147830 0.216547
Si Si3 0.254625 0.693346 0.237760
Si Si4 0.342534 0.241395 0.038314
Si Si5 0.050906 0.873401 0.452851
Si Si6 0.324858 0.460845 0.263241
Si Si7 0.467598 0.946896 0.661264
Si Si8 0.117371 0.984491 0.868661
O O1 0.384786 0.745156 0.264007
O O2 0.837068 0.926277 0.661172
O O3 0.500000 0.000000 0.500000
O O4 0.491753 0.914462 0.288094
O O5 0.592948 0.250584 0.182898
O O6 0.929743 0.194404 0.474833
O O7 0.837234 0.139053 0.205877
O O8 0.500000 0.000000 0.000000
O O9 0.354571 0.593263 0.300417
O O10 0.325835 0.816724 0.424800
O O11 0.962059 0.625010 0.966884
O O12 0.416745 0.374852 0.222804
O O13 0.164472 0.240943 0.825912
O O14 0.189616 0.105499 0.913144
O O15 0.313970 0.930878 0.629079
O O16 0.000000 0.000000 0.500000
O O17 0.500000 0.500000 0.500000
O O18 0.729045 0.960770 0.896718
#
# Coordination Sequence:
#
# PCOD8041036 Si02
#       8
#     2   2   2   2   2   2   2   2
#     4  10  21  35  52  76 109 145 179 219 270 324
#     4  10  19  28  48  83 114 136 172 214 266 328
#     4  10  23  38  51  79 105 140 190 222 263 322
#     4  11  19  32  52  81 113 140 174 221 271 319
#     4  12  17  29  52  79 115 142 166 214 275 322
#     4  11  23  37  58  75 104 143 186 229 268 310
#     4  11  19  32  54  78 113 143 171 218 272 324
#     4  11  19  32  53  83 116 138 172 215 275 332
#
# _framework density 18.126412999999999
#
# number of rings (size 3 to 8) (size 9 to 14) (size 15 to 20)
#    0.000    1.250    7.500    1.500    0.000    3.000 
#    0.000    0.000    0.000    0.750    0.000    7.000 
#    0.000    0.000    0.000    0.000    0.000    0.000 
#
# Total GULP energy -198350.870879 kJ/mol
# GULP energy per Si atom -12396.929430 kJ/mol
# Density = 1.808516 g / cm^3
# Si number density = 18.126413 Si / 1000 Ang^3
#
#
#
# Elastic Constant Matrix: (Units=GPa)
#
#
# Indices 1 2 3 4 5 6 
#
# 1 72.3999 32.2842 42.7295 1.0426 3.8257 -14.3689
# 2 32.2842 83.0227 46.1058 -7.7365 5.6130 -6.4286
# 3 42.7295 46.1058 106.2756 -24.8076 -11.8944 5.5239
# 4 1.0426 -7.7365 -24.8076 32.4194 1.5334 -0.8214
# 5 3.8257 5.6130 -11.8944 1.5334 35.0477 -5.0685
# 6 -14.3689 -6.4286 5.5239 -0.8214 -5.0685 36.3308
#
#
#
# Elastic Compliance Matrix: (Units=1/GPa)
#
#
# Indices 1 2 3 4 5 6 
#
# 1 0.024595 -0.002677 -0.012153 -0.010259 -0.004450 0.010249
# 2 -0.002677 0.017660 -0.007510 -0.001162 -0.004668 0.002531
# 3 -0.012153 -0.007510 0.022446 0.015177 0.008320 -0.008045
# 4 -0.010259 -0.001162 0.015177 0.042200 0.003876 -0.005076
# 5 -0.004450 -0.004668 0.008320 0.003876 0.032532 0.000775
# 6 0.010249 0.002531 -0.008045 -0.005076 0.000775 0.033243
#
#
# Mechanical properties :
#
#
# Convention : Reuss Voigt Hill
#
# Bulk Modulus (GPa) = 49.94772 55.99300 52.97036
# Shear Modulus (GPa) = 22.31842 30.13150 26.22496
#
# Velocity S-wave (km/s) = 3.51275 4.08155 3.80778
# Velocity P-wave (km/s) = 6.63834 7.29174 6.97270
#
# Compressibility (1/GPa) = 0.02002093
#
# Stress axis : x y z
#
# Youngs Moduli (GPa) = 40.65819 56.62554 44.55099
#
# Poissons Ratio (x) = 0.15156 0.54144
# Poissons Ratio (y) = 0.10882 0.33460
# Poissons Ratio (z) = 0.49413 0.42528
#
# Static dielectric constant tensor:
#      x y z
#    x 3.704920 0.013980 -0.127880 
#    y 0.013980 3.286920 0.104590 
#    z -0.127880 0.104590 2.922390 
# 
# 
# High freq. dielectric constant tensor:
#      x y z
#    x 1.702210 -0.015380 -0.012520 
#    y -0.015380 1.690430 -0.037970 
#    z -0.012520 -0.037970 1.688230 
# 
# From -- ./inp_files/451082.got.cif
#   From: 2010.06.25/outbox.cif.g09.slc.cpg/sg2_226_cif.got.tgz:451082.got - 2010.06.27 13:26:56.
