data_PCOD8041135
_publ_section_title
;
Structure prediction by ZEFSAII (Michael W. Deem and Ramdas Pophale) SiO2 
 PCOD8041135
Probable space group: P -1
;
_chemical_formula_sum "Si O2"
_cell_formula_units_Z 16
_cell_length_a 6.323717
_cell_length_b 9.407437
_cell_length_c 26.104736
_cell_angle_alpha 133.894494
_cell_angle_beta 56.584303
_cell_angle_gamma 96.912904
_cell_volume 841.239105
_symmetry_space_group_name_H-M "P -1"
_symmetry_group_IT_number 2
_symmetry_cell_setting 'triclinic'
loop_
_space_group_symop_operation_xyz
x,y,z
-x,-y,-z
loop_
_atom_site_type_symbol
_atom_site_label
_atom_site_fract_x
_atom_site_fract_y
_atom_site_fract_z
Si Si1 0.275945 0.191156 0.110667
Si Si2 0.776307 0.760405 0.756079
Si Si3 0.700636 0.370806 0.761071
Si Si4 0.766299 0.675286 0.371650
Si Si5 0.678037 0.653857 0.572299
Si Si6 0.795574 0.958564 0.699355
Si Si7 0.428303 0.741059 0.522397
Si Si8 0.646487 0.433243 0.239149
O O1 0.307602 0.114089 0.146696
O O2 0.323527 0.409695 0.153476
O O3 0.966303 0.249421 0.145185
O O4 0.500000 0.000000 0.000000
O O5 0.818135 0.915478 0.746453
O O6 0.534218 0.694970 0.752505
O O7 0.058748 0.540663 0.671384
O O8 0.456999 0.436603 0.767740
O O9 0.011100 0.242558 0.660614
O O10 0.652220 0.217955 0.771692
O O11 0.529591 0.839824 0.484449
O O12 0.609545 0.616315 0.331926
O O13 0.603243 0.852780 0.672261
O O14 0.618532 0.749996 0.546680
O O15 0.502247 0.510614 0.566098
O O16 0.000000 0.500000 0.500000
O O17 0.102222 0.868084 0.610538
#
# Coordination Sequence:
#
# PCOD8041135 Si02
#       8
#     2   2   2   2   2   2   2   2
#     4   9  19  38  63  82  95 125 169 208 253 316
#     4   9  18  31  53  78 102 133 172 209 251 309
#     4   9  21  34  50  77 109 136 167 210 262 315
#     4   9  17  33  51  72 100 141 187 219 247 286
#     4   9  18  29  45  69  96 134 178 219 255 289
#     4  11  21  33  48  76 110 141 173 212 261 301
#     4  10  19  31  49  71 102 143 189 224 242 283
#     4   8  17  35  55  74 101 134 167 211 255 303
#
# _framework density 19.019560999999999
#
# number of rings (size 3 to 8) (size 9 to 14) (size 15 to 20)
#    0.000    3.250    0.000    3.000    0.000    8.500 
#    0.000    1.875    0.000    1.500    0.000    0.000 
#    0.000    0.000    0.000    0.000    0.000    0.000 
#
# Total GULP energy -198245.445243 kJ/mol
# GULP energy per Si atom -12390.340328 kJ/mol
# Density = 1.897627 g / cm^3
# Si number density = 19.019561 Si / 1000 Ang^3
#
#
#
# Elastic Constant Matrix: (Units=GPa)
#
#
# Indices 1 2 3 4 5 6 
#
# 1 107.4472 20.4249 10.2056 -3.1196 10.4339 -2.9972
# 2 20.4249 127.6540 15.5392 -7.7761 12.7962 -12.8142
# 3 10.2056 15.5392 46.8076 -10.2343 10.9494 3.2459
# 4 -3.1196 -7.7761 -10.2343 18.3512 -0.0985 3.6498
# 5 10.4339 12.7962 10.9494 -0.0985 16.7061 -2.9739
# 6 -2.9972 -12.8142 3.2459 3.6498 -2.9739 14.0185
#
#
#
# Elastic Compliance Matrix: (Units=1/GPa)
#
#
# Indices 1 2 3 4 5 6 
#
# 1 0.010073 -0.000972 -0.000405 0.001053 -0.005281 -0.000036
# 2 -0.000972 0.009516 -0.002470 0.000865 -0.003621 0.008069
# 3 -0.000405 -0.002470 0.034100 0.021952 -0.023814 -0.021008
# 4 0.001053 0.000865 0.021952 0.072589 -0.020128 -0.027236
# 5 -0.005281 -0.003621 -0.023814 -0.020128 0.085783 0.024514
# 6 -0.000036 0.008069 -0.021008 -0.027236 0.024514 0.095858
#
#
# Mechanical properties :
#
#
# Convention : Reuss Voigt Hill
#
# Bulk Modulus (GPa) = 21.74321 41.58313 31.66317
# Shear Modulus (GPa) = 15.10828 25.53111 20.31969
#
# Velocity S-wave (km/s) = 2.82149 3.66780 3.27212
# Velocity P-wave (km/s) = 4.69800 6.31251 5.56413
#
# Compressibility (1/GPa) = 0.04599137
#
# Stress axis : x y z
#
# Youngs Moduli (GPa) = 99.27916 105.09078 29.32578
#
# Poissons Ratio (x) = 0.10219 0.01189
# Poissons Ratio (y) = 0.09654 0.07245
# Poissons Ratio (z) = 0.04025 0.25962
#
# Static dielectric constant tensor:
#      x y z
#    x 3.801750 0.097210 0.184820 
#    y 0.097210 3.520050 -0.058800 
#    z 0.184820 -0.058800 3.133090 
# 
# 
# High freq. dielectric constant tensor:
#      x y z
#    x 1.755820 -0.003990 0.005870 
#    y -0.003990 1.730440 -0.011330 
#    z 0.005870 -0.011330 1.693720 
# 
# From -- ./inp_files/138723.got.cif
#   From: 2010.06.25/outbox.cif.g09.slc.cpg/sg2_70_cif.got.tgz:138723.got - 2010.06.27 13:26:56.
