data_PCOD8041160
_publ_section_title
;
Structure prediction by ZEFSAII (Michael W. Deem and Ramdas Pophale) SiO2 
 PCOD8041160
Probable space group: P -1
;
_chemical_formula_sum "Si O2"
_cell_formula_units_Z 16
_cell_length_a 11.400571
_cell_length_b 13.545920
_cell_length_c 11.577812
_cell_angle_alpha 99.370605
_cell_angle_beta 120.984641
_cell_angle_gamma 42.251646
_cell_volume 953.941979
_symmetry_space_group_name_H-M "P -1"
_symmetry_group_IT_number 2
_symmetry_cell_setting 'triclinic'
loop_
_space_group_symop_operation_xyz
x,y,z
-x,-y,-z
loop_
_atom_site_type_symbol
_atom_site_label
_atom_site_fract_x
_atom_site_fract_y
_atom_site_fract_z
Si Si1 0.829904 0.154536 0.863300
Si Si2 0.602992 0.881706 0.923798
Si Si3 0.524680 0.624149 0.113906
Si Si4 0.149945 0.720408 0.807729
Si Si5 0.083895 0.973988 0.366912
Si Si6 0.993364 0.739482 0.960674
Si Si7 0.310877 0.378719 0.026714
Si Si8 0.687244 0.111893 0.311820
O O1 0.587828 0.265186 0.808675
O O2 0.829714 0.116119 0.726297
O O3 0.879272 0.245248 0.903834
O O4 0.000000 0.000000 0.000000
O O5 0.754022 0.866110 0.918249
O O6 0.752001 0.703094 0.009135
O O7 0.403289 0.950277 0.759822
O O8 0.500000 0.000000 0.000000
O O9 0.722577 0.441732 0.221593
O O10 0.328581 0.677063 0.963856
O O11 0.617309 0.651610 0.076064
O O12 0.973779 0.778850 0.822494
O O13 0.034298 0.852390 0.677951
O O14 0.285281 0.876704 0.537155
O O15 0.918243 0.988484 0.341110
O O16 0.120845 0.561790 0.001712
O O17 0.516518 0.285087 0.197605
#
# Coordination Sequence:
#
# PCOD8041160 Si02
#       8
#     2   2   2   2   2   2   2   2
#     4  11  19  28  52  80 104 122 170 220 247 287
#     4  10  20  33  54  76  99 130 173 212 246 293
#     4   9  16  28  49  76  94 124 166 212 254 276
#     4   9  16  28  50  70  98 129 164 206 248 293
#     4  11  18  34  50  74 106 136 164 204 253 300
#     4  10  19  31  52  79 100 130 169 214 251 288
#     4   9  18  34  52  74 103 131 167 208 252 302
#     4   9  21  32  53  70 105 138 166 196 255 313
#
# _framework density 16.772507999999998
#
# number of rings (size 3 to 8) (size 9 to 14) (size 15 to 20)
#    0.750    1.500    3.750    1.875    1.750    0.000 
#    0.000    1.250    2.750    0.000    0.000    3.500 
#    0.000    0.000    0.000    0.000    0.000    0.000 
#
# Total GULP energy -198229.514478 kJ/mol
# GULP energy per Si atom -12389.344655 kJ/mol
# Density = 1.673433 g / cm^3
# Si number density = 16.772508 Si / 1000 Ang^3
#
#
#
# Elastic Constant Matrix: (Units=GPa)
#
#
# Indices 1 2 3 4 5 6 
#
# 1 78.2992 28.4373 17.0966 6.1277 -2.3019 -15.1336
# 2 28.4373 85.9024 26.1229 11.6289 -9.8133 -10.1600
# 3 17.0966 26.1229 66.2462 14.1055 -6.5760 -8.4491
# 4 6.1277 11.6289 14.1055 20.7350 -1.7816 -6.7301
# 5 -2.3019 -9.8133 -6.5760 -1.7816 20.2981 1.2353
# 6 -15.1336 -10.1600 -8.4491 -6.7301 1.2353 34.9856
#
#
#
# Elastic Compliance Matrix: (Units=1/GPa)
#
#
# Indices 1 2 3 4 5 6 
#
# 1 0.015650 -0.004180 -0.001978 0.000669 -0.001148 0.005247
# 2 -0.004180 0.015364 -0.003417 -0.004330 0.005418 0.000804
# 3 -0.001978 -0.003417 0.019589 -0.010268 0.003521 0.000783
# 4 0.000669 -0.004330 -0.010268 0.060030 -0.000569 0.008120
# 5 -0.001148 0.005418 0.003521 -0.000569 0.052849 -0.000048
# 6 0.005247 0.000804 0.000783 0.008120 -0.000048 0.032839
#
#
# Mechanical properties :
#
#
# Convention : Reuss Voigt Hill
#
# Bulk Modulus (GPa) = 31.79429 41.52905 36.66167
# Shear Modulus (GPa) = 22.12819 25.78980 23.95900
#
# Velocity S-wave (km/s) = 3.63618 3.92551 3.78361
# Velocity P-wave (km/s) = 6.05197 6.73499 6.40260
#
# Compressibility (1/GPa) = 0.03145219
#
# Stress axis : x y z
#
# Youngs Moduli (GPa) = 63.89917 65.08517 51.04928
#
# Poissons Ratio (x) = 0.27208 0.10095
# Poissons Ratio (y) = 0.26713 0.17446
# Poissons Ratio (z) = 0.12636 0.22242
#
# Static dielectric constant tensor:
#      x y z
#    x 3.262840 -0.087000 -0.140040 
#    y -0.087000 3.313520 0.008940 
#    z -0.140040 0.008940 2.792590 
# 
# 
# High freq. dielectric constant tensor:
#      x y z
#    x 1.653380 -0.007370 -0.016350 
#    y -0.007370 1.648390 -0.000500 
#    z -0.016350 -0.000500 1.596240 
# 
# From -- ./inp_files/431539.got.cif
#   From: 2010.06.25/outbox.cif.g09.slc.cpg/sg2_216_cif.got.tgz:431539.got - 2010.06.27 13:26:56.
