data_PCOD8041729
_publ_section_title
;
Structure prediction by ZEFSAII (Michael W. Deem and Ramdas Pophale) SiO2 
 PCOD8041729
Probable space group: P -1
;
_chemical_formula_sum "Si O2"
_cell_formula_units_Z 16
_cell_length_a 14.155578
_cell_length_b 12.205004
_cell_length_c 11.636677
_cell_angle_alpha 123.482986
_cell_angle_beta 148.417327
_cell_angle_gamma 67.795623
_cell_volume 858.471275
_symmetry_space_group_name_H-M "P -1"
_symmetry_group_IT_number 2
_symmetry_cell_setting 'triclinic'
loop_
_space_group_symop_operation_xyz
x,y,z
-x,-y,-z
loop_
_atom_site_type_symbol
_atom_site_label
_atom_site_fract_x
_atom_site_fract_y
_atom_site_fract_z
Si Si1 0.619751 0.638399 0.247109
Si Si2 0.413573 0.850367 0.788105
Si Si3 0.669281 0.683120 0.073776
Si Si4 0.451022 0.691139 0.534132
Si Si5 0.070719 0.424681 0.304642
Si Si6 0.196571 0.420058 0.179418
Si Si7 0.027454 0.694094 0.332960
Si Si8 0.652923 0.368429 0.858346
O O1 0.687772 0.722161 0.251049
O O2 0.796175 0.618284 0.489125
O O3 0.482179 0.704718 0.222586
O O4 0.500000 0.500000 0.000000
O O5 0.444830 0.830372 0.672988
O O6 0.194671 0.821360 0.567550
O O7 0.502166 0.741818 0.884921
O O8 0.500000 0.000000 0.000000
O O9 0.860983 0.750783 0.250193
O O10 0.629266 0.523091 0.912967
O O11 0.292929 0.577184 0.363515
O O12 0.653133 0.664220 0.749508
O O13 0.415802 0.708196 0.373955
O O14 0.117979 0.376717 0.199286
O O15 0.088670 0.585206 0.417956
O O16 0.862898 0.356210 0.089087
O O17 0.031991 0.384596 0.895006
#
# Coordination Sequence:
#
# PCOD8041729 Si02
#       8
#     2   2   2   2   2   2   2   2
#     4  10  21  32  49  79 121 148 172 217 271 339
#     4  12  25  38  56  80 111 150 188 226 270 326
#     4  10  21  38  52  80 112 151 178 223 276 316
#     4  11  18  34  57  81 116 141 176 227 288 321
#     4  11  19  30  52  87 112 144 177 207 285 338
#     4  11  18  31  59  86 114 140 169 232 289 333
#     4  11  20  34  58  82 115 144 180 222 278 336
#     4  10  19  33  57  86 114 140 174 226 278 333
#
# _framework density 18.637782000000001
#
# number of rings (size 3 to 8) (size 9 to 14) (size 15 to 20)
#    0.000    1.250    6.250    3.375    0.000    6.000 
#    0.000    0.000    0.000    0.750    0.000    2.625 
#    0.000    0.000    0.000    0.000    0.000    0.000 
#
# Total GULP energy -198367.654180 kJ/mol
# GULP energy per Si atom -12397.978386 kJ/mol
# Density = 1.859536 g / cm^3
# Si number density = 18.637782 Si / 1000 Ang^3
#
#
#
# Elastic Constant Matrix: (Units=GPa)
#
#
# Indices 1 2 3 4 5 6 
#
# 1 123.9121 29.0954 59.4044 -8.7390 -19.4769 -12.5334
# 2 29.0954 26.8903 36.0780 -2.4496 0.0899 -9.2304
# 3 59.4044 36.0780 114.3903 -7.8927 -4.0093 -8.3773
# 4 -8.7390 -2.4496 -7.8927 31.1048 -3.6034 -4.0009
# 5 -19.4769 0.0899 -4.0093 -3.6034 31.5657 -8.6041
# 6 -12.5334 -9.2304 -8.3773 -4.0009 -8.6041 17.9326
#
#
#
# Elastic Compliance Matrix: (Units=1/GPa)
#
#
# Indices 1 2 3 4 5 6 
#
# 1 0.015365 -0.005686 -0.004308 0.006064 0.013335 0.013551
# 2 -0.005686 0.080953 -0.019998 0.003897 0.002452 0.030398
# 3 -0.004308 -0.019998 0.016766 0.000389 -0.002180 -0.006431
# 4 0.006064 0.003897 0.000389 0.038710 0.014156 0.021854
# 5 0.013335 0.002452 -0.002180 0.014156 0.051435 0.037401
# 6 0.013551 0.030398 -0.006431 0.021854 0.037401 0.100698
#
#
# Mechanical properties :
#
#
# Convention : Reuss Voigt Hill
#
# Bulk Modulus (GPa) = 18.83249 57.14981 37.99115
# Shear Modulus (GPa) = 13.10237 25.49495 19.29866
#
# Velocity S-wave (km/s) = 2.65429 3.70255 3.22135
# Velocity P-wave (km/s) = 4.41816 7.00061 5.85357
#
# Compressibility (1/GPa) = 0.05309972
#
# Stress axis : x y z
#
# Youngs Moduli (GPa) = 65.08336 12.35286 59.64524
#
# Poissons Ratio (x) = 0.07024 0.25693
# Poissons Ratio (y) = 0.37007 1.19280
# Poissons Ratio (z) = 0.28036 0.24703
#
# Static dielectric constant tensor:
#      x y z
#    x 4.193640 -0.135640 -0.041920 
#    y -0.135640 2.904220 -0.373900 
#    z -0.041920 -0.373900 3.478040 
# 
# 
# High freq. dielectric constant tensor:
#      x y z
#    x 1.749510 -0.024420 0.000510 
#    y -0.024420 1.652170 -0.042660 
#    z 0.000510 -0.042660 1.724320 
# 
# From -- ./inp_files/450389.got.cif
#   From: 2010.06.25/outbox.cif.g09.slc.cpg/sg2_226_cif.got.tgz:450389.got - 2010.06.27 13:26:56.
