data_PCOD8041270
_publ_section_title
;
Structure prediction by ZEFSAII (Michael W. Deem and Ramdas Pophale) SiO2 
 PCOD8041270
Probable space group: P -1
;
_chemical_formula_sum "Si O2"
_cell_formula_units_Z 14
_cell_length_a 14.858390
_cell_length_b 15.399990
_cell_length_c 15.474433
_cell_angle_alpha 137.622177
_cell_angle_beta 161.338666
_cell_angle_gamma 38.258422
_cell_volume 701.305949
_symmetry_space_group_name_H-M "P -1"
_symmetry_group_IT_number 2
_symmetry_cell_setting 'triclinic'
loop_
_space_group_symop_operation_xyz
x,y,z
-x,-y,-z
loop_
_atom_site_type_symbol
_atom_site_label
_atom_site_fract_x
_atom_site_fract_y
_atom_site_fract_z
Si Si1 0.673620 0.812621 0.438693
Si Si2 0.008378 0.737982 0.998000
Si Si3 0.691934 0.577340 0.005306
Si Si4 0.143877 0.616948 0.207550
Si Si5 0.634043 0.351999 0.059706
Si Si6 0.718255 0.395202 0.494969
Si Si7 0.456392 0.877826 0.480902
O O1 0.633479 0.829742 0.516974
O O2 0.005462 0.693628 0.632510
O O3 0.637810 0.957708 0.468182
O O4 0.418804 0.764280 0.132187
O O5 0.239031 0.587208 0.060246
O O6 0.675827 0.787774 0.689901
O O7 0.957463 0.731291 0.050190
O O8 0.147551 0.850744 0.182619
O O9 0.010138 0.595184 0.307672
O O10 0.521179 0.641237 0.984374
O O11 0.478851 0.659287 0.789351
O O12 0.494840 0.546883 0.441092
O O13 0.141974 0.693484 0.354757
O O14 0.000000 0.500000 0.000000
O O15 0.500000 0.500000 0.000000
#
# Coordination Sequence:
#
# PCOD8041270 Si02
#       7
#     2   2   2   2   2   2   2
#     4  11  24  42  59  81 120 151 197 232 282 335
#     4  11  21  34  58  88 120 144 192 231 287 352
#     4  11  21  34  54  84 119 151 185 226 290 345
#     4  10  19  32  52  85 124 149 178 238 293 345
#     4  12  24  39  60  87 114 151 190 240 282 337
#     4  10  19  32  50  78 120 153 176 220 294 347
#     4  11  23  39  59  84 112 160 188 237 281 332
#
# _framework density 19.962758000000001
#
# number of rings (size 3 to 8) (size 9 to 14) (size 15 to 20)
#    0.000    1.143    2.857    6.429    2.000    2.286 
#    0.000    0.000    0.000    0.000    0.000   20.000 
#    0.000    0.000    0.000    0.000    0.000    0.000 
#
# Total GULP energy -173581.909805 kJ/mol
# GULP energy per Si atom -12398.707843 kJ/mol
# Density = 1.991732 g / cm^3
# Si number density = 19.962758 Si / 1000 Ang^3
#
#
#
# Elastic Constant Matrix: (Units=GPa)
#
#
# Indices 1 2 3 4 5 6 
#
# 1 96.0185 21.5100 13.2403 -17.1333 -5.6618 2.5416
# 2 21.5100 56.5736 7.9594 2.6552 -8.9936 5.4303
# 3 13.2403 7.9594 82.2035 -7.7652 -2.6262 -0.1412
# 4 -17.1333 2.6552 -7.7652 28.3130 7.2554 -1.7473
# 5 -5.6618 -8.9936 -2.6262 7.2554 41.3530 -3.3602
# 6 2.5416 5.4303 -0.1412 -1.7473 -3.3602 20.6817
#
#
#
# Elastic Compliance Matrix: (Units=1/GPa)
#
#
# Indices 1 2 3 4 5 6 
#
# 1 0.013219 -0.005493 -0.000818 0.008546 -0.000905 0.000387
# 2 -0.005493 0.021572 -0.001755 -0.007338 0.004721 -0.004854
# 3 -0.000818 -0.001755 0.012772 0.003275 -0.000184 0.000895
# 4 0.008546 -0.007338 0.003275 0.044262 -0.007708 0.003386
# 5 -0.000905 0.004721 -0.000184 -0.007708 0.026633 0.002546
# 6 0.000387 -0.004854 0.000895 0.003386 0.002546 0.050285
#
#
# Mechanical properties :
#
#
# Convention : Reuss Voigt Hill
#
# Bulk Modulus (GPa) = 31.81553 35.57946 33.69749
# Shear Modulus (GPa) = 25.59493 30.87527 28.23510
#
# Velocity S-wave (km/s) = 3.58457 3.93701 3.76492
# Velocity P-wave (km/s) = 5.75363 6.20712 5.98467
#
# Compressibility (1/GPa) = 0.03143120
#
# Stress axis : x y z
#
# Youngs Moduli (GPa) = 75.64640 46.35572 78.29874
#
# Poissons Ratio (x) = 0.25464 0.06407
# Poissons Ratio (y) = 0.41553 0.13739
# Poissons Ratio (z) = 0.06190 0.08134
#
# Static dielectric constant tensor:
#      x y z
#    x 3.851750 0.190210 -0.206570 
#    y 0.190210 3.252080 -0.158010 
#    z -0.206570 -0.158010 3.878460 
# 
# 
# High freq. dielectric constant tensor:
#      x y z
#    x 1.790280 0.016620 -0.004050 
#    y 0.016620 1.721980 -0.015120 
#    z -0.004050 -0.015120 1.803890 
# 
# From -- ./inp_files/454771.got.cif
#   From: 2010.06.25/outbox.cif.g09.slc.cpg/sg2_228_cif.got.tgz:454771.got - 2010.06.27 13:26:56.
