data_PCOD8041718
_publ_section_title
;
Structure prediction by ZEFSAII (Michael W. Deem and Ramdas Pophale) SiO2 
 PCOD8041718
Probable space group: P -1
;
_chemical_formula_sum "Si O2"
_cell_formula_units_Z 16
_cell_length_a 21.726485
_cell_length_b 12.035078
_cell_length_c 14.439061
_cell_angle_alpha 28.302925
_cell_angle_beta 150.198990
_cell_angle_gamma 148.819109
_cell_volume 819.821625
_symmetry_space_group_name_H-M "P -1"
_symmetry_group_IT_number 2
_symmetry_cell_setting 'triclinic'
loop_
_space_group_symop_operation_xyz
x,y,z
-x,-y,-z
loop_
_atom_site_type_symbol
_atom_site_label
_atom_site_fract_x
_atom_site_fract_y
_atom_site_fract_z
Si Si1 0.922535 0.213616 0.647138
Si Si2 0.288878 0.603200 0.082561
Si Si3 0.895347 0.294577 0.946835
Si Si4 0.632618 0.846397 0.502620
Si Si5 0.684751 0.894234 0.328515
Si Si6 0.012358 0.595040 0.220598
Si Si7 0.651280 0.366644 0.652562
Si Si8 0.008958 0.900948 0.364846
O O1 0.950974 0.182462 0.815897
O O2 0.000000 0.500000 0.500000
O O3 0.973878 0.049940 0.761699
O O4 0.759909 0.101854 0.507128
O O5 0.355737 0.421098 0.258434
O O6 0.275104 0.562156 0.204215
O O7 0.145090 0.513652 0.914467
O O8 0.361404 0.903628 0.933375
O O9 0.916445 0.343911 0.829392
O O10 0.742144 0.262191 0.786232
O O11 0.000000 0.500000 0.000000
O O12 0.914785 0.034907 0.184489
O O13 0.604753 0.838626 0.362057
O O14 0.499804 0.847885 0.379761
O O15 0.644636 0.630044 0.412290
O O16 0.844401 0.990102 0.478841
O O17 0.062562 0.392018 0.484543
#
# Coordination Sequence:
#
# PCOD8041718 Si02
#       8
#     2   2   2   2   2   2   2   2
#     4   9  19  39  63  83 105 138 186 243 284 312
#     4  10  19  33  57  83 107 144 184 225 280 322
#     4  12  21  35  53  80 117 152 182 216 267 333
#     4  10  21  35  53  80 113 141 180 232 276 323
#     4   9  17  33  54  79 110 143 180 227 275 325
#     4  10  20  35  59  83 105 142 188 234 274 313
#     4  11  22  34  49  78 118 152 178 217 269 332
#     4   9  19  34  56  84 109 136 185 234 272 319
#
# _framework density 19.516441
#
# number of rings (size 3 to 8) (size 9 to 14) (size 15 to 20)
#    0.000    2.000    2.500    3.750    0.000    5.500 
#    0.000    0.625    0.000    3.000    0.000    0.000 
#    0.000    0.000    0.000    0.000    0.000    0.000 
#
# Total GULP energy -198227.953217 kJ/mol
# GULP energy per Si atom -12389.247076 kJ/mol
# Density = 1.947202 g / cm^3
# Si number density = 19.516441 Si / 1000 Ang^3
#
#
#
# Elastic Constant Matrix: (Units=GPa)
#
#
# Indices 1 2 3 4 5 6 
#
# 1 101.3511 28.3820 42.3691 8.4340 15.7585 2.4930
# 2 28.3820 74.6261 27.0885 3.5892 13.3638 2.3578
# 3 42.3691 27.0885 83.1434 -8.1858 8.9184 8.5855
# 4 8.4340 3.5892 -8.1858 21.2920 2.3900 -1.8527
# 5 15.7585 13.3638 8.9184 2.3900 34.2543 9.3518
# 6 2.4930 2.3578 8.5855 -1.8527 9.3518 28.8960
#
#
#
# Elastic Compliance Matrix: (Units=1/GPa)
#
#
# Indices 1 2 3 4 5 6 
#
# 1 0.014723 -0.001861 -0.007417 -0.007743 -0.004099 0.001915
# 2 -0.001861 0.016657 -0.004434 -0.003128 -0.004659 0.001426
# 3 -0.007417 -0.004434 0.018626 0.010414 0.000681 -0.004085
# 4 -0.007743 -0.003128 0.010414 0.055011 -0.002345 0.002115
# 5 -0.004099 -0.004659 0.000681 -0.002345 0.035956 -0.011255
# 6 0.001915 0.001426 -0.004085 0.002115 -0.011255 0.039317
#
#
# Mechanical properties :
#
#
# Convention : Reuss Voigt Hill
#
# Bulk Modulus (GPa) = 44.28370 50.53329 47.40849
# Shear Modulus (GPa) = 23.22977 27.64054 25.43516
#
# Velocity S-wave (km/s) = 3.45377 3.76742 3.61400
# Velocity P-wave (km/s) = 6.21646 6.69877 6.46212
#
# Compressibility (1/GPa) = 0.02258167
#
# Stress axis : x y z
#
# Youngs Moduli (GPa) = 67.92130 60.03389 53.68974
#
# Poissons Ratio (x) = 0.11175 0.39820
# Poissons Ratio (y) = 0.12643 0.23806
# Poissons Ratio (z) = 0.50375 0.26619
#
# Static dielectric constant tensor:
#      x y z
#    x 3.513070 -0.023230 -0.039910 
#    y -0.023230 3.600610 -0.256680 
#    z -0.039910 -0.256680 3.780830 
# 
# 
# High freq. dielectric constant tensor:
#      x y z
#    x 1.737460 0.008260 -0.000530 
#    y 0.008260 1.745750 -0.012370 
#    z -0.000530 -0.012370 1.763820 
# 
# From -- ./inp_files/431288.got.cif
#   From: 2010.06.25/outbox.cif.g09.slc.cpg/sg2_216_cif.got.tgz:431288.got - 2010.06.27 13:26:56.
