data_PCOD8041480
_publ_section_title
;
Structure prediction by ZEFSAII (Michael W. Deem and Ramdas Pophale) SiO2 
 PCOD8041480
Probable space group: P -1
;
_chemical_formula_sum "Si O2"
_cell_formula_units_Z 14
_cell_length_a 12.117176
_cell_length_b 9.569076
_cell_length_c 21.711006
_cell_angle_alpha 39.201453
_cell_angle_beta 147.589232
_cell_angle_gamma 132.462442
_cell_volume 851.192397
_symmetry_space_group_name_H-M "P -1"
_symmetry_group_IT_number 2
_symmetry_cell_setting 'triclinic'
loop_
_space_group_symop_operation_xyz
x,y,z
-x,-y,-z
loop_
_atom_site_type_symbol
_atom_site_label
_atom_site_fract_x
_atom_site_fract_y
_atom_site_fract_z
Si Si1 0.993733 0.323754 0.365084
Si Si2 0.738315 0.921166 0.338884
Si Si3 0.008039 0.794324 0.155294
Si Si4 0.388581 0.539544 0.792787
Si Si5 0.366016 0.216383 0.793376
Si Si6 0.330698 0.100329 0.136639
Si Si7 0.724955 0.927326 0.074117
O O1 0.825767 0.352778 0.329782
O O2 0.200438 0.246974 0.521235
O O3 0.051537 0.543608 0.278534
O O4 0.901237 0.133472 0.340387
O O5 0.750818 0.794942 0.322589
O O6 0.508997 0.996050 0.216870
O O7 0.219843 0.908222 0.191193
O O8 0.939211 0.932581 0.135686
O O9 0.828349 0.792144 0.020655
O O10 0.390577 0.469418 0.744926
O O11 0.581274 0.706739 0.842179
O O12 0.398287 0.313235 0.915542
O O13 0.240352 0.063028 0.838311
O O14 0.593476 0.127457 0.921727
#
# Coordination Sequence:
#
# PCOD8041480 Si02
#       7
#     2   2   2   2   2   2   2
#     4   9  20  32  51  76  96 123 167 199 237 283
#     4  10  19  33  52  76  96 125 159 205 242 282
#     4  10  19  33  49  74  98 129 165 193 238 290
#     4   8  17  31  48  74  93 127 158 197 241 279
#     4   9  16  29  53  71  99 119 161 199 249 274
#     4  10  20  31  53  70  99 131 161 197 238 284
#     4   8  16  29  49  75  93 123 158 204 237 283
#
# _framework density 16.447516
#
# number of rings (size 3 to 8) (size 9 to 14) (size 15 to 20)
#    0.857    2.000    1.429    0.000    2.000    2.857 
#    0.000    0.714    3.143    0.857    0.000    0.000 
#    0.000    0.000    0.000    0.000    0.000    0.000 
#
# Total GULP energy -173470.169825 kJ/mol
# GULP energy per Si atom -12390.726416 kJ/mol
# Density = 1.641008 g / cm^3
# Si number density = 16.447516 Si / 1000 Ang^3
#
#
#
# Elastic Constant Matrix: (Units=GPa)
#
#
# Indices 1 2 3 4 5 6 
#
# 1 63.8799 41.4734 15.0751 8.3264 -15.2308 -8.4864
# 2 41.4734 93.0927 36.4650 4.4905 -8.9787 -13.7674
# 3 15.0751 36.4650 58.2255 -1.6678 -11.4859 0.2106
# 4 8.3264 4.4905 -1.6678 23.5246 -0.4754 -3.5918
# 5 -15.2308 -8.9787 -11.4859 -0.4754 17.6362 -2.7629
# 6 -8.4864 -13.7674 0.2106 -3.5918 -2.7629 30.1201
#
#
#
# Elastic Compliance Matrix: (Units=1/GPa)
#
#
# Indices 1 2 3 4 5 6 
#
# 1 0.028705 -0.011177 0.003698 -0.006683 0.021981 0.004172
# 2 -0.011177 0.020314 -0.010940 0.000063 -0.005539 0.005712
# 3 0.003698 -0.010940 0.025950 0.002519 0.014195 -0.002538
# 4 -0.006683 0.000063 0.002519 0.045503 -0.002349 0.003339
# 5 0.021981 -0.005539 0.014195 -0.002349 0.083764 0.010966
# 6 0.004172 0.005712 -0.002538 0.003339 0.010966 0.038409
#
#
# Mechanical properties :
#
#
# Convention : Reuss Voigt Hill
#
# Bulk Modulus (GPa) = 26.22596 44.58055 35.40325
# Shear Modulus (GPa) = 17.11201 22.40182 19.75691
#
# Velocity S-wave (km/s) = 3.22902 3.69456 3.46961
# Velocity P-wave (km/s) = 5.46644 6.73522 6.13373
#
# Compressibility (1/GPa) = 0.03813015
#
# Stress axis : x y z
#
# Youngs Moduli (GPa) = 34.83770 49.22690 38.53562
#
# Poissons Ratio (x) = 0.55021 -0.14249
# Poissons Ratio (y) = 0.38938 0.42157
# Poissons Ratio (z) = -0.12881 0.53853
#
# Static dielectric constant tensor:
#      x y z
#    x 3.058260 -0.197720 0.051150 
#    y -0.197720 2.986200 -0.104450 
#    z 0.051150 -0.104450 2.930690 
# 
# 
# High freq. dielectric constant tensor:
#      x y z
#    x 1.621920 -0.018950 0.004930 
#    y -0.018950 1.613180 -0.010520 
#    z 0.004930 -0.010520 1.624050 
# 
# From -- ./inp_files/247381.got.cif
#   From: 2010.06.25/outbox.cif.g09.slc.cpg/sg2_124_cif.got.tgz:247381.got - 2010.06.27 13:26:56.
