data_PCOD8041082
_publ_section_title
;
Structure prediction by ZEFSAII (Michael W. Deem and Ramdas Pophale) SiO2 
 PCOD8041082
Probable space group: P -1
;
_chemical_formula_sum "Si O2"
_cell_formula_units_Z 14
_cell_length_a 5.258790
_cell_length_b 13.931699
_cell_length_c 11.698982
_cell_angle_alpha 79.524156
_cell_angle_beta 116.819931
_cell_angle_gamma 73.862916
_cell_volume 685.969055
_symmetry_space_group_name_H-M "P -1"
_symmetry_group_IT_number 2
_symmetry_cell_setting 'triclinic'
loop_
_space_group_symop_operation_xyz
x,y,z
-x,-y,-z
loop_
_atom_site_type_symbol
_atom_site_label
_atom_site_fract_x
_atom_site_fract_y
_atom_site_fract_z
Si Si1 0.659789 0.514640 0.146084
Si Si2 0.106551 0.119968 0.924119
Si Si3 0.237975 0.426346 0.159901
Si Si4 0.697151 0.201381 0.226340
Si Si5 0.622719 0.989885 0.211582
Si Si6 0.789651 0.935285 0.493317
Si Si7 0.552941 0.240480 0.944842
O O1 0.511808 0.468202 0.225914
O O2 0.612172 0.634042 0.139928
O O3 0.033100 0.442172 0.229833
O O4 0.500000 0.500000 0.000000
O O5 0.094173 0.069149 0.808481
O O6 0.290141 0.196537 0.927360
O O7 0.760512 0.184861 0.888437
O O8 0.295229 0.020460 0.070528
O O9 0.391057 0.302150 0.184017
O O10 0.000000 0.500000 0.000000
O O11 0.997434 0.176680 0.375083
O O12 0.617385 0.099146 0.235647
O O13 0.772637 0.221759 0.106071
O O14 0.665501 0.914437 0.348326
O O15 0.500000 0.000000 0.500000
O O16 0.000000 0.000000 0.500000
#
# Coordination Sequence:
#
# PCOD8041082 Si02
#       7
#     2   2   2   2   2   2   2
#     4  10  19  30  49  75 110 129 167 219 270 313
#     4  10  22  34  53  76 105 148 171 218 251 313
#     4  10  19  31  48  79 107 133 165 214 274 316
#     4  10  20  33  57  79 112 140 171 219 272 313
#     4   9  21  37  52  77 112 137 185 206 259 316
#     4  10  21  36  53  78 106 145 174 218 260 313
#     4  11  20  33  53  79 108 136 175 212 271 312
#
# _framework density 20.409082000000001
#
# number of rings (size 3 to 8) (size 9 to 14) (size 15 to 20)
#    0.000    2.000    2.857    1.714    6.000    9.714 
#    0.000    0.000    0.000    0.000    0.000    6.000 
#    0.000    0.000    0.000    0.000    0.000    0.000 
#
# Total GULP energy -173439.598116 kJ/mol
# GULP energy per Si atom -12388.542723 kJ/mol
# Density = 2.036263 g / cm^3
# Si number density = 20.409082 Si / 1000 Ang^3
#
#
#
# Elastic Constant Matrix: (Units=GPa)
#
#
# Indices 1 2 3 4 5 6 
#
# 1 126.1635 30.0091 16.4893 -6.8282 -5.6795 -26.8556
# 2 30.0091 114.0108 43.2731 -20.6264 -0.1186 -26.1821
# 3 16.4893 43.2731 92.2029 4.1237 -5.6459 -19.6856
# 4 -6.8282 -20.6264 4.1237 20.0149 -6.7191 -0.1041
# 5 -5.6795 -0.1186 -5.6459 -6.7191 15.2179 -0.1367
# 6 -26.8556 -26.1821 -19.6856 -0.1041 -0.1367 43.3030
#
#
#
# Elastic Compliance Matrix: (Units=1/GPa)
#
#
# Indices 1 2 3 4 5 6 
#
# 1 0.009806 -0.000161 -0.000295 0.005260 0.005925 0.005882
# 2 -0.000161 0.016881 -0.006914 0.021118 0.006894 0.007037
# 3 -0.000295 -0.006914 0.015195 -0.009977 0.001091 0.002524
# 4 0.005260 0.021118 -0.009977 0.088221 0.037485 0.011825
# 5 0.005925 0.006894 0.001091 0.037485 0.085010 0.008697
# 6 0.005882 0.007037 0.002524 0.011825 0.008697 0.032199
#
#
# Mechanical properties :
#
#
# Convention : Reuss Voigt Hill
#
# Bulk Modulus (GPa) = 36.84139 56.88003 46.86071
# Shear Modulus (GPa) = 18.44334 31.88087 25.16210
#
# Velocity S-wave (km/s) = 3.00939 3.95662 3.51506
# Velocity P-wave (km/s) = 5.49235 6.98596 6.28369
#
# Compressibility (1/GPa) = 0.02714339
#
# Stress axis : x y z
#
# Youngs Moduli (GPa) = 101.97405 59.23729 65.81014
#
# Poissons Ratio (x) = 0.00951 0.01942
# Poissons Ratio (y) = 0.01638 0.45502
# Poissons Ratio (z) = 0.03009 0.40957
#
# Static dielectric constant tensor:
#      x y z
#    x 48.250360 -2.111800 4.200210 
#    y -2.111800 3.795090 -0.196900 
#    z 4.200210 -0.196900 4.616400 
# 
# 
# High freq. dielectric constant tensor:
#      x y z
#    x 1.806270 -0.014770 -0.010600 
#    y -0.014770 1.792490 -0.011580 
#    z -0.010600 -0.011580 1.746470 
# 
# From -- ./inp_files/81745.got.cif
#   From: 2010.06.25/outbox.cif.g09.slc.cpg/sg2_41_cif.got.tgz:81745.got - 2010.06.27 13:26:56.
