data_PCOD8041683
_publ_section_title
;
Structure prediction by ZEFSAII (Michael W. Deem and Ramdas Pophale) SiO2 
 PCOD8041683
Probable space group: P -1
;
_chemical_formula_sum "Si O2"
_cell_formula_units_Z 16
_cell_length_a 10.386670
_cell_length_b 5.115239
_cell_length_c 29.652220
_cell_angle_alpha 67.313305
_cell_angle_beta 32.219453
_cell_angle_gamma 76.966174
_cell_volume 758.536281
_symmetry_space_group_name_H-M "P -1"
_symmetry_group_IT_number 2
_symmetry_cell_setting 'triclinic'
loop_
_space_group_symop_operation_xyz
x,y,z
-x,-y,-z
loop_
_atom_site_type_symbol
_atom_site_label
_atom_site_fract_x
_atom_site_fract_y
_atom_site_fract_z
Si Si1 0.104037 0.557204 0.798141
Si Si2 0.136113 0.511296 0.689928
Si Si3 0.183032 0.966542 0.826124
Si Si4 0.102789 0.924862 0.590679
Si Si5 0.314497 0.909678 0.020757
Si Si6 0.384667 0.548206 0.483585
Si Si7 0.364825 0.846316 0.171348
Si Si8 0.423757 0.227047 0.216769
O O1 0.096117 0.638593 0.742500
O O2 0.219256 0.834579 0.775085
O O3 0.271247 0.313791 0.771785
O O4 0.824668 0.424036 0.907381
O O5 0.165313 0.777911 0.628717
O O6 0.387239 0.383027 0.623706
O O7 0.907909 0.253180 0.762169
O O8 0.334095 0.841574 0.827850
O O9 0.894022 0.891989 0.931127
O O10 0.238162 0.809103 0.515488
O O11 0.808138 0.844050 0.675498
O O12 0.187932 0.267377 0.545104
O O13 0.459610 0.941459 0.928732
O O14 0.500000 0.000000 0.000000
O O15 0.500000 0.500000 0.500000
O O16 0.481048 0.565954 0.165136
O O17 0.346436 0.029505 0.209153
#
# Coordination Sequence:
#
# PCOD8041683 Si02
#       8
#     2   2   2   2   2   2   2   2
#     4  10  23  39  61  84 115 158 189 235 291 340
#     4  10  20  37  59  92 118 147 192 236 296 349
#     4  10  24  41  59  83 115 163 191 239 283 334
#     4  10  21  35  58  86 116 150 182 240 293 339
#     4  10  23  42  59  88 120 151 192 239 292 335
#     4  10  19  33  56  87 120 144 181 238 295 344
#     4  11  23  36  62  88 116 154 194 240 283 342
#     4  11  23  40  60  84 117 155 200 234 282 345
#
# _framework density 21.093254000000002
#
# number of rings (size 3 to 8) (size 9 to 14) (size 15 to 20)
#    0.750    1.000    1.250    4.500    1.750    9.500 
#    0.000    0.000    0.000    4.500    0.000    0.000 
#    0.000    0.000    0.000    0.000    0.000    0.000 
#
# Total GULP energy -198330.188004 kJ/mol
# GULP energy per Si atom -12395.636750 kJ/mol
# Density = 2.104525 g / cm^3
# Si number density = 21.093254 Si / 1000 Ang^3
#
#
#
# Elastic Constant Matrix: (Units=GPa)
#
#
# Indices 1 2 3 4 5 6 
#
# 1 54.2186 -2.1311 36.1171 16.1161 -9.0737 -0.1063
# 2 -2.1311 74.6847 12.0170 14.0642 -2.3206 12.6086
# 3 36.1171 12.0170 99.6683 16.4742 -4.9889 -3.6108
# 4 16.1161 14.0642 16.4742 25.8701 -3.1955 3.0707
# 5 -9.0737 -2.3206 -4.9889 -3.1955 23.3421 9.1596
# 6 -0.1063 12.6086 -3.6108 3.0707 9.1596 30.8549
#
#
#
# Elastic Compliance Matrix: (Units=1/GPa)
#
#
# Indices 1 2 3 4 5 6 
#
# 1 0.031097 0.006432 -0.009210 -0.015043 0.010781 -0.005303
# 2 0.006432 0.017447 -0.002786 -0.010096 0.005410 -0.008035
# 3 -0.009210 -0.002786 0.014128 -0.002527 -0.002677 0.003806
# 4 -0.015043 -0.010096 -0.002527 0.055491 0.001007 -0.002043
# 5 0.010781 0.005410 -0.002677 0.001007 0.054499 -0.018766
# 6 -0.005303 -0.008035 0.003806 -0.002043 -0.018766 0.041895
#
#
# Mechanical properties :
#
#
# Convention : Reuss Voigt Hill
#
# Bulk Modulus (GPa) = 19.40056 35.61974 27.51015
# Shear Modulus (GPa) = 20.58737 28.18466 24.38601
#
# Velocity S-wave (km/s) = 3.12752 3.65936 3.40384
# Velocity P-wave (km/s) = 4.71798 5.89729 5.34029
#
# Compressibility (1/GPa) = 0.05154490
#
# Stress axis : x y z
#
# Youngs Moduli (GPa) = 32.15713 57.31551 70.77942
#
# Poissons Ratio (x) = -0.36867 0.65190
# Poissons Ratio (y) = -0.20685 0.19719
# Poissons Ratio (z) = 0.29618 0.15968
#
# Static dielectric constant tensor:
#      x y z
#    x 3.470020 0.031870 -0.111630 
#    y 0.031870 3.947460 0.381430 
#    z -0.111630 0.381430 4.254180 
# 
# 
# High freq. dielectric constant tensor:
#      x y z
#    x 1.791340 0.012420 -0.007270 
#    y 0.012420 1.831470 0.014330 
#    z -0.007270 0.014330 1.827840 
# 
# From -- ./inp_files/616321.got.cif
#   From: 2010.06.25/outbox.cif.g09.slc.cpg/sg2_309_cif.got.tgz:616321.got - 2010.06.27 13:26:56.
