data_PCOD8041424
_publ_section_title
;
Structure prediction by ZEFSAII (Michael W. Deem and Ramdas Pophale) SiO2 
 PCOD8041424
Probable space group: P -1
;
_chemical_formula_sum "Si O2"
_cell_formula_units_Z 14
_cell_length_a 10.473592
_cell_length_b 13.168658
_cell_length_c 8.520698
_cell_angle_alpha 68.728987
_cell_angle_beta 100.128513
_cell_angle_gamma 141.680373
_cell_volume 666.900287
_symmetry_space_group_name_H-M "P -1"
_symmetry_group_IT_number 2
_symmetry_cell_setting 'triclinic'
loop_
_space_group_symop_operation_xyz
x,y,z
-x,-y,-z
loop_
_atom_site_type_symbol
_atom_site_label
_atom_site_fract_x
_atom_site_fract_y
_atom_site_fract_z
Si Si1 0.281775 0.245421 0.229025
Si Si2 0.867945 0.952817 0.143843
Si Si3 0.167382 0.524552 0.962402
Si Si4 0.799969 0.151426 0.009510
Si Si5 0.487136 0.814658 0.626353
Si Si6 0.508447 0.400838 0.858064
Si Si7 0.438461 0.941360 0.279021
O O1 0.359925 0.187157 0.362624
O O2 0.360686 0.402142 0.259745
O O3 0.379988 0.324153 0.034725
O O4 0.026017 0.066444 0.263538
O O5 0.664032 0.738024 0.239045
O O6 0.764598 0.000995 0.056597
O O7 0.000000 0.000000 0.000000
O O8 0.275308 0.640777 0.764662
O O9 0.333039 0.597712 0.090878
O O10 0.000000 0.500000 0.000000
O O11 0.044356 0.333403 0.994013
O O12 0.664316 0.105717 0.152751
O O13 0.738592 0.177928 0.825566
O O14 0.604870 0.986534 0.653975
O O15 0.429549 0.821762 0.437945
#
# Coordination Sequence:
#
# PCOD8041424 Si02
#       7
#     2   2   2   2   2   2   2
#     4   9  17  33  54  82 107 152 194 235 283 344
#     4  10  19  32  57  87 111 150 198 240 282 351
#     4  11  20  34  59  89 116 154 193 245 290 350
#     4  11  21  36  60  87 115 152 201 240 289 348
#     4  10  21  39  58  83 121 152 193 241 298 344
#     4   9  18  31  53  84 115 146 193 239 283 342
#     4  10  22  38  57  85 117 156 193 244 291 349
#
# _framework density 20.992642
#
# number of rings (size 3 to 8) (size 9 to 14) (size 15 to 20)
#    0.000    2.000    2.857    2.571    4.000    0.571 
#    0.000    0.714    0.000    0.857    0.000    0.000 
#    0.000    0.000    0.000    0.000    0.000    0.000 
#
# Total GULP energy -173535.753259 kJ/mol
# GULP energy per Si atom -12395.410947 kJ/mol
# Density = 2.094486 g / cm^3
# Si number density = 20.992642 Si / 1000 Ang^3
#
#
#
# Elastic Constant Matrix: (Units=GPa)
#
#
# Indices 1 2 3 4 5 6 
#
# 1 94.4353 42.9779 38.7239 9.8221 30.5228 1.6006
# 2 42.9779 170.0806 33.8257 10.7025 24.0907 5.3176
# 3 38.7239 33.8257 90.1662 0.3217 24.5842 1.9376
# 4 9.8221 10.7025 0.3217 12.8909 -1.9779 6.0430
# 5 30.5228 24.0907 24.5842 -1.9779 28.2072 -1.2114
# 6 1.6006 5.3176 1.9376 6.0430 -1.2114 32.9302
#
#
#
# Elastic Compliance Matrix: (Units=1/GPa)
#
#
# Indices 1 2 3 4 5 6 
#
# 1 0.020718 -0.000564 -0.003062 -0.019359 -0.020538 0.002061
# 2 -0.000564 0.007382 -0.001082 -0.006418 -0.005207 -0.000115
# 3 -0.003062 -0.001082 0.015284 0.002074 -0.008993 -0.001287
# 4 -0.019359 -0.006418 0.002074 0.110549 0.031632 -0.017268
# 5 -0.020538 -0.005207 -0.008993 0.031632 0.072145 -0.000783
# 6 0.002061 -0.000115 -0.001287 -0.017268 -0.000783 0.033501
#
#
# Mechanical properties :
#
#
# Convention : Reuss Voigt Hill
#
# Bulk Modulus (GPa) = 29.43922 65.08191 47.26056
# Shear Modulus (GPa) = 17.83693 30.74930 24.29312
#
# Velocity S-wave (km/s) = 2.91808 3.83138 3.40548
# Velocity P-wave (km/s) = 5.04060 7.11633 6.16643
#
# Compressibility (1/GPa) = 0.03396829
#
# Stress axis : x y z
#
# Youngs Moduli (GPa) = 48.26745 135.46220 65.42819
#
# Poissons Ratio (x) = 0.07634 0.20033
# Poissons Ratio (y) = 0.02720 0.07082
# Poissons Ratio (z) = 0.14779 0.14663
#
# Static dielectric constant tensor:
#      x y z
#    x 3.781530 -0.021530 0.242910 
#    y -0.021530 4.281920 0.054080 
#    z 0.242910 0.054080 3.373580 
# 
# 
# High freq. dielectric constant tensor:
#      x y z
#    x 1.827160 -0.002510 0.024420 
#    y -0.002510 1.831490 0.002770 
#    z 0.024420 0.002770 1.775770 
# 
# From -- ./inp_files/186138.got.cif
#   From: 2010.06.25/outbox.cif.g09.slc.cpg/sg2_94_cif.got.tgz:186138.got - 2010.06.27 13:26:56.
