data_PCOD8041835
_publ_section_title
;
Structure prediction by ZEFSAII (Michael W. Deem and Ramdas Pophale) SiO2 
 PCOD8041835
Probable space group: P -1
;
_chemical_formula_sum "Si O2"
_cell_formula_units_Z 16
_cell_length_a 11.234916
_cell_length_b 17.596176
_cell_length_c 7.526771
_cell_angle_alpha 43.359504
_cell_angle_beta 80.952769
_cell_angle_gamma 51.592775
_cell_volume 670.024223
_symmetry_space_group_name_H-M "P -1"
_symmetry_group_IT_number 2
_symmetry_cell_setting 'triclinic'
loop_
_space_group_symop_operation_xyz
x,y,z
-x,-y,-z
loop_
_atom_site_type_symbol
_atom_site_label
_atom_site_fract_x
_atom_site_fract_y
_atom_site_fract_z
Si Si1 0.822681 0.105358 0.981269
Si Si2 0.935006 0.398665 0.232117
Si Si3 0.440786 0.378474 0.031088
Si Si4 0.739734 0.721455 0.514451
Si Si5 0.277379 0.652013 0.148347
Si Si6 0.548526 0.676524 0.460760
Si Si7 0.074249 0.144804 0.334279
Si Si8 0.451351 0.936200 0.487525
O O1 0.751116 0.274572 0.776267
O O2 0.865258 0.002107 0.316569
O O3 0.660592 0.157014 0.822709
O O4 0.000000 0.000000 0.000000
O O5 0.096577 0.301679 0.508602
O O6 0.020364 0.282632 0.238077
O O7 0.767005 0.443397 0.278008
O O8 0.833735 0.580466 0.884262
O O9 0.576611 0.379751 0.942838
O O10 0.447272 0.367480 0.262791
O O11 0.490053 0.227293 0.183194
O O12 0.676289 0.700332 0.386659
O O13 0.551891 0.897995 0.343456
O O14 0.088287 0.784136 0.868501
O O15 0.359200 0.471956 0.447845
O O16 0.233343 0.079351 0.277513
O O17 0.500000 0.000000 0.500000
#
# Coordination Sequence:
#
# PCOD8041835 Si02
#       8
#     2   2   2   2   2   2   2   2
#     4  12  28  40  57  89 133 162 200 254 314 363
#     4   9  18  34  63  93 116 150 205 253 295 354
#     4  10  21  37  65  92 119 159 209 255 295 365
#     4   9  18  36  61  92 119 154 199 254 297 361
#     4  12  23  41  63  90 120 165 213 248 298 367
#     4  10  22  41  60  87 125 165 195 248 312 362
#     4  12  22  39  64  96 118 159 209 257 298 360
#     4  10  19  33  60  94 123 150 202 258 304 339
#
# _framework density 23.879733000000002
#
# number of rings (size 3 to 8) (size 9 to 14) (size 15 to 20)
#    0.000    1.750    5.000    1.875    5.250    0.000 
#    0.000    0.625    0.000    0.750    0.000    0.000 
#    0.000    0.000    0.000    0.000    0.000    0.000 
#
# Total GULP energy -198228.934737 kJ/mol
# GULP energy per Si atom -12389.308421 kJ/mol
# Density = 2.382538 g / cm^3
# Si number density = 23.879733 Si / 1000 Ang^3
#
#
#
# Elastic Constant Matrix: (Units=GPa)
#
#
# Indices 1 2 3 4 5 6 
#
# 1 128.5330 30.7475 52.3514 -10.6493 70.0999 0.6444
# 2 30.7475 89.3095 18.2463 -34.6248 18.7920 10.6112
# 3 52.3514 18.2463 70.7734 -12.2960 45.7402 -8.4508
# 4 -10.6493 -34.6248 -12.2960 29.8570 -4.1592 9.0082
# 5 70.0999 18.7920 45.7402 -4.1592 60.0474 -11.8863
# 6 0.6444 10.6112 -8.4508 9.0082 -11.8863 43.7382
#
#
#
# Elastic Compliance Matrix: (Units=1/GPa)
#
#
# Indices 1 2 3 4 5 6 
#
# 1 0.027792 0.007939 0.005479 0.020700 -0.040970 -0.016674
# 2 0.007939 0.036023 0.010028 0.052380 -0.029653 -0.025765
# 3 0.005479 0.010028 0.033631 0.025798 -0.035541 -0.010988
# 4 0.020700 0.052380 0.025798 0.118492 -0.061743 -0.049212
# 5 -0.040970 -0.029653 -0.035541 -0.061743 0.104903 0.042156
# 6 -0.016674 -0.025765 -0.010988 -0.049212 0.042156 0.048829
#
#
# Mechanical properties :
#
#
# Convention : Reuss Voigt Hill
#
# Bulk Modulus (GPa) = 6.92808 54.58958 30.75883
# Shear Modulus (GPa) = 13.48107 39.21320 26.34714
#
# Velocity S-wave (km/s) = 2.37858 4.05669 3.32524
# Velocity P-wave (km/s) = 3.23281 6.69718 5.25848
#
# Compressibility (1/GPa) = 0.14434004
#
# Stress axis : x y z
#
# Youngs Moduli (GPa) = 35.98099 27.76008 29.73433
#
# Poissons Ratio (x) = -0.22040 -0.16291
# Poissons Ratio (y) = -0.28567 -0.29819
# Poissons Ratio (z) = -0.19714 -0.27839
#
# Static dielectric constant tensor:
#      x y z
#    x 5.170990 -0.031190 0.607400 
#    y -0.031190 4.392830 -0.545050 
#    z 0.607400 -0.545050 4.228750 
# 
# 
# High freq. dielectric constant tensor:
#      x y z
#    x 1.967340 0.010270 0.033590 
#    y 0.010270 1.940770 -0.034750 
#    z 0.033590 -0.034750 1.923490 
# 
# From -- ./inp_files/277465.got.cif
#   From: 2010.06.25/outbox.cif.g09.slc.cpg/sg2_139_cif.got.tgz:277465.got - 2010.06.27 13:26:56.
