data_PCOD8041000
_publ_section_title
;
Structure prediction by ZEFSAII (Michael W. Deem and Ramdas Pophale) SiO2 
 PCOD8041000
Probable space group: P -1
;
_chemical_formula_sum "Si O2"
_cell_formula_units_Z 16
_cell_length_a 11.024915
_cell_length_b 7.825357
_cell_length_c 14.438073
_cell_angle_alpha 120.385895
_cell_angle_beta 42.670933
_cell_angle_gamma 104.765486
_cell_volume 713.557727
_symmetry_space_group_name_H-M "P -1"
_symmetry_group_IT_number 2
_symmetry_cell_setting 'triclinic'
loop_
_space_group_symop_operation_xyz
x,y,z
-x,-y,-z
loop_
_atom_site_type_symbol
_atom_site_label
_atom_site_fract_x
_atom_site_fract_y
_atom_site_fract_z
Si Si1 0.099078 0.901667 0.197377
Si Si2 0.624663 0.397755 0.538433
Si Si3 0.928337 0.619663 0.458748
Si Si4 0.789734 0.206090 0.553944
Si Si5 0.696718 0.302702 0.271817
Si Si6 0.761772 0.928398 0.013958
Si Si7 0.659690 0.029353 0.760021
Si Si8 0.027148 0.505438 0.175611
O O1 0.279604 0.890034 0.154747
O O2 0.083484 0.668816 0.117009
O O3 0.920372 0.009929 0.383993
O O4 0.115256 0.026152 0.128612
O O5 0.833508 0.425941 0.449815
O O6 0.610641 0.269649 0.604492
O O7 0.621964 0.276361 0.410548
O O8 0.470756 0.601029 0.675514
O O9 0.089555 0.618259 0.444119
O O10 0.015503 0.633359 0.312420
O O11 0.762792 0.802746 0.622498
O O12 0.706377 0.163160 0.686300
O O13 0.834474 0.456753 0.238523
O O14 0.787294 0.082332 0.124170
O O15 0.554191 0.959497 0.107805
O O16 0.826150 0.702704 0.954682
#
# Coordination Sequence:
#
# PCOD8041000 Si02
#       8
#     2   2   2   2   2   2   2   2
#     4  11  23  44  67 102 136 178 217 275 339 401
#     4  10  21  38  70  97 127 172 231 274 328 388
#     4  10  18  41  67  95 132 170 216 279 329 391
#     4  11  21  39  71 103 126 172 228 273 331 398
#     4  10  23  44  63  95 138 176 222 281 320 394
#     4  12  26  43  66  99 139 179 219 272 343 391
#     4  11  22  43  67  97 141 166 220 286 326 387
#     4  11  23  43  70  93 137 180 219 271 334 397
#
# _framework density 22.422851999999999
#
# number of rings (size 3 to 8) (size 9 to 14) (size 15 to 20)
#    0.000    1.250    3.750    3.375    0.000    3.000 
#    2.250    3.750    0.000    0.000    0.000    0.000 
#    0.000    0.000    0.000    0.000    0.000    0.000 
#
# Total GULP energy -198309.251490 kJ/mol
# GULP energy per Si atom -12394.328218 kJ/mol
# Density = 2.237182 g / cm^3
# Si number density = 22.422852 Si / 1000 Ang^3
#
#
#
# Elastic Constant Matrix: (Units=GPa)
#
#
# Indices 1 2 3 4 5 6 
#
# 1 111.7482 24.7824 14.6684 9.5873 -2.2445 -9.8433
# 2 24.7824 73.8609 24.3841 16.8266 8.4886 2.4463
# 3 14.6684 24.3841 63.5084 4.4039 1.6380 2.8425
# 4 9.5873 16.8266 4.4039 20.5897 2.6438 1.0135
# 5 -2.2445 8.4886 1.6380 2.6438 27.0823 3.1340
# 6 -9.8433 2.4463 2.8425 1.0135 3.1340 35.1114
#
#
#
# Elastic Compliance Matrix: (Units=1/GPa)
#
#
# Indices 1 2 3 4 5 6 
#
# 1 0.010255 -0.002690 -0.001333 -0.002659 0.001675 0.003098
# 2 -0.002690 0.019985 -0.005979 -0.013149 -0.004742 -0.000860
# 3 -0.001333 -0.005979 0.018291 0.001583 0.000681 -0.001545
# 4 -0.002659 -0.013149 0.001583 0.060537 -0.001927 -0.001533
# 5 0.001675 -0.004742 0.000681 -0.001927 0.039007 -0.002681
# 6 0.003098 -0.000860 -0.001545 -0.001533 -0.002681 0.029818
#
#
# Mechanical properties :
#
#
# Convention : Reuss Voigt Hill
#
# Bulk Modulus (GPa) = 35.05559 41.86526 38.46043
# Shear Modulus (GPa) = 24.10741 28.90886 26.50814
#
# Velocity S-wave (km/s) = 3.28247 3.59452 3.44203
# Velocity P-wave (km/s) = 5.48032 5.99490 5.74338
#
# Compressibility (1/GPa) = 0.02852612
#
# Stress axis : x y z
#
# Youngs Moduli (GPa) = 97.51478 50.03860 54.67066
#
# Poissons Ratio (x) = 0.13460 0.07289
# Poissons Ratio (y) = 0.26231 0.32689
# Poissons Ratio (z) = 0.13000 0.29919
#
# Static dielectric constant tensor:
#      x y z
#    x 4.237060 -0.076150 0.084860 
#    y -0.076150 4.000630 -0.048110 
#    z 0.084860 -0.048110 3.819720 
# 
# 
# High freq. dielectric constant tensor:
#      x y z
#    x 1.896290 -0.003420 0.004190 
#    y -0.003420 1.877850 0.003230 
#    z 0.004190 0.003230 1.867240 
# 
# From -- ./inp_files/514570.got.cif
#   From: 2010.06.25/outbox.cif.g09.slc.cpg/sg2_258_cif.got.tgz:514570.got - 2010.06.27 13:26:56.
