data_PCOD8041065
_publ_section_title
;
Structure prediction by ZEFSAII (Michael W. Deem and Ramdas Pophale) SiO2 
 PCOD8041065
Probable space group: P -1
;
_chemical_formula_sum "Si O2"
_cell_formula_units_Z 16
_cell_length_a 11.685524
_cell_length_b 20.068753
_cell_length_c 21.410048
_cell_angle_alpha 159.611443
_cell_angle_beta 152.623819
_cell_angle_gamma 30.829046
_cell_volume 793.411793
_symmetry_space_group_name_H-M "P -1"
_symmetry_group_IT_number 2
_symmetry_cell_setting 'triclinic'
loop_
_space_group_symop_operation_xyz
x,y,z
-x,-y,-z
loop_
_atom_site_type_symbol
_atom_site_label
_atom_site_fract_x
_atom_site_fract_y
_atom_site_fract_z
Si Si1 0.728189 0.630460 0.385874
Si Si2 0.404885 0.954273 0.150151
Si Si3 0.784976 0.050119 0.768497
Si Si4 0.404885 0.441146 0.150153
Si Si5 0.007919 0.233021 0.139819
Si Si6 0.271812 0.086899 0.614125
Si Si7 0.215026 0.798100 0.231503
Si Si8 0.992082 0.461300 0.860180
O O1 0.844490 0.826300 0.624616
O O2 0.627662 0.559024 0.340911
O O3 0.499025 0.676280 0.265446
O O4 0.947523 0.465393 0.320628
O O5 0.627663 0.995136 0.340910
O O6 0.284367 0.152731 0.231326
O O7 0.499997 0.789957 0.999997
O O8 0.201440 0.868027 0.016748
O O9 0.500977 0.144411 0.734553
O O10 0.807077 0.058376 0.711914
O O11 0.988957 0.169103 0.002163
O O12 0.284367 0.525555 0.231327
O O13 0.201441 0.464024 0.016744
O O14 0.052478 0.271660 0.679372
O O15 0.155512 0.921555 0.375383
O O16 0.011046 0.653732 0.997837
#
# Coordination Sequence:
#
# PCOD8041065 Si02
#       8
#     2   2   2   2   2   2   2   2
#     4   9  17  30  46  69  97 124 153 190 235 279
#     4   8  15  30  48  67  96 122 153 193 231 280
#     4  10  19  30  46  70  98 124 154 191 231 278
#     4   8  15  30  48  67  96 122 153 193 231 280
#     4   9  17  30  47  69  94 125 156 188 234 279
#     4   9  17  30  46  69  97 124 153 190 235 279
#     4  10  19  30  46  70  98 124 154 191 231 278
#     4   9  17  30  47  69  94 125 156 188 234 279
#
# _framework density 20.166072
#
# number of rings (size 3 to 8) (size 9 to 14) (size 15 to 20)
#    0.000    3.000    0.000    3.750    0.000    3.000 
#    0.000   36.250    0.000    0.750    0.000    1.750 
#    0.000    0.000    0.000    0.000    0.000    0.000 
#
# Total GULP energy -198288.834127 kJ/mol
# GULP energy per Si atom -12393.052133 kJ/mol
# Density = 2.012017 g / cm^3
# Si number density = 20.166072 Si / 1000 Ang^3
#
#
#
# Elastic Constant Matrix: (Units=GPa)
#
#
# Indices 1 2 3 4 5 6 
#
# 1 65.7592 52.3912 46.5043 20.9796 -12.2861 1.3136
# 2 52.3912 82.5261 58.4622 33.9357 -15.7560 -4.0464
# 3 46.5043 58.4622 83.8813 30.9602 -18.6148 -4.6197
# 4 20.9796 33.9357 30.9602 32.6467 -4.1702 -4.8850
# 5 -12.2861 -15.7560 -18.6148 -4.1702 25.2428 4.6160
# 6 1.3136 -4.0464 -4.6197 -4.8850 4.6160 12.4849
#
#
#
# Elastic Compliance Matrix: (Units=1/GPa)
#
#
# Indices 1 2 3 4 5 6 
#
# 1 0.034811 -0.017126 -0.007936 0.001438 0.002958 -0.012681
# 2 -0.017126 0.038407 -0.008592 -0.019854 0.005810 0.001154
# 3 -0.007936 -0.008592 0.029087 -0.012214 0.010155 0.000280
# 4 0.001438 -0.019854 -0.012214 0.062960 -0.013698 0.018594
# 5 0.002958 0.005810 0.010155 -0.013698 0.053532 -0.019823
# 6 -0.012681 0.001154 0.000280 0.018594 -0.019823 0.096513
#
#
# Mechanical properties :
#
#
# Convention : Reuss Voigt Hill
#
# Bulk Modulus (GPa) = 28.57493 60.76468 44.66981
# Shear Modulus (GPa) = 12.68124 19.06213 15.87169
#
# Velocity S-wave (km/s) = 2.51039 3.07784 2.80848
# Velocity P-wave (km/s) = 4.75429 6.54434 5.71977
#
# Compressibility (1/GPa) = 0.03499571
#
# Stress axis : x y z
#
# Youngs Moduli (GPa) = 28.72664 26.03716 34.37963
#
# Poissons Ratio (x) = 0.44591 0.27284
# Poissons Ratio (y) = 0.49197 0.29540
# Poissons Ratio (z) = 0.22798 0.22372
#
# Static dielectric constant tensor:
#      x y z
#    x 3.490310 -0.061560 -0.156690 
#    y -0.061560 3.630360 0.289070 
#    z -0.156690 0.289070 3.554260 
# 
# 
# High freq. dielectric constant tensor:
#      x y z
#    x 1.748250 -0.001280 -0.015580 
#    y -0.001280 1.757010 0.031820 
#    z -0.015580 0.031820 1.774650 
# 
# From -- ./inp_files/470788.got.cif
#   From: 2010.06.25/outbox.cif.g09.slc.cpg/sg2_236_cif.got.tgz:470788.got - 2010.06.27 13:26:56.
