data_PCOD8041755
_publ_section_title
;
Structure prediction by ZEFSAII (Michael W. Deem and Ramdas Pophale) SiO2 
 PCOD8041755
Probable space group: P -1
;
_chemical_formula_sum "Si O2"
_cell_formula_units_Z 14
_cell_length_a 28.772576
_cell_length_b 10.792590
_cell_length_c 17.806321
_cell_angle_alpha 158.158693
_cell_angle_beta 17.718247
_cell_angle_gamma 159.893088
_cell_volume 547.650769
_symmetry_space_group_name_H-M "P -1"
_symmetry_group_IT_number 2
_symmetry_cell_setting 'triclinic'
loop_
_space_group_symop_operation_xyz
x,y,z
-x,-y,-z
loop_
_atom_site_type_symbol
_atom_site_label
_atom_site_fract_x
_atom_site_fract_y
_atom_site_fract_z
Si Si1 0.630535 0.544735 0.469349
Si Si2 0.235437 0.535528 0.290681
Si Si3 0.710943 0.602246 0.027479
Si Si4 0.552218 0.904338 0.112286
Si Si5 0.195324 0.787631 0.883534
Si Si6 0.942560 0.286091 0.716820
Si Si7 0.021912 0.015942 0.887053
O O1 0.481542 0.648332 0.781926
O O2 0.710322 0.443928 0.362479
O O3 0.788255 0.927661 0.401942
O O4 0.544549 0.190568 0.345762
O O5 0.062728 0.517688 0.588068
O O6 0.247846 0.611733 0.224231
O O7 0.412892 0.852388 0.233879
O O8 0.209763 0.106515 0.101728
O O9 0.714243 0.985433 0.205239
O O10 0.858101 0.691713 0.913699
O O11 0.500000 0.500000 0.000000
O O12 0.743155 0.072762 0.875338
O O13 0.000000 0.500000 0.000000
O O14 0.961547 0.562974 0.914209
O O15 0.000000 0.000000 0.500000
O O16 0.000000 0.000000 0.000000
#
# Coordination Sequence:
#
# PCOD8041755 Si02
#       7
#     2   2   2   2   2   2   2
#     4  11  20  38  60  90 121 165 206 251 309 370
#     4  10  21  34  53  91 120 152 196 252 307 352
#     4  10  23  36  61  87 126 159 207 256 309 367
#     4  11  19  31  54  87 124 151 195 246 307 363
#     4  10  19  33  57  92 128 154 196 258 311 357
#     4  11  22  37  64  89 121 160 205 253 304 360
#     4  11  25  44  63  88 124 168 210 253 306 372
#
# _framework density 25.563738000000001
#
# number of rings (size 3 to 8) (size 9 to 14) (size 15 to 20)
#    0.857    0.571    4.286    2.143    0.000    2.857 
#    0.000    0.714    0.000    4.286    0.000    0.000 
#    0.000    0.000    0.000    0.000    0.000    0.000 
#
# Total GULP energy -173573.770450 kJ/mol
# GULP energy per Si atom -12398.126461 kJ/mol
# Density = 2.550555 g / cm^3
# Si number density = 25.563738 Si / 1000 Ang^3
#
#
#
# Elastic Constant Matrix: (Units=GPa)
#
#
# Indices 1 2 3 4 5 6 
#
# 1 145.3240 42.4360 69.8082 -23.6751 -2.2870 31.1948
# 2 42.4360 90.4468 64.7435 -26.3095 3.5025 16.2663
# 3 69.8082 64.7435 220.6920 -33.3702 5.0627 21.9871
# 4 -23.6751 -26.3095 -33.3702 49.7035 4.3844 0.4607
# 5 -2.2870 3.5025 5.0627 4.3844 38.3734 -13.5040
# 6 31.1948 16.2663 21.9871 0.4607 -13.5040 46.6698
#
#
#
# Elastic Compliance Matrix: (Units=1/GPa)
#
#
# Indices 1 2 3 4 5 6 
#
# 1 0.009771 -0.001496 -0.001605 0.002962 -0.001411 -0.005691
# 2 -0.001496 0.016692 -0.002900 0.006534 -0.003578 -0.004551
# 3 -0.001605 -0.002900 0.006375 0.002115 -0.001386 -0.001342
# 4 0.002962 0.006534 0.002115 0.027040 -0.006381 -0.007367
# 5 -0.001411 -0.003578 -0.001386 -0.006381 0.031438 0.012003
# 6 -0.005691 -0.004551 -0.001342 -0.007367 0.012003 0.030995
#
#
# Mechanical properties :
#
#
# Convention : Reuss Voigt Hill
#
# Bulk Modulus (GPa) = 47.99379 90.04871 69.02125
# Shear Modulus (GPa) = 35.39646 45.58100 40.48873
#
# Velocity S-wave (km/s) = 3.72511 4.22718 3.98406
# Velocity P-wave (km/s) = 6.10875 7.68941 6.94420
#
# Compressibility (1/GPa) = 0.02083603
#
# Stress axis : x y z
#
# Youngs Moduli (GPa) = 102.34633 59.91017 156.86599
#
# Poissons Ratio (x) = 0.08962 0.25170
# Poissons Ratio (y) = 0.15311 0.45493
# Poissons Ratio (z) = 0.16422 0.17375
#
# Static dielectric constant tensor:
#      x y z
#    x 4.778870 -0.698400 -0.148050 
#    y -0.698400 6.499840 0.799300 
#    z -0.148050 0.799300 5.264980 
# 
# 
# High freq. dielectric constant tensor:
#      x y z
#    x 2.020500 -0.016580 -0.000210 
#    y -0.016580 2.049300 0.001540 
#    z -0.000210 0.001540 2.030620 
# 
# From -- ./inp_files/580118.got.cif
#   From: 2010.06.25/outbox.cif.g09.slc.cpg/sg2_291_cif.got.tgz:580118.got - 2010.06.27 13:26:56.
