data_PCOD8041115
_publ_section_title
;
Structure prediction by ZEFSAII (Michael W. Deem and Ramdas Pophale) SiO2 
 PCOD8041115
Probable space group: P -1
;
_chemical_formula_sum "Si O2"
_cell_formula_units_Z 16
_cell_length_a 16.677252
_cell_length_b 11.135093
_cell_length_c 10.287116
_cell_angle_alpha 49.800094
_cell_angle_beta 145.836528
_cell_angle_gamma 125.619090
_cell_volume 814.159848
_symmetry_space_group_name_H-M "P -1"
_symmetry_group_IT_number 2
_symmetry_cell_setting 'triclinic'
loop_
_space_group_symop_operation_xyz
x,y,z
-x,-y,-z
loop_
_atom_site_type_symbol
_atom_site_label
_atom_site_fract_x
_atom_site_fract_y
_atom_site_fract_z
Si Si1 0.002562 0.553916 0.174852
Si Si2 0.296415 0.373351 0.268832
Si Si3 0.016158 0.747187 0.797669
Si Si4 0.308700 0.931605 0.014417
Si Si5 0.689664 0.427935 0.348700
Si Si6 0.291667 0.161734 0.630863
Si Si7 0.410585 0.618105 0.460152
Si Si8 0.567770 0.733399 0.013554
O O1 0.140720 0.584060 0.434193
O O2 0.975928 0.368596 0.234163
O O3 0.039662 0.654219 0.025690
O O4 0.860407 0.610659 0.014480
O O5 0.305884 0.199585 0.469850
O O6 0.309728 0.492766 0.326644
O O7 0.421017 0.411065 0.303887
O O8 0.867174 0.819025 0.544432
O O9 0.143490 0.888686 0.861488
O O10 0.401967 0.789768 0.264910
O O11 0.319863 0.983626 0.838047
O O12 0.371340 0.087822 0.072956
O O13 0.640395 0.383799 0.460201
O O14 0.652224 0.604581 0.140901
O O15 0.601807 0.302409 0.221692
O O16 0.403990 0.285045 0.779579
#
# Coordination Sequence:
#
# PCOD8041115 Si02
#       8
#     2   2   2   2   2   2   2   2
#     4  10  16  29  52  74  98 128 167 204 243 290
#     4  10  20  32  49  77 101 134 159 202 257 295
#     4  10  15  27  50  75 103 122 157 213 255 283
#     4  10  18  30  48  80 100 129 158 215 249 283
#     4  11  18  36  53  74  98 135 171 199 238 303
#     4   9  18  32  45  77 105 123 161 202 256 298
#     4  11  19  31  52  75 102 128 169 206 242 295
#     4   9  21  31  51  76 100 133 162 209 247 283
#
# _framework density 19.652159999999999
#
# number of rings (size 3 to 8) (size 9 to 14) (size 15 to 20)
#    0.750    1.250    5.000    1.125    0.000    1.000 
#    0.000    0.000    0.000    3.750    3.250    0.000 
#    0.000    0.000    0.000    0.000    0.000    0.000 
#
# Total GULP energy -198216.244467 kJ/mol
# GULP energy per Si atom -12388.515279 kJ/mol
# Density = 1.960743 g / cm^3
# Si number density = 19.652160 Si / 1000 Ang^3
#
#
#
# Elastic Constant Matrix: (Units=GPa)
#
#
# Indices 1 2 3 4 5 6 
#
# 1 29.9971 -0.1107 13.7112 8.3373 17.8317 6.7055
# 2 -0.1107 91.0761 31.4814 7.4816 1.6452 13.7633
# 3 13.7112 31.4814 117.6766 27.5921 20.4029 3.2309
# 4 8.3373 7.4816 27.5921 39.2567 12.3178 1.3814
# 5 17.8317 1.6452 20.4029 12.3178 16.7974 7.4830
# 6 6.7055 13.7633 3.2309 1.3814 7.4830 14.2261
#
#
#
# Elastic Compliance Matrix: (Units=1/GPa)
#
#
# Indices 1 2 3 4 5 6 
#
# 1 0.109205 -0.007792 0.011480 0.018692 -0.158389 0.034956
# 2 -0.007792 0.017583 -0.007242 -0.005642 0.031931 -0.027941
# 3 0.011480 -0.007242 0.015264 -0.000638 -0.037540 0.017937
# 4 0.018692 -0.005642 -0.000638 0.040698 -0.058995 0.023872
# 5 -0.158389 0.031931 -0.037540 -0.058995 0.375565 -0.139530
# 6 0.034956 -0.027941 0.017937 0.023872 -0.139530 0.147851
#
#
# Mechanical properties :
#
#
# Convention : Reuss Voigt Hill
#
# Bulk Modulus (GPa) = 7.41057 36.54597 21.97827
# Shear Modulus (GPa) = 6.59408 26.96723 16.78065
#
# Velocity S-wave (km/s) = 1.83376 3.70838 2.92530
# Velocity P-wave (km/s) = 2.87448 6.08053 4.75581
#
# Compressibility (1/GPa) = 0.13494234
#
# Stress axis : x y z
#
# Youngs Moduli (GPa) = 9.15706 56.87384 65.51544
#
# Poissons Ratio (x) = 0.44317 -0.75209
# Poissons Ratio (y) = 0.07135 0.47447
# Poissons Ratio (z) = -0.10512 0.41189
#
# Static dielectric constant tensor:
#      x y z
#    x 2.963640 0.258980 0.096030 
#    y 0.258980 3.568910 -0.036440 
#    z 0.096030 -0.036440 3.848810 
# 
# 
# High freq. dielectric constant tensor:
#      x y z
#    x 1.706240 0.032090 0.014160 
#    y 0.032090 1.755510 -0.005110 
#    z 0.014160 -0.005110 1.781850 
# 
# From -- ./inp_files/463627.got.cif
#   From: 2010.06.25/outbox.cif.g09.slc.cpg/sg2_232_cif.got.tgz:463627.got - 2010.06.27 13:26:56.
