data_PCOD8041927
_publ_section_title
;
Structure prediction by ZEFSAII (Michael W. Deem and Ramdas Pophale) SiO2 
 PCOD8041927
Probable space group: P -1
;
_chemical_formula_sum "Si O2"
_cell_formula_units_Z 16
_cell_length_a 15.030230
_cell_length_b 10.134296
_cell_length_c 14.641214
_cell_angle_alpha 47.478086
_cell_angle_beta 122.626712
_cell_angle_gamma 83.723743
_cell_volume 894.494346
_symmetry_space_group_name_H-M "P -1"
_symmetry_group_IT_number 2
_symmetry_cell_setting 'triclinic'
loop_
_space_group_symop_operation_xyz
x,y,z
-x,-y,-z
loop_
_atom_site_type_symbol
_atom_site_label
_atom_site_fract_x
_atom_site_fract_y
_atom_site_fract_z
Si Si1 0.341794 0.747976 0.180787
Si Si2 0.314214 0.828723 0.839102
Si Si3 0.488866 0.805087 0.092487
Si Si4 0.396918 0.173264 0.273252
Si Si5 0.148785 0.802417 0.891746
Si Si6 0.216051 0.836879 0.440880
Si Si7 0.328866 0.875330 0.312200
Si Si8 0.613163 0.173613 0.311206
O O1 0.415761 0.829763 0.136255
O O2 0.264963 0.909948 0.158891
O O3 0.482521 0.420705 0.430292
O O4 0.209687 0.823871 0.007117
O O5 0.162690 0.915725 0.758214
O O6 0.275227 0.958989 0.656400
O O7 0.360219 0.930504 0.883071
O O8 0.471472 0.500981 0.075462
O O9 0.665560 0.485166 0.326305
O O10 0.500000 0.000000 0.000000
O O11 0.525272 0.095131 0.309139
O O12 0.500000 0.000000 0.500000
O O13 0.314945 0.105553 0.213905
O O14 0.252443 0.491922 0.074053
O O15 0.962348 0.993966 0.710099
O O16 0.216198 0.908387 0.303831
O O17 0.271664 0.932914 0.488957
#
# Coordination Sequence:
#
# PCOD8041927 Si02
#       8
#     2   2   2   2   2   2   2   2
#     4   9  19  35  54  75 104 139 173 212 257 301
#     4   8  17  33  52  74  99 133 171 211 253 300
#     4   9  18  34  55  77  95 132 182 213 245 304
#     4  11  18  33  56  79 101 134 179 215 246 300
#     4  10  20  35  54  75 108 141 165 208 266 306
#     4  10  20  34  53  76 108 137 163 210 266 306
#     4  10  19  34  54  78 104 136 178 212 247 306
#     4   9  17  32  53  75 101 131 172 212 253 301
#
# _framework density 17.8872
#
# number of rings (size 3 to 8) (size 9 to 14) (size 15 to 20)
#    0.000    2.500    2.500    1.500    1.750    1.500 
#    0.000    2.500    2.750    0.000    0.000    0.000 
#    0.000    0.000    0.000    0.000    0.000    0.000 
#
# Total GULP energy -198317.999988 kJ/mol
# GULP energy per Si atom -12394.874999 kJ/mol
# Density = 1.784649 g / cm^3
# Si number density = 17.887200 Si / 1000 Ang^3
#
#
#
# Elastic Constant Matrix: (Units=GPa)
#
#
# Indices 1 2 3 4 5 6 
#
# 1 137.3100 66.9474 45.2459 -2.5138 8.6889 -6.8676
# 2 66.9474 105.0972 26.9990 -0.6151 -6.3469 -1.2004
# 3 45.2459 26.9990 46.8184 -1.0977 8.8806 -1.3626
# 4 -2.5138 -0.6151 -1.0977 16.4358 1.1912 -11.4019
# 5 8.6889 -6.3469 8.8806 1.1912 31.0016 1.5142
# 6 -6.8676 -1.2004 -1.3626 -11.4019 1.5142 38.4202
#
#
#
# Elastic Compliance Matrix: (Units=1/GPa)
#
#
# Indices 1 2 3 4 5 6 
#
# 1 0.013860 -0.006701 -0.008775 0.003707 -0.003041 0.003177
# 2 -0.006701 0.015003 -0.003445 -0.002386 0.006116 -0.001800
# 3 -0.008775 -0.003445 0.033362 0.001513 -0.007874 0.000266
# 4 0.003707 -0.002386 0.001513 0.078681 -0.006168 0.024235
# 5 -0.003041 0.006116 -0.007874 -0.006168 0.037045 -0.003922
# 6 0.003177 -0.001800 0.000266 0.024235 -0.003922 0.033896
#
#
# Mechanical properties :
#
#
# Convention : Reuss Voigt Hill
#
# Bulk Modulus (GPa) = 41.00748 63.06777 52.03763
# Shear Modulus (GPa) = 19.39372 27.17374 23.28373
#
# Velocity S-wave (km/s) = 3.29633 3.90188 3.61182
# Velocity P-wave (km/s) = 6.12071 7.45887 6.82268
#
# Compressibility (1/GPa) = 0.02438580
#
# Stress axis : x y z
#
# Youngs Moduli (GPa) = 72.14849 66.65310 29.97397
#
# Poissons Ratio (x) = 0.44661 0.26301
# Poissons Ratio (y) = 0.48344 0.10325
# Poissons Ratio (z) = 0.63307 0.22960
#
# Static dielectric constant tensor:
#      x y z
#    x 3.793130 -0.427560 -0.130560 
#    y -0.427560 3.887260 0.065160 
#    z -0.130560 0.065160 3.013890 
# 
# 
# High freq. dielectric constant tensor:
#      x y z
#    x 1.704930 -0.002720 -0.012250 
#    y -0.002720 1.692680 0.010690 
#    z -0.012250 0.010690 1.653780 
# 
# From -- ./inp_files/180502.got.cif
#   From: 2010.06.25/outbox.cif.g09.slc.cpg/sg2_91_cif.got.tgz:180502.got - 2010.06.27 13:26:56.
