data_PCOD8041641
_publ_section_title
;
Structure prediction by ZEFSAII (Michael W. Deem and Ramdas Pophale) SiO2 
 PCOD8041641
Probable space group: P -1
;
_chemical_formula_sum "Si O2"
_cell_formula_units_Z 16
_cell_length_a 9.132942
_cell_length_b 15.587106
_cell_length_c 14.024224
_cell_angle_alpha 51.280385
_cell_angle_beta 66.826932
_cell_angle_gamma 36.537200
_cell_volume 901.411567
_symmetry_space_group_name_H-M "P -1"
_symmetry_group_IT_number 2
_symmetry_cell_setting 'triclinic'
loop_
_space_group_symop_operation_xyz
x,y,z
-x,-y,-z
loop_
_atom_site_type_symbol
_atom_site_label
_atom_site_fract_x
_atom_site_fract_y
_atom_site_fract_z
Si Si1 0.131681 0.340140 0.381535
Si Si2 0.072179 0.910415 0.188638
Si Si3 0.256867 0.255416 0.195638
Si Si4 0.810858 0.246795 0.937627
Si Si5 0.046965 0.337260 0.762257
Si Si6 0.235666 0.126996 0.671187
Si Si7 0.289147 0.439826 0.926901
Si Si8 0.620414 0.677457 0.221244
O O1 0.282165 0.249145 0.307452
O O2 0.250325 0.191596 0.527865
O O3 0.153706 0.453901 0.336383
O O4 0.830970 0.477258 0.344878
O O5 0.098911 0.846795 0.121380
O O6 0.345221 0.787442 0.251738
O O7 0.918789 0.901826 0.294434
O O8 0.917983 0.107691 0.088154
O O9 0.982922 0.355732 0.162014
O O10 0.480680 0.056282 0.240101
O O11 0.283481 0.363827 0.072372
O O12 0.504846 0.416288 0.904449
O O13 0.925357 0.306726 0.879797
O O14 0.101424 0.268805 0.689149
O O15 0.305743 0.240845 0.814331
O O16 0.367809 0.323609 0.895990
#
# Coordination Sequence:
#
# PCOD8041641 Si02
#       8
#     2   2   2   2   2   2   2   2
#     4   9  20  36  51  76 106 140 175 207 250 308
#     4   9  17  29  50  82 102 129 173 217 252 299
#     4  10  19  33  56  77  99 141 176 213 249 302
#     4   9  16  31  52  76 104 133 170 212 258 307
#     4   9  20  34  53  79 106 138 162 215 268 301
#     4  11  19  33  58  77 101 139 179 209 248 306
#     4   9  17  34  55  73 107 132 176 211 255 311
#     4   8  18  33  50  79 106 133 162 215 262 300
#
# _framework density 17.749938
#
# number of rings (size 3 to 8) (size 9 to 14) (size 15 to 20)
#    0.750    2.000    1.250    0.750    1.750    1.000 
#    0.000    0.625    2.750    0.750    0.000    0.000 
#    0.000    0.000    0.000    0.000    0.000    0.000 
#
# Total GULP energy -198264.615015 kJ/mol
# GULP energy per Si atom -12391.538438 kJ/mol
# Density = 1.770954 g / cm^3
# Si number density = 17.749938 Si / 1000 Ang^3
#
#
#
# Elastic Constant Matrix: (Units=GPa)
#
#
# Indices 1 2 3 4 5 6 
#
# 1 95.7779 22.2495 31.8265 -7.4522 -10.3897 -16.3955
# 2 22.2495 49.3667 18.9288 -6.9387 -4.3939 -15.4320
# 3 31.8265 18.9288 82.3616 -4.3833 -13.7409 -2.2276
# 4 -7.4522 -6.9387 -4.3833 24.0536 0.3778 6.4219
# 5 -10.3897 -4.3939 -13.7409 0.3778 23.3035 -2.2391
# 6 -16.3955 -15.4320 -2.2276 6.4219 -2.2391 22.9361
#
#
#
# Elastic Compliance Matrix: (Units=1/GPa)
#
#
# Indices 1 2 3 4 5 6 
#
# 1 0.014249 -0.001527 -0.004124 0.000753 0.004484 0.008984
# 2 -0.001527 0.028960 -0.004875 0.002226 0.003564 0.017645
# 3 -0.004124 -0.004875 0.015826 0.001293 0.006125 -0.004455
# 4 0.000753 0.002226 0.001293 0.045521 -0.000239 -0.010607
# 5 0.004484 0.003564 0.006125 -0.000239 0.050272 0.011173
# 6 0.008984 0.017645 -0.004455 -0.010607 0.011173 0.065521
#
#
# Mechanical properties :
#
#
# Convention : Reuss Voigt Hill
#
# Bulk Modulus (GPa) = 26.32833 41.50176 33.91505
# Shear Modulus (GPa) = 19.68020 24.35872 22.01946
#
# Velocity S-wave (km/s) = 3.33340 3.70851 3.52595
# Velocity P-wave (km/s) = 5.44798 6.46294 5.97704
#
# Compressibility (1/GPa) = 0.03798189
#
# Stress axis : x y z
#
# Youngs Moduli (GPa) = 70.18038 34.53041 63.18800
#
# Poissons Ratio (x) = 0.05274 0.26058
# Poissons Ratio (y) = 0.10718 0.30806
# Poissons Ratio (z) = 0.28942 0.16835
#
# Static dielectric constant tensor:
#      x y z
#    x 3.251460 -0.234350 -0.056520 
#    y -0.234350 3.177170 -0.021160 
#    z -0.056520 -0.021160 3.109320 
# 
# 
# High freq. dielectric constant tensor:
#      x y z
#    x 1.668650 -0.020250 -0.000570 
#    y -0.020250 1.674190 -0.001190 
#    z -0.000570 -0.001190 1.672800 
# 
# From -- ./inp_files/435331.got.cif
#   From: 2010.06.25/outbox.cif.g09.slc.cpg/sg2_218_cif.got.tgz:435331.got - 2010.06.27 13:26:56.
