data_PCOD8041483
_publ_section_title
;
Structure prediction by ZEFSAII (Michael W. Deem and Ramdas Pophale) SiO2 
 PCOD8041483
Probable space group: P -1
;
_chemical_formula_sum "Si O2"
_cell_formula_units_Z 16
_cell_length_a 17.132395
_cell_length_b 6.657438
_cell_length_c 9.506129
_cell_angle_alpha 105.104560
_cell_angle_beta 87.376528
_cell_angle_gamma 62.259897
_cell_volume 908.600571
_symmetry_space_group_name_H-M "P -1"
_symmetry_group_IT_number 2
_symmetry_cell_setting 'triclinic'
loop_
_space_group_symop_operation_xyz
x,y,z
-x,-y,-z
loop_
_atom_site_type_symbol
_atom_site_label
_atom_site_fract_x
_atom_site_fract_y
_atom_site_fract_z
Si Si1 0.884952 0.698281 0.969519
Si Si2 0.451510 0.098843 0.375775
Si Si3 0.617148 0.255163 0.731401
Si Si4 0.664729 0.362289 0.458276
Si Si5 0.287426 0.892049 0.024080
Si Si6 0.818720 0.171994 0.202826
Si Si7 0.444362 0.738484 0.782424
Si Si8 0.048362 0.721164 0.913208
O O1 0.900467 0.449057 0.987527
O O2 0.877647 0.880851 0.131266
O O3 0.971782 0.655295 0.859487
O O4 0.792916 0.828060 0.909822
O O5 0.368912 0.364697 0.450791
O O6 0.524930 0.085398 0.256318
O O7 0.500000 0.000000 0.500000
O O8 0.410730 0.945994 0.285872
O O9 0.667752 0.220503 0.573024
O O10 0.686241 0.220006 0.844132
O O11 0.529503 0.512606 0.802607
O O12 0.765382 0.242110 0.366661
O O13 0.594859 0.354852 0.354028
O O14 0.251714 0.741259 0.908120
O O15 0.372359 0.882697 0.935626
O O16 0.876845 0.310231 0.214711
O O17 0.000000 0.000000 0.000000
#
# Coordination Sequence:
#
# PCOD8041483 Si02
#       8
#     2   2   2   2   2   2   2   2
#     4   8  17  31  51  79 103 121 157 204 245 296
#     4  11  19  30  50  67  91 138 174 206 245 278
#     4  11  20  34  48  67 105 139 165 204 251 285
#     4  10  19  33  50  71  96 130 177 210 231 285
#     4   9  20  34  47  75 105 128 160 210 250 286
#     4   8  18  32  51  76  99 124 162 205 242 286
#     4  10  19  35  49  69  98 132 178 211 234 282
#     4   9  15  31  54  79 100 125 153 198 252 297
#
# _framework density 17.609499
#
# number of rings (size 3 to 8) (size 9 to 14) (size 15 to 20)
#    0.750    1.750    2.500    1.125    0.000    2.500 
#    4.500    0.000    0.000    0.750    0.000    5.250 
#    0.000    0.000    0.000    0.000    0.000    0.000 
#
# Total GULP energy -198226.384021 kJ/mol
# GULP energy per Si atom -12389.149001 kJ/mol
# Density = 1.756942 g / cm^3
# Si number density = 17.609499 Si / 1000 Ang^3
#
#
#
# Elastic Constant Matrix: (Units=GPa)
#
#
# Indices 1 2 3 4 5 6 
#
# 1 93.1817 42.6884 45.8435 -10.0343 -28.9175 -9.6794
# 2 42.6884 81.2206 25.6838 -24.9155 -6.5154 -4.3912
# 3 45.8435 25.6838 67.5573 -19.2023 -7.1507 -15.6387
# 4 -10.0343 -24.9155 -19.2023 19.4560 0.5615 1.2475
# 5 -28.9175 -6.5154 -7.1507 0.5615 29.1644 -4.6749
# 6 -9.6794 -4.3912 -15.6387 1.2475 -4.6749 29.4909
#
#
#
# Elastic Compliance Matrix: (Units=1/GPa)
#
#
# Indices 1 2 3 4 5 6 
#
# 1 0.034436 -0.017121 -0.020608 -0.025458 0.026248 0.003063
# 2 -0.017121 0.029544 0.011458 0.040425 -0.008045 0.001870
# 3 -0.020608 0.011458 0.038205 0.041175 -0.007328 0.012299
# 4 -0.025458 0.040425 0.041175 0.130033 -0.006542 0.012960
# 5 0.026248 -0.008045 -0.007328 -0.006542 0.058955 0.013154
# 6 0.003063 0.001870 0.012299 0.012960 0.013154 0.043251
#
#
# Mechanical properties :
#
#
# Convention : Reuss Voigt Hill
#
# Bulk Modulus (GPa) = 20.14356 52.26566 36.20461
# Shear Modulus (GPa) = 12.39114 24.13849 18.26481
#
# Velocity S-wave (km/s) = 2.65554 3.70640 3.22407
# Velocity P-wave (km/s) = 4.56797 6.93263 5.87059
#
# Compressibility (1/GPa) = 0.04964365
#
# Stress axis : x y z
#
# Youngs Moduli (GPa) = 29.03920 33.84762 26.17445
#
# Poissons Ratio (x) = 0.57950 0.53940
# Poissons Ratio (y) = 0.49718 -0.29990
# Poissons Ratio (z) = 0.59843 -0.38782
#
# Static dielectric constant tensor:
#      x y z
#    x 3.487180 -0.028590 -0.334330 
#    y -0.028590 3.226610 -0.114400 
#    z -0.334330 -0.114400 3.065120 
# 
# 
# High freq. dielectric constant tensor:
#      x y z
#    x 1.678060 -0.006060 -0.029090 
#    y -0.006060 1.676350 -0.013110 
#    z -0.029090 -0.013110 1.647050 
# 
# From -- ./inp_files/322483.got.cif
#   From: 2010.06.25/outbox.cif.g09.slc.cpg/sg2_162_cif.got.tgz:322483.got - 2010.06.27 13:26:56.
