data_PCOD8041287
_publ_section_title
;
Structure prediction by ZEFSAII (Michael W. Deem and Ramdas Pophale) SiO2 
 PCOD8041287
Probable space group: P -1
;
_chemical_formula_sum "Si O2"
_cell_formula_units_Z 16
_cell_length_a 13.952470
_cell_length_b 8.948388
_cell_length_c 14.480524
_cell_angle_alpha 132.897193
_cell_angle_beta 123.482973
_cell_angle_gamma 42.475456
_cell_volume 889.847896
_symmetry_space_group_name_H-M "P -1"
_symmetry_group_IT_number 2
_symmetry_cell_setting 'triclinic'
loop_
_space_group_symop_operation_xyz
x,y,z
-x,-y,-z
loop_
_atom_site_type_symbol
_atom_site_label
_atom_site_fract_x
_atom_site_fract_y
_atom_site_fract_z
Si Si1 0.008397 0.745311 0.502778
Si Si2 0.026330 0.186751 0.138719
Si Si3 0.851104 0.511359 0.350792
Si Si4 0.034849 0.743539 0.308733
Si Si5 0.192867 0.312127 0.867751
Si Si6 0.696597 0.110867 0.925567
Si Si7 0.379297 0.346622 0.842567
Si Si8 0.842070 0.655534 0.940285
O O1 0.133246 0.580461 0.574808
O O2 0.070935 0.638304 0.388940
O O3 0.880541 0.721754 0.446408
O O4 0.945259 0.036893 0.599629
O O5 0.963276 0.271602 0.243538
O O6 0.954178 0.420391 0.127572
O O7 0.197858 0.039718 0.168579
O O8 0.000000 0.000000 0.000000
O O9 0.689844 0.631425 0.284205
O O10 0.155722 0.518340 0.211392
O O11 0.868213 0.856933 0.243883
O O12 0.321879 0.235794 0.836859
O O13 0.246990 0.308817 0.999016
O O14 0.548801 0.150659 0.843637
O O15 0.773356 0.938044 0.984746
O O16 0.671520 0.377693 0.036081
O O17 0.000000 0.500000 0.000000
#
# Coordination Sequence:
#
# PCOD8041287 Si02
#       8
#     2   2   2   2   2   2   2   2
#     4  10  20  32  54  79 108 136 186 223 258 303
#     4  11  18  31  57  80 106 133 178 227 260 308
#     4  10  20  35  54  81 103 144 179 223 258 313
#     4  10  19  32  51  85 101 134 177 235 259 303
#     4  10  19  33  53  83 106 137 173 221 277 309
#     4  11  20  34  53  81 112 144 169 214 277 326
#     4  10  22  34  51  78 119 142 169 212 275 329
#     4  10  20  31  56  82 105 134 179 224 271 309
#
# _framework density 17.980601
#
# number of rings (size 3 to 8) (size 9 to 14) (size 15 to 20)
#    0.000    1.750    7.500    0.000    5.250    0.500 
#    0.000    0.000    0.000    7.500    0.000    0.000 
#    0.000    0.000    0.000    0.000    0.000    0.000 
#
# Total GULP energy -198237.641092 kJ/mol
# GULP energy per Si atom -12389.852568 kJ/mol
# Density = 1.793968 g / cm^3
# Si number density = 17.980601 Si / 1000 Ang^3
#
#
#
# Elastic Constant Matrix: (Units=GPa)
#
#
# Indices 1 2 3 4 5 6 
#
# 1 78.6980 35.4166 34.5536 -13.1448 0.4618 -9.8745
# 2 35.4166 70.4400 25.2747 -15.7332 -5.0354 -4.3285
# 3 34.5536 25.2747 94.8299 -15.6516 -9.5576 9.5401
# 4 -13.1448 -15.7332 -15.6516 29.3857 5.6725 -1.0976
# 5 0.4618 -5.0354 -9.5576 5.6725 26.2436 -7.8033
# 6 -9.8745 -4.3285 9.5401 -1.0976 -7.8033 36.3519
#
#
#
# Elastic Compliance Matrix: (Units=1/GPa)
#
#
# Indices 1 2 3 4 5 6 
#
# 1 0.019479 -0.007047 -0.005594 0.002685 -0.002700 0.005422
# 2 -0.007047 0.020006 -0.001643 0.006263 0.002493 0.001623
# 3 -0.005594 -0.001643 0.014372 0.003549 0.002832 -0.004772
# 4 0.002685 0.006263 0.003549 0.041735 -0.006449 0.000419
# 5 -0.002700 0.002493 0.002832 -0.006449 0.043418 0.007946
# 6 0.005422 0.001623 -0.004772 0.000419 0.007946 0.032145
#
#
# Mechanical properties :
#
#
# Convention : Reuss Voigt Hill
#
# Bulk Modulus (GPa) = 39.54081 48.27309 43.90695
# Shear Modulus (GPa) = 24.02079 28.31109 26.16594
#
# Velocity S-wave (km/s) = 3.65900 3.97235 3.81889
# Velocity P-wave (km/s) = 6.31582 6.92423 6.62701
#
# Compressibility (1/GPa) = 0.02529033
#
# Stress axis : x y z
#
# Youngs Moduli (GPa) = 51.33816 49.98512 69.57776
#
# Poissons Ratio (x) = 0.35224 0.38921
# Poissons Ratio (y) = 0.36177 0.11430
# Poissons Ratio (z) = 0.28718 0.08211
#
# Static dielectric constant tensor:
#      x y z
#    x 3.662590 0.301530 -0.069910 
#    y 0.301530 3.412540 -0.048330 
#    z -0.069910 -0.048330 3.656270 
# 
# 
# High freq. dielectric constant tensor:
#      x y z
#    x 1.688510 0.028390 0.003440 
#    y 0.028390 1.672620 -0.005430 
#    z 0.003440 -0.005430 1.694680 
# 
# From -- ./inp_files/527828.got.cif
#   From: 2010.06.25/outbox.cif.g09.slc.cpg/sg2_264_cif.got.tgz:527828.got - 2010.06.27 13:26:56.
