data_PCOD8041674
_publ_section_title
;
Structure prediction by ZEFSAII (Michael W. Deem and Ramdas Pophale) SiO2 
 PCOD8041674
Probable space group: P -1
;
_chemical_formula_sum "Si O2"
_cell_formula_units_Z 16
_cell_length_a 16.116743
_cell_length_b 7.411761
_cell_length_c 10.872719
_cell_angle_alpha 108.874817
_cell_angle_beta 44.499535
_cell_angle_gamma 87.917988
_cell_volume 788.445234
_symmetry_space_group_name_H-M "P -1"
_symmetry_group_IT_number 2
_symmetry_cell_setting 'triclinic'
loop_
_space_group_symop_operation_xyz
x,y,z
-x,-y,-z
loop_
_atom_site_type_symbol
_atom_site_label
_atom_site_fract_x
_atom_site_fract_y
_atom_site_fract_z
Si Si1 0.690241 0.041262 0.054018
Si Si2 0.160663 0.814279 0.884994
Si Si3 0.132051 0.011224 0.702188
Si Si4 0.702919 0.672531 0.101040
Si Si5 0.299632 0.610703 0.297575
Si Si6 0.153841 0.401794 0.810662
Si Si7 0.150054 0.384321 0.294120
Si Si8 0.559461 0.414346 0.111171
O O1 0.583518 0.201325 0.112099
O O2 0.803196 0.867826 0.812989
O O3 0.742183 0.181665 0.111579
O O4 0.632551 0.912054 0.175988
O O5 0.172473 0.943903 0.785280
O O6 0.196317 0.576997 0.746688
O O7 0.022474 0.906020 0.119667
O O8 0.191594 0.832172 0.500180
O O9 0.186234 0.189251 0.652328
O O10 0.771995 0.664756 0.153909
O O11 0.818929 0.541801 0.855433
O O12 0.598287 0.570306 0.189499
O O13 0.230912 0.449562 0.324716
O O14 0.361101 0.640255 0.111512
O O15 0.407533 0.525769 0.270237
O O16 0.000000 0.500000 0.000000
O O17 0.000000 0.500000 0.500000
#
# Coordination Sequence:
#
# PCOD8041674 Si02
#       8
#     2   2   2   2   2   2   2   2
#     4  10  19  35  62  80 106 161 186 232 296 329
#     4  10  19  34  61  82 116 146 184 233 295 346
#     4  10  20  37  54  86 117 149 180 239 293 333
#     4   9  19  36  57  81 114 150 190 232 283 335
#     4  10  22  40  58  82 121 149 192 242 277 335
#     4  10  19  33  56  86 111 147 188 228 286 344
#     4   9  19  35  56  87 113 143 186 240 287 339
#     4  10  21  42  58  80 114 157 199 233 274 337
#
# _framework density 20.293102999999999
#
# number of rings (size 3 to 8) (size 9 to 14) (size 15 to 20)
#    0.750    1.500    2.500    0.750    0.000    0.500 
#    6.750    3.125    0.000    0.000    0.000    0.000 
#    0.000    0.000    0.000    0.000    0.000    0.000 
#
# Total GULP energy -198211.435899 kJ/mol
# GULP energy per Si atom -12388.214744 kJ/mol
# Density = 2.024691 g / cm^3
# Si number density = 20.293103 Si / 1000 Ang^3
#
#
#
# Elastic Constant Matrix: (Units=GPa)
#
#
# Indices 1 2 3 4 5 6 
#
# 1 81.9788 19.7507 -6.8289 0.4263 -6.3352 4.8845
# 2 19.7507 97.2515 3.9250 22.0512 -9.5859 6.2299
# 3 -6.8289 3.9250 25.0610 4.8274 1.4577 12.0212
# 4 0.4263 22.0512 4.8274 19.6025 7.8534 2.4268
# 5 -6.3352 -9.5859 1.4577 7.8534 20.2859 10.4622
# 6 4.8845 6.2299 12.0212 2.4268 10.4622 38.8131
#
#
#
# Elastic Compliance Matrix: (Units=1/GPa)
#
#
# Indices 1 2 3 4 5 6 
#
# 1 0.013969 -0.001664 0.006552 -0.002031 0.006553 -0.005160
# 2 -0.001664 0.022598 0.006966 -0.037766 0.030124 -0.011334
# 3 0.006552 0.006966 0.056381 -0.028874 0.025020 -0.024344
# 4 -0.002031 -0.037766 -0.028874 0.129766 -0.081684 0.029165
# 5 0.006553 0.030124 0.025020 -0.081684 0.115779 -0.039510
# 6 -0.005160 -0.011334 -0.024344 0.029165 -0.039510 0.044600
#
#
# Mechanical properties :
#
#
# Convention : Reuss Voigt Hill
#
# Bulk Modulus (GPa) = 8.57212 26.44275 17.50744
# Shear Modulus (GPa) = 12.55429 28.23659 20.39544
#
# Velocity S-wave (km/s) = 2.48996 3.73425 3.17368
# Velocity P-wave (km/s) = 3.53552 5.62597 4.69848
#
# Compressibility (1/GPa) = 0.11665723
#
# Stress axis : x y z
#
# Youngs Moduli (GPa) = 71.58472 44.25181 17.73645
#
# Poissons Ratio (x) = 0.07366 -0.11622
# Poissons Ratio (y) = 0.11915 -0.12356
# Poissons Ratio (z) = -0.46905 -0.30828
#
# Static dielectric constant tensor:
#      x y z
#    x 3.688660 0.180260 0.066290 
#    y 0.180260 3.875620 0.216850 
#    z 0.066290 0.216850 3.407700 
# 
# 
# High freq. dielectric constant tensor:
#      x y z
#    x 1.801370 0.011420 0.003670 
#    y 0.011420 1.795060 0.019590 
#    z 0.003670 0.019590 1.752740 
# 
# From -- ./inp_files/446296.got.cif
#   From: 2010.06.25/outbox.cif.g09.slc.cpg/sg2_224_cif.got.tgz:446296.got - 2010.06.27 13:26:56.
