data_PCOD8041771
_publ_section_title
;
Structure prediction by ZEFSAII (Michael W. Deem and Ramdas Pophale) SiO2 
 PCOD8041771
Probable space group: P -1
;
_chemical_formula_sum "Si O2"
_cell_formula_units_Z 16
_cell_length_a 17.718358
_cell_length_b 6.856815
_cell_length_c 23.964381
_cell_angle_alpha 61.818578
_cell_angle_beta 160.754888
_cell_angle_gamma 108.598288
_cell_volume 760.876351
_symmetry_space_group_name_H-M "P -1"
_symmetry_group_IT_number 2
_symmetry_cell_setting 'triclinic'
loop_
_space_group_symop_operation_xyz
x,y,z
-x,-y,-z
loop_
_atom_site_type_symbol
_atom_site_label
_atom_site_fract_x
_atom_site_fract_y
_atom_site_fract_z
Si Si1 0.412837 0.670779 0.579849
Si Si2 0.763452 0.967766 0.210315
Si Si3 0.391069 0.348800 0.113740
Si Si4 0.225188 0.183406 0.124244
Si Si5 0.228186 0.509778 0.578295
Si Si6 0.477807 0.974505 0.856793
Si Si7 0.087149 0.890430 0.811286
Si Si8 0.640381 0.364142 0.673631
O O1 0.677347 0.661558 0.788389
O O2 0.302235 0.538307 0.563085
O O3 0.457863 0.533555 0.571290
O O4 0.197185 0.951242 0.385446
O O5 0.895508 0.100636 0.245886
O O6 0.696008 0.077472 0.211016
O O7 0.934678 0.673991 0.366207
O O8 0.500000 0.000000 0.000000
O O9 0.349721 0.162537 0.152685
O O10 0.630675 0.394263 0.291561
O O11 0.429196 0.244682 0.092412
O O12 0.148624 0.615475 0.909829
O O13 0.322949 0.915447 0.256904
O O14 0.923621 0.340321 0.883477
O O15 0.286194 0.228354 0.660955
O O16 0.724016 0.002571 0.047156
O O17 0.500000 0.500000 0.500000
#
# Coordination Sequence:
#
# PCOD8041771 Si02
#       8
#     2   2   2   2   2   2   2   2
#     4  10  21  41  63  84 121 163 190 243 304 348
#     4   9  18  35  54  81 118 152 196 245 289 343
#     4  10  21  37  59  86 116 153 198 242 290 351
#     4  10  24  43  60  90 124 153 196 246 296 360
#     4   9  19  37  56  83 115 153 200 238 289 356
#     4  10  19  33  58  83 115 159 193 245 296 332
#     4   9  21  36  57  86 116 155 202 236 287 359
#     4  11  25  42  64  93 119 150 200 248 294 365
#
# _framework density 21.028383000000002
#
# number of rings (size 3 to 8) (size 9 to 14) (size 15 to 20)
#    0.000    2.250    0.000    1.500    3.500    1.500 
#    4.500    7.500    0.000    0.000    0.000    0.000 
#    0.000    0.000    0.000    0.000    0.000    0.000 
#
# Total GULP energy -198286.290527 kJ/mol
# GULP energy per Si atom -12392.893158 kJ/mol
# Density = 2.098052 g / cm^3
# Si number density = 21.028383 Si / 1000 Ang^3
#
#
#
# Elastic Constant Matrix: (Units=GPa)
#
#
# Indices 1 2 3 4 5 6 
#
# 1 117.6792 38.5841 32.3852 -5.1242 -6.8507 -26.7184
# 2 38.5841 50.6986 24.9979 -9.7045 -2.1900 -12.5904
# 3 32.3852 24.9979 129.7770 -14.9182 -3.5967 -3.7941
# 4 -5.1242 -9.7045 -14.9182 16.9792 6.5656 -2.8841
# 5 -6.8507 -2.1900 -3.5967 6.5656 32.2509 -4.7757
# 6 -26.7184 -12.5904 -3.7941 -2.8841 -4.7757 33.2439
#
#
#
# Elastic Compliance Matrix: (Units=1/GPa)
#
#
# Indices 1 2 3 4 5 6 
#
# 1 0.013433 -0.007530 -0.001777 -0.001873 0.003727 0.008115
# 2 -0.007530 0.031009 -0.002190 0.015367 -0.001904 0.006502
# 3 -0.001777 -0.002190 0.009281 0.006604 -0.000948 -0.000761
# 4 -0.001873 0.015367 0.006604 0.079797 -0.013372 0.010070
# 5 0.003727 -0.001904 -0.000948 -0.013372 0.035183 0.006060
# 6 0.008115 0.006502 -0.000761 0.010070 0.006060 0.040722
#
#
# Mechanical properties :
#
#
# Convention : Reuss Voigt Hill
#
# Bulk Modulus (GPa) = 32.54120 54.45435 43.49778
# Shear Modulus (GPa) = 20.60481 29.97399 25.28940
#
# Velocity S-wave (km/s) = 3.13366 3.77955 3.47166
# Velocity P-wave (km/s) = 5.34805 6.70809 6.06631
#
# Compressibility (1/GPa) = 0.03073027
#
# Stress axis : x y z
#
# Youngs Moduli (GPa) = 74.44238 32.24909 107.74270
#
# Poissons Ratio (x) = 0.24283 0.19142
# Poissons Ratio (y) = 0.56053 0.23597
# Poissons Ratio (z) = 0.13225 0.07063
#
# Static dielectric constant tensor:
#      x y z
#    x 4.482670 0.063650 -0.100770 
#    y 0.063650 3.462240 -0.143370 
#    z -0.100770 -0.143370 4.058390 
# 
# 
# High freq. dielectric constant tensor:
#      x y z
#    x 1.832000 0.001920 -0.002730 
#    y 0.001920 1.794740 -0.009100 
#    z -0.002730 -0.009100 1.839530 
# 
# From -- ./inp_files/122814.got.cif
#   From: 2010.06.25/outbox.cif.g09.slc.cpg/sg2_62_cif.got.tgz:122814.got - 2010.06.27 13:26:56.
