data_PCOD8041603
_publ_section_title
;
Structure prediction by ZEFSAII (Michael W. Deem and Ramdas Pophale) SiO2 
 PCOD8041603
Probable space group: P -1
;
_chemical_formula_sum "Si O2"
_cell_formula_units_Z 16
_cell_length_a 10.629496
_cell_length_b 25.327600
_cell_length_c 13.053064
_cell_angle_alpha 157.124573
_cell_angle_beta 144.323706
_cell_angle_gamma 35.630853
_cell_volume 763.918935
_symmetry_space_group_name_H-M "P -1"
_symmetry_group_IT_number 2
_symmetry_cell_setting 'triclinic'
loop_
_space_group_symop_operation_xyz
x,y,z
-x,-y,-z
loop_
_atom_site_type_symbol
_atom_site_label
_atom_site_fract_x
_atom_site_fract_y
_atom_site_fract_z
Si Si1 0.130831 0.029643 0.041464
Si Si2 0.048675 0.300550 0.573855
Si Si3 0.539507 0.415488 0.477892
Si Si4 0.647602 0.483408 0.259670
Si Si5 0.094577 0.160883 0.557343
Si Si6 0.048974 0.335732 0.151741
Si Si7 0.623291 0.854047 0.097776
Si Si8 0.831323 0.444038 0.995425
O O1 0.399164 0.963138 0.103959
O O2 0.084583 0.200404 0.316542
O O3 0.027499 0.963992 0.761345
O O4 0.000000 0.000000 0.000000
O O5 0.189012 0.212961 0.606984
O O6 0.107118 0.442569 0.836931
O O7 0.799131 0.331842 0.511225
O O8 0.500000 0.500000 0.500000
O O9 0.454034 0.527033 0.713194
O O10 0.397614 0.303657 0.181010
O O11 0.835253 0.338202 0.088656
O O12 0.772370 0.607124 0.563308
O O13 0.438709 0.518992 0.106293
O O14 0.303925 0.094554 0.653578
O O15 0.917413 0.290751 0.727194
O O16 0.942745 0.442797 0.178215
O O17 0.175143 0.176347 0.909013
#
# Coordination Sequence:
#
# PCOD8041603 Si02
#       8
#     2   2   2   2   2   2   2   2
#     4  10  20  37  50  77 116 152 184 219 272 340
#     4  11  21  34  51  82 121 141 176 229 283 333
#     4  11  20  33  53  85 118 142 171 230 287 329
#     4  10  19  34  55  78 114 147 178 226 283 323
#     4  10  19  33  55  76 112 150 181 217 278 335
#     4   9  20  35  54  83 107 142 192 231 268 326
#     4  10  19  34  54  78 107 144 190 227 264 327
#     4  11  20  34  56  86 110 141 184 232 280 323
#
# _framework density 20.94463
#
# number of rings (size 3 to 8) (size 9 to 14) (size 15 to 20)
#    0.000    1.750    3.750    3.750    1.750    2.000 
#    0.000    0.000    0.000    0.750    0.000   35.875 
#    0.000    0.000    0.000    0.000    0.000    0.000 
#
# Total GULP energy -198253.195923 kJ/mol
# GULP energy per Si atom -12390.824745 kJ/mol
# Density = 2.089696 g / cm^3
# Si number density = 20.944630 Si / 1000 Ang^3
#
#
#
# Elastic Constant Matrix: (Units=GPa)
#
#
# Indices 1 2 3 4 5 6 
#
# 1 78.4733 40.2121 28.1344 4.3921 -19.8300 -24.5761
# 2 40.2121 71.1209 28.5761 -23.4021 -3.8655 -25.6347
# 3 28.1344 28.5761 89.1444 -17.5067 -17.9283 -11.5477
# 4 4.3921 -23.4021 -17.5067 34.6006 -3.4884 -3.8458
# 5 -19.8300 -3.8655 -17.9283 -3.4884 21.1017 0.2222
# 6 -24.5761 -25.6347 -11.5477 -3.8458 0.2222 31.7031
#
#
#
# Elastic Compliance Matrix: (Units=1/GPa)
#
#
# Indices 1 2 3 4 5 6 
#
# 1 0.030904 -0.017205 -0.001234 -0.013032 0.022604 0.007856
# 2 -0.017205 0.045548 0.001668 0.036951 -0.000600 0.028586
# 3 -0.001234 0.001668 0.018049 0.013023 0.016545 0.008431
# 4 -0.013032 0.036951 0.013023 0.067410 0.016388 0.032582
# 5 0.022604 -0.000600 0.016545 0.016388 0.085030 0.024456
# 6 0.007856 0.028586 0.008431 0.032582 0.024456 0.067599
#
#
# Mechanical properties :
#
#
# Convention : Reuss Voigt Hill
#
# Bulk Modulus (GPa) = 16.40426 48.06486 32.23456
# Shear Modulus (GPa) = 13.57219 26.93548 20.25384
#
# Velocity S-wave (km/s) = 2.54835 3.59002 3.11307
# Velocity P-wave (km/s) = 4.06301 6.33898 5.32403
#
# Compressibility (1/GPa) = 0.06095976
#
# Stress axis : x y z
#
# Youngs Moduli (GPa) = 32.35862 21.95503 55.40363
#
# Poissons Ratio (x) = 0.37774 0.06834
# Poissons Ratio (y) = 0.55674 -0.09244
# Poissons Ratio (z) = 0.03991 -0.03663
#
# Static dielectric constant tensor:
#      x y z
#    x 4.025340 -1.111410 -0.461180 
#    y -1.111410 6.468090 -0.112000 
#    z -0.461180 -0.112000 4.097010 
# 
# 
# High freq. dielectric constant tensor:
#      x y z
#    x 1.796180 -0.032080 -0.033750 
#    y -0.032080 1.812890 -0.025430 
#    z -0.033750 -0.025430 1.812000 
# 
# From -- ./inp_files/450133.got.cif
#   From: 2010.06.25/outbox.cif.g09.slc.cpg/sg2_226_cif.got.tgz:450133.got - 2010.06.27 13:26:56.
