data_PCOD8041289
_publ_section_title
;
Structure prediction by ZEFSAII (Michael W. Deem and Ramdas Pophale) SiO2 
 PCOD8041289
Probable space group: P -1
;
_chemical_formula_sum "Si O2"
_cell_formula_units_Z 16
_cell_length_a 18.408274
_cell_length_b 17.428520
_cell_length_c 6.459533
_cell_angle_alpha 116.783500
_cell_angle_beta 91.580830
_cell_angle_gamma 142.650217
_cell_volume 787.719692
_symmetry_space_group_name_H-M "P -1"
_symmetry_group_IT_number 2
_symmetry_cell_setting 'triclinic'
loop_
_space_group_symop_operation_xyz
x,y,z
-x,-y,-z
loop_
_atom_site_type_symbol
_atom_site_label
_atom_site_fract_x
_atom_site_fract_y
_atom_site_fract_z
Si Si1 0.224227 0.942597 0.803938
Si Si2 0.226227 0.408700 0.908968
Si Si3 0.065132 0.412059 0.971902
Si Si4 0.105685 0.149627 0.879153
Si Si5 0.788817 0.181126 0.953543
Si Si6 0.503215 0.796760 0.170981
Si Si7 0.322388 0.769008 0.145297
Si Si8 0.064526 0.947619 0.873580
O O1 0.181801 0.989488 0.955723
O O2 0.075537 0.750899 0.412878
O O3 0.405573 0.146870 0.951504
O O4 0.247246 0.893973 0.916232
O O5 0.155722 0.418224 0.030206
O O6 0.249388 0.362542 0.037793
O O7 0.100541 0.244539 0.516038
O O8 0.410529 0.622467 0.081239
O O9 0.976566 0.352743 0.100686
O O10 0.203912 0.630174 0.170424
O O11 0.174881 0.143748 0.015510
O O12 0.000000 0.000000 0.500000
O O13 0.988585 0.083954 0.937079
O O14 0.775645 0.271527 0.069296
O O15 0.645248 0.993327 0.560143
O O16 0.361091 0.715614 0.987894
O O17 0.500000 0.000000 0.500000
#
# Coordination Sequence:
#
# PCOD8041289 Si02
#       8
#     2   2   2   2   2   2   2   2
#     4  10  20  33  50  74 102 132 165 203 246 294
#     4   9  17  32  53  73  98 133 166 203 248 290
#     4   9  18  33  51  74 101 128 169 212 242 287
#     4   9  17  31  54  78  99 125 161 202 246 294
#     4  10  19  32  52  72  98 137 169 203 251 292
#     4   9  20  35  49  72 103 131 168 209 243 290
#     4   9  18  34  52  72 101 134 167 209 250 286
#     4   9  18  32  52  77 100 125 164 206 242 291
#
# _framework density 20.311795
#
# number of rings (size 3 to 8) (size 9 to 14) (size 15 to 20)
#    0.000    2.750    0.000    1.125    0.000    3.000 
#    0.000    8.125    0.000    7.500    0.000    0.000 
#    0.000    0.000    0.000    0.000    0.000    0.000 
#
# Total GULP energy -198291.527106 kJ/mol
# GULP energy per Si atom -12393.220444 kJ/mol
# Density = 2.026556 g / cm^3
# Si number density = 20.311795 Si / 1000 Ang^3
#
#
#
# Elastic Constant Matrix: (Units=GPa)
#
#
# Indices 1 2 3 4 5 6 
#
# 1 64.1681 58.6527 14.7445 9.9466 -9.4188 -7.0241
# 2 58.6527 176.8416 26.1000 16.7934 -5.9151 -9.1226
# 3 14.7445 26.1000 13.1073 3.4888 -5.3657 4.1330
# 4 9.9466 16.7934 3.4888 29.5625 0.8654 -2.0627
# 5 -9.4188 -5.9151 -5.3657 0.8654 17.3087 1.0294
# 6 -7.0241 -9.1226 4.1330 -2.0627 1.0294 41.5429
#
#
#
# Elastic Compliance Matrix: (Units=1/GPa)
#
#
# Indices 1 2 3 4 5 6 
#
# 1 0.026573 -0.005598 -0.016099 -0.003766 0.007478 0.004493
# 2 -0.005598 0.010027 -0.016087 -0.001575 -0.004700 0.002894
# 3 -0.016099 -0.016087 0.148545 -0.005496 0.033382 -0.022133
# 4 -0.003766 -0.001575 -0.005496 0.036928 -0.006230 0.001552
# 5 0.007478 -0.004700 0.033382 -0.006230 0.071204 -0.005162
# 6 0.004493 0.002894 -0.022133 0.001552 -0.005162 0.027874
#
#
# Mechanical properties :
#
#
# Convention : Reuss Voigt Hill
#
# Bulk Modulus (GPa) = 9.12598 50.34569 29.73583
# Shear Modulus (GPa) = 11.54082 27.99082 19.76582
#
# Velocity S-wave (km/s) = 2.38625 3.71625 3.12287
# Velocity P-wave (km/s) = 3.47777 6.57679 5.26066
#
# Compressibility (1/GPa) = 0.10957732
#
# Stress axis : x y z
#
# Youngs Moduli (GPa) = 37.63187 99.72678 6.73197
#
# Poissons Ratio (x) = 0.55826 0.10838
# Poissons Ratio (y) = 0.21066 0.10830
# Poissons Ratio (z) = 0.60582 1.60435
#
# Static dielectric constant tensor:
#      x y z
#    x 4.185910 -0.171460 -0.125110 
#    y -0.171460 4.008790 0.135700 
#    z -0.125110 0.135700 3.274960 
# 
# 
# High freq. dielectric constant tensor:
#      x y z
#    x 1.795760 -0.010360 -0.012810 
#    y -0.010360 1.807840 0.005640 
#    z -0.012810 0.005640 1.753740 
# 
# From -- ./inp_files/44054.got.cif
#   From: 2010.06.25/outbox.cif.g09.slc.cpg/sg2_23_cif.got.tgz:44054.got - 2010.06.27 13:26:56.
