data_PCOD8041826
_publ_section_title
;
Structure prediction by ZEFSAII (Michael W. Deem and Ramdas Pophale) SiO2 
 PCOD8041826
Probable space group: P -1
;
_chemical_formula_sum "Si O2"
_cell_formula_units_Z 16
_cell_length_a 8.699426
_cell_length_b 20.991495
_cell_length_c 13.244930
_cell_angle_alpha 36.311873
_cell_angle_beta 76.167456
_cell_angle_gamma 46.202633
_cell_volume 689.131797
_symmetry_space_group_name_H-M "P -1"
_symmetry_group_IT_number 2
_symmetry_cell_setting 'triclinic'
loop_
_space_group_symop_operation_xyz
x,y,z
-x,-y,-z
loop_
_atom_site_type_symbol
_atom_site_label
_atom_site_fract_x
_atom_site_fract_y
_atom_site_fract_z
Si Si1 0.262753 0.061124 0.515319
Si Si2 0.368766 0.123703 0.603983
Si Si3 0.584691 0.324950 0.432497
Si Si4 0.375746 0.585562 0.297907
Si Si5 0.211476 0.228775 0.859714
Si Si6 0.206448 0.355378 0.504525
Si Si7 0.953161 0.223918 0.157206
Si Si8 0.221661 0.866926 0.831227
O O1 0.967770 0.214424 0.289076
O O2 0.500000 0.000000 0.500000
O O3 0.154048 0.186070 0.476421
O O4 0.437484 0.842734 0.794437
O O5 0.692292 0.975864 0.689980
O O6 0.156344 0.341198 0.415102
O O7 0.466717 0.992260 0.851412
O O8 0.640181 0.378467 0.445703
O O9 0.513852 0.251392 0.587972
O O10 0.275750 0.542803 0.136691
O O11 0.896387 0.127252 0.568751
O O12 0.500000 0.500000 0.500000
O O13 0.045626 0.716604 0.163908
O O14 0.333848 0.736507 0.080889
O O15 0.288341 0.211013 0.754230
O O16 0.100475 0.400608 0.718507
O O17 0.806099 0.198444 0.174093
#
# Coordination Sequence:
#
# PCOD8041826 Si02
#       8
#     2   2   2   2   2   2   2   2
#     4  10  25  40  62  96 124 157 214 264 306 367
#     4  11  19  39  60  85 127 158 201 259 304 364
#     4  10  20  38  64  88 121 160 216 248 300 383
#     4  10  22  39  59  94 126 157 209 254 303 375
#     4  10  20  36  59  88 124 163 203 245 307 375
#     4  10  19  33  60  88 117 164 201 244 307 370
#     4  10  20  42  63  87 122 163 210 260 304 365
#     4  11  21  41  68  84 122 173 196 255 326 354
#
# _framework density 23.217621000000001
#
# number of rings (size 3 to 8) (size 9 to 14) (size 15 to 20)
#    0.000    1.750    5.000    0.750    0.000    5.000 
#    0.000    3.125    0.000    0.000    0.000    0.000 
#    0.000    0.000    0.000    0.000    0.000    0.000 
#
# Total GULP energy -198251.196359 kJ/mol
# GULP energy per Si atom -12390.699772 kJ/mol
# Density = 2.316478 g / cm^3
# Si number density = 23.217621 Si / 1000 Ang^3
#
#
#
# Elastic Constant Matrix: (Units=GPa)
#
#
# Indices 1 2 3 4 5 6 
#
# 1 82.7097 46.1544 48.2456 18.6050 -29.7297 15.4650
# 2 46.1544 125.7423 54.3478 17.7137 -1.7186 35.4838
# 3 48.2456 54.3478 101.0443 25.9865 -17.8628 11.9047
# 4 18.6050 17.7137 25.9865 36.6226 -1.0226 2.3295
# 5 -29.7297 -1.7186 -17.8628 -1.0226 40.4190 13.4229
# 6 15.4650 35.4838 11.9047 2.3295 13.4229 46.2174
#
#
#
# Elastic Compliance Matrix: (Units=1/GPa)
#
#
# Indices 1 2 3 4 5 6 
#
# 1 0.029302 -0.004104 -0.004025 -0.008632 0.023355 -0.011965
# 2 -0.004104 0.013594 -0.004685 -0.000768 -0.002141 -0.007196
# 3 -0.004025 -0.004685 0.017121 -0.007696 0.004323 -0.000334
# 4 -0.008632 -0.000768 -0.007696 0.036777 -0.011123 0.006837
# 5 0.023355 -0.002141 0.004323 -0.011123 0.050567 -0.021410
# 6 -0.011965 -0.007196 -0.000334 0.006837 -0.021410 0.037125
#
#
# Mechanical properties :
#
#
# Convention : Reuss Voigt Hill
#
# Bulk Modulus (GPa) = 29.07981 67.44353 48.26167
# Shear Modulus (GPa) = 22.56535 35.36837 28.96686
#
# Velocity S-wave (km/s) = 3.12092 3.90724 3.53600
# Velocity P-wave (km/s) = 5.05361 7.03326 6.12396
#
# Compressibility (1/GPa) = 0.03438812
#
# Stress axis : x y z
#
# Youngs Moduli (GPa) = 34.12712 73.56264 58.40676
#
# Poissons Ratio (x) = 0.30191 0.23510
# Poissons Ratio (y) = 0.14006 0.27365
# Poissons Ratio (z) = 0.13737 0.34466
#
# Static dielectric constant tensor:
#      x y z
#    x 4.251830 0.292420 -0.311370 
#    y 0.292420 4.642090 0.304760 
#    z -0.311370 0.304760 4.182920 
# 
# 
# High freq. dielectric constant tensor:
#      x y z
#    x 1.905240 0.010590 -0.030180 
#    y 0.010590 1.930300 0.013970 
#    z -0.030180 0.013970 1.901860 
# 
# From -- ./inp_files/402837.got.cif
#   From: 2010.06.25/outbox.cif.g09.slc.cpg/sg2_202_cif.got.tgz:402837.got - 2010.06.27 13:26:56.
