data_PCOD8041563
_publ_section_title
;
Structure prediction by ZEFSAII (Michael W. Deem and Ramdas Pophale) SiO2 
 PCOD8041563
Probable space group: P -1
;
_chemical_formula_sum "Si O2"
_cell_formula_units_Z 12
_cell_length_a 11.588104
_cell_length_b 8.999502
_cell_length_c 6.190936
_cell_angle_alpha 91.401753
_cell_angle_beta 106.862773
_cell_angle_gamma 83.974026
_cell_volume 614.448022
_symmetry_space_group_name_H-M "P -1"
_symmetry_group_IT_number 2
_symmetry_cell_setting 'triclinic'
loop_
_space_group_symop_operation_xyz
x,y,z
-x,-y,-z
loop_
_atom_site_type_symbol
_atom_site_label
_atom_site_fract_x
_atom_site_fract_y
_atom_site_fract_z
Si Si1 0.274124 0.810978 0.993802
Si Si2 0.097984 0.317347 0.232298
Si Si3 0.873824 0.353537 0.800510
Si Si4 0.326782 0.078365 0.338344
Si Si5 0.444522 0.910915 0.778267
Si Si6 0.063303 0.838915 0.569713
O O1 0.376670 0.781194 0.859059
O O2 0.150498 0.871219 0.813023
O O3 0.240941 0.664600 0.102613
O O4 0.311582 0.934155 0.182286
O O5 0.144638 0.479230 0.295842
O O6 0.212405 0.197948 0.249102
O O7 0.032827 0.274951 0.415192
O O8 0.005479 0.319946 0.981600
O O9 0.866151 0.232999 0.601898
O O10 0.447278 0.153673 0.325889
O O11 0.346771 0.023057 0.594808
O O12 0.500000 0.000000 0.000000
O O13 0.000000 0.000000 0.500000
#
# Coordination Sequence:
#
# PCOD8041563 Si02
#       6
#     2   2   2   2   2   2
#     4  10  19  33  54  78 103 136 173 215 261 303
#     4  10  21  35  52  78 109 143 171 206 263 312
#     4  10  21  35  51  77 114 141 168 210 256 314
#     4  10  19  35  57  78 104 134 176 221 258 305
#     4   9  19  34  55  80 102 131 175 225 263 297
#     4  11  20  32  54  79 104 138 177 215 255 305
#
# _framework density 19.529723000000001
#
# number of rings (size 3 to 8) (size 9 to 14) (size 15 to 20)
#    0.000    2.000    0.000    4.500    0.000    4.000 
#    0.000    0.833    0.000   14.000    0.000    0.000 
#    0.000    0.000    0.000    0.000    0.000    0.000 
#
# Total GULP energy -148696.387349 kJ/mol
# GULP energy per Si atom -12391.365612 kJ/mol
# Density = 1.948527 g / cm^3
# Si number density = 19.529723 Si / 1000 Ang^3
#
#
#
# Elastic Constant Matrix: (Units=GPa)
#
#
# Indices 1 2 3 4 5 6 
#
# 1 123.8056 33.4767 24.4663 -19.3287 -23.2259 25.7885
# 2 33.4767 57.6505 32.0726 -7.7617 -6.9699 21.6437
# 3 24.4663 32.0726 88.9430 -4.6649 -8.8218 11.3655
# 4 -19.3287 -7.7617 -4.6649 24.1158 6.6262 -6.3482
# 5 -23.2259 -6.9699 -8.8218 6.6262 34.5498 -10.0425
# 6 25.7885 21.6437 11.3655 -6.3482 -10.0425 30.6108
#
#
#
# Elastic Compliance Matrix: (Units=1/GPa)
#
#
# Indices 1 2 3 4 5 6 
#
# 1 0.011880 -0.003465 -0.000666 0.005788 0.004677 -0.004576
# 2 -0.003465 0.029515 -0.007911 0.001977 -0.003337 -0.015697
# 3 -0.000666 -0.007911 0.014278 -0.000522 0.002121 0.001441
# 4 0.005788 0.001977 -0.000522 0.048520 -0.004412 0.002535
# 5 0.004677 -0.003337 0.002121 -0.004412 0.035205 0.008267
# 6 -0.004576 -0.015697 0.001441 0.002535 0.008267 0.050325
#
#
# Mechanical properties :
#
#
# Convention : Reuss Voigt Hill
#
# Bulk Modulus (GPa) = 31.65761 50.04780 40.85270
# Shear Modulus (GPa) = 22.28770 29.88083 26.08427
#
# Velocity S-wave (km/s) = 3.38186 3.91579 3.65858
# Velocity P-wave (km/s) = 5.61199 6.79166 6.22981
#
# Compressibility (1/GPa) = 0.03158799
#
# Stress axis : x y z
#
# Youngs Moduli (GPa) = 84.17466 33.88077 70.03760
#
# Poissons Ratio (x) = 0.11740 0.04666
# Poissons Ratio (y) = 0.29167 0.55409
# Poissons Ratio (z) = 0.05608 0.26804
#
# Static dielectric constant tensor:
#      x y z
#    x 4.249690 0.404880 -0.255280 
#    y 0.404880 3.253390 -0.132850 
#    z -0.255280 -0.132850 3.805080 
# 
# 
# High freq. dielectric constant tensor:
#      x y z
#    x 1.775670 0.029100 -0.007450 
#    y 0.029100 1.716370 -0.008730 
#    z -0.007450 -0.008730 1.776010 
# 
# From -- ./inp_files/18423.got.cif
#   From: 2010.06.25/outbox.cif.g09.slc.cpg/sg2_10_cif.got.tgz:18423.got - 2010.06.27 13:26:56.
