data_PCOD8041204
_publ_section_title
;
Structure prediction by ZEFSAII (Michael W. Deem and Ramdas Pophale) SiO2 
 PCOD8041204
Probable space group: P -1
;
_chemical_formula_sum "Si O2"
_cell_formula_units_Z 12
_cell_length_a 9.006244
_cell_length_b 13.217073
_cell_length_c 10.197734
_cell_angle_alpha 137.481521
_cell_angle_beta 135.717984
_cell_angle_gamma 53.119377
_cell_volume 565.988830
_symmetry_space_group_name_H-M "P -1"
_symmetry_group_IT_number 2
_symmetry_cell_setting 'triclinic'
loop_
_space_group_symop_operation_xyz
x,y,z
-x,-y,-z
loop_
_atom_site_type_symbol
_atom_site_label
_atom_site_fract_x
_atom_site_fract_y
_atom_site_fract_z
Si Si1 0.613136 0.269952 0.746425
Si Si2 0.870820 0.988669 0.038708
Si Si3 0.138883 0.026727 0.489078
Si Si4 0.495071 0.209307 0.910238
Si Si5 0.704091 0.474220 0.341292
Si Si6 0.003675 0.351424 0.186435
O O1 0.678148 0.120203 0.557520
O O2 0.570327 0.214216 0.812089
O O3 0.403539 0.374212 0.658042
O O4 0.813564 0.368090 0.972890
O O5 0.987542 0.062882 0.301824
O O6 0.859140 0.814682 0.898207
O O7 0.631957 0.075204 0.951525
O O8 0.000000 0.000000 0.000000
O O9 0.251483 0.175464 0.728063
O O10 0.000000 0.000000 0.500000
O O11 0.522896 0.367457 0.153122
O O12 0.824767 0.528762 0.599350
O O13 0.889330 0.373849 0.277612
#
# Coordination Sequence:
#
# PCOD8041204 Si02
#       6
#     2   2   2   2   2   2
#     4  10  20  35  58  85 116 149 193 237 288 338
#     4  11  20  37  62  90 113 149 198 243 281 337
#     4  11  25  40  59  85 120 156 193 241 293 341
#     4  11  21  35  61  91 113 152 198 240 285 344
#     4  10  19  31  54  89 120 144 185 243 291 335
#     4   9  18  30  51  86 120 138 182 241 293 323
#
# _framework density 21.201832
#
# number of rings (size 3 to 8) (size 9 to 14) (size 15 to 20)
#    0.000    1.667    5.000    3.500    2.333    2.000 
#    0.000    0.833    0.000    5.000    0.000    0.000 
#    0.000    0.000    0.000    0.000    0.000    0.000 
#
# Total GULP energy -148695.588410 kJ/mol
# GULP energy per Si atom -12391.299034 kJ/mol
# Density = 2.115358 g / cm^3
# Si number density = 21.201832 Si / 1000 Ang^3
#
#
#
# Elastic Constant Matrix: (Units=GPa)
#
#
# Indices 1 2 3 4 5 6 
#
# 1 66.3157 19.3532 44.0827 0.7407 13.1091 13.6114
# 2 19.3532 64.2682 17.4088 -10.6074 9.4814 -13.9018
# 3 44.0827 17.4088 154.3426 9.4723 45.5525 17.5414
# 4 0.7407 -10.6074 9.4723 36.5350 7.8088 4.3935
# 5 13.1091 9.4814 45.5525 7.8088 25.6402 0.9734
# 6 13.6114 -13.9018 17.5414 4.3935 0.9734 18.3686
#
#
#
# Elastic Compliance Matrix: (Units=1/GPa)
#
#
# Indices 1 2 3 4 5 6 
#
# 1 0.026488 -0.012681 -0.001384 0.000664 -0.005542 -0.027768
# 2 -0.012681 0.028492 -0.003368 0.005673 -0.001045 0.032876
# 3 -0.001384 -0.003368 0.018074 0.003012 -0.030395 -0.017893
# 4 0.000664 0.005673 0.003012 0.032685 -0.017517 -0.005965
# 5 -0.005542 -0.001045 -0.030395 -0.017517 0.100371 0.031214
# 6 -0.027768 0.032876 -0.017893 -0.005965 0.031214 0.116759
#
#
# Mechanical properties :
#
#
# Convention : Reuss Voigt Hill
#
# Bulk Modulus (GPa) = 26.18616 49.62401 37.90509
# Shear Modulus (GPa) = 13.49658 29.71420 21.60539
#
# Velocity S-wave (km/s) = 2.52578 3.74771 3.19569
# Velocity P-wave (km/s) = 4.56988 6.49488 5.61548
#
# Compressibility (1/GPa) = 0.03818811
#
# Stress axis : x y z
#
# Youngs Moduli (GPa) = 37.75327 35.09709 55.32864
#
# Poissons Ratio (x) = 0.44506 0.07658
# Poissons Ratio (y) = 0.47874 0.18636
# Poissons Ratio (z) = 0.05225 0.11821
#
# Static dielectric constant tensor:
#      x y z
#    x 3.291540 -0.214810 0.390670 
#    y -0.214810 3.975080 0.158600 
#    z 0.390670 0.158600 4.546260 
# 
# 
# High freq. dielectric constant tensor:
#      x y z
#    x 1.765050 -0.023700 0.027490 
#    y -0.023700 1.821130 0.005670 
#    z 0.027490 0.005670 1.859350 
# 
# From -- ./inp_files/174247.got.cif
#   From: 2010.06.25/outbox.cif.g09.slc.cpg/sg2_88_cif.got.tgz:174247.got - 2010.06.27 13:26:56.
