data_PCOD8041877
_publ_section_title
;
Structure prediction by ZEFSAII (Michael W. Deem and Ramdas Pophale) SiO2 
 PCOD8041877
Probable space group: P -1
;
_chemical_formula_sum "Si O2"
_cell_formula_units_Z 12
_cell_length_a 5.186817
_cell_length_b 10.762238
_cell_length_c 14.575577
_cell_angle_alpha 66.706881
_cell_angle_beta 68.839560
_cell_angle_gamma 95.418520
_cell_volume 669.679934
_symmetry_space_group_name_H-M "P -1"
_symmetry_group_IT_number 2
_symmetry_cell_setting 'triclinic'
loop_
_space_group_symop_operation_xyz
x,y,z
-x,-y,-z
loop_
_atom_site_type_symbol
_atom_site_label
_atom_site_fract_x
_atom_site_fract_y
_atom_site_fract_z
Si Si1 0.518553 0.969235 0.289097
Si Si2 0.695417 0.817143 0.650761
Si Si3 0.589181 0.461033 0.140934
Si Si4 0.780897 0.375426 0.950009
Si Si5 0.102435 0.078228 0.594000
Si Si6 0.276789 0.947724 0.963433
O O1 0.729911 0.898253 0.337785
O O2 0.188100 0.872598 0.368457
O O3 0.549816 0.120062 0.290836
O O4 0.593501 0.987673 0.168130
O O5 0.624185 0.653894 0.733642
O O6 0.695797 0.828719 0.536811
O O7 0.005514 0.912467 0.622330
O O8 0.427127 0.581725 0.110189
O O9 0.896168 0.524169 0.131167
O O10 0.639019 0.385650 0.063228
O O11 0.802123 0.219624 0.977825
O O12 0.500000 0.000000 0.000000
O O13 0.000000 0.000000 0.000000
#
# Coordination Sequence:
#
# PCOD8041877 Si02
#       6
#     2   2   2   2   2   2
#     4  10  19  34  49  78 110 135 174 229 259 312
#     4   9  19  30  53  83 111 142 164 214 283 330
#     4  10  20  31  57  74 117 136 165 218 280 333
#     4  10  21  36  48  82 104 146 175 213 271 323
#     4   9  19  29  53  77 119 130 175 213 274 340
#     4  12  24  38  58  77 107 149 191 222 254 309
#
# _framework density 17.919007000000001
#
# number of rings (size 3 to 8) (size 9 to 14) (size 15 to 20)
#    1.000    1.000    1.667    2.500    2.333    1.333 
#    0.000    0.000    0.000    0.000    0.000   23.333 
#    0.000    0.000    0.000    0.000    0.000    0.000 
#
# Total GULP energy -148712.561032 kJ/mol
# GULP energy per Si atom -12392.713419 kJ/mol
# Density = 1.787822 g / cm^3
# Si number density = 17.919007 Si / 1000 Ang^3
#
#
#
# Elastic Constant Matrix: (Units=GPa)
#
#
# Indices 1 2 3 4 5 6 
#
# 1 130.2492 30.1337 52.8432 6.2594 13.5235 -6.2711
# 2 30.1337 68.5125 38.1557 -1.9724 -0.6620 -11.6430
# 3 52.8432 38.1557 141.0415 10.7947 2.5707 5.3507
# 4 6.2594 -1.9724 10.7947 26.7222 0.4550 2.3993
# 5 13.5235 -0.6620 2.5707 0.4550 23.5729 4.7352
# 6 -6.2711 -11.6430 5.3507 2.3993 4.7352 25.5058
#
#
#
# Elastic Compliance Matrix: (Units=1/GPa)
#
#
# Indices 1 2 3 4 5 6 
#
# 1 0.010402 -0.002324 -0.003167 -0.001533 -0.006358 0.003486
# 2 -0.002324 0.020208 -0.005212 0.003294 0.000530 0.009338
# 3 -0.003167 -0.005212 0.010107 -0.003280 0.001693 -0.005284
# 4 -0.001533 0.003294 -0.003280 0.039520 0.000986 -0.002086
# 5 -0.006358 0.000530 0.001693 0.000986 0.048027 -0.010686
# 6 0.003486 0.009338 -0.005284 -0.002086 -0.010686 0.047615
#
#
# Mechanical properties :
#
#
# Convention : Reuss Voigt Hill
#
# Bulk Modulus (GPa) = 51.78732 64.67425 58.23078
# Shear Modulus (GPa) = 24.54315 29.73822 27.14069
#
# Velocity S-wave (km/s) = 3.70492 4.07823 3.89605
# Velocity P-wave (km/s) = 6.87499 7.63851 7.26678
#
# Compressibility (1/GPa) = 0.01930975
#
# Stress axis : x y z
#
# Youngs Moduli (GPa) = 96.13492 49.48618 98.93668
#
# Poissons Ratio (x) = 0.11502 0.31338
# Poissons Ratio (y) = 0.22345 0.51565
# Poissons Ratio (z) = 0.30450 0.25792
#
# Static dielectric constant tensor:
#      x y z
#    x 3.365210 -0.083740 0.028340 
#    y -0.083740 3.065030 0.051100 
#    z 0.028340 0.051100 3.212450 
# 
# 
# High freq. dielectric constant tensor:
#      x y z
#    x 1.704830 -0.005710 0.001070 
#    y -0.005710 1.643240 0.004730 
#    z 0.001070 0.004730 1.694840 
# 
# From -- ./inp_files/48220.got.cif
#   From: 2010.06.25/outbox.cif.g09.slc.cpg/sg2_25_cif.got.tgz:48220.got - 2010.06.27 13:26:56.
