data_PCOD8041978
_publ_section_title
;
Structure prediction by ZEFSAII (Michael W. Deem and Ramdas Pophale) SiO2 
 PCOD8041978
Probable space group: P -1
;
_chemical_formula_sum "Si O2"
_cell_formula_units_Z 16
_cell_length_a 15.769896
_cell_length_b 7.485503
_cell_length_c 12.240956
_cell_angle_alpha 71.430365
_cell_angle_beta 55.942158
_cell_angle_gamma 34.836641
_cell_volume 652.700322
_symmetry_space_group_name_H-M "P -1"
_symmetry_group_IT_number 2
_symmetry_cell_setting 'triclinic'
loop_
_space_group_symop_operation_xyz
x,y,z
-x,-y,-z
loop_
_atom_site_type_symbol
_atom_site_label
_atom_site_fract_x
_atom_site_fract_y
_atom_site_fract_z
Si Si1 0.419843 0.328340 0.562704
Si Si2 0.687985 0.570282 0.836591
Si Si3 0.575214 0.148123 0.864620
Si Si4 0.770408 0.977448 0.434412
Si Si5 0.234141 0.520999 0.450295
Si Si6 0.033200 0.765862 0.148572
Si Si7 0.273599 0.516803 0.850793
Si Si8 0.879133 0.898166 0.597654
O O1 0.632812 0.022800 0.487697
O O2 0.329337 0.670322 0.563866
O O3 0.384370 0.270735 0.485353
O O4 0.339825 0.331669 0.723378
O O5 0.675385 0.597033 0.710630
O O6 0.881312 0.227566 0.817318
O O7 0.670681 0.804265 0.855126
O O8 0.530945 0.674334 0.977939
O O9 0.439222 0.373927 0.817059
O O10 0.730233 0.074775 0.762865
O O11 0.841422 0.822050 0.535273
O O12 0.944616 0.716482 0.280092
O O13 0.137050 0.863529 0.479283
O O14 0.085777 0.574645 0.553593
O O15 0.875186 0.103358 0.133133
O O16 0.188406 0.486949 0.999969
#
# Coordination Sequence:
#
# PCOD8041978 Si02
#       8
#     2   2   2   2   2   2   2   2
#     4   9  17  29  51  78 109 140 176 231 278 321
#     4  10  21  38  55  83 117 148 182 236 285 331
#     4  10  21  37  59  80 112 153 192 224 276 344
#     4   9  15  29  51  78 104 141 186 222 267 328
#     4  10  21  34  53  86 121 143 178 242 292 320
#     4   9  17  30  53  80 104 137 190 233 261 317
#     4   9  17  31  53  79 103 141 190 228 263 322
#     4  10  19  34  55  84 112 149 188 231 279 334
#
# _framework density 24.513546999999999
#
# number of rings (size 3 to 8) (size 9 to 14) (size 15 to 20)
#    0.000    2.500    2.500    0.000    3.500    1.000 
#    0.000    1.875    0.000    0.000    0.000    5.250 
#    0.000    0.000    0.000    0.000    0.000    0.000 
#
# Total GULP energy -198255.286914 kJ/mol
# GULP energy per Si atom -12390.955432 kJ/mol
# Density = 2.445775 g / cm^3
# Si number density = 24.513547 Si / 1000 Ang^3
#
#
#
# Elastic Constant Matrix: (Units=GPa)
#
#
# Indices 1 2 3 4 5 6 
#
# 1 127.0250 33.2527 92.3084 6.4365 -4.7298 -42.9664
# 2 33.2527 71.2057 17.4766 6.8029 -1.4002 -47.5577
# 3 92.3084 17.4766 254.2684 6.7213 -5.6167 -47.1136
# 4 6.4365 6.8029 6.7213 22.2281 -11.6139 -3.5173
# 5 -4.7298 -1.4002 -5.6167 -11.6139 45.5377 -0.8469
# 6 -42.9664 -47.5577 -47.1136 -3.5173 -0.8469 46.2687
#
#
#
# Elastic Compliance Matrix: (Units=1/GPa)
#
#
# Indices 1 2 3 4 5 6 
#
# 1 0.013470 0.003261 -0.002626 -0.001490 0.001039 0.013092
# 2 0.003261 0.059526 0.008371 -0.009131 0.002213 0.072083
# 3 -0.002626 0.008371 0.006765 -0.001434 0.000694 0.012958
# 4 -0.001490 -0.009131 -0.001434 0.054233 0.013073 -0.007867
# 5 0.001039 0.002213 0.000694 0.013073 0.025656 0.005410
# 6 0.013092 0.072083 0.012958 -0.007867 0.005410 0.120558
#
#
# Mechanical properties :
#
#
# Convention : Reuss Voigt Hill
#
# Bulk Modulus (GPa) = 10.22771 82.06383 46.14577
# Shear Modulus (GPa) = 16.96149 43.43766 30.19957
#
# Velocity S-wave (km/s) = 2.63330 4.21406 3.51373
# Velocity P-wave (km/s) = 3.66429 7.56488 5.94367
#
# Compressibility (1/GPa) = 0.09777355
#
# Stress axis : x y z
#
# Youngs Moduli (GPa) = 74.24124 16.79945 147.81820
#
# Poissons Ratio (x) = -0.05479 0.38816
# Poissons Ratio (y) = -0.24211 -1.23743
# Poissons Ratio (z) = 0.19495 -0.14063
#
# Static dielectric constant tensor:
#      x y z
#    x 4.188890 -0.454240 -0.167490 
#    y -0.454240 4.510900 0.027670 
#    z -0.167490 0.027670 5.070020 
# 
# 
# High freq. dielectric constant tensor:
#      x y z
#    x 1.934490 -0.034040 -0.008270 
#    y -0.034040 1.996820 0.000680 
#    z -0.008270 0.000680 1.990460 
# 
# From -- ./inp_files/397212.got.cif
#   From: 2010.06.25/outbox.cif.g09.slc.cpg/sg2_199_cif.got.tgz:397212.got - 2010.06.27 13:26:56.
