data_PCOD8041611
_publ_section_title
;
Structure prediction by ZEFSAII (Michael W. Deem and Ramdas Pophale) SiO2 
 PCOD8041611
Probable space group: P -1
;
_chemical_formula_sum "Si O2"
_cell_formula_units_Z 16
_cell_length_a 11.136287
_cell_length_b 18.115287
_cell_length_c 8.787716
_cell_angle_alpha 77.323997
_cell_angle_beta 114.276819
_cell_angle_gamma 48.277116
_cell_volume 831.122111
_symmetry_space_group_name_H-M "P -1"
_symmetry_group_IT_number 2
_symmetry_cell_setting 'triclinic'
loop_
_space_group_symop_operation_xyz
x,y,z
-x,-y,-z
loop_
_atom_site_type_symbol
_atom_site_label
_atom_site_fract_x
_atom_site_fract_y
_atom_site_fract_z
Si Si1 0.992330 0.349446 0.593665
Si Si2 0.706249 0.809235 0.457171
Si Si3 0.014410 0.263528 0.096944
Si Si4 0.444914 0.589459 0.300664
Si Si5 0.049964 0.403560 0.893470
Si Si6 0.848073 0.144033 0.788081
Si Si7 0.799226 0.897070 0.037705
Si Si8 0.604549 0.715455 0.628994
O O1 0.693500 0.491888 0.385658
O O2 0.076372 0.331227 0.475436
O O3 0.103219 0.356067 0.768056
O O4 0.108604 0.211071 0.750201
O O5 0.828679 0.812574 0.630439
O O6 0.565410 0.815119 0.481773
O O7 0.498484 0.947084 0.175466
O O8 0.152491 0.147073 0.093447
O O9 0.974219 0.368175 0.970437
O O10 0.743322 0.357975 0.941544
O O11 0.500000 0.500000 0.500000
O O12 0.318399 0.727685 0.235978
O O13 0.814024 0.573237 0.700227
O O14 0.297635 0.321662 0.130152
O O15 0.654097 0.204562 0.535732
O O16 0.049328 0.101469 0.835243
O O17 0.000000 0.000000 0.000000
#
# Coordination Sequence:
#
# PCOD8041611 Si02
#       8
#     2   2   2   2   2   2   2   2
#     4  11  21  35  57  78 109 146 177 230 278 324
#     4  11  22  34  51  85 115 136 177 228 282 323
#     4   9  19  34  58  79 103 140 189 228 261 313
#     4  11  18  36  59  80 105 146 189 224 266 324
#     4   9  18  34  54  79 101 141 181 222 265 321
#     4  11  19  33  58  84 106 136 189 232 261 316
#     4  10  20  36  57  78 105 150 182 222 269 324
#     4  10  19  33  55  79 107 136 181 224 265 325
#
# _framework density 19.251080000000002
#
# number of rings (size 3 to 8) (size 9 to 14) (size 15 to 20)
#    0.000    1.750    6.250    0.750    0.000    1.000 
#    0.000    0.000    0.000    0.750    0.000    0.000 
#    0.000    0.000    0.000    0.000    0.000    0.000 
#
# Total GULP energy -198332.835083 kJ/mol
# GULP energy per Si atom -12395.802193 kJ/mol
# Density = 1.920726 g / cm^3
# Si number density = 19.251080 Si / 1000 Ang^3
#
#
#
# Elastic Constant Matrix: (Units=GPa)
#
#
# Indices 1 2 3 4 5 6 
#
# 1 47.7091 30.2114 36.6318 13.8815 25.9878 5.0695
# 2 30.2114 66.0108 27.1651 0.6601 12.2795 8.2584
# 3 36.6318 27.1651 101.0072 4.6276 39.3300 10.3837
# 4 13.8815 0.6601 4.6276 39.1707 11.4703 0.1413
# 5 25.9878 12.2795 39.3300 11.4703 37.0056 0.7907
# 6 5.0695 8.2584 10.3837 0.1413 0.7907 34.3774
#
#
#
# Elastic Compliance Matrix: (Units=1/GPa)
#
#
# Indices 1 2 3 4 5 6 
#
# 1 0.049954 -0.016688 -0.004763 -0.010662 -0.021147 -0.001389
# 2 -0.016688 0.022965 -0.001963 0.004334 0.004897 -0.002593
# 3 -0.004763 -0.001963 0.019375 0.004708 -0.017963 -0.004284
# 4 -0.010662 0.004334 0.004708 0.031202 -0.008608 -0.000821
# 5 -0.021147 0.004897 -0.017963 -0.008608 0.061880 0.005980
# 6 -0.001389 -0.002593 -0.004284 -0.000821 0.005980 0.031077
#
#
# Mechanical properties :
#
#
# Convention : Reuss Voigt Hill
#
# Bulk Modulus (GPa) = 21.99499 44.74929 33.37214
# Shear Modulus (GPa) = 17.95747 30.15865 24.05806
#
# Velocity S-wave (km/s) = 3.05750 3.96232 3.53894
# Velocity P-wave (km/s) = 4.89025 6.65048 5.83709
#
# Compressibility (1/GPa) = 0.04546490
#
# Stress axis : x y z
#
# Youngs Moduli (GPa) = 20.01848 43.54517 51.61348
#
# Poissons Ratio (x) = 0.72670 0.24584
# Poissons Ratio (y) = 0.33407 0.10130
# Poissons Ratio (z) = 0.09535 0.08547
#
# Static dielectric constant tensor:
#      x y z
#    x 3.463920 0.257350 0.375200 
#    y 0.257350 3.549800 0.025860 
#    z 0.375200 0.025860 3.723320 
# 
# 
# High freq. dielectric constant tensor:
#      x y z
#    x 1.724310 0.027020 0.024770 
#    y 0.027020 1.740730 -0.010850 
#    z 0.024770 -0.010850 1.755160 
# 
# From -- ./inp_files/252667.got.cif
#   From: 2010.06.25/outbox.cif.g09.slc.cpg/sg2_127_cif.got.tgz:252667.got - 2010.06.27 13:26:56.
