data_PCOD8041920
_publ_section_title
;
Structure prediction by ZEFSAII (Michael W. Deem and Ramdas Pophale) SiO2 
 PCOD8041920
Probable space group: P -1
;
_chemical_formula_sum "Si O2"
_cell_formula_units_Z 16
_cell_length_a 7.866241
_cell_length_b 14.146337
_cell_length_c 11.701947
_cell_angle_alpha 142.048378
_cell_angle_beta 81.324507
_cell_angle_gamma 86.816124
_cell_volume 758.365875
_symmetry_space_group_name_H-M "P -1"
_symmetry_group_IT_number 2
_symmetry_cell_setting 'triclinic'
loop_
_space_group_symop_operation_xyz
x,y,z
-x,-y,-z
loop_
_atom_site_type_symbol
_atom_site_label
_atom_site_fract_x
_atom_site_fract_y
_atom_site_fract_z
Si Si1 0.374589 0.305002 0.164156
Si Si2 0.487035 0.244460 0.428209
Si Si3 0.406448 0.668977 0.032635
Si Si4 0.814265 0.432125 0.219728
Si Si5 0.367266 0.693891 0.310006
Si Si6 0.273424 0.782847 0.815772
Si Si7 0.777624 0.860829 0.796007
Si Si8 0.908553 0.393268 0.600027
O O1 0.534527 0.305836 0.233096
O O2 0.272940 0.184879 0.114705
O O3 0.246000 0.487147 0.345905
O O4 0.462821 0.251189 0.978232
O O5 0.361849 0.424206 0.597679
O O6 0.536062 0.205663 0.520193
O O7 0.682938 0.228458 0.334761
O O8 0.385445 0.126892 0.266635
O O9 0.351879 0.763727 0.248788
O O10 0.225858 0.670305 0.981511
O O11 0.511800 0.487623 0.876452
O O12 0.858810 0.316065 0.217503
O O13 0.982660 0.499105 0.242393
O O14 0.170667 0.698631 0.382249
O O15 0.190059 0.966643 0.037626
O O16 0.961668 0.734293 0.618614
#
# Coordination Sequence:
#
# PCOD8041920 Si02
#       8
#     2   2   2   2   2   2   2   2
#     4   9  17  32  54  75 101 135 171 211 252 302
#     4   9  17  31  52  76 101 139 176 208 254 309
#     4   8  16  31  52  76 100 133 176 216 251 296
#     4   9  18  31  51  76 104 137 172 211 259 308
#     4   9  17  31  51  76 105 133 172 217 253 299
#     4  10  19  34  54  75 105 141 175 209 251 313
#     4  10  20  34  53  79 110 135 166 214 266 310
#     4  10  20  32  50  80 111 135 165 213 264 307
#
# _framework density 21.097998
#
# number of rings (size 3 to 8) (size 9 to 14) (size 15 to 20)
#    0.000    2.750    0.000    3.000    0.000    6.500 
#    0.000    5.000    0.000    9.750    0.000    3.500 
#    0.000    3.000    0.000    0.000    0.000    0.000 
#
# Total GULP energy -198232.797394 kJ/mol
# GULP energy per Si atom -12389.549837 kJ/mol
# Density = 2.104998 g / cm^3
# Si number density = 21.097998 Si / 1000 Ang^3
#
#
#
# Elastic Constant Matrix: (Units=GPa)
#
#
# Indices 1 2 3 4 5 6 
#
# 1 62.7999 28.2610 32.8532 -6.6751 -14.7072 6.9869
# 2 28.2610 67.7694 50.6730 -26.9163 -1.9592 5.7989
# 3 32.8532 50.6730 75.5633 -21.4548 5.6268 -1.0734
# 4 -6.6751 -26.9163 -21.4548 37.3827 0.4151 0.9666
# 5 -14.7072 -1.9592 5.6268 0.4151 22.2779 -3.2758
# 6 6.9869 5.7989 -1.0734 0.9666 -3.2758 22.3237
#
#
#
# Elastic Compliance Matrix: (Units=1/GPa)
#
#
# Indices 1 2 3 4 5 6 
#
# 1 0.030068 -0.002348 -0.014629 -0.004813 0.022548 -0.005987
# 2 -0.002348 0.038679 -0.021046 0.015556 0.005376 -0.010209
# 3 -0.014629 -0.021046 0.036114 0.002948 -0.019390 0.008809
# 4 -0.004813 0.015556 0.002948 0.038948 -0.003965 -0.004661
# 5 0.022548 0.005376 -0.019390 -0.003965 0.065270 0.000364
# 6 -0.005987 -0.010209 0.008809 -0.004661 0.000364 0.050000
#
#
# Mechanical properties :
#
#
# Convention : Reuss Voigt Hill
#
# Bulk Modulus (GPa) = 34.70375 47.74520 41.22447
# Shear Modulus (GPa) = 14.50402 22.68657 18.59529
#
# Velocity S-wave (km/s) = 2.62479 3.28273 2.97202
# Velocity P-wave (km/s) = 5.06661 6.08668 5.59992
#
# Compressibility (1/GPa) = 0.02881533
#
# Stress axis : x y z
#
# Youngs Moduli (GPa) = 33.25753 25.85367 27.68995
#
# Poissons Ratio (x) = 0.06070 0.40508
# Poissons Ratio (y) = 0.07808 0.58277
# Poissons Ratio (z) = 0.48653 0.54412
#
# Static dielectric constant tensor:
#      x y z
#    x 3.987110 0.032930 0.045760 
#    y 0.032930 4.055980 -0.492750 
#    z 0.045760 -0.492750 3.788490 
# 
# 
# High freq. dielectric constant tensor:
#      x y z
#    x 1.823170 0.001320 -0.000490 
#    y 0.001320 1.803490 -0.014620 
#    z -0.000490 -0.014620 1.803070 
# 
# From -- ./inp_files/223401.got.cif
#   From: 2010.06.25/outbox.cif.g09.slc.cpg/sg2_112_cif.got.tgz:223401.got - 2010.06.27 13:26:56.
