data_PCOD8041568
_publ_section_title
;
Structure prediction by ZEFSAII (Michael W. Deem and Ramdas Pophale) SiO2 
 PCOD8041568
Probable space group: P -1
;
_chemical_formula_sum "Si O2"
_cell_formula_units_Z 14
_cell_length_a 13.510798
_cell_length_b 11.395722
_cell_length_c 11.161467
_cell_angle_alpha 82.971777
_cell_angle_beta 115.348766
_cell_angle_gamma 150.577757
_cell_volume 629.796282
_symmetry_space_group_name_H-M "P -1"
_symmetry_group_IT_number 2
_symmetry_cell_setting 'triclinic'
loop_
_space_group_symop_operation_xyz
x,y,z
-x,-y,-z
loop_
_atom_site_type_symbol
_atom_site_label
_atom_site_fract_x
_atom_site_fract_y
_atom_site_fract_z
Si Si1 0.815236 0.730032 0.587433
Si Si2 0.383044 0.617570 0.044949
Si Si3 0.280459 0.133446 0.600613
Si Si4 0.646522 0.889661 0.591222
Si Si5 0.870317 0.282450 0.827223
Si Si6 0.714257 0.128186 0.031062
Si Si7 0.994586 0.944663 0.136672
O O1 0.631622 0.660735 0.454508
O O2 0.653850 0.448817 0.555507
O O3 0.019503 0.902419 0.567554
O O4 0.983057 0.929937 0.768551
O O5 0.471715 0.665602 0.217321
O O6 0.282467 0.403067 0.946220
O O7 0.136206 0.463925 0.954809
O O8 0.641909 0.926853 0.070100
O O9 0.202678 0.960498 0.478630
O O10 0.675779 0.047166 0.648163
O O11 0.764036 0.910879 0.743554
O O12 0.692065 0.106830 0.877530
O O13 0.983905 0.526572 0.825352
O O14 0.500000 0.000000 0.000000
O O15 0.000000 0.000000 0.000000
#
# Coordination Sequence:
#
# PCOD8041568 Si02
#       7
#     2   2   2   2   2   2   2
#     4  10  21  35  52  75 114 153 179 217 264 311
#     4  10  20  34  57  82 108 141 184 227 265 316
#     4  10  21  35  51  78 112 147 184 217 260 318
#     4  10  20  35  53  75 109 146 177 217 270 322
#     4   9  20  37  60  82 105 138 177 227 279 320
#     4   9  19  37  59  84 107 131 175 230 279 324
#     4  10  19  33  54  80 109 145 186 224 263 313
#
# _framework density 22.229409
#
# number of rings (size 3 to 8) (size 9 to 14) (size 15 to 20)
#    0.000    2.286    0.000    3.429    0.000    9.714 
#    0.000    0.714    0.000    8.571    0.000    0.000 
#    0.000    0.000    0.000    0.000    0.000    0.000 
#
# Total GULP energy -173452.075069 kJ/mol
# GULP energy per Si atom -12389.433934 kJ/mol
# Density = 2.217881 g / cm^3
# Si number density = 22.229409 Si / 1000 Ang^3
#
#
#
# Elastic Constant Matrix: (Units=GPa)
#
#
# Indices 1 2 3 4 5 6 
#
# 1 73.2557 52.4548 43.1426 10.4345 -49.3597 1.6876
# 2 52.4548 160.3778 67.0960 9.3422 -43.2489 -10.4118
# 3 43.1426 67.0960 117.0909 5.9738 -43.0164 -11.9865
# 4 10.4345 9.3422 5.9738 30.8887 -10.3887 -16.8146
# 5 -49.3597 -43.2489 -43.0164 -10.3887 54.2070 1.6987
# 6 1.6876 -10.4118 -11.9865 -16.8146 1.6987 27.7718
#
#
#
# Elastic Compliance Matrix: (Units=1/GPa)
#
#
# Indices 1 2 3 4 5 6 
#
# 1 0.039139 -0.004339 -0.001821 -0.007749 0.029602 -0.011293
# 2 -0.004339 0.009413 -0.003055 0.001420 0.001305 0.003254
# 3 -0.001821 -0.003055 0.014606 0.006162 0.008410 0.008486
# 4 -0.007749 0.001420 0.006162 0.056662 0.008653 0.037440
# 5 0.029602 0.001305 0.008410 0.008653 0.054644 0.004217
# 6 -0.011293 0.003254 0.008486 0.037440 0.004217 0.063986
#
#
# Mechanical properties :
#
#
# Convention : Reuss Voigt Hill
#
# Bulk Modulus (GPa) = 22.35662 75.12345 48.74003
# Shear Modulus (GPa) = 18.39662 35.10893 26.75277
#
# Velocity S-wave (km/s) = 2.87989 3.97847 3.47289
# Velocity P-wave (km/s) = 4.59754 7.41433 6.16886
#
# Compressibility (1/GPa) = 0.04472949
#
# Stress axis : x y z
#
# Youngs Moduli (GPa) = 25.54965 106.23640 68.46557
#
# Poissons Ratio (x) = 0.46093 0.12465
# Poissons Ratio (y) = 0.11085 0.20917
# Poissons Ratio (z) = 0.04651 0.32457
#
# Static dielectric constant tensor:
#      x y z
#    x 4.000480 -0.274780 -0.414400 
#    y -0.274780 4.511650 0.130480 
#    z -0.414400 0.130480 3.973280 
# 
# 
# High freq. dielectric constant tensor:
#      x y z
#    x 1.862300 0.003130 -0.029560 
#    y 0.003130 1.880990 0.006020 
#    z -0.029560 0.006020 1.859720 
# 
# From -- ./inp_files/415888.got.cif
#   From: 2010.06.25/outbox.cif.g09.slc.cpg/sg2_208_cif.got.tgz:415888.got - 2010.06.27 13:26:56.
