data_PCOD8041664
_publ_section_title
;
Structure prediction by ZEFSAII (Michael W. Deem and Ramdas Pophale) SiO2 
 PCOD8041664
Probable space group: P -1
;
_chemical_formula_sum "Si O2"
_cell_formula_units_Z 14
_cell_length_a 9.296980
_cell_length_b 9.753585
_cell_length_c 22.855347
_cell_angle_alpha 45.705417
_cell_angle_beta 136.325450
_cell_angle_gamma 149.693344
_cell_volume 705.781683
_symmetry_space_group_name_H-M "P -1"
_symmetry_group_IT_number 2
_symmetry_cell_setting 'triclinic'
loop_
_space_group_symop_operation_xyz
x,y,z
-x,-y,-z
loop_
_atom_site_type_symbol
_atom_site_label
_atom_site_fract_x
_atom_site_fract_y
_atom_site_fract_z
Si Si1 0.753854 0.124895 0.893242
Si Si2 0.396901 0.684732 0.767682
Si Si3 0.120943 0.713296 0.786409
Si Si4 0.912663 0.005411 0.629576
Si Si5 0.871613 0.214877 0.671673
Si Si6 0.729786 0.721318 0.950123
Si Si7 0.247600 0.557006 0.517762
O O1 0.842385 0.394134 0.817481
O O2 0.388853 0.880508 0.865033
O O3 0.841343 0.015356 0.905545
O O4 0.969139 0.213019 0.985885
O O5 0.238901 0.720479 0.756667
O O6 0.560631 0.615247 0.869678
O O7 0.175020 0.437686 0.730941
O O8 0.619600 0.965646 0.713687
O O9 0.996759 0.841429 0.705791
O O10 0.574096 0.805248 0.567334
O O11 0.940859 0.115276 0.669187
O O12 0.145397 0.265867 0.575309
O O13 0.760917 0.351130 0.576101
O O14 0.500000 0.500000 0.000000
O O15 0.000000 0.500000 0.500000
#
# Coordination Sequence:
#
# PCOD8041664 Si02
#       7
#     2   2   2   2   2   2   2
#     4  10  19  33  56  84 114 148 195 238 264 338
#     4  11  22  35  58  90 118 143 187 254 288 322
#     4  11  22  37  57  89 119 151 192 232 293 346
#     4  11  22  40  64  83 113 160 197 226 283 361
#     4  11  22  38  59  87 116 145 195 248 285 323
#     4  10  19  34  59  86 114 152 201 227 278 343
#     4  10  20  39  63  84 109 156 204 231 269 351
#
# _framework density 19.836162999999999
#
# number of rings (size 3 to 8) (size 9 to 14) (size 15 to 20)
#    0.000    1.429    2.857    6.857    2.000    0.000 
#    0.000    4.286    0.000    5.143    0.000    0.000 
#    0.000    0.000    0.000    0.000    0.000    0.000 
#
# Total GULP energy -173481.105053 kJ/mol
# GULP energy per Si atom -12391.507504 kJ/mol
# Density = 1.979101 g / cm^3
# Si number density = 19.836163 Si / 1000 Ang^3
#
#
#
# Elastic Constant Matrix: (Units=GPa)
#
#
# Indices 1 2 3 4 5 6 
#
# 1 216.4647 121.6303 43.9902 104.6135 519.6148 -321.7778
# 2 121.6303 209.5899 73.2282 64.6926 287.2084 -178.7132
# 3 43.9902 73.2282 147.6033 19.5008 50.9475 -43.7912
# 4 104.6135 64.6926 19.5008 109.6311 284.8557 -170.8835
# 5 519.6148 287.2084 50.9475 284.8557 1502.9928 -908.6118
# 6 -321.7778 -178.7132 -43.7912 -170.8835 -908.6118 571.2984
#
#
#
# Elastic Compliance Matrix: (Units=1/GPa)
#
#
# Indices 1 2 3 4 5 6 
#
# 1 0.034017 -0.002817 -0.003936 -0.002748 -0.005116 0.009017
# 2 -0.002817 0.008144 -0.003070 -0.000627 -0.000887 -0.000873
# 3 -0.003936 -0.003070 0.009257 -0.000719 0.003843 0.003429
# 4 -0.002748 -0.000627 -0.000719 0.018580 -0.004024 -0.002641
# 5 -0.005116 -0.000887 0.003843 -0.004024 0.020158 0.027992
# 6 0.009017 -0.000873 0.003429 -0.002641 0.027992 0.050549
#
#
# Mechanical properties :
#
#
# Convention : Reuss Voigt Hill
#
# Bulk Modulus (GPa) = 31.47643 116.81728 74.14685
# Shear Modulus (GPa) = 29.24981 459.10507 244.17744
#
# Velocity S-wave (km/s) = 3.84418 15.22994 11.10695
# Velocity P-wave (km/s) = 5.96710 19.19080 14.21079
#
# Compressibility (1/GPa) = 0.03176980
#
# Stress axis : x y z
#
# Youngs Moduli (GPa) = 29.39749 122.79519 108.02411
#
# Poissons Ratio (x) = 0.34596 0.42518
# Poissons Ratio (y) = 0.08282 0.33169
# Poissons Ratio (z) = 0.11571 0.37704
#
# Static dielectric constant tensor:
#      x y z
#    x 3.105070 0.127510 0.027120 
#    y 0.127510 4.141180 -0.054400 
#    z 0.027120 -0.054400 4.332250 
# 
# 
# High freq. dielectric constant tensor:
#      x y z
#    x 1.707310 0.012600 0.011240 
#    y 0.012600 1.806110 -0.000180 
#    z 0.011240 -0.000180 1.795800 
# 
# From -- ./inp_files/89794.got.cif
#   From: 2010.06.25/outbox.cif.g09.slc.cpg/sg2_45_cif.got.tgz:89794.got - 2010.06.27 13:26:56.
