data_PCOD8041054
_publ_section_title
;
Structure prediction by ZEFSAII (Michael W. Deem and Ramdas Pophale) SiO2 
 PCOD8041054
Probable space group: P -1
;
_chemical_formula_sum "Si O2"
_cell_formula_units_Z 16
_cell_length_a 7.762704
_cell_length_b 14.178020
_cell_length_c 12.021135
_cell_angle_alpha 66.253451
_cell_angle_beta 73.796052
_cell_angle_gamma 44.068198
_cell_volume 842.177808
_symmetry_space_group_name_H-M "P -1"
_symmetry_group_IT_number 2
_symmetry_cell_setting 'triclinic'
loop_
_space_group_symop_operation_xyz
x,y,z
-x,-y,-z
loop_
_atom_site_type_symbol
_atom_site_label
_atom_site_fract_x
_atom_site_fract_y
_atom_site_fract_z
Si Si1 0.894176 0.119266 0.736711
Si Si2 0.214993 0.610211 0.779283
Si Si3 0.564005 0.291109 0.916822
Si Si4 0.179753 0.792832 0.533472
Si Si5 0.613647 0.978547 0.310534
Si Si6 0.631860 0.080330 0.487345
Si Si7 0.688393 0.738110 0.859434
Si Si8 0.248874 0.790156 0.846535
O O1 0.693219 0.188363 0.836150
O O2 0.759405 0.212422 0.604708
O O3 0.101409 0.122839 0.730061
O O4 0.033730 0.955215 0.769186
O O5 0.454612 0.444963 0.830134
O O6 0.233567 0.655728 0.632145
O O7 0.210775 0.699484 0.831701
O O8 0.973436 0.632906 0.822197
O O9 0.344737 0.300262 0.993670
O O10 0.768417 0.225140 0.009637
O O11 0.351314 0.802302 0.571024
O O12 0.894534 0.927573 0.546160
O O13 0.555354 0.883339 0.397814
O O14 0.547883 0.073145 0.386857
O O15 0.432093 0.098708 0.192743
O O16 0.523667 0.732100 0.806493
#
# Coordination Sequence:
#
# PCOD8041054 Si02
#       8
#     2   2   2   2   2   2   2   2
#     4  10  20  38  55  82 113 151 176 227 291 324
#     4  12  20  38  59  87 108 148 189 229 278 326
#     4  10  23  38  56  77 120 152 180 221 280 340
#     4  10  19  29  56  81 113 136 182 234 273 333
#     4   9  16  29  56  78 112 137 183 232 280 319
#     4   9  16  30  49  87 106 136 183 239 273 309
#     4   9  20  34  57  84 107 144 186 234 270 320
#     4   9  21  37  61  80 107 145 190 238 262 320
#
# _framework density 18.998363000000001
#
# number of rings (size 3 to 8) (size 9 to 14) (size 15 to 20)
#    0.750    1.500    1.250    4.125    0.000    0.500 
#    0.000    1.875    0.000    0.750    0.000    0.000 
#    0.000    0.000    0.000    0.000    0.000    0.000 
#
# Total GULP energy -198213.598674 kJ/mol
# GULP energy per Si atom -12388.349917 kJ/mol
# Density = 1.895512 g / cm^3
# Si number density = 18.998363 Si / 1000 Ang^3
#
#
#
# Elastic Constant Matrix: (Units=GPa)
#
#
# Indices 1 2 3 4 5 6 
#
# 1 60.6413 20.2544 19.0054 -0.5361 -9.1128 3.8450
# 2 20.2544 55.3788 34.0577 -8.7002 -6.2174 5.2231
# 3 19.0054 34.0577 109.8287 -19.2309 -6.7124 0.9424
# 4 -0.5361 -8.7002 -19.2309 23.8705 5.6554 -0.4356
# 5 -9.1128 -6.2174 -6.7124 5.6554 29.5271 -3.2923
# 6 3.8450 5.2231 0.9424 -0.4356 -3.2923 11.4073
#
#
#
# Elastic Compliance Matrix: (Units=1/GPa)
#
#
# Indices 1 2 3 4 5 6 
#
# 1 0.020018 -0.005950 -0.002104 -0.004658 0.005053 -0.002569
# 2 -0.005950 0.025478 -0.006069 0.004008 0.000389 -0.008893
# 3 -0.002104 -0.006069 0.012732 0.008115 -0.000290 0.002662
# 4 -0.004658 0.004008 0.008115 0.051856 -0.008849 -0.001509
# 5 0.005053 0.000389 -0.000290 -0.008849 0.038119 0.008806
# 6 -0.002569 -0.008893 0.002662 -0.001509 0.008806 0.094865
#
#
# Mechanical properties :
#
#
# Convention : Reuss Voigt Hill
#
# Bulk Modulus (GPa) = 33.35300 41.38708 37.37004
# Shear Modulus (GPa) = 17.77414 23.12974 20.45194
#
# Velocity S-wave (km/s) = 3.06201 3.49300 3.28458
# Velocity P-wave (km/s) = 5.48590 6.17251 5.83930
#
# Compressibility (1/GPa) = 0.02998231
#
# Stress axis : x y z
#
# Youngs Moduli (GPa) = 49.95504 39.24901 78.54525
#
# Poissons Ratio (x) = 0.23353 0.16524
# Poissons Ratio (y) = 0.29723 0.47671
# Poissons Ratio (z) = 0.10509 0.23821
#
# Static dielectric constant tensor:
#      x y z
#    x 3.493100 -0.052730 -0.209580 
#    y -0.052730 2.941470 -0.288380 
#    z -0.209580 -0.288380 3.706840 
# 
# 
# High freq. dielectric constant tensor:
#      x y z
#    x 1.727990 -0.006270 -0.014880 
#    y -0.006270 1.680040 -0.029700 
#    z -0.014880 -0.029700 1.754190 
# 
# From -- ./inp_files/395733.got.cif
#   From: 2010.06.25/outbox.cif.g09.slc.cpg/sg2_198_cif.got.tgz:395733.got - 2010.06.27 13:26:56.
