data_PCOD8041455
_publ_section_title
;
Structure prediction by ZEFSAII (Michael W. Deem and Ramdas Pophale) SiO2 
 PCOD8041455
Probable space group: P -1
;
_chemical_formula_sum "Si O2"
_cell_formula_units_Z 16
_cell_length_a 11.308789
_cell_length_b 9.180966
_cell_length_c 8.812529
_cell_angle_alpha 57.246161
_cell_angle_beta 104.615566
_cell_angle_gamma 104.014489
_cell_volume 738.287687
_symmetry_space_group_name_H-M "P -1"
_symmetry_group_IT_number 2
_symmetry_cell_setting 'triclinic'
loop_
_space_group_symop_operation_xyz
x,y,z
-x,-y,-z
loop_
_atom_site_type_symbol
_atom_site_label
_atom_site_fract_x
_atom_site_fract_y
_atom_site_fract_z
Si Si1 0.186105 0.314039 0.175376
Si Si2 0.387701 0.621439 0.038726
Si Si3 0.278346 0.945903 0.876433
Si Si4 0.785329 0.220699 0.510174
Si Si5 0.142491 0.017367 0.082689
Si Si6 0.439017 0.643433 0.697306
Si Si7 0.357032 0.107577 0.517969
Si Si8 0.048461 0.820516 0.668556
O O1 0.255750 0.500394 0.041820
O O2 0.263765 0.244787 0.374609
O O3 0.052193 0.319303 0.202909
O O4 0.176933 0.187335 0.099284
O O5 0.490377 0.525553 0.214694
O O6 0.361944 0.792026 0.028529
O O7 0.439551 0.679806 0.857197
O O8 0.155343 0.863053 0.799826
O O9 0.358096 0.084564 0.713922
O O10 0.237476 0.039624 0.960893
O O11 0.833095 0.158107 0.721209
O O12 0.700727 0.379765 0.405524
O O13 0.904188 0.273360 0.412044
O O14 0.692193 0.073427 0.477452
O O15 0.000000 0.000000 0.000000
O O16 0.509036 0.815840 0.542224
O O17 0.000000 0.000000 0.500000
#
# Coordination Sequence:
#
# PCOD8041455 Si02
#       8
#     2   2   2   2   2   2   2   2
#     4  10  20  36  60  88 117 151 185 237 293 339
#     4  10  22  36  61  89 116 146 192 248 280 337
#     4  11  20  35  58  91 113 148 194 236 290 333
#     4  10  19  32  59  87 110 153 192 234 278 341
#     4  11  21  36  58  86 123 149 187 239 286 341
#     4  10  19  38  60  83 115 149 201 236 282 329
#     4   9  18  33  63  85 109 150 199 237 270 339
#     4  11  16  33  57  86 111 145 196 236 270 338
#
# _framework density 21.671771
#
# number of rings (size 3 to 8) (size 9 to 14) (size 15 to 20)
#    0.000    1.750    7.500    0.375    0.000    0.500 
#    0.000    1.250    5.500    1.500    0.000    0.000 
#    0.000    0.000    0.000    0.000    0.000    0.000 
#
# Total GULP energy -198294.967566 kJ/mol
# GULP energy per Si atom -12393.435473 kJ/mol
# Density = 2.162244 g / cm^3
# Si number density = 21.671771 Si / 1000 Ang^3
#
#
#
# Elastic Constant Matrix: (Units=GPa)
#
#
# Indices 1 2 3 4 5 6 
#
# 1 136.2381 29.4595 65.2651 -4.5591 -17.3572 -26.0849
# 2 29.4595 46.2089 40.1530 -3.3538 -11.0185 -14.2827
# 3 65.2651 40.1530 121.3375 7.1608 -15.0910 -15.8960
# 4 -4.5591 -3.3538 7.1608 18.4199 -4.9312 0.6108
# 5 -17.3572 -11.0185 -15.0910 -4.9312 56.5392 -2.2499
# 6 -26.0849 -14.2827 -15.8960 0.6108 -2.2499 20.2197
#
#
#
# Elastic Compliance Matrix: (Units=1/GPa)
#
#
# Indices 1 2 3 4 5 6 
#
# 1 0.013110 0.002741 -0.005949 0.006683 0.004128 0.014429
# 2 0.002741 0.039821 -0.011485 0.013676 0.007647 0.023074
# 3 -0.005949 -0.011485 0.015208 -0.009620 -0.000990 -0.003651
# 4 0.006683 0.013676 -0.009620 0.064025 0.008119 0.009689
# 5 0.004128 0.007647 -0.000990 0.008119 0.021369 0.012082
# 6 0.014429 0.023074 -0.003651 0.009689 0.012082 0.082551
#
#
# Mechanical properties :
#
#
# Convention : Reuss Voigt Hill
#
# Bulk Modulus (GPa) = 25.80476 63.72662 44.76569
# Shear Modulus (GPa) = 17.96049 30.29622 24.12835
#
# Velocity S-wave (km/s) = 2.88193 3.74298 3.34032
# Velocity P-wave (km/s) = 4.79655 6.93896 5.96473
#
# Compressibility (1/GPa) = 0.03875255
#
# Stress axis : x y z
#
# Youngs Moduli (GPa) = 76.28048 25.11221 65.75311
#
# Poissons Ratio (x) = -0.06883 0.39117
# Poissons Ratio (y) = -0.20908 0.75518
# Poissons Ratio (z) = 0.45380 0.28842
#
# Static dielectric constant tensor:
#      x y z
#    x 4.391350 -0.338980 -0.080650 
#    y -0.338980 3.423070 -0.201810 
#    z -0.080650 -0.201810 4.221550 
# 
# 
# High freq. dielectric constant tensor:
#      x y z
#    x 1.873750 -0.027910 -0.004710 
#    y -0.027910 1.786370 -0.011460 
#    z -0.004710 -0.011460 1.860530 
# 
# From -- ./inp_files/204403.got.cif
#   From: 2010.06.25/outbox.cif.g09.slc.cpg/sg2_103_cif.got.tgz:204403.got - 2010.06.27 13:26:56.
