data_PCOD8041808
_publ_section_title
;
Structure prediction by ZEFSAII (Michael W. Deem and Ramdas Pophale) SiO2 
 PCOD8041808
Probable space group: P -1
;
_chemical_formula_sum "Si O2"
_cell_formula_units_Z 12
_cell_length_a 16.829332
_cell_length_b 11.881582
_cell_length_c 9.851252
_cell_angle_alpha 123.230281
_cell_angle_beta 57.676067
_cell_angle_gamma 158.333522
_cell_volume 606.282297
_symmetry_space_group_name_H-M "P -1"
_symmetry_group_IT_number 2
_symmetry_cell_setting 'triclinic'
loop_
_space_group_symop_operation_xyz
x,y,z
-x,-y,-z
loop_
_atom_site_type_symbol
_atom_site_label
_atom_site_fract_x
_atom_site_fract_y
_atom_site_fract_z
Si Si1 0.407195 0.317478 0.828085
Si Si2 0.195843 0.335054 0.363329
Si Si3 0.004513 0.196538 0.706725
Si Si4 0.461309 0.344823 0.311940
Si Si5 0.667231 0.334825 0.075645
Si Si6 0.944039 0.774895 0.870797
O O1 0.550346 0.373691 0.691048
O O2 0.412503 0.439848 0.791325
O O3 0.500000 0.500000 0.000000
O O4 0.154446 0.953445 0.831311
O O5 0.164387 0.384482 0.557512
O O6 0.118523 0.318255 0.291657
O O7 0.054784 0.018449 0.303782
O O8 0.131245 0.448364 0.869167
O O9 0.791745 0.997207 0.716183
O O10 0.500000 0.500000 0.500000
O O11 0.556650 0.321198 0.241507
O O12 0.745658 0.467422 0.939315
O O13 0.500000 0.000000 0.000000
O O14 0.000000 0.000000 0.000000
#
# Coordination Sequence:
#
# PCOD8041808 Si02
#       6
#     2   2   2   2   2   2
#     4  11  18  29  55  87 112 140 193 245 285 329
#     4  10  19  33  59  90 113 143 201 251 286 334
#     4  10  20  36  58  87 120 152 194 247 293 346
#     4  11  21  36  63  90 114 153 201 242 290 351
#     4  12  25  40  57  88 126 158 192 244 301 351
#     4  12  19  35  58  85 116 153 200 243 286 346
#
# _framework density 19.792760999999999
#
# number of rings (size 3 to 8) (size 9 to 14) (size 15 to 20)
#    0.000    1.000    5.000    5.000    0.000    0.667 
#    0.000    0.833    0.000    7.000    0.000    0.000 
#    0.000    0.000    0.000    0.000    0.000    0.000 
#
# Total GULP energy -148797.779407 kJ/mol
# GULP energy per Si atom -12399.814951 kJ/mol
# Density = 1.974771 g / cm^3
# Si number density = 19.792761 Si / 1000 Ang^3
#
#
#
# Elastic Constant Matrix: (Units=GPa)
#
#
# Indices 1 2 3 4 5 6 
#
# 1 80.0332 48.3067 39.6647 -1.4601 12.6035 22.7624
# 2 48.3067 112.1648 47.6328 -5.7022 3.4710 10.0568
# 3 39.6647 47.6328 98.1681 -12.8098 18.7868 -1.9636
# 4 -1.4601 -5.7022 -12.8098 35.1245 6.1195 0.3950
# 5 12.6035 3.4710 18.7868 6.1195 35.5264 -4.1173
# 6 22.7624 10.0568 -1.9636 0.3950 -4.1173 36.3992
#
#
#
# Elastic Compliance Matrix: (Units=1/GPa)
#
#
# Indices 1 2 3 4 5 6 
#
# 1 0.024548 -0.006616 -0.005876 -0.000902 -0.006487 -0.014564
# 2 -0.006616 0.013551 -0.004633 -0.000399 0.003606 0.000556
# 3 -0.005876 -0.004633 0.017088 0.006402 -0.007021 0.005013
# 4 -0.000902 -0.000399 0.006402 0.032206 -0.008609 -0.000303
# 5 -0.006487 0.003606 -0.007021 -0.008609 0.036088 0.006857
# 6 -0.014564 0.000556 0.005013 -0.000303 0.006857 0.037476
#
#
# Mechanical properties :
#
#
# Convention : Reuss Voigt Hill
#
# Bulk Modulus (GPa) = 47.76309 62.39718 55.08013
# Shear Modulus (GPa) = 24.72989 31.72751 28.22870
#
# Velocity S-wave (km/s) = 3.53858 4.00807 3.78062
# Velocity P-wave (km/s) = 6.39370 7.28102 6.85174
#
# Compressibility (1/GPa) = 0.02093667
#
# Stress axis : x y z
#
# Youngs Moduli (GPa) = 40.73728 73.79776 58.52069
#
# Poissons Ratio (x) = 0.48826 0.34385
# Poissons Ratio (y) = 0.26952 0.27112
# Poissons Ratio (z) = 0.23936 0.34189
#
# Static dielectric constant tensor:
#      x y z
#    x 3.658960 0.440770 0.202540 
#    y 0.440770 3.541410 -0.392980 
#    z 0.202540 -0.392980 3.685430 
# 
# 
# High freq. dielectric constant tensor:
#      x y z
#    x 1.758280 0.043740 0.028070 
#    y 0.043740 1.748930 -0.033440 
#    z 0.028070 -0.033440 1.774710 
# 
# From -- ./inp_files/188800.got.cif
#   From: 2010.06.25/outbox.cif.g09.slc.cpg/sg2_95_cif.got.tgz:188800.got - 2010.06.27 13:26:56.
