data_PCOD8041625
_publ_section_title
;
Structure prediction by ZEFSAII (Michael W. Deem and Ramdas Pophale) SiO2 
 PCOD8041625
Probable space group: P -1
;
_chemical_formula_sum "Si O2"
_cell_formula_units_Z 16
_cell_length_a 9.121545
_cell_length_b 11.898686
_cell_length_c 10.922596
_cell_angle_alpha 78.641013
_cell_angle_beta 55.634761
_cell_angle_gamma 52.150336
_cell_volume 752.122906
_symmetry_space_group_name_H-M "P -1"
_symmetry_group_IT_number 2
_symmetry_cell_setting 'triclinic'
loop_
_space_group_symop_operation_xyz
x,y,z
-x,-y,-z
loop_
_atom_site_type_symbol
_atom_site_label
_atom_site_fract_x
_atom_site_fract_y
_atom_site_fract_z
Si Si1 0.186251 0.012892 0.956943
Si Si2 0.435491 0.043113 0.382805
Si Si3 0.551627 0.743288 0.977821
Si Si4 0.417074 0.439839 0.782692
Si Si5 0.093563 0.295536 0.014823
Si Si6 0.102201 0.350531 0.556157
Si Si7 0.366778 0.487794 0.171499
Si Si8 0.599755 0.741830 0.335643
O O1 0.360647 0.973121 0.775731
O O2 0.324609 0.906380 0.028859
O O3 0.058776 0.175336 0.032456
O O4 0.000000 0.000000 0.000000
O O5 0.205282 0.211386 0.445876
O O6 0.500000 0.000000 0.500000
O O7 0.416403 0.919302 0.367384
O O8 0.614011 0.655501 0.837545
O O9 0.497085 0.671918 0.121399
O O10 0.753447 0.745805 0.927043
O O11 0.525885 0.521473 0.743320
O O12 0.504479 0.340856 0.638179
O O13 0.147884 0.552405 0.880395
O O14 0.198057 0.315481 0.843119
O O15 0.302354 0.308790 0.562692
O O16 0.000000 0.500000 0.500000
O O17 0.899993 0.373929 0.725767
O O18 0.500000 0.500000 0.000000
#
# Coordination Sequence:
#
# PCOD8041625 Si02
#       8
#     2   2   2   2   2   2   2   2
#     4  11  22  36  57  87 117 144 186 247 288 322
#     4   9  21  37  55  77 109 154 189 217 277 349
#     4  10  19  33  55  86 115 144 186 235 288 340
#     4  10  19  33  56  85 112 145 189 239 283 329
#     4  10  19  33  55  84 117 151 184 230 288 343
#     4  11  21  36  58  82 111 150 192 232 277 339
#     4  10  20  34  57  86 110 139 186 239 282 327
#     4   9  18  36  55  75 110 153 189 223 277 349
#
# _framework density 21.273118
#
# number of rings (size 3 to 8) (size 9 to 14) (size 15 to 20)
#    0.000    2.000    0.000    5.625    0.000    5.000 
#    0.000    1.250    0.000   10.500    0.000    0.000 
#    0.000    0.000    0.000    0.000    0.000    0.000 
#
# Total GULP energy -198221.681490 kJ/mol
# GULP energy per Si atom -12388.855093 kJ/mol
# Density = 2.122470 g / cm^3
# Si number density = 21.273118 Si / 1000 Ang^3
#
#
#
# Elastic Constant Matrix: (Units=GPa)
#
#
# Indices 1 2 3 4 5 6 
#
# 1 116.4777 31.1534 20.3337 -3.7743 26.8183 19.4637
# 2 31.1534 132.6151 39.6320 10.1210 17.3953 2.8219
# 3 20.3337 39.6320 62.1113 17.6214 0.3117 6.4824
# 4 -3.7743 10.1210 17.6214 27.3364 5.5507 12.4567
# 5 26.8183 17.3953 0.3117 5.5507 24.9348 7.1779
# 6 19.4637 2.8219 6.4824 12.4567 7.1779 41.2854
#
#
#
# Elastic Compliance Matrix: (Units=1/GPa)
#
#
# Indices 1 2 3 4 5 6 
#
# 1 0.016050 0.000318 -0.008830 0.014971 -0.018550 -0.007494
# 2 0.000318 0.010663 -0.007612 0.002216 -0.008504 0.001126
# 3 -0.008830 -0.007612 0.029936 -0.023167 0.018509 0.003755
# 4 0.014971 0.002216 -0.023167 0.066900 -0.026752 -0.019106
# 5 -0.018550 -0.008504 0.018509 -0.026752 0.071098 0.002130
# 6 -0.007494 0.001126 0.003755 -0.019106 0.002130 0.032482
#
#
# Mechanical properties :
#
#
# Convention : Reuss Voigt Hill
#
# Bulk Modulus (GPa) = 40.97966 54.82691 47.90329
# Shear Modulus (GPa) = 18.69091 33.38365 26.03728
#
# Velocity S-wave (km/s) = 2.96736 3.96572 3.50230
# Velocity P-wave (km/s) = 5.57187 6.84091 6.23874
#
# Compressibility (1/GPa) = 0.02440235
#
# Stress axis : x y z
#
# Youngs Moduli (GPa) = 62.30542 93.78320 33.40503
#
# Poissons Ratio (x) = -0.02987 0.29496
# Poissons Ratio (y) = -0.01984 0.25427
# Poissons Ratio (z) = 0.55015 0.71385
#
# Static dielectric constant tensor:
#      x y z
#    x 5.322570 1.134350 -0.240890 
#    y 1.134350 4.747290 0.051270 
#    z -0.240890 0.051270 4.167260 
# 
# 
# High freq. dielectric constant tensor:
#      x y z
#    x 1.831780 0.017590 0.021170 
#    y 0.017590 1.845600 0.018080 
#    z 0.021170 0.018080 1.801480 
# 
# From -- ./inp_files/201426.got.cif
#   From: 2010.06.25/outbox.cif.g09.slc.cpg/sg2_101_cif.got.tgz:201426.got - 2010.06.27 13:26:56.
