data_PCOD8041324
_publ_section_title
;
Structure prediction by ZEFSAII (Michael W. Deem and Ramdas Pophale) SiO2 
 PCOD8041324
Probable space group: P -1
;
_chemical_formula_sum "Si O2"
_cell_formula_units_Z 16
_cell_length_a 12.546545
_cell_length_b 9.181920
_cell_length_c 14.766912
_cell_angle_alpha 69.704385
_cell_angle_beta 95.898300
_cell_angle_gamma 147.813332
_cell_volume 785.501736
_symmetry_space_group_name_H-M "P -1"
_symmetry_group_IT_number 2
_symmetry_cell_setting 'triclinic'
loop_
_space_group_symop_operation_xyz
x,y,z
-x,-y,-z
loop_
_atom_site_type_symbol
_atom_site_label
_atom_site_fract_x
_atom_site_fract_y
_atom_site_fract_z
Si Si1 0.804148 0.846958 0.123959
Si Si2 0.387474 0.122869 0.524097
Si Si3 0.199879 0.824592 0.396425
Si Si4 0.955461 0.780089 0.760221
Si Si5 0.687310 0.727874 0.772359
Si Si6 0.210582 0.222042 0.525872
Si Si7 0.970155 0.488988 0.727697
Si Si8 0.077855 0.900605 0.111898
O O1 0.562941 0.550807 0.205658
O O2 0.866785 0.745704 0.134348
O O3 0.964419 0.127128 0.149830
O O4 0.822560 0.968676 0.007660
O O5 0.325404 0.226013 0.481781
O O6 0.625933 0.423554 0.526460
O O7 0.395648 0.055739 0.437573
O O8 0.210535 0.817048 0.637663
O O9 0.213271 0.753222 0.316088
O O10 0.000000 0.500000 0.500000
O O11 0.168131 0.966586 0.337809
O O12 0.746895 0.630055 0.765042
O O13 0.888550 0.525224 0.776241
O O14 0.150135 0.091925 0.649451
O O15 0.739551 0.809807 0.865565
O O16 0.000000 0.000000 0.500000
O O17 0.989319 0.359748 0.817377
#
# Coordination Sequence:
#
# PCOD8041324 Si02
#       8
#     2   2   2   2   2   2   2   2
#     4  10  20  37  60  80 103 143 190 229 274 332
#     4   9  18  33  54  79 110 149 185 221 272 323
#     4   9  17  33  56  79 112 151 185 225 268 319
#     4  10  21  34  53  82 113 145 180 223 277 330
#     4  10  19  35  58  80 109 146 186 226 273 332
#     4  10  19  32  53  81 112 145 184 225 266 324
#     4   9  19  36  55  82 118 146 181 233 280 326
#     4   9  20  38  58  81 107 138 183 238 280 319
#
# _framework density 20.369147000000002
#
# number of rings (size 3 to 8) (size 9 to 14) (size 15 to 20)
#    0.000    2.500    0.000    1.875    0.000    2.500 
#    0.000   10.625    0.000   19.500    0.000    0.000 
#    0.000    0.000    0.000    0.000    0.000    0.000 
#
# Total GULP energy -198281.504832 kJ/mol
# GULP energy per Si atom -12392.594052 kJ/mol
# Density = 2.032279 g / cm^3
# Si number density = 20.369147 Si / 1000 Ang^3
#
#
#
# Elastic Constant Matrix: (Units=GPa)
#
#
# Indices 1 2 3 4 5 6 
#
# 1 109.0681 53.7703 43.2580 -5.1324 3.7672 -15.3561
# 2 53.7703 123.8867 41.3672 5.0662 4.8015 -5.8243
# 3 43.2580 41.3672 99.3256 9.6709 10.5387 -16.3873
# 4 -5.1324 5.0662 9.6709 27.3376 -2.9459 -2.8768
# 5 3.7672 4.8015 10.5387 -2.9459 26.6523 -1.8940
# 6 -15.3561 -5.8243 -16.3873 -2.8768 -1.8940 35.3413
#
#
#
# Elastic Compliance Matrix: (Units=1/GPa)
#
#
# Indices 1 2 3 4 5 6 
#
# 1 0.013903 -0.004756 -0.004121 0.005508 0.001405 0.003870
# 2 -0.004756 0.011011 -0.002485 -0.002301 -0.000699 -0.001629
# 3 -0.004121 -0.002485 0.014622 -0.005631 -0.005100 0.003848
# 4 0.005508 -0.002301 -0.005631 0.041072 0.006623 0.003102
# 5 0.001405 -0.000699 -0.005100 0.006623 0.040255 0.000827
# 6 0.003870 -0.001629 0.003848 0.003102 0.000827 0.031790
#
#
# Mechanical properties :
#
#
# Convention : Reuss Voigt Hill
#
# Bulk Modulus (GPa) = 59.48326 67.67460 63.57893
# Shear Modulus (GPa) = 27.62721 30.79189 29.20955
#
# Velocity S-wave (km/s) = 3.68683 3.89227 3.79094
# Velocity P-wave (km/s) = 6.88401 7.31409 7.10231
#
# Compressibility (1/GPa) = 0.01681145
#
# Stress axis : x y z
#
# Youngs Moduli (GPa) = 71.92475 90.82237 68.39044
#
# Poissons Ratio (x) = 0.43196 0.28185
# Poissons Ratio (y) = 0.34208 0.16994
# Poissons Ratio (z) = 0.29642 0.22568
#
# Static dielectric constant tensor:
#      x y z
#    x 3.583870 -0.230020 -0.001520 
#    y -0.230020 3.862080 0.253830 
#    z -0.001520 0.253830 3.726320 
# 
# 
# High freq. dielectric constant tensor:
#      x y z
#    x 1.775700 -0.012440 0.003830 
#    y -0.012440 1.794020 0.020090 
#    z 0.003830 0.020090 1.794250 
# 
# From -- ./inp_files/313178.got.cif
#   From: 2010.06.25/outbox.cif.g09.slc.cpg/sg2_157_cif.got.tgz:313178.got - 2010.06.27 13:26:56.
