data_PCOD8041553
_publ_section_title
;
Structure prediction by ZEFSAII (Michael W. Deem and Ramdas Pophale) SiO2 
 PCOD8041553
Probable space group: P -1
;
_chemical_formula_sum "Si O2"
_cell_formula_units_Z 12
_cell_length_a 22.701723
_cell_length_b 8.637025
_cell_length_c 12.690058
_cell_angle_alpha 132.439978
_cell_angle_beta 156.662247
_cell_angle_gamma 35.702899
_cell_volume 547.601969
_symmetry_space_group_name_H-M "P -1"
_symmetry_group_IT_number 2
_symmetry_cell_setting 'triclinic'
loop_
_space_group_symop_operation_xyz
x,y,z
-x,-y,-z
loop_
_atom_site_type_symbol
_atom_site_label
_atom_site_fract_x
_atom_site_fract_y
_atom_site_fract_z
Si Si1 0.323425 0.759113 0.630185
Si Si2 0.900649 0.740868 0.362850
Si Si3 0.241677 0.701912 0.930519
Si Si4 0.323771 0.407981 0.149767
Si Si5 0.743095 0.099543 0.644427
Si Si6 0.012089 0.245514 0.923840
O O1 0.249692 0.952727 0.492452
O O2 0.200893 0.660463 0.401117
O O3 0.279738 0.960456 0.744983
O O4 0.554199 0.480021 0.882266
O O5 0.000000 0.500000 0.500000
O O6 0.069566 0.744621 0.598695
O O7 0.800753 0.692332 0.083423
O O8 0.271902 0.539052 0.009475
O O9 0.170235 0.997723 0.987686
O O10 0.558910 0.152465 0.421826
O O11 0.271822 0.632055 0.253042
O O12 0.932233 0.846449 0.903875
O O13 0.000000 0.500000 0.000000
#
# Coordination Sequence:
#
# PCOD8041553 Si02
#       6
#     2   2   2   2   2   2
#     4  10  19  33  54  76 100 131 168 208 246 293
#     4   9  17  29  48  78 107 129 158 205 256 296
#     4   8  17  31  47  71 100 129 166 202 241 294
#     4   8  15  29  50  76 106 130 156 207 257 290
#     4   9  17  31  51  78 102 126 166 209 247 292
#     4  10  20  33  50  74 104 134 164 206 255 296
#
# _framework density 21.913726
#
# number of rings (size 3 to 8) (size 9 to 14) (size 15 to 20)
#    0.000    3.000    0.000    2.500    0.000    6.667 
#    0.000    0.000    0.000    4.000    0.000   49.000 
#    0.000    0.000    0.000    0.000    0.000    0.000 
#
# Total GULP energy -148685.830333 kJ/mol
# GULP energy per Si atom -12390.485861 kJ/mol
# Density = 2.186385 g / cm^3
# Si number density = 21.913726 Si / 1000 Ang^3
#
#
#
# Elastic Constant Matrix: (Units=GPa)
#
#
# Indices 1 2 3 4 5 6 
#
# 1 29.7265 22.1821 21.1859 -7.3434 18.8514 -9.5405
# 2 22.1821 103.1312 57.1132 4.5970 27.4207 -9.1242
# 3 21.1859 57.1132 133.9945 14.5801 29.3167 -17.2994
# 4 -7.3434 4.5970 14.5801 28.7490 -11.1319 9.5326
# 5 18.8514 27.4207 29.3167 -11.1319 26.2288 -4.7584
# 6 -9.5405 -9.1242 -17.2994 9.5326 -4.7584 17.4648
#
#
#
# Elastic Compliance Matrix: (Units=1/GPa)
#
#
# Indices 1 2 3 4 5 6 
#
# 1 0.091697 0.005216 0.022027 -0.054469 -0.105371 0.075655
# 2 0.005216 0.017867 0.003378 -0.021872 -0.032090 0.018725
# 3 0.022027 0.003378 0.029620 -0.053222 -0.065184 0.054426
# 4 -0.054469 -0.021872 -0.053222 0.160469 0.164830 -0.136577
# 5 -0.105371 -0.032090 -0.065184 0.164830 0.261634 -0.157575
# 6 0.075655 0.018725 0.054426 -0.136577 -0.157575 0.193893
#
#
# Mechanical properties :
#
#
# Convention : Reuss Voigt Hill
#
# Bulk Modulus (GPa) = 4.98937 51.97939 28.48438
# Shear Modulus (GPa) = 6.57248 25.57994 16.07621
#
# Velocity S-wave (km/s) = 1.73371 3.42029 2.71147
# Velocity P-wave (km/s) = 2.50788 6.27450 4.77801
#
# Compressibility (1/GPa) = 0.20042615
#
# Stress axis : x y z
#
# Youngs Moduli (GPa) = 10.90554 55.96780 33.76084
#
# Poissons Ratio (x) = -0.29196 -0.74364
# Poissons Ratio (y) = -0.05689 -0.11404
# Poissons Ratio (z) = -0.24021 -0.18905
#
# Static dielectric constant tensor:
#      x y z
#    x 3.397700 -0.361540 0.281460 
#    y -0.361540 3.893460 0.338270 
#    z 0.281460 0.338270 4.927850 
# 
# 
# High freq. dielectric constant tensor:
#      x y z
#    x 1.804160 -0.032050 0.022240 
#    y -0.032050 1.841000 0.012650 
#    z 0.022240 0.012650 1.881090 
# 
# From -- ./inp_files/198438.got.cif
#   From: 2010.06.25/outbox.cif.g09.slc.cpg/sg2_100_cif.got.tgz:198438.got - 2010.06.27 13:26:56.
