data_PCOD8041449
_publ_section_title
;
Structure prediction by ZEFSAII (Michael W. Deem and Ramdas Pophale) SiO2 
 PCOD8041449
Probable space group: P -1
;
_chemical_formula_sum "Si O2"
_cell_formula_units_Z 14
_cell_length_a 9.362460
_cell_length_b 13.266017
_cell_length_c 16.990070
_cell_angle_alpha 144.158324
_cell_angle_beta 32.145851
_cell_angle_gamma 123.309028
_cell_volume 590.257709
_symmetry_space_group_name_H-M "P -1"
_symmetry_group_IT_number 2
_symmetry_cell_setting 'triclinic'
loop_
_space_group_symop_operation_xyz
x,y,z
-x,-y,-z
loop_
_atom_site_type_symbol
_atom_site_label
_atom_site_fract_x
_atom_site_fract_y
_atom_site_fract_z
Si Si1 0.178017 0.626779 0.993585
Si Si2 0.999597 0.345545 0.289819
Si Si3 0.146639 0.658320 0.469092
Si Si4 0.603394 0.918694 0.189886
Si Si5 0.436892 0.313613 0.454966
Si Si6 0.817043 0.285683 0.130424
Si Si7 0.728737 0.028823 0.472743
O O1 0.508713 0.501221 0.790104
O O2 0.197451 0.711887 0.953728
O O3 0.984378 0.824414 0.255031
O O4 0.000000 0.500000 0.000000
O O5 0.976629 0.560245 0.436064
O O6 0.012325 0.277880 0.331554
O O7 0.709083 0.344525 0.386617
O O8 0.302643 0.208767 0.013805
O O9 0.121026 0.848003 0.558537
O O10 0.428390 0.862145 0.303594
O O11 0.398546 0.140258 0.402995
O O12 0.901932 0.899601 0.083730
O O13 0.523507 0.275952 0.298424
O O14 0.152190 0.519155 0.731874
O O15 0.500000 0.000000 0.500000
#
# Coordination Sequence:
#
# PCOD8041449 Si02
#       7
#     2   2   2   2   2   2   2
#     4  12  22  38  62  90 125 156 206 253 298 361
#     4  10  22  41  64  85 131 164 191 257 307 356
#     4  11  24  43  60  91 127 161 203 248 307 364
#     4  11  22  39  63  93 120 159 205 255 298 356
#     4  10  20  36  61  91 120 150 204 252 301 353
#     4  10  19  32  58  91 115 153 198 248 303 342
#     4  12  23  38  64  92 118 162 206 247 306 359
#
# _framework density 23.718453
#
# number of rings (size 3 to 8) (size 9 to 14) (size 15 to 20)
#    0.000    1.143    4.286    3.429    2.000    0.571 
#    0.000    9.286    0.000    0.000    0.000    0.000 
#    0.000    0.000    0.000    0.000    0.000    0.000 
#
# Total GULP energy -173438.098222 kJ/mol
# GULP energy per Si atom -12388.435587 kJ/mol
# Density = 2.366447 g / cm^3
# Si number density = 23.718453 Si / 1000 Ang^3
#
#
#
# Elastic Constant Matrix: (Units=GPa)
#
#
# Indices 1 2 3 4 5 6 
#
# 1 41.8643 24.2916 15.3958 -10.1085 14.1449 1.7084
# 2 24.2916 151.0570 32.8376 3.3137 23.8726 -3.7505
# 3 15.3958 32.8376 110.2410 -7.6712 16.8220 -13.7017
# 4 -10.1085 3.3137 -7.6712 45.8337 -17.1683 2.4982
# 5 14.1449 23.8726 16.8220 -17.1683 32.1903 3.1562
# 6 1.7084 -3.7505 -13.7017 2.4982 3.1562 27.6844
#
#
#
# Elastic Compliance Matrix: (Units=1/GPa)
#
#
# Indices 1 2 3 4 5 6 
#
# 1 0.030179 -0.003406 -0.002196 0.004015 -0.007156 -0.002957
# 2 -0.003406 0.008615 -0.001108 -0.004193 -0.006744 0.001976
# 3 -0.002196 -0.001108 0.011197 -0.000770 -0.005081 0.006176
# 4 0.004015 -0.004193 -0.000770 0.030093 0.018387 -0.006009
# 5 -0.007156 -0.006744 -0.005081 0.018387 0.052717 -0.010656
# 6 -0.002957 0.001976 0.006176 -0.006009 -0.010656 0.041385
#
#
# Mechanical properties :
#
#
# Convention : Reuss Voigt Hill
#
# Bulk Modulus (GPa) = 27.34413 49.80137 38.57275
# Shear Modulus (GPa) = 25.02537 36.51749 30.77143
#
# Velocity S-wave (km/s) = 3.25176 3.92806 3.60580
# Velocity P-wave (km/s) = 5.06480 6.45100 5.79946
#
# Compressibility (1/GPa) = 0.03657092
#
# Stress axis : x y z
#
# Youngs Moduli (GPa) = 33.13577 116.07094 89.30925
#
# Poissons Ratio (x) = 0.39537 0.19615
# Poissons Ratio (y) = 0.11287 0.09892
# Poissons Ratio (z) = 0.07277 0.12857
#
# Static dielectric constant tensor:
#      x y z
#    x 4.007890 -0.268010 0.196380 
#    y -0.268010 4.340390 -0.118990 
#    z 0.196380 -0.118990 4.931180 
# 
# 
# High freq. dielectric constant tensor:
#      x y z
#    x 1.897170 -0.030800 0.008710 
#    y -0.030800 1.943100 -0.002800 
#    z 0.008710 -0.002800 1.954680 
# 
# From -- ./inp_files/568852.got.cif
#   From: 2010.06.25/outbox.cif.g09.slc.cpg/sg2_285_cif.got.tgz:568852.got - 2010.06.27 13:26:56.
