data_PCOD8041562
_publ_section_title
;
Structure prediction by ZEFSAII (Michael W. Deem and Ramdas Pophale) SiO2 
 PCOD8041562
Probable space group: P -1
;
_chemical_formula_sum "Si O2"
_cell_formula_units_Z 12
_cell_length_a 16.955495
_cell_length_b 10.667937
_cell_length_c 8.571682
_cell_angle_alpha 136.734625
_cell_angle_beta 47.596153
_cell_angle_gamma 144.735169
_cell_volume 600.921172
_symmetry_space_group_name_H-M "P -1"
_symmetry_group_IT_number 2
_symmetry_cell_setting 'triclinic'
loop_
_space_group_symop_operation_xyz
x,y,z
-x,-y,-z
loop_
_atom_site_type_symbol
_atom_site_label
_atom_site_fract_x
_atom_site_fract_y
_atom_site_fract_z
Si Si1 0.154853 0.988672 0.396958
Si Si2 0.547358 0.576089 0.681186
Si Si3 0.886663 0.399081 0.691214
Si Si4 0.398844 0.742538 0.080341
Si Si5 0.615577 0.265910 0.279819
Si Si6 0.915148 0.672326 0.188998
O O1 0.155526 0.847384 0.411508
O O2 0.044529 0.797821 0.244677
O O3 0.306393 0.152518 0.264245
O O4 0.118886 0.154237 0.653737
O O5 0.500000 0.500000 0.500000
O O6 0.565227 0.391139 0.555769
O O7 0.433142 0.568870 0.925375
O O8 0.751369 0.348931 0.748770
O O9 0.000000 0.500000 0.500000
O O10 0.951124 0.601645 0.920598
O O11 0.521833 0.998101 0.226959
O O12 0.408938 0.751712 0.888481
O O13 0.782073 0.429543 0.231563
#
# Coordination Sequence:
#
# PCOD8041562 Si02
#       6
#     2   2   2   2   2   2
#     4  10  19  33  54  77  99 127 165 208 250 288
#     4   9  15  26  48  74  95 117 156 210 250 277
#     4  11  22  33  48  73 105 137 164 195 243 301
#     4   9  16  27  43  68  96 123 158 198 240 284
#     4   8  14  26  47  71  92 116 156 207 246 275
#     4   9  19  34  53  76  99 127 166 208 247 288
#
# _framework density 19.969342000000001
#
# number of rings (size 3 to 8) (size 9 to 14) (size 15 to 20)
#    0.000    2.667    0.000    5.500    0.000    0.667 
#    0.000    0.000    0.000    4.000    0.000   10.500 
#    0.000    0.000    0.000    0.000    0.000    0.000 
#
# Total GULP energy -148673.395189 kJ/mol
# GULP energy per Si atom -12389.449599 kJ/mol
# Density = 1.992389 g / cm^3
# Si number density = 19.969342 Si / 1000 Ang^3
#
#
#
# Elastic Constant Matrix: (Units=GPa)
#
#
# Indices 1 2 3 4 5 6 
#
# 1 45.3419 30.2729 34.0603 -5.4743 -19.8120 21.7757
# 2 30.2729 98.9829 58.1616 9.4745 -9.6377 33.7376
# 3 34.0603 58.1616 116.9842 -10.0512 -30.5816 8.1324
# 4 -5.4743 9.4745 -10.0512 27.1312 10.1925 0.0413
# 5 -19.8120 -9.6377 -30.5816 10.1925 26.1048 0.5849
# 6 21.7757 33.7376 8.1324 0.0413 0.5849 34.2702
#
#
#
# Elastic Compliance Matrix: (Units=1/GPa)
#
#
# Indices 1 2 3 4 5 6 
#
# 1 0.066090 0.004992 -0.006487 -0.009154 0.049011 -0.046195
# 2 0.004992 0.027705 -0.013337 -0.015462 0.005043 -0.027350
# 3 -0.006487 -0.013337 0.019378 0.006779 0.009928 0.012476
# 4 -0.009154 -0.015462 0.006779 0.052535 -0.025670 0.019804
# 5 0.049011 0.005043 0.009928 -0.025670 0.099918 -0.040137
# 6 -0.046195 -0.027350 0.012476 0.019804 -0.040137 0.083158
#
#
# Mechanical properties :
#
#
# Convention : Reuss Voigt Hill
#
# Bulk Modulus (GPa) = 11.97454 56.25539 34.11496
# Shear Modulus (GPa) = 12.30663 26.75552 19.53107
#
# Velocity S-wave (km/s) = 2.48518 3.66434 3.13078
# Velocity P-wave (km/s) = 3.77417 6.79229 5.49452
#
# Compressibility (1/GPa) = 0.08351054
#
# Stress axis : x y z
#
# Youngs Moduli (GPa) = 15.13082 36.09408 51.60457
#
# Poissons Ratio (x) = -0.18020 0.33478
# Poissons Ratio (y) = -0.07554 0.68824
# Poissons Ratio (z) = 0.09816 0.48138
#
# Static dielectric constant tensor:
#      x y z
#    x 3.512110 0.346160 -0.637690 
#    y 0.346160 3.738400 0.442730 
#    z -0.637690 0.442730 3.868260 
# 
# 
# High freq. dielectric constant tensor:
#      x y z
#    x 1.743490 0.038780 -0.050710 
#    y 0.038780 1.772000 0.035550 
#    z -0.050710 0.035550 1.774780 
# 
# From -- ./inp_files/184948.got.cif
#   From: 2010.06.25/outbox.cif.g09.slc.cpg/sg2_93_cif.got.tgz:184948.got - 2010.06.27 13:26:56.
