data_PCOD8041238
_publ_section_title
;
Structure prediction by ZEFSAII (Michael W. Deem and Ramdas Pophale) SiO2 
 PCOD8041238
Probable space group: P -1
;
_chemical_formula_sum "Si O2"
_cell_formula_units_Z 16
_cell_length_a 8.707043
_cell_length_b 18.500511
_cell_length_c 15.601605
_cell_angle_alpha 147.738270
_cell_angle_beta 41.260785
_cell_angle_gamma 115.581479
_cell_volume 721.240113
_symmetry_space_group_name_H-M "P -1"
_symmetry_group_IT_number 2
_symmetry_cell_setting 'triclinic'
loop_
_space_group_symop_operation_xyz
x,y,z
-x,-y,-z
loop_
_atom_site_type_symbol
_atom_site_label
_atom_site_fract_x
_atom_site_fract_y
_atom_site_fract_z
Si Si1 0.660103 0.271913 0.745576
Si Si2 0.494787 0.414941 0.561132
Si Si3 0.327360 0.889592 0.916076
Si Si4 0.080007 0.236153 0.408206
Si Si5 0.084539 0.883857 0.186164
Si Si6 0.100732 0.328430 0.008467
Si Si7 0.950072 0.480293 0.396045
Si Si8 0.474100 0.628248 0.905578
O O1 0.807327 0.334840 0.685444
O O2 0.389132 0.309717 0.842527
O O3 0.570268 0.362657 0.965314
O O4 0.890817 0.078971 0.475867
O O5 0.693494 0.218815 0.259191
O O6 0.445498 0.474128 0.740393
O O7 0.645358 0.510800 0.571877
O O8 0.192528 0.496892 0.722452
O O9 0.637049 0.854872 0.742593
O O10 0.297550 0.829083 0.960962
O O11 0.088757 0.088277 0.204379
O O12 0.081581 0.357991 0.464594
O O13 0.249244 0.797735 0.119258
O O14 0.877393 0.827791 0.196344
O O15 0.093110 0.330028 0.116221
O O16 0.207260 0.412805 0.291961
#
# Coordination Sequence:
#
# PCOD8041238 Si02
#       8
#     2   2   2   2   2   2   2   2
#     4  10  22  38  55  88 122 158 190 231 301 355
#     4  11  20  38  62  91 116 146 203 251 287 333
#     4  10  20  37  64  90 108 154 199 249 293 330
#     4  10  21  37  62  84 121 152 195 241 290 354
#     4  10  19  38  63  87 117 146 201 254 286 334
#     4  10  19  31  60  88 110 149 195 246 278 337
#     4  11  20  37  60  92 116 149 199 244 294 337
#     4  10  23  33  58  91 120 157 186 244 295 352
#
# _framework density 22.184014000000001
#
# number of rings (size 3 to 8) (size 9 to 14) (size 15 to 20)
#    0.000    1.750    2.500    3.000    0.000    2.000 
#    0.000    1.250    2.750    0.000    0.000    0.000 
#    0.000    0.000    0.000    0.000    0.000    0.000 
#
# Total GULP energy -198210.312998 kJ/mol
# GULP energy per Si atom -12388.144562 kJ/mol
# Density = 2.213352 g / cm^3
# Si number density = 22.184014 Si / 1000 Ang^3
#
#
#
# Elastic Constant Matrix: (Units=GPa)
#
#
# Indices 1 2 3 4 5 6 
#
# 1 115.2469 37.9992 45.2500 -3.2344 -5.3827 18.2313
# 2 37.9992 98.6207 40.7277 -3.5418 -2.2014 12.8157
# 3 45.2500 40.7277 82.0905 -8.4241 6.6097 11.1028
# 4 -3.2344 -3.5418 -8.4241 43.3047 13.9770 -6.9136
# 5 -5.3827 -2.2014 6.6097 13.9770 38.2093 0.6967
# 6 18.2313 12.8157 11.1028 -6.9136 0.6967 18.0311
#
#
#
# Elastic Compliance Matrix: (Units=1/GPa)
#
#
# Indices 1 2 3 4 5 6 
#
# 1 0.013125 -0.001345 -0.005866 -0.003222 0.004149 -0.010098
# 2 -0.001345 0.013723 -0.005666 -0.001732 0.002318 -0.005658
# 3 -0.005866 -0.005666 0.019199 0.004898 -0.006270 0.000257
# 4 -0.003222 -0.001732 0.004898 0.029860 -0.012568 0.013407
# 5 0.004149 0.002318 -0.006270 -0.012568 0.032719 -0.008064
# 6 -0.010098 -0.005658 0.000257 0.013407 -0.008064 0.074986
#
#
# Mechanical properties :
#
#
# Convention : Reuss Voigt Hill
#
# Bulk Modulus (GPa) = 49.28067 60.43466 54.85767
# Shear Modulus (GPa) = 23.13434 31.37443 27.25438
#
# Velocity S-wave (km/s) = 3.23280 3.76477 3.50888
# Velocity P-wave (km/s) = 6.01643 6.79703 6.41861
#
# Compressibility (1/GPa) = 0.02029193
#
# Stress axis : x y z
#
# Youngs Moduli (GPa) = 76.19289 72.87101 52.08609
#
# Poissons Ratio (x) = 0.09804 0.30554
# Poissons Ratio (y) = 0.10251 0.29511
# Poissons Ratio (z) = 0.44695 0.41288
#
# Static dielectric constant tensor:
#      x y z
#    x 4.080510 0.337510 0.113920 
#    y 0.337510 3.813390 -0.184240 
#    z 0.113920 -0.184240 4.298480 
# 
# 
# High freq. dielectric constant tensor:
#      x y z
#    x 1.871080 0.025900 0.011730 
#    y 0.025900 1.847190 -0.008440 
#    z 0.011730 -0.008440 1.891270 
# 
# From -- ./inp_files/562660.got.cif
#   From: 2010.06.25/outbox.cif.g09.slc.cpg/sg2_282_cif.got.tgz:562660.got - 2010.06.27 13:26:56.
