data_PCOD8041879
_publ_section_title
;
Structure prediction by ZEFSAII (Michael W. Deem and Ramdas Pophale) SiO2 
 PCOD8041879
Probable space group: P -1
;
_chemical_formula_sum "Si O2"
_cell_formula_units_Z 16
_cell_length_a 16.016103
_cell_length_b 11.648547
_cell_length_c 11.692236
_cell_angle_alpha 153.568416
_cell_angle_beta 94.730374
_cell_angle_gamma 98.714984
_cell_volume 833.501508
_symmetry_space_group_name_H-M "P -1"
_symmetry_group_IT_number 2
_symmetry_cell_setting 'triclinic'
loop_
_space_group_symop_operation_xyz
x,y,z
-x,-y,-z
loop_
_atom_site_type_symbol
_atom_site_label
_atom_site_fract_x
_atom_site_fract_y
_atom_site_fract_z
Si Si1 0.538991 0.809031 0.214788
Si Si2 0.274766 0.178517 0.153004
Si Si3 0.149980 0.333677 0.141049
Si Si4 0.652113 0.793041 0.567798
Si Si5 0.569269 0.579849 0.795407
Si Si6 0.089451 0.695990 0.603809
Si Si7 0.337236 0.640903 0.004885
Si Si8 0.703005 0.407761 0.801845
O O1 0.449008 0.868967 0.263942
O O2 0.641913 0.048935 0.495943
O O3 0.500000 0.500000 0.000000
O O4 0.560128 0.809409 0.082360
O O5 0.235903 0.395503 0.296106
O O6 0.294905 0.232403 0.336917
O O7 0.372649 0.250995 0.161311
O O8 0.190245 0.835005 0.810968
O O9 0.090228 0.486693 0.315458
O O10 0.196167 0.475825 0.149822
O O11 0.079961 0.971878 0.796297
O O12 0.539329 0.676100 0.478990
O O13 0.701541 0.146201 0.857754
O O14 0.668304 0.601998 0.302346
O O15 0.628958 0.462920 0.769426
O O16 0.000000 0.500000 0.500000
O O17 0.274918 0.455840 0.945389
#
# Coordination Sequence:
#
# PCOD8041879 Si02
#       8
#     2   2   2   2   2   2   2   2
#     4  11  19  30  50  72 109 145 197 232 271 295
#     4   9  22  36  56  78 115 141 181 219 271 329
#     4   9  22  34  60  84 112 133 171 230 282 326
#     4  11  23  36  48  76 111 158 188 211 256 319
#     4  10  19  34  50  76 108 152 185 230 262 308
#     4  10  20  38  61  89 109 131 171 226 290 337
#     4  11  23  32  51  73 106 151 193 223 257 305
#     4  11  19  34  51  78 110 143 190 236 269 301
#
# _framework density 19.196127000000001
#
# number of rings (size 3 to 8) (size 9 to 14) (size 15 to 20)
#    0.750    1.000    2.500    3.375    1.750    0.000 
#    0.000    1.875    0.000    0.000    0.000    5.250 
#    0.000    0.000    0.000    0.000    0.000    0.000 
#
# Total GULP energy -198221.609286 kJ/mol
# GULP energy per Si atom -12388.850580 kJ/mol
# Density = 1.915244 g / cm^3
# Si number density = 19.196127 Si / 1000 Ang^3
#
#
#
# Elastic Constant Matrix: (Units=GPa)
#
#
# Indices 1 2 3 4 5 6 
#
# 1 54.5429 43.9025 33.6444 4.8385 -17.1875 25.4021
# 2 43.9025 134.0606 50.5594 2.4699 -8.3723 29.5649
# 3 33.6444 50.5594 82.8012 15.5380 -19.9603 18.3342
# 4 4.8385 2.4699 15.5380 25.6383 1.5477 3.7504
# 5 -17.1875 -8.3723 -19.9603 1.5477 24.5327 -2.7117
# 6 25.4021 29.5649 18.3342 3.7504 -2.7117 37.3211
#
#
#
# Elastic Compliance Matrix: (Units=1/GPa)
#
#
# Indices 1 2 3 4 5 6 
#
# 1 0.042683 -0.007283 -0.001708 -0.004817 0.024098 -0.020208
# 2 -0.007283 0.012398 -0.006624 0.004991 -0.006865 -0.002610
# 3 -0.001708 -0.006624 0.024168 -0.014290 0.016798 -0.002806
# 4 -0.004817 0.004991 -0.014290 0.049048 -0.016367 0.000227
# 5 0.024098 -0.006865 0.016798 -0.016367 0.068610 -0.012586
# 6 -0.020208 -0.002610 -0.002806 0.000227 -0.012586 0.043057
#
#
# Mechanical properties :
#
#
# Convention : Reuss Voigt Hill
#
# Bulk Modulus (GPa) = 20.82606 58.62416 39.72511
# Shear Modulus (GPa) = 17.40938 27.05164 22.23051
#
# Velocity S-wave (km/s) = 3.01478 3.75804 3.40674
# Velocity P-wave (km/s) = 4.79491 7.03110 6.01779
#
# Compressibility (1/GPa) = 0.04801675
#
# Stress axis : x y z
#
# Youngs Moduli (GPa) = 23.42863 80.66036 41.37660
#
# Poissons Ratio (x) = 0.58748 0.07069
# Poissons Ratio (y) = 0.17064 0.27409
# Poissons Ratio (z) = 0.04002 0.53431
#
# Static dielectric constant tensor:
#      x y z
#    x 3.243640 0.195260 -0.180920 
#    y 0.195260 3.622260 0.011020 
#    z -0.180920 0.011020 3.335550 
# 
# 
# High freq. dielectric constant tensor:
#      x y z
#    x 1.709750 0.022060 -0.031020 
#    y 0.022060 1.751420 0.005640 
#    z -0.031020 0.005640 1.725530 
# 
# From -- ./inp_files/123269.got.cif
#   From: 2010.06.25/outbox.cif.g09.slc.cpg/sg2_62_cif.got.tgz:123269.got - 2010.06.27 13:26:56.
