data_PCOD8041815
_publ_section_title
;
Structure prediction by ZEFSAII (Michael W. Deem and Ramdas Pophale) SiO2 
 PCOD8041815
Probable space group: P -1
;
_chemical_formula_sum "Si O2"
_cell_formula_units_Z 12
_cell_length_a 9.049955
_cell_length_b 11.281582
_cell_length_c 8.794759
_cell_angle_alpha 110.921728
_cell_angle_beta 134.457083
_cell_angle_gamma 84.997126
_cell_volume 580.518074
_symmetry_space_group_name_H-M "P -1"
_symmetry_group_IT_number 2
_symmetry_cell_setting 'triclinic'
loop_
_space_group_symop_operation_xyz
x,y,z
-x,-y,-z
loop_
_atom_site_type_symbol
_atom_site_label
_atom_site_fract_x
_atom_site_fract_y
_atom_site_fract_z
Si Si1 0.958449 0.580841 0.831212
Si Si2 0.572470 0.339817 0.370476
Si Si3 0.127669 0.840129 0.534490
Si Si4 0.953016 0.998914 0.716509
Si Si5 0.797867 0.807795 0.768338
Si Si6 0.192401 0.385434 0.940334
O O1 0.742886 0.467563 0.604269
O O2 0.947113 0.708510 0.782465
O O3 0.165717 0.524703 0.912554
O O4 0.963844 0.630696 0.032473
O O5 0.680999 0.229437 0.331999
O O6 0.432489 0.281050 0.390274
O O7 0.432349 0.383160 0.154933
O O8 0.178957 0.936865 0.469617
O O9 0.903145 0.733496 0.296764
O O10 0.105908 0.922341 0.705583
O O11 0.784077 0.899791 0.657197
O O12 0.108378 0.108253 0.978428
#
# Coordination Sequence:
#
# PCOD8041815 Si02
#       6
#     2   2   2   2   2   2
#     4   9  17  31  57  81 103 139 178 220 263 313
#     4  10  19  33  60  81 103 138 186 218 261 314
#     4  10  20  36  56  80 105 146 177 214 268 319
#     4  10  21  36  54  78 114 143 174 214 270 318
#     4  10  19  36  56  81 108 141 176 222 262 313
#     4   9  16  32  54  80 103 134 178 222 256 312
#
# _framework density 20.671189999999999
#
# number of rings (size 3 to 8) (size 9 to 14) (size 15 to 20)
#    0.000    2.333    3.333    2.000    0.000    1.333 
#    0.000    3.333    0.000    5.000    0.000    0.000 
#    0.000    0.000    0.000    0.000    0.000    0.000 
#
# Total GULP energy -148703.763874 kJ/mol
# GULP energy per Si atom -12391.980323 kJ/mol
# Density = 2.062414 g / cm^3
# Si number density = 20.671190 Si / 1000 Ang^3
#
#
#
# Elastic Constant Matrix: (Units=GPa)
#
#
# Indices 1 2 3 4 5 6 
#
# 1 58.0651 48.4980 38.0947 -4.3536 -2.0207 -17.0202
# 2 48.4980 113.2752 57.5914 9.2160 -8.3662 -31.7690
# 3 38.0947 57.5914 74.6614 -6.7797 5.4649 -12.5006
# 4 -4.3536 9.2160 -6.7797 24.7090 -11.0307 4.8578
# 5 -2.0207 -8.3662 5.4649 -11.0307 17.6338 -4.3456
# 6 -17.0202 -31.7690 -12.5006 4.8578 -4.3456 33.9128
#
#
#
# Elastic Compliance Matrix: (Units=1/GPa)
#
#
# Indices 1 2 3 4 5 6 
#
# 1 0.032616 -0.007062 -0.010128 0.009226 0.010795 0.006082
# 2 -0.007062 0.028926 -0.017568 -0.014536 0.014443 0.021010
# 3 -0.010128 -0.017568 0.031937 0.008347 -0.017424 -0.013197
# 4 0.009226 -0.014536 0.008347 0.065266 0.029574 -0.011469
# 5 0.010795 0.014443 -0.017424 0.029574 0.093700 0.020296
# 6 0.006082 0.021010 -0.013197 -0.011469 0.020296 0.051600
#
#
# Mechanical properties :
#
#
# Convention : Reuss Voigt Hill
#
# Bulk Modulus (GPa) = 41.73523 59.37444 50.55484
# Shear Modulus (GPa) = 13.10450 22.03897 17.57174
#
# Velocity S-wave (km/s) = 2.52057 3.26877 2.91874
# Velocity P-wave (km/s) = 5.35769 6.55988 5.98903
#
# Compressibility (1/GPa) = 0.02396057
#
# Stress axis : x y z
#
# Youngs Moduli (GPa) = 30.66016 34.57156 31.31191
#
# Poissons Ratio (x) = 0.24416 0.31713
# Poissons Ratio (y) = 0.21654 0.55009
# Poissons Ratio (z) = 0.31053 0.60736
#
# Static dielectric constant tensor:
#      x y z
#    x 3.284380 -0.385660 -0.078860 
#    y -0.385660 4.461790 -0.060550 
#    z -0.078860 -0.060550 3.545150 
# 
# 
# High freq. dielectric constant tensor:
#      x y z
#    x 1.755900 -0.032580 -0.010430 
#    y -0.032580 1.836830 0.006630 
#    z -0.010430 0.006630 1.797390 
# 
# From -- ./inp_files/160951.got.cif
#   From: 2010.06.25/outbox.cif.g09.slc.cpg/sg2_81_cif.got.tgz:160951.got - 2010.06.27 13:26:56.
