data_PCOD8041450
_publ_section_title
;
Structure prediction by ZEFSAII (Michael W. Deem and Ramdas Pophale) SiO2 
 PCOD8041450
Probable space group: P -1
;
_chemical_formula_sum "Si O2"
_cell_formula_units_Z 16
_cell_length_a 8.653818
_cell_length_b 14.812722
_cell_length_c 9.553291
_cell_angle_alpha 44.916051
_cell_angle_beta 100.115029
_cell_angle_gamma 79.089573
_cell_volume 759.636428
_symmetry_space_group_name_H-M "P -1"
_symmetry_group_IT_number 2
_symmetry_cell_setting 'triclinic'
loop_
_space_group_symop_operation_xyz
x,y,z
-x,-y,-z
loop_
_atom_site_type_symbol
_atom_site_label
_atom_site_fract_x
_atom_site_fract_y
_atom_site_fract_z
Si Si1 0.137573 0.916096 0.235522
Si Si2 0.273302 0.344185 0.002767
Si Si3 0.387358 0.019347 0.095619
Si Si4 0.935397 0.701779 0.226090
Si Si5 0.922379 0.342294 0.416965
Si Si6 0.887040 0.805725 0.663317
Si Si7 0.385355 0.888247 0.783032
Si Si8 0.096459 0.828738 0.910896
O O1 0.166343 0.755091 0.437624
O O2 0.339324 0.889636 0.266201
O O3 0.058672 0.011426 0.258200
O O4 0.000000 0.000000 0.000000
O O5 0.220964 0.511514 0.838524
O O6 0.182697 0.344822 0.838833
O O7 0.200427 0.284981 0.180685
O O8 0.485507 0.248932 0.138303
O O9 0.486883 0.051932 0.199813
O O10 0.191678 0.142771 0.903689
O O11 0.500000 0.000000 0.000000
O O12 0.003328 0.611712 0.480688
O O13 0.091692 0.714864 0.148851
O O14 0.072048 0.249914 0.428673
O O15 0.061939 0.781674 0.802945
O O16 0.759583 0.975856 0.470879
O O17 0.285558 0.830669 0.940001
#
# Coordination Sequence:
#
# PCOD8041450 Si02
#       8
#     2   2   2   2   2   2   2   2
#     4  11  20  36  63  90 119 154 204 241 288 361
#     4  10  24  40  58  91 125 151 198 251 303 342
#     4  10  19  32  58  94 121 146 196 254 296 336
#     4   9  20  38  63  86 118 159 199 239 293 367
#     4  12  21  38  66  87 119 161 198 243 294 358
#     4  11  23  40  65  86 115 165 207 240 287 363
#     4  11  21  38  63  86 120 156 198 252 296 343
#     4  10  20  39  64  89 113 156 209 241 288 358
#
# _framework density 21.062705999999999
#
# number of rings (size 3 to 8) (size 9 to 14) (size 15 to 20)
#    0.000    1.500    3.750    3.750    0.000    0.000 
#    0.000    1.250   11.000    0.000    0.000    0.000 
#    0.000    0.000    0.000    0.000    0.000    0.000 
#
# Total GULP energy -198225.058030 kJ/mol
# GULP energy per Si atom -12389.066127 kJ/mol
# Density = 2.101477 g / cm^3
# Si number density = 21.062706 Si / 1000 Ang^3
#
#
#
# Elastic Constant Matrix: (Units=GPa)
#
#
# Indices 1 2 3 4 5 6 
#
# 1 148.1935 29.2903 36.8384 -2.8676 -10.8696 -17.3108
# 2 29.2903 60.7292 37.9421 3.2755 -6.1790 -13.3301
# 3 36.8384 37.9421 97.2921 -10.2697 -12.5226 -12.6868
# 4 -2.8676 3.2755 -10.2697 38.2700 2.6378 -0.0995
# 5 -10.8696 -6.1790 -12.5226 2.6378 22.0375 3.2731
# 6 -17.3108 -13.3301 -12.6868 -0.0995 3.2731 17.7477
#
#
#
# Elastic Compliance Matrix: (Units=1/GPa)
#
#
# Indices 1 2 3 4 5 6 
#
# 1 0.008219 -0.001681 -0.001488 0.000242 0.001915 0.005338
# 2 -0.001681 0.025102 -0.008086 -0.004447 0.000465 0.011324
# 3 -0.001488 -0.008086 0.015426 0.004393 0.004848 0.002633
# 4 0.000242 -0.004447 0.004393 0.027850 -0.002050 0.000571
# 5 0.001915 0.000465 0.004848 -0.002050 0.049979 -0.003547
# 6 0.005338 0.011324 0.002633 0.000571 -0.003547 0.072597
#
#
# Mechanical properties :
#
#
# Convention : Reuss Voigt Hill
#
# Bulk Modulus (GPa) = 38.11392 57.15070 47.63231
# Shear Modulus (GPa) = 21.69880 29.08731 25.39305
#
# Velocity S-wave (km/s) = 3.21315 3.72019 3.47593
# Velocity P-wave (km/s) = 5.64806 6.75615 6.22680
#
# Compressibility (1/GPa) = 0.02623713
#
# Stress axis : x y z
#
# Youngs Moduli (GPa) = 121.67191 39.83822 64.82502
#
# Poissons Ratio (x) = 0.06695 0.09649
# Poissons Ratio (y) = 0.20447 0.52416
# Poissons Ratio (z) = 0.18110 0.32212
#
# Static dielectric constant tensor:
#      x y z
#    x 3.643880 -0.422770 -0.026810 
#    y -0.422770 3.316680 0.170110 
#    z -0.026810 0.170110 3.676030 
# 
# 
# High freq. dielectric constant tensor:
#      x y z
#    x 1.825390 0.004380 -0.020100 
#    y 0.004380 1.819000 0.009180 
#    z -0.020100 0.009180 1.804670 
# 
# From -- ./inp_files/205631.got.cif
#   From: 2010.06.25/outbox.cif.g09.slc.cpg/sg2_103_cif.got.tgz:205631.got - 2010.06.27 13:26:56.
