data_PCOD8041091
_publ_section_title
;
Structure prediction by ZEFSAII (Michael W. Deem and Ramdas Pophale) SiO2 
 PCOD8041091
Probable space group: P -1
;
_chemical_formula_sum "Si O2"
_cell_formula_units_Z 16
_cell_length_a 13.067052
_cell_length_b 12.369941
_cell_length_c 15.678658
_cell_angle_alpha 25.083741
_cell_angle_beta 65.048605
_cell_angle_gamma 59.155213
_cell_volume 916.112776
_symmetry_space_group_name_H-M "P -1"
_symmetry_group_IT_number 2
_symmetry_cell_setting 'triclinic'
loop_
_space_group_symop_operation_xyz
x,y,z
-x,-y,-z
loop_
_atom_site_type_symbol
_atom_site_label
_atom_site_fract_x
_atom_site_fract_y
_atom_site_fract_z
Si Si1 0.941389 0.176747 0.198953
Si Si2 0.362935 0.866957 0.313263
Si Si3 0.930417 0.650359 0.540591
Si Si4 0.177615 0.547089 0.431691
Si Si5 0.000199 0.427763 0.849243
Si Si6 0.630846 0.719659 0.310256
Si Si7 0.744323 0.940020 0.968100
Si Si8 0.136326 0.229010 0.206159
O O1 0.068352 0.082488 0.272242
O O2 0.877859 0.950125 0.389351
O O3 0.865482 0.480378 0.041772
O O4 0.966417 0.191771 0.077795
O O5 0.496012 0.863615 0.289782
O O6 0.357836 0.566074 0.532237
O O7 0.321245 0.017040 0.130432
O O8 0.274450 0.034045 0.300300
O O9 0.835116 0.600242 0.546502
O O10 0.053744 0.636688 0.462286
O O11 0.957778 0.434721 0.761852
O O12 0.279257 0.326868 0.608363
O O13 0.213349 0.805216 0.209130
O O14 0.931147 0.714236 0.718595
O O15 0.144374 0.345111 0.864290
O O16 0.654373 0.918893 0.089132
#
# Coordination Sequence:
#
# PCOD8041091 Si02
#       8
#     2   2   2   2   2   2   2   2
#     4   9  17  34  47  76 105 128 160 209 249 299
#     4  10  19  36  53  77 104 128 171 202 250 304
#     4  11  20  32  51  75 103 137 167 205 252 296
#     4  10  21  33  50  74 104 134 170 209 246 297
#     4  10  19  30  51  77 103 131 163 203 252 302
#     4  10  21  34  55  75 101 137 163 210 249 294
#     4  11  18  34  51  80 105 127 164 208 256 300
#     4   9  17  34  50  74 107 131 155 213 248 303
#
# _framework density 17.465098000000001
#
# number of rings (size 3 to 8) (size 9 to 14) (size 15 to 20)
#    0.750    1.250    3.750    1.125    0.000    2.000 
#    2.250    0.000    0.000    1.500    0.000    0.000 
#    0.000    0.000    0.000    0.000    0.000    0.000 
#
# Total GULP energy -198242.985232 kJ/mol
# GULP energy per Si atom -12390.186577 kJ/mol
# Density = 1.742535 g / cm^3
# Si number density = 17.465098 Si / 1000 Ang^3
#
#
#
# Elastic Constant Matrix: (Units=GPa)
#
#
# Indices 1 2 3 4 5 6 
#
# 1 88.8852 36.2088 29.4128 -3.8766 4.8627 3.7101
# 2 36.2088 61.2666 25.2575 -5.9247 -0.2447 0.7799
# 3 29.4128 25.2575 54.5023 11.3308 -0.9086 4.7309
# 4 -3.8766 -5.9247 11.3308 28.1854 -1.7246 7.9932
# 5 4.8627 -0.2447 -0.9086 -1.7246 19.1386 0.9011
# 6 3.7101 0.7799 4.7309 7.9932 0.9011 28.8606
#
#
#
# Elastic Compliance Matrix: (Units=1/GPa)
#
#
# Indices 1 2 3 4 5 6 
#
# 1 0.016639 -0.006772 -0.006534 0.003742 -0.004203 -0.001790
# 2 -0.006772 0.025173 -0.009700 0.008597 0.002389 -0.000675
# 3 -0.006534 -0.009700 0.029437 -0.014764 0.001588 0.000316
# 4 0.003742 0.008597 -0.014764 0.047186 0.003250 -0.011463
# 5 -0.004203 0.002389 0.001588 0.003250 0.053829 -0.002365
# 6 -0.001790 -0.000675 0.000316 -0.011463 -0.002365 0.038095
#
#
# Mechanical properties :
#
#
# Convention : Reuss Voigt Hill
#
# Bulk Modulus (GPa) = 39.62310 42.93470 41.27890
# Shear Modulus (GPa) = 18.88339 22.82192 20.85266
#
# Velocity S-wave (km/s) = 3.29174 3.61877 3.45912
# Velocity P-wave (km/s) = 6.09784 6.48824 6.29607
#
# Compressibility (1/GPa) = 0.02523780
#
# Stress axis : x y z
#
# Youngs Moduli (GPa) = 60.09894 39.72526 33.97051
#
# Poissons Ratio (x) = 0.26904 0.22195
# Poissons Ratio (y) = 0.40702 0.32950
# Poissons Ratio (z) = 0.39267 0.38532
#
# Static dielectric constant tensor:
#      x y z
#    x 3.102020 -0.038750 0.080650 
#    y -0.038750 3.061980 0.005780 
#    z 0.080650 0.005780 3.217180 
# 
# 
# High freq. dielectric constant tensor:
#      x y z
#    x 1.645860 0.000200 0.004860 
#    y 0.000200 1.653270 0.004120 
#    z 0.004860 0.004120 1.679890 
# 
# From -- ./inp_files/517465.got.cif
#   From: 2010.06.25/outbox.cif.g09.slc.cpg/sg2_259_cif.got.tgz:517465.got - 2010.06.27 13:26:56.
