data_PCOD8041133
_publ_section_title
;
Structure prediction by ZEFSAII (Michael W. Deem and Ramdas Pophale) SiO2 
 PCOD8041133
Probable space group: P -1
;
_chemical_formula_sum "Si O2"
_cell_formula_units_Z 16
_cell_length_a 19.843888
_cell_length_b 11.066671
_cell_length_c 16.984044
_cell_angle_alpha 41.572946
_cell_angle_beta 160.110063
_cell_angle_gamma 137.803655
_cell_volume 830.416077
_symmetry_space_group_name_H-M "P -1"
_symmetry_group_IT_number 2
_symmetry_cell_setting 'triclinic'
loop_
_space_group_symop_operation_xyz
x,y,z
-x,-y,-z
loop_
_atom_site_type_symbol
_atom_site_label
_atom_site_fract_x
_atom_site_fract_y
_atom_site_fract_z
Si Si1 0.770817 0.581172 0.038250
Si Si2 0.272128 0.002861 0.229597
Si Si3 0.805248 0.331724 0.595373
Si Si4 0.565754 0.642017 0.934436
Si Si5 0.098892 0.317836 0.213780
Si Si6 0.410914 0.501746 0.585884
Si Si7 0.729141 0.045293 0.929618
Si Si8 0.569807 0.696914 0.520421
O O1 0.996308 0.546623 0.284923
O O2 0.714645 0.555639 0.081335
O O3 0.600746 0.440567 0.871046
O O4 0.768083 0.790835 0.907449
O O5 0.149302 0.867175 0.226774
O O6 0.228817 0.927898 0.130199
O O7 0.500000 0.000000 0.500000
O O8 0.626068 0.305997 0.347673
O O9 0.744151 0.436998 0.553033
O O10 0.685065 0.831091 0.010608
O O11 0.500000 0.500000 0.000000
O O12 0.277861 0.347211 0.461150
O O13 0.195509 0.252571 0.270310
O O14 0.000000 0.500000 0.000000
O O15 0.931858 0.151144 0.142060
O O16 0.522068 0.673478 0.571952
O O17 0.547955 0.142140 0.716382
O O18 0.500000 0.500000 0.500000
#
# Coordination Sequence:
#
# PCOD8041133 Si02
#       8
#     2   2   2   2   2   2   2   2
#     4  10  22  33  58  81 107 155 183 234 295 334
#     4  11  17  34  49  83 120 141 184 227 287 354
#     4  11  20  35  58  82 111 150 187 232 293 339
#     4  10  24  43  58  81 114 146 202 248 272 328
#     4  11  21  31  50  83 123 157 181 216 279 350
#     4  10  20  32  48  81 121 146 181 220 267 350
#     4  11  20  35  55  84 118 154 184 225 290 333
#     4  10  19  31  48  78 121 153 178 213 268 344
#
# _framework density 19.267448999999999
#
# number of rings (size 3 to 8) (size 9 to 14) (size 15 to 20)
#    0.000    1.500    7.500    0.375    3.500    2.500 
#    0.000    0.000    0.000    3.000    0.000   15.750 
#    0.000    0.000    0.000    0.000    0.000    0.000 
#
# Total GULP energy -198219.498675 kJ/mol
# GULP energy per Si atom -12388.718667 kJ/mol
# Density = 1.922360 g / cm^3
# Si number density = 19.267449 Si / 1000 Ang^3
#
#
#
# Elastic Constant Matrix: (Units=GPa)
#
#
# Indices 1 2 3 4 5 6 
#
# 1 109.5171 44.7920 39.1032 4.6526 18.4275 19.6139
# 2 44.7920 91.4130 31.4504 15.5576 -3.6552 12.4003
# 3 39.1032 31.4504 54.6038 19.2570 21.0819 4.9693
# 4 4.6526 15.5576 19.2570 27.2636 6.6046 -2.3353
# 5 18.4275 -3.6552 21.0819 6.6046 33.7973 2.7332
# 6 19.6139 12.4003 4.9693 -2.3353 2.7332 30.8149
#
#
#
# Elastic Compliance Matrix: (Units=1/GPa)
#
#
# Indices 1 2 3 4 5 6 
#
# 1 0.015898 -0.005641 -0.008121 0.007010 -0.005134 -0.005553
# 2 -0.005641 0.018997 -0.008805 -0.007012 0.012337 -0.004260
# 3 -0.008121 -0.008805 0.043604 -0.019347 -0.020104 0.001997
# 4 0.007010 -0.007012 -0.019347 0.054543 -0.003651 0.005937
# 5 -0.005134 0.012337 -0.020104 -0.003651 0.047212 -0.002919
# 6 -0.005553 -0.004260 0.001997 0.005937 -0.002919 0.038088
#
#
# Mechanical properties :
#
#
# Convention : Reuss Voigt Hill
#
# Bulk Modulus (GPa) = 29.97046 54.02500 41.99773
# Shear Modulus (GPa) = 18.20853 27.72105 22.96479
#
# Velocity S-wave (km/s) = 3.07749 3.79720 3.45613
# Velocity P-wave (km/s) = 5.31193 6.87934 6.14581
#
# Compressibility (1/GPa) = 0.03336618
#
# Stress axis : x y z
#
# Youngs Moduli (GPa) = 62.90008 52.63876 22.93375
#
# Poissons Ratio (x) = 0.29694 0.18624
# Poissons Ratio (y) = 0.35483 0.20193
# Poissons Ratio (z) = 0.51079 0.46348
#
# Static dielectric constant tensor:
#      x y z
#    x 3.973970 -0.076800 0.431330 
#    y -0.076800 3.424290 0.230090 
#    z 0.431330 0.230090 3.756880 
# 
# 
# High freq. dielectric constant tensor:
#      x y z
#    x 1.749740 -0.013570 0.025030 
#    y -0.013570 1.717010 0.036500 
#    z 0.025030 0.036500 1.733430 
# 
# From -- ./inp_files/431800.got.cif
#   From: 2010.06.25/outbox.cif.g09.slc.cpg/sg2_216_cif.got.tgz:431800.got - 2010.06.27 13:26:56.
