data_PCOD8041985
_publ_section_title
;
Structure prediction by ZEFSAII (Michael W. Deem and Ramdas Pophale) SiO2 
 PCOD8041985
Probable space group: P -1
;
_chemical_formula_sum "Si O2"
_cell_formula_units_Z 16
_cell_length_a 10.097048
_cell_length_b 9.041627
_cell_length_c 10.485695
_cell_angle_alpha 60.338574
_cell_angle_beta 90.216519
_cell_angle_gamma 83.640979
_cell_volume 824.818509
_symmetry_space_group_name_H-M "P -1"
_symmetry_group_IT_number 2
_symmetry_cell_setting 'triclinic'
loop_
_space_group_symop_operation_xyz
x,y,z
-x,-y,-z
loop_
_atom_site_type_symbol
_atom_site_label
_atom_site_fract_x
_atom_site_fract_y
_atom_site_fract_z
Si Si1 0.716843 0.528369 0.638507
Si Si2 0.368419 0.097276 0.406360
Si Si3 0.913170 0.735366 0.878265
Si Si4 0.881087 0.052382 0.573444
Si Si5 0.007175 0.546374 0.193027
Si Si6 0.478928 0.469481 0.803928
Si Si7 0.220296 0.559870 0.603231
Si Si8 0.616574 0.701846 0.901330
O O1 0.672835 0.718998 0.608031
O O2 0.598439 0.415426 0.726474
O O3 0.725234 0.535762 0.483747
O O4 0.856301 0.445350 0.734211
O O5 0.396070 0.112452 0.246806
O O6 0.500000 0.000000 0.500000
O O7 0.251349 0.986155 0.482851
O O8 0.776777 0.646282 0.927067
O O9 0.995786 0.629870 0.810974
O O10 0.899262 0.936698 0.752664
O O11 0.987560 0.708693 0.026207
O O12 0.859319 0.254846 0.515592
O O13 0.000000 0.000000 0.500000
O O14 0.884323 0.555043 0.287171
O O15 0.347092 0.568749 0.692886
O O16 0.534461 0.588257 0.859439
O O17 0.439094 0.302695 0.952156
#
# Coordination Sequence:
#
# PCOD8041985 Si02
#       8
#     2   2   2   2   2   2   2   2
#     4  11  22  39  56  85 118 152 187 229 281 356
#     4  10  20  38  58  80 114 149 188 234 287 328
#     4  10  19  35  60  83 115 144 194 238 280 324
#     4  11  20  36  56  90 112 141 193 243 274 324
#     4  11  20  37  59  85 110 157 189 230 281 339
#     4  10  19  34  55  86 110 143 193 234 276 325
#     4  12  23  35  61  86 119 151 185 232 289 338
#     4   9  17  33  57  82 112 140 190 241 270 328
#
# _framework density 19.398208
#
# number of rings (size 3 to 8) (size 9 to 14) (size 15 to 20)
#    0.000    1.500    6.250    2.250    0.000    0.000 
#    2.250    0.625    2.750    2.250    0.000    0.000 
#    0.000    0.000    0.000    0.000    0.000    0.000 
#
# Total GULP energy -198209.959126 kJ/mol
# GULP energy per Si atom -12388.122445 kJ/mol
# Density = 1.935406 g / cm^3
# Si number density = 19.398208 Si / 1000 Ang^3
#
#
#
# Elastic Constant Matrix: (Units=GPa)
#
#
# Indices 1 2 3 4 5 6 
#
# 1 134.1753 6.7847 58.9492 3.9861 1.6799 -13.9566
# 2 6.7847 22.1794 24.9794 2.9972 0.7257 -4.8150
# 3 58.9492 24.9794 123.9575 5.9433 -1.4667 -11.9798
# 4 3.9861 2.9972 5.9433 23.3950 -8.9949 -4.8001
# 5 1.6799 0.7257 -1.4667 -8.9949 43.7621 3.3698
# 6 -13.9566 -4.8150 -11.9798 -4.8001 3.3698 18.0128
#
#
#
# Elastic Compliance Matrix: (Units=1/GPa)
#
#
# Indices 1 2 3 4 5 6 
#
# 1 0.010073 0.003870 -0.005028 -0.000197 -0.001095 0.005648
# 2 0.003870 0.061559 -0.013088 -0.004397 -0.003297 0.010194
# 3 -0.005028 -0.013088 0.013235 -0.000316 0.000697 0.001193
# 4 -0.000197 -0.004397 -0.000316 0.049039 0.009397 0.009772
# 5 -0.001095 -0.003297 0.000697 0.009397 0.025170 -0.003471
# 6 0.005648 0.010194 0.001193 0.009772 -0.003471 0.066664
#
#
# Mechanical properties :
#
#
# Convention : Reuss Voigt Hill
#
# Bulk Modulus (GPa) = 17.73880 51.30433 34.52156
# Shear Modulus (GPa) = 18.31345 29.67391 23.99368
#
# Velocity S-wave (km/s) = 3.07592 3.91541 3.52078
# Velocity P-wave (km/s) = 4.66685 6.85171 5.86197
#
# Compressibility (1/GPa) = 0.05637360
#
# Stress axis : x y z
#
# Youngs Moduli (GPa) = 99.27249 16.24461 75.55959
#
# Poissons Ratio (x) = -0.06286 0.37991
# Poissons Ratio (y) = -0.38416 0.98895
# Poissons Ratio (z) = 0.49914 0.21262
#
# Static dielectric constant tensor:
#      x y z
#    x 5.410390 0.873630 -1.450110 
#    y 0.873630 3.521030 -0.698560 
#    z -1.450110 -0.698560 5.135000 
# 
# 
# High freq. dielectric constant tensor:
#      x y z
#    x 1.779240 -0.006550 -0.004050 
#    y -0.006550 1.687390 0.005390 
#    z -0.004050 0.005390 1.776260 
# 
# From -- ./inp_files/333048.got.cif
#   From: 2010.06.25/outbox.cif.g09.slc.cpg/sg2_167_cif.got.tgz:333048.got - 2010.06.27 13:26:56.
