data_PCOD8041925
_publ_section_title
;
Structure prediction by ZEFSAII (Michael W. Deem and Ramdas Pophale) SiO2 
 PCOD8041925
Probable space group: P -1
;
_chemical_formula_sum "Si O2"
_cell_formula_units_Z 16
_cell_length_a 6.786806
_cell_length_b 14.812403
_cell_length_c 11.014472
_cell_angle_alpha 58.255861
_cell_angle_beta 83.835817
_cell_angle_gamma 67.552029
_cell_volume 864.098196
_symmetry_space_group_name_H-M "P -1"
_symmetry_group_IT_number 2
_symmetry_cell_setting 'triclinic'
loop_
_space_group_symop_operation_xyz
x,y,z
-x,-y,-z
loop_
_atom_site_type_symbol
_atom_site_label
_atom_site_fract_x
_atom_site_fract_y
_atom_site_fract_z
Si Si1 0.421603 0.739493 0.438728
Si Si2 0.146550 0.594079 0.499355
Si Si3 0.382894 0.148964 0.300526
Si Si4 0.779582 0.654322 0.661432
Si Si5 0.172472 0.337426 0.989370
Si Si6 0.739495 0.492478 0.985505
Si Si7 0.244347 0.944501 0.485181
Si Si8 0.768905 0.655002 0.301237
O O1 0.278439 0.674239 0.443327
O O2 0.592155 0.659054 0.579590
O O3 0.275457 0.856910 0.432883
O O4 0.566010 0.758192 0.304202
O O5 0.289155 0.457381 0.586867
O O6 0.008818 0.603873 0.621660
O O7 0.997170 0.635906 0.360831
O O8 0.241741 0.223065 0.369117
O O9 0.627898 0.111926 0.359215
O O10 0.325417 0.039287 0.359094
O O11 0.338759 0.224786 0.126920
O O12 0.765573 0.572880 0.824032
O O13 0.207364 0.313226 0.861522
O O14 0.925514 0.365757 0.034301
O O15 0.220024 0.452389 0.930900
O O16 0.500000 0.500000 0.000000
O O17 0.000000 0.000000 0.500000
#
# Coordination Sequence:
#
# PCOD8041925 Si02
#       8
#     2   2   2   2   2   2   2   2
#     4  10  21  33  57  82 105 144 191 229 269 318
#     4  10  19  34  54  77 113 150 184 221 261 320
#     4   9  20  36  58  82 108 140 180 230 283 333
#     4   9  18  33  52  83 111 139 179 219 274 327
#     4  10  21  37  53  79 116 149 179 223 277 327
#     4  10  21  32  52  81 114 149 180 215 271 334
#     4  10  20  38  61  83 105 136 186 239 285 324
#     4  10  21  35  52  79 113 150 187 217 266 328
#
# _framework density 18.516413
#
# number of rings (size 3 to 8) (size 9 to 14) (size 15 to 20)
#    0.000    2.250    1.250    1.125    1.750    5.000 
#    0.000    0.625    0.000    1.500    0.000    0.000 
#    0.000    0.000    0.000    0.000    0.000    0.000 
#
# Total GULP energy -198245.922382 kJ/mol
# GULP energy per Si atom -12390.370149 kJ/mol
# Density = 1.847427 g / cm^3
# Si number density = 18.516413 Si / 1000 Ang^3
#
#
#
# Elastic Constant Matrix: (Units=GPa)
#
#
# Indices 1 2 3 4 5 6 
#
# 1 97.3802 45.5266 42.3356 6.4922 11.3506 -5.9691
# 2 45.5266 93.9625 41.1691 7.0699 8.7110 -9.2095
# 3 42.3356 41.1691 85.6394 8.9901 10.1024 -3.4590
# 4 6.4922 7.0699 8.9901 28.0416 0.2441 0.0188
# 5 11.3506 8.7110 10.1024 0.2441 13.4388 0.3479
# 6 -5.9691 -9.2095 -3.4590 0.0188 0.3479 36.1632
#
#
#
# Elastic Compliance Matrix: (Units=1/GPa)
#
#
# Indices 1 2 3 4 5 6 
#
# 1 0.015252 -0.004705 -0.004373 -0.000887 -0.006554 0.000964
# 2 -0.004705 0.015552 -0.004577 -0.001342 -0.002713 0.002773
# 3 -0.004373 -0.004577 0.017096 -0.003261 -0.006127 -0.000192
# 4 -0.000887 -0.001342 -0.003261 0.037221 0.003416 -0.000852
# 5 -0.006554 -0.002713 -0.006127 0.003416 0.086333 -0.003191
# 6 0.000964 0.002773 -0.000192 -0.000852 -0.003191 0.028531
#
#
# Mechanical properties :
#
#
# Convention : Reuss Voigt Hill
#
# Bulk Modulus (GPa) = 48.56715 59.44940 54.00828
# Shear Modulus (GPa) = 21.35303 25.39209 23.37256
#
# Velocity S-wave (km/s) = 3.39956 3.70716 3.55669
# Velocity P-wave (km/s) = 6.45721 7.10634 6.78954
#
# Compressibility (1/GPa) = 0.02059005
#
# Stress axis : x y z
#
# Youngs Moduli (GPa) = 65.56557 64.29982 58.49189
#
# Poissons Ratio (x) = 0.30254 0.25577
# Poissons Ratio (y) = 0.30849 0.26774
# Poissons Ratio (z) = 0.28670 0.29432
#
# Static dielectric constant tensor:
#      x y z
#    x 3.139150 -0.279600 0.272110 
#    y -0.279600 3.728110 0.118960 
#    z 0.272110 0.118960 3.292620 
# 
# 
# High freq. dielectric constant tensor:
#      x y z
#    x 1.716280 -0.007020 0.017850 
#    y -0.007020 1.720910 0.014240 
#    z 0.017850 0.014240 1.700310 
# 
# From -- ./inp_files/94627.got.cif
#   From: 2010.06.25/outbox.cif.g09.slc.cpg/sg2_48_cif.got.tgz:94627.got - 2010.06.27 13:26:56.
