data_PCOD8041206
_publ_section_title
;
Structure prediction by ZEFSAII (Michael W. Deem and Ramdas Pophale) SiO2 
 PCOD8041206
Probable space group: P -1
;
_chemical_formula_sum "Si O2"
_cell_formula_units_Z 16
_cell_length_a 5.302513
_cell_length_b 18.830634
_cell_length_c 8.263153
_cell_angle_alpha 79.238310
_cell_angle_beta 89.999089
_cell_angle_gamma 73.808131
_cell_volume 777.224035
_symmetry_space_group_name_H-M "P -1"
_symmetry_group_IT_number 2
_symmetry_cell_setting 'triclinic'
loop_
_space_group_symop_operation_xyz
x,y,z
-x,-y,-z
loop_
_atom_site_type_symbol
_atom_site_label
_atom_site_fract_x
_atom_site_fract_y
_atom_site_fract_z
Si Si1 0.863597 0.926656 0.156591
Si Si2 0.064934 0.684002 0.066776
Si Si3 0.376824 0.913523 0.960466
Si Si4 0.022125 0.227156 0.631637
Si Si5 0.500959 0.748576 0.000855
Si Si6 0.537022 0.713084 0.392691
Si Si7 0.761950 0.487949 0.902209
Si Si8 0.708695 0.541724 0.538317
O O1 0.664103 0.912661 0.026353
O O2 0.887795 0.863717 0.321108
O O3 0.157351 0.918731 0.096824
O O4 0.735478 0.012521 0.185754
O O5 0.291733 0.706558 0.953954
O O6 0.155643 0.595315 0.140531
O O7 0.018929 0.731769 0.211013
O O8 0.793032 0.705243 0.955221
O O9 0.415316 0.834846 0.899772
O O10 0.246943 0.255034 0.527746
O O11 0.742262 0.256225 0.527092
O O12 0.503366 0.747446 0.197296
O O13 0.628301 0.623424 0.422778
O O14 0.702861 0.547545 0.730308
O O15 0.500000 0.500000 0.000000
O O16 0.000000 0.500000 0.000000
O O17 0.500000 0.500000 0.500000
O O18 0.000000 0.500000 0.500000
#
# Coordination Sequence:
#
# PCOD8041206 Si02
#       8
#     2   2   2   2   2   2   2   2
#     4  10  16  24  36  62 100 145 170 205 260 337
#     4  10  18  30  49  65  91 132 177 212 259 330
#     4  10  16  23  38  61 100 143 174 201 264 332
#     4  10  16  29  44  71 101 135 174 217 268 321
#     4  10  15  28  44  72  98 133 174 219 263 321
#     4  10  18  27  46  68  95 126 168 220 260 311
#     4  12  26  43  59  82 116 152 185 240 307 348
#     4  12  23  40  62  87 109 142 194 244 285 348
#
# _framework density 20.586086000000002
#
# number of rings (size 3 to 8) (size 9 to 14) (size 15 to 20)
#    0.000    1.500    5.000    5.250    0.000    0.000 
#    0.000    0.000    0.000    0.000    0.000    0.000 
#    0.000    0.000    0.000   38.250    0.000    0.000 
#
# Total GULP energy -198245.977518 kJ/mol
# GULP energy per Si atom -12390.373595 kJ/mol
# Density = 2.053923 g / cm^3
# Si number density = 20.586086 Si / 1000 Ang^3
#
#
#
# Elastic Constant Matrix: (Units=GPa)
#
#
# Indices 1 2 3 4 5 6 
#
# 1 200.6652 27.2819 18.9744 -10.2949 -13.0249 -3.2164
# 2 27.2819 108.2588 16.7041 -43.0879 -1.0333 -3.5422
# 3 18.9744 16.7041 38.0295 -3.0394 -1.2598 1.1049
# 4 -10.2949 -43.0879 -3.0394 27.0171 1.1851 -0.8365
# 5 -13.0249 -1.0333 -1.2598 1.1851 17.3640 -6.7918
# 6 -3.2164 -3.5422 1.1049 -0.8365 -6.7918 36.7860
#
#
#
# Elastic Compliance Matrix: (Units=1/GPa)
#
#
# Indices 1 2 3 4 5 6 
#
# 1 0.005649 -0.000789 -0.002323 0.000476 0.004510 0.001331
# 2 -0.000789 0.028623 -0.008766 0.044527 -0.001092 0.003761
# 3 -0.002323 -0.008766 0.030446 -0.011503 -0.000151 -0.002251
# 4 0.000476 0.044527 -0.011503 0.107232 -0.002548 0.006643
# 5 0.004510 -0.001092 -0.000151 -0.002548 0.065924 0.012407
# 6 0.001331 0.003761 -0.002251 0.006643 0.012407 0.030172
#
#
# Mechanical properties :
#
#
# Convention : Reuss Voigt Hill
#
# Bulk Modulus (GPa) = 24.41252 52.54157 38.47704
# Shear Modulus (GPa) = 16.36899 35.16632 25.76765
#
# Velocity S-wave (km/s) = 2.82290 4.13759 3.54178
# Velocity P-wave (km/s) = 4.74442 6.95733 5.95458
#
# Compressibility (1/GPa) = 0.04096258
#
# Stress axis : x y z
#
# Youngs Moduli (GPa) = 177.02678 34.93670 32.84529
#
# Poissons Ratio (x) = 0.02756 0.07630
# Poissons Ratio (y) = 0.13965 0.28791
# Poissons Ratio (z) = 0.41126 0.30624
#
# Static dielectric constant tensor:
#      x y z
#    x 5.913700 -0.089440 -0.254130 
#    y -0.089440 3.926830 -0.554400 
#    z -0.254130 -0.554400 3.110170 
# 
# 
# High freq. dielectric constant tensor:
#      x y z
#    x 1.853170 -0.004930 -0.012640 
#    y -0.004930 1.805630 -0.052370 
#    z -0.012640 -0.052370 1.715950 
# 
# From -- ./inp_files/137616.got.cif
#   From: 2010.06.25/outbox.cif.g09.slc.cpg/sg2_69_cif.got.tgz:137616.got - 2010.06.27 13:26:56.
