data_PCOD8041165
_publ_section_title
;
Structure prediction by ZEFSAII (Michael W. Deem and Ramdas Pophale) SiO2 
 PCOD8041165
Probable space group: P -1
;
_chemical_formula_sum "Si O2"
_cell_formula_units_Z 16
_cell_length_a 15.306980
_cell_length_b 14.437396
_cell_length_c 11.254888
_cell_angle_alpha 150.296109
_cell_angle_beta 38.672494
_cell_angle_gamma 133.245548
_cell_volume 769.939096
_symmetry_space_group_name_H-M "P -1"
_symmetry_group_IT_number 2
_symmetry_cell_setting 'triclinic'
loop_
_space_group_symop_operation_xyz
x,y,z
-x,-y,-z
loop_
_atom_site_type_symbol
_atom_site_label
_atom_site_fract_x
_atom_site_fract_y
_atom_site_fract_z
Si Si1 0.306613 0.345889 0.083138
Si Si2 0.141057 0.125242 0.561510
Si Si3 0.786642 0.495100 0.032536
Si Si4 0.137260 0.733662 0.071473
Si Si5 0.599468 0.373206 0.893377
Si Si6 0.006795 0.052554 0.251657
Si Si7 0.090746 0.455874 0.610404
Si Si8 0.200514 0.933226 0.719730
O O1 0.363570 0.437131 0.004087
O O2 0.179678 0.464640 0.404258
O O3 0.433007 0.336768 0.034779
O O4 0.253937 0.142786 0.875325
O O5 0.028009 0.220444 0.700352
O O6 0.211660 0.943085 0.221974
O O7 0.061927 0.060109 0.693394
O O8 0.255206 0.291560 0.650422
O O9 0.820678 0.365097 0.962426
O O10 0.658167 0.398114 0.991869
O O11 0.930663 0.518503 0.828885
O O12 0.170866 0.596645 0.774317
O O13 0.668714 0.201096 0.559731
O O14 0.891456 0.126886 0.363856
O O15 0.090024 0.240033 0.417255
O O16 0.111567 0.916943 0.918348
#
# Coordination Sequence:
#
# PCOD8041165 Si02
#       8
#     2   2   2   2   2   2   2   2
#     4  10  24  38  55  85 109 146 190 223 269 335
#     4  10  19  31  52  83 112 143 173 226 278 321
#     4  11  21  35  57  83 109 145 182 228 273 320
#     4  10  21  33  54  82 115 142 179 223 279 323
#     4  11  22  39  59  77 113 151 183 223 278 325
#     4  10  19  32  54  90 113 137 184 228 269 328
#     4  10  19  36  55  83 115 136 182 230 266 322
#     4  10  20  36  55  81 116 143 180 227 275 323
#
# _framework density 20.780863
#
# number of rings (size 3 to 8) (size 9 to 14) (size 15 to 20)
#    0.000    1.750    2.500    2.625    5.250    0.500 
#    0.000    0.625    0.000    0.750    0.000    0.000 
#    0.000    0.000    0.000    0.000    0.000    0.000 
#
# Total GULP energy -198290.118550 kJ/mol
# GULP energy per Si atom -12393.132409 kJ/mol
# Density = 2.073356 g / cm^3
# Si number density = 20.780863 Si / 1000 Ang^3
#
#
#
# Elastic Constant Matrix: (Units=GPa)
#
#
# Indices 1 2 3 4 5 6 
#
# 1 79.9300 13.3094 29.8678 10.1741 14.1557 -0.5131
# 2 13.3094 37.8846 18.5295 17.7267 4.4672 2.0093
# 3 29.8678 18.5295 82.2679 31.2699 11.9779 15.2453
# 4 10.1741 17.7267 31.2699 29.1489 8.4987 -0.1626
# 5 14.1557 4.4672 11.9779 8.4987 25.3609 3.1012
# 6 -0.5131 2.0093 15.2453 -0.1626 3.1012 23.0115
#
#
#
# Elastic Compliance Matrix: (Units=1/GPa)
#
#
# Indices 1 2 3 4 5 6 
#
# 1 0.017039 -0.005459 -0.008652 0.009173 -0.008490 0.007798
# 2 -0.005459 0.039095 0.004589 -0.028089 0.004305 -0.007354
# 3 -0.008652 0.004589 0.030548 -0.033687 0.003517 -0.021544
# 4 0.009173 -0.028089 -0.033687 0.089650 -0.017728 0.027998
# 5 -0.008490 0.004305 0.003517 -0.017728 0.048866 -0.009606
# 6 0.007798 -0.007354 -0.021544 0.027998 -0.009606 0.060038
#
#
# Mechanical properties :
#
#
# Convention : Reuss Voigt Hill
#
# Bulk Modulus (GPa) = 14.78469 35.94401 25.36435
# Shear Modulus (GPa) = 15.29870 24.72933 20.01401
#
# Velocity S-wave (km/s) = 2.71623 3.45339 3.10675
# Velocity P-wave (km/s) = 4.11913 5.76502 5.01012
#
# Compressibility (1/GPa) = 0.06763753
#
# Stress axis : x y z
#
# Youngs Moduli (GPa) = 58.68856 25.57876 32.73584
#
# Poissons Ratio (x) = 0.13963 0.28324
# Poissons Ratio (y) = 0.32038 -0.15023
# Poissons Ratio (z) = 0.50778 -0.11738
#
# Static dielectric constant tensor:
#      x y z
#    x 3.771750 0.165610 0.271340 
#    y 0.165610 3.582760 0.348570 
#    z 0.271340 0.348570 4.026440 
# 
# 
# High freq. dielectric constant tensor:
#      x y z
#    x 1.803990 -0.003710 0.024390 
#    y -0.003710 1.787720 0.040400 
#    z 0.024390 0.040400 1.811720 
# 
# From -- ./inp_files/313449.got.cif
#   From: 2010.06.25/outbox.cif.g09.slc.cpg/sg2_157_cif.got.tgz:313449.got - 2010.06.27 13:26:56.
