data_PCOD8041333
_publ_section_title
;
Structure prediction by ZEFSAII (Michael W. Deem and Ramdas Pophale) SiO2 
 PCOD8041333
Probable space group: P -1
;
_chemical_formula_sum "Si O2"
_cell_formula_units_Z 14
_cell_length_a 10.266271
_cell_length_b 11.262556
_cell_length_c 11.481007
_cell_angle_alpha 85.609956
_cell_angle_beta 141.571091
_cell_angle_gamma 75.245601
_cell_volume 708.749784
_symmetry_space_group_name_H-M "P -1"
_symmetry_group_IT_number 2
_symmetry_cell_setting 'triclinic'
loop_
_space_group_symop_operation_xyz
x,y,z
-x,-y,-z
loop_
_atom_site_type_symbol
_atom_site_label
_atom_site_fract_x
_atom_site_fract_y
_atom_site_fract_z
Si Si1 0.266832 0.068044 0.746801
Si Si2 0.758363 0.476766 0.033579
Si Si3 0.647229 0.309384 0.114140
Si Si4 0.232782 0.347390 0.654375
Si Si5 0.499088 0.382008 0.369809
Si Si6 0.227848 0.875293 0.577566
Si Si7 0.757557 0.541804 0.580659
O O1 0.167738 0.227288 0.628365
O O2 0.047797 0.065151 0.665773
O O3 0.316533 0.983605 0.664269
O O4 0.500000 0.000000 0.000000
O O5 0.833225 0.329437 0.157752
O O6 0.953214 0.522190 0.197200
O O7 0.489823 0.571488 0.893186
O O8 0.713581 0.488389 0.862227
O O9 0.795578 0.172969 0.303823
O O10 0.441615 0.304316 0.896879
O O11 0.339945 0.350538 0.602482
O O12 0.000000 0.500000 0.500000
O O13 0.583768 0.239707 0.370778
O O14 0.718364 0.411958 0.542790
O O15 0.386561 0.371361 0.413260
#
# Coordination Sequence:
#
# PCOD8041333 Si02
#       7
#     2   2   2   2   2   2   2
#     4  11  23  39  62  90 116 152 195 243 302 354
#     4  10  19  32  53  87 120 152 191 243 294 340
#     4  10  19  33  57  89 121 149 191 247 297 342
#     4  12  21  36  62  91 118 151 195 251 299 340
#     4  10  22  36  55  83 121 160 197 237 287 355
#     4  10  22  39  58  86 120 153 196 242 293 353
#     4  11  21  35  55  85 121 158 197 239 292 346
#
# _framework density 19.753093
#
# number of rings (size 3 to 8) (size 9 to 14) (size 15 to 20)
#    0.000    1.429    4.286    2.143    2.000    0.000 
#    0.000    0.714    0.000    0.857    0.000    0.000 
#    0.000    0.000    0.000    0.000    0.000    0.000 
#
# Total GULP energy -173434.550515 kJ/mol
# GULP energy per Si atom -12388.182180 kJ/mol
# Density = 1.970813 g / cm^3
# Si number density = 19.753093 Si / 1000 Ang^3
#
#
#
# Elastic Constant Matrix: (Units=GPa)
#
#
# Indices 1 2 3 4 5 6 
#
# 1 94.0057 36.2315 19.0339 2.4181 -10.3946 -6.0882
# 2 36.2315 123.4219 19.1757 5.7696 0.7400 -4.2237
# 3 19.0339 19.1757 86.2680 15.1773 1.3674 0.4347
# 4 2.4181 5.7696 15.1773 29.8920 3.4152 -0.0981
# 5 -10.3946 0.7400 1.3674 3.4152 26.3092 6.6884
# 6 -6.0882 -4.2237 0.4347 -0.0981 6.6884 27.2430
#
#
#
# Elastic Compliance Matrix: (Units=1/GPa)
#
#
# Indices 1 2 3 4 5 6 
#
# 1 0.013062 -0.003487 -0.002223 0.000172 0.005054 0.001174
# 2 -0.003487 0.009391 -0.001167 -0.000732 -0.001773 0.001128
# 3 -0.002223 -0.001167 0.013476 -0.006381 -0.000517 -0.000789
# 4 0.000172 -0.000732 -0.006381 0.037370 -0.004770 0.001332
# 5 0.005054 -0.001773 -0.000517 -0.004770 0.043182 -0.009756
# 6 0.001174 0.001128 -0.000789 0.001332 -0.009756 0.039556
#
#
# Mechanical properties :
#
#
# Convention : Reuss Voigt Hill
#
# Bulk Modulus (GPa) = 45.09569 50.28644 47.69106
# Shear Modulus (GPa) = 28.21918 31.97248 30.09583
#
# Velocity S-wave (km/s) = 3.78378 4.02756 3.90757
# Velocity P-wave (km/s) = 6.47831 6.86593 6.67494
#
# Compressibility (1/GPa) = 0.02217507
#
# Stress axis : x y z
#
# Youngs Moduli (GPa) = 76.55640 106.48799 74.20374
#
# Poissons Ratio (x) = 0.37136 0.16496
# Poissons Ratio (y) = 0.26698 0.08658
# Poissons Ratio (z) = 0.17019 0.12425
#
# Static dielectric constant tensor:
#      x y z
#    x 3.686510 0.188420 -0.228840 
#    y 0.188420 3.758560 0.130710 
#    z -0.228840 0.130710 3.762660 
# 
# 
# High freq. dielectric constant tensor:
#      x y z
#    x 1.745150 0.010650 -0.010130 
#    y 0.010650 1.761610 0.025940 
#    z -0.010130 0.025940 1.781450 
# 
# From -- ./inp_files/390114.got.cif
#   From: 2010.06.25/outbox.cif.g09.slc.cpg/sg2_196_cif.got.tgz:390114.got - 2010.06.27 13:26:56.
