data_PCOD8041262
_publ_section_title
;
Structure prediction by ZEFSAII (Michael W. Deem and Ramdas Pophale) SiO2 
 PCOD8041262
Probable space group: P -1
;
_chemical_formula_sum "Si O2"
_cell_formula_units_Z 14
_cell_length_a 14.447996
_cell_length_b 14.959715
_cell_length_c 14.674874
_cell_angle_alpha 57.532429
_cell_angle_beta 159.427944
_cell_angle_gamma 134.688800
_cell_volume 692.169940
_symmetry_space_group_name_H-M "P -1"
_symmetry_group_IT_number 2
_symmetry_cell_setting 'triclinic'
loop_
_space_group_symop_operation_xyz
x,y,z
-x,-y,-z
loop_
_atom_site_type_symbol
_atom_site_label
_atom_site_fract_x
_atom_site_fract_y
_atom_site_fract_z
Si Si1 0.853306 0.939338 0.115381
Si Si2 0.531487 0.181201 0.889338
Si Si3 0.557906 0.326601 0.004713
Si Si4 0.304895 0.711138 0.595889
Si Si5 0.654437 0.929411 0.660678
Si Si6 0.740685 0.534607 0.308944
Si Si7 0.947917 0.102186 0.278989
O O1 0.796234 0.822190 0.193762
O O2 0.841936 0.040838 0.111905
O O3 0.535613 0.852553 0.795531
O O4 0.238567 0.045331 0.361294
O O5 0.614877 0.299930 0.969893
O O6 0.358547 0.185833 0.636495
O O7 0.280145 0.024659 0.788348
O O8 0.886431 0.212216 0.170941
O O9 0.503055 0.438607 0.889578
O O10 0.906489 0.388071 0.347801
O O11 0.349103 0.761756 0.503817
O O12 0.462804 0.633810 0.791005
O O13 0.886756 0.601700 0.303723
O O14 0.500000 0.000000 0.500000
O O15 0.000000 0.000000 0.000000
#
# Coordination Sequence:
#
# PCOD8041262 Si02
#       7
#     2   2   2   2   2   2   2
#     4   9  19  32  50  73 101 129 158 195 242 291
#     4   9  17  29  45  68  96 120 153 197 239 286
#     4  10  19  32  50  73  98 127 161 199 241 283
#     4   9  20  34  49  72 102 130 163 197 232 283
#     4  10  20  33  49  69  97 132 162 195 236 281
#     4  10  20  32  50  72  98 132 163 195 235 279
#     4   9  17  28  45  69  95 123 151 190 245 290
#
# _framework density 20.226246
#
# number of rings (size 3 to 8) (size 9 to 14) (size 15 to 20)
#    0.000    2.571    0.000    1.714    0.000   16.571 
#    0.000    0.000    0.000    0.000    0.000    6.000 
#    0.000    0.000    0.000    0.000    0.000    0.000 
#
# Total GULP energy -173453.026406 kJ/mol
# GULP energy per Si atom -12389.501886 kJ/mol
# Density = 2.018021 g / cm^3
# Si number density = 20.226246 Si / 1000 Ang^3
#
#
#
# Elastic Constant Matrix: (Units=GPa)
#
#
# Indices 1 2 3 4 5 6 
#
# 1 114.9275 56.8207 29.2530 -7.7957 2.4477 -19.3992
# 2 56.8207 80.9003 23.7595 -15.5223 8.7079 -11.0831
# 3 29.2530 23.7595 64.1380 -24.9465 3.1848 -13.3120
# 4 -7.7957 -15.5223 -24.9465 29.0615 -9.7964 13.2193
# 5 2.4477 8.7079 3.1848 -9.7964 25.1264 -0.6905
# 6 -19.3992 -11.0831 -13.3120 13.2193 -0.6905 37.7641
#
#
#
# Elastic Compliance Matrix: (Units=1/GPa)
#
#
# Indices 1 2 3 4 5 6 
#
# 1 0.015564 -0.010114 -0.005543 -0.009040 -0.000662 0.006225
# 2 -0.010114 0.021194 -0.000318 0.008172 -0.003188 -0.002006
# 3 -0.005543 -0.000318 0.027158 0.024844 0.006841 -0.001939
# 4 -0.009040 0.008172 0.024844 0.074187 0.023301 -0.019031
# 5 -0.000662 -0.003188 0.006841 0.023301 0.049017 -0.006125
# 6 0.006225 -0.002006 -0.001939 -0.019031 -0.006125 0.034956
#
#
# Mechanical properties :
#
#
# Convention : Reuss Voigt Hill
#
# Bulk Modulus (GPa) = 31.28290 53.29246 42.28768
# Shear Modulus (GPa) = 18.89051 28.39926 23.64489
#
# Velocity S-wave (km/s) = 3.05939 3.75117 3.42280
# Velocity P-wave (km/s) = 5.28960 6.72065 6.04760
#
# Compressibility (1/GPa) = 0.03196635
#
# Stress axis : x y z
#
# Youngs Moduli (GPa) = 64.24985 47.18276 36.82100
#
# Poissons Ratio (x) = 0.47721 0.20411
# Poissons Ratio (y) = 0.64983 0.01170
# Poissons Ratio (z) = 0.35616 0.01499
#
# Static dielectric constant tensor:
#      x y z
#    x 3.924550 0.122320 0.124090 
#    y 0.122320 3.818750 -0.036570 
#    z 0.124090 -0.036570 3.590340 
# 
# 
# High freq. dielectric constant tensor:
#      x y z
#    x 1.777850 -0.020350 -0.000700 
#    y -0.020350 1.760190 -0.021270 
#    z -0.000700 -0.021270 1.777210 
# 
# From -- ./inp_files/70357.got.cif
#   From: 2010.06.25/outbox.cif.g09.slc.cpg/sg2_36_cif.got.tgz:70357.got - 2010.06.27 13:26:56.
