data_PCOD8041853
_publ_section_title
;
Structure prediction by ZEFSAII (Michael W. Deem and Ramdas Pophale) SiO2 
 PCOD8041853
Probable space group: P -1
;
_chemical_formula_sum "Si O2"
_cell_formula_units_Z 16
_cell_length_a 13.009922
_cell_length_b 30.847229
_cell_length_c 10.574353
_cell_angle_alpha 25.627896
_cell_angle_beta 146.286499
_cell_angle_gamma 154.589836
_cell_volume 784.127848
_symmetry_space_group_name_H-M "P -1"
_symmetry_group_IT_number 2
_symmetry_cell_setting 'triclinic'
loop_
_space_group_symop_operation_xyz
x,y,z
-x,-y,-z
loop_
_atom_site_type_symbol
_atom_site_label
_atom_site_fract_x
_atom_site_fract_y
_atom_site_fract_z
Si Si1 0.870540 0.741222 0.858767
Si Si2 0.189910 0.979592 0.719406
Si Si3 0.349150 0.859594 0.649577
Si Si4 0.680539 0.160359 0.622565
Si Si5 0.385362 0.652220 0.305197
Si Si6 0.009915 0.607507 0.504501
Si Si7 0.664301 0.395464 0.332650
Si Si8 0.160832 0.325703 0.277120
O O1 0.622064 0.716132 0.678230
O O2 0.930191 0.727434 0.816046
O O3 0.092990 0.886238 0.744749
O O4 0.846312 0.638288 0.196753
O O5 0.449184 0.111117 0.599310
O O6 0.000000 0.000000 0.500000
O O7 0.216782 0.913463 0.039711
O O8 0.394133 0.868938 0.521935
O O9 0.062850 0.773065 0.600604
O O10 0.500000 0.000000 0.500000
O O11 0.442066 0.789041 0.993407
O O12 0.877183 0.315297 0.449995
O O13 0.271541 0.588527 0.494566
O O14 0.626620 0.674936 0.462603
O O15 0.177703 0.549926 0.259166
O O16 0.222033 0.655425 0.496373
O O17 0.751151 0.529629 0.007454
#
# Coordination Sequence:
#
# PCOD8041853 Si02
#       8
#     2   2   2   2   2   2   2   2
#     4  10  19  33  61  93 122 147 200 264 291 350
#     4  10  21  41  65  87 118 161 200 250 308 350
#     4  12  27  44  60  85 126 168 203 243 302 368
#     4  10  25  41  59  92 122 156 210 247 292 374
#     4  11  22  38  64  93 125 160 199 254 301 352
#     4  11  19  36  61  87 123 154 196 253 305 342
#     4  11  19  35  64  99 119 152 206 249 305 356
#     4  11  21  38  62  93 121 156 206 248 301 356
#
# _framework density 20.404836
#
# number of rings (size 3 to 8) (size 9 to 14) (size 15 to 20)
#    0.000    1.250    3.750    3.375    0.000    6.000 
#    0.000    0.625    0.000    0.000    0.000    0.000 
#    0.000    0.000    0.000    0.000    0.000    0.000 
#
# Total GULP energy -198396.872895 kJ/mol
# GULP energy per Si atom -12399.804556 kJ/mol
# Density = 2.035839 g / cm^3
# Si number density = 20.404836 Si / 1000 Ang^3
#
#
#
# Elastic Constant Matrix: (Units=GPa)
#
#
# Indices 1 2 3 4 5 6 
#
# 1 77.8185 27.5962 35.6940 6.9282 7.3328 2.7160
# 2 27.5962 100.9298 46.9196 -6.6989 3.5000 -10.8117
# 3 35.6940 46.9196 90.2984 -7.2991 14.0038 2.9485
# 4 6.9282 -6.6989 -7.2991 26.9478 3.6367 0.1405
# 5 7.3328 3.5000 14.0038 3.6367 24.9046 0.9534
# 6 2.7160 -10.8117 2.9485 0.1405 0.9534 30.0135
#
#
#
# Elastic Compliance Matrix: (Units=1/GPa)
#
#
# Indices 1 2 3 4 5 6 
#
# 1 0.017133 -0.002594 -0.005838 -0.006572 -0.000366 -0.001869
# 2 -0.002594 0.014530 -0.006869 0.002111 0.002044 0.006069
# 3 -0.005838 -0.006869 0.018911 0.006109 -0.008705 -0.003556
# 4 -0.006572 0.002111 0.006109 0.042049 -0.007968 0.000811
# 5 -0.000366 0.002044 -0.008705 -0.007968 0.046025 0.000200
# 6 -0.001869 0.006069 -0.003556 0.000811 0.000200 0.036013
#
#
# Mechanical properties :
#
#
# Convention : Reuss Voigt Hill
#
# Bulk Modulus (GPa) = 50.07017 54.38515 52.22766
# Shear Modulus (GPa) = 23.59395 26.96232 25.27813
#
# Velocity S-wave (km/s) = 3.40412 3.63901 3.52352
# Velocity P-wave (km/s) = 6.32790 6.66089 6.49653
#
# Compressibility (1/GPa) = 0.01997197
#
# Stress axis : x y z
#
# Youngs Moduli (GPa) = 58.36693 68.82515 52.87929
#
# Poissons Ratio (x) = 0.17856 0.30870
# Poissons Ratio (y) = 0.15142 0.36321
# Poissons Ratio (z) = 0.34074 0.47273
#
# Static dielectric constant tensor:
#      x y z
#    x 3.584980 -0.026110 0.263480 
#    y -0.026110 3.900580 -0.015560 
#    z 0.263480 -0.015560 3.631140 
# 
# 
# High freq. dielectric constant tensor:
#      x y z
#    x 1.785640 0.003580 0.023610 
#    y 0.003580 1.815440 0.000910 
#    z 0.023610 0.000910 1.782660 
# 
# From -- ./inp_files/285774.got.cif
#   From: 2010.06.25/outbox.cif.g09.slc.cpg/sg2_143_cif.got.tgz:285774.got - 2010.06.27 13:26:56.
