data_PCOD8041103
_publ_section_title
;
Structure prediction by ZEFSAII (Michael W. Deem and Ramdas Pophale) SiO2 
 PCOD8041103
Probable space group: P -1
;
_chemical_formula_sum "Si O2"
_cell_formula_units_Z 16
_cell_length_a 14.037827
_cell_length_b 12.559319
_cell_length_c 15.145451
_cell_angle_alpha 26.486340
_cell_angle_beta 49.348831
_cell_angle_gamma 41.025008
_cell_volume 779.094652
_symmetry_space_group_name_H-M "P -1"
_symmetry_group_IT_number 2
_symmetry_cell_setting 'triclinic'
loop_
_space_group_symop_operation_xyz
x,y,z
-x,-y,-z
loop_
_atom_site_type_symbol
_atom_site_label
_atom_site_fract_x
_atom_site_fract_y
_atom_site_fract_z
Si Si1 0.896021 0.433183 0.355398
Si Si2 0.200703 0.776489 0.056672
Si Si3 0.696121 0.041757 0.982368
Si Si4 0.858971 0.946879 0.786530
Si Si5 0.047500 0.342551 0.678290
Si Si6 0.121288 0.442651 0.086110
Si Si7 0.424786 0.358488 0.026879
Si Si8 0.498132 0.226573 0.268095
O O1 0.755639 0.713800 0.197730
O O2 0.921749 0.467919 0.416625
O O3 0.039169 0.353852 0.271267
O O4 0.866064 0.181803 0.551542
O O5 0.341231 0.497031 0.155406
O O6 0.071839 0.715035 0.163527
O O7 0.205976 0.870083 0.084214
O O8 0.185596 0.029503 0.815448
O O9 0.720865 0.096354 0.825571
O O10 0.526900 0.220870 0.980982
O O11 0.828983 0.757644 0.879431
O O12 0.011263 0.758698 0.887012
O O13 0.000000 0.500000 0.500000
O O14 0.265604 0.406153 0.072043
O O15 0.398290 0.667125 0.833354
O O16 0.516217 0.147964 0.210618
O O17 0.500000 0.000000 0.500000
#
# Coordination Sequence:
#
# PCOD8041103 Si02
#       8
#     2   2   2   2   2   2   2   2
#     4  10  20  36  57  80 111 148 191 237 282 337
#     4   9  19  34  49  78 114 141 185 233 273 338
#     4   9  20  37  55  79 113 149 184 233 290 338
#     4  10  21  39  61  82 111 150 192 237 291 345
#     4  10  19  30  53  81 108 145 185 230 284 334
#     4  10  22  39  59  85 113 147 190 241 291 335
#     4  10  22  39  58  85 121 149 189 242 283 343
#     4  10  22  38  57  81 117 160 191 227 286 347
#
# _framework density 20.536656000000001
#
# number of rings (size 3 to 8) (size 9 to 14) (size 15 to 20)
#    0.000    2.250    0.000    1.875    0.000   11.500 
#    0.000    0.625    0.000    0.000    0.000    0.000 
#    0.000    0.000    0.000    0.000    0.000    0.000 
#
# Total GULP energy -198282.625360 kJ/mol
# GULP energy per Si atom -12392.664085 kJ/mol
# Density = 2.048991 g / cm^3
# Si number density = 20.536656 Si / 1000 Ang^3
#
#
#
# Elastic Constant Matrix: (Units=GPa)
#
#
# Indices 1 2 3 4 5 6 
#
# 1 69.0057 21.2921 26.4091 3.6332 -0.7711 -5.0079
# 2 21.2921 109.2779 30.3594 4.8714 1.2878 -1.3351
# 3 26.4091 30.3594 115.6810 11.1209 -1.3475 1.0932
# 4 3.6332 4.8714 11.1209 26.5120 2.5207 2.5866
# 5 -0.7711 1.2878 -1.3475 2.5207 24.5438 2.0802
# 6 -5.0079 -1.3351 1.0932 2.5866 2.0802 21.4349
#
#
#
# Elastic Compliance Matrix: (Units=1/GPa)
#
#
# Indices 1 2 3 4 5 6 
#
# 1 0.016757 -0.002296 -0.003166 -0.000961 0.000231 0.004027
# 2 -0.002296 0.010225 -0.002108 -0.000649 -0.000688 0.000353
# 3 -0.003166 -0.002108 0.010277 -0.003482 0.001024 -0.001074
# 4 -0.000961 -0.000649 -0.003482 0.040250 -0.003934 -0.004563
# 5 0.000231 -0.000688 0.001024 -0.003934 0.041552 -0.003599
# 6 0.004027 0.000353 -0.001074 -0.004563 -0.003599 0.048570
#
#
# Mechanical properties :
#
#
# Convention : Reuss Voigt Hill
#
# Bulk Modulus (GPa) = 45.20958 50.00952 47.60955
# Shear Modulus (GPa) = 26.29557 28.89173 27.59365
#
# Velocity S-wave (km/s) = 3.58218 3.75485 3.66953
# Velocity P-wave (km/s) = 6.25869 6.57288 6.41771
#
# Compressibility (1/GPa) = 0.02211921
#
# Stress axis : x y z
#
# Youngs Moduli (GPa) = 59.67615 97.79523 97.30108
#
# Poissons Ratio (x) = 0.22455 0.30804
# Poissons Ratio (y) = 0.13702 0.20514
# Poissons Ratio (z) = 0.18893 0.20619
#
# Static dielectric constant tensor:
#      x y z
#    x 3.630770 0.078440 -0.118300 
#    y 0.078440 4.059590 -0.187110 
#    z -0.118300 -0.187110 4.967160 
# 
# 
# High freq. dielectric constant tensor:
#      x y z
#    x 1.783140 0.005340 -0.002500 
#    y 0.005340 1.815890 0.000640 
#    z -0.002500 0.000640 1.796200 
# 
# From -- ./inp_files/532254.got.cif
#   From: 2010.06.25/outbox.cif.g09.slc.cpg/sg2_267_cif.got.tgz:532254.got - 2010.06.27 13:26:56.
