data_PCOD8041695
_publ_section_title
;
Structure prediction by ZEFSAII (Michael W. Deem and Ramdas Pophale) SiO2 
 PCOD8041695
Probable space group: P -1
;
_chemical_formula_sum "Si O2"
_cell_formula_units_Z 16
_cell_length_a 6.295312
_cell_length_b 11.119641
_cell_length_c 14.318227
_cell_angle_alpha 117.492410
_cell_angle_beta 120.692248
_cell_angle_gamma 87.078114
_cell_volume 741.826572
_symmetry_space_group_name_H-M "P -1"
_symmetry_group_IT_number 2
_symmetry_cell_setting 'triclinic'
loop_
_space_group_symop_operation_xyz
x,y,z
-x,-y,-z
loop_
_atom_site_type_symbol
_atom_site_label
_atom_site_fract_x
_atom_site_fract_y
_atom_site_fract_z
Si Si1 0.831023 0.453088 0.637633
Si Si2 0.119301 0.694321 0.903713
Si Si3 0.733802 0.844462 0.803953
Si Si4 0.998723 0.801649 0.493745
Si Si5 0.868400 0.136719 0.865455
Si Si6 0.418626 0.045760 0.598241
Si Si7 0.417404 0.143827 0.026306
Si Si8 0.720439 0.678655 0.563880
O O1 0.839573 0.557859 0.589755
O O2 0.536792 0.386145 0.575683
O O3 0.967695 0.536811 0.788655
O O4 0.986737 0.340934 0.604450
O O5 0.407670 0.729419 0.946425
O O6 0.007371 0.809664 0.864431
O O7 0.115107 0.718708 0.023198
O O8 0.582579 0.791106 0.845935
O O9 0.619946 0.767053 0.654859
O O10 0.747564 0.008106 0.860989
O O11 0.765374 0.850070 0.411952
O O12 0.934167 0.775465 0.580228
O O13 0.267756 0.915124 0.580761
O O14 0.687562 0.127392 0.732116
O O15 0.150918 0.119793 0.900739
O O16 0.500000 0.000000 0.500000
O O17 0.500000 0.000000 0.000000
#
# Coordination Sequence:
#
# PCOD8041695 Si02
#       8
#     2   2   2   2   2   2   2   2
#     4  10  22  39  62  95 132 163 210 263 317 380
#     4  10  21  35  56  90 126 166 203 256 320 381
#     4  10  19  33  56  89 126 160 203 260 317 370
#     4  11  23  43  68  89 125 170 215 264 317 385
#     4  11  21  36  59  87 124 164 205 260 320 367
#     4  11  26  45  65  95 125 163 219 273 319 366
#     4  11  19  35  57  88 131 167 205 254 313 382
#     4  10  22  39  64  96 130 167 207 263 327 376
#
# _framework density 21.568382
#
# number of rings (size 3 to 8) (size 9 to 14) (size 15 to 20)
#    0.000    1.500    2.500    3.375    0.000   11.000 
#    2.250    0.625    0.000    3.750    0.000    0.000 
#    0.000    0.000    0.000    0.000    0.000    0.000 
#
# Total GULP energy -198308.294089 kJ/mol
# GULP energy per Si atom -12394.268381 kJ/mol
# Density = 2.151929 g / cm^3
# Si number density = 21.568382 Si / 1000 Ang^3
#
#
#
# Elastic Constant Matrix: (Units=GPa)
#
#
# Indices 1 2 3 4 5 6 
#
# 1 118.3017 41.2064 63.5186 2.8756 1.7965 -2.8945
# 2 41.2064 70.2958 33.4197 8.0416 -5.1802 -10.8135
# 3 63.5186 33.4197 170.4614 6.8914 0.2338 -11.2507
# 4 2.8756 8.0416 6.8914 26.2602 -5.8411 -1.6339
# 5 1.7965 -5.1802 0.2338 -5.8411 35.9554 3.9128
# 6 -2.8945 -10.8135 -11.2507 -1.6339 3.9128 40.7985
#
#
#
# Elastic Compliance Matrix: (Units=1/GPa)
#
#
# Indices 1 2 3 4 5 6 
#
# 1 0.012436 -0.006025 -0.003598 0.001081 -0.001121 -0.001556
# 2 -0.006025 0.019574 -0.001151 -0.004338 0.001980 0.004080
# 3 -0.003598 -0.001151 0.007584 -0.001239 -0.000402 0.001520
# 4 0.001081 -0.004338 -0.001239 0.040932 0.006017 -0.000353
# 5 -0.001121 0.001980 -0.000402 0.006017 0.029378 -0.002242
# 6 -0.001556 0.004080 0.001520 -0.000353 -0.002242 0.026102
#
#
# Mechanical properties :
#
#
# Convention : Reuss Voigt Hill
#
# Bulk Modulus (GPa) = 55.41034 70.59426 63.00230
# Shear Modulus (GPa) = 30.56856 35.33045 32.94950
#
# Velocity S-wave (km/s) = 3.76877 4.05169 3.91279
# Velocity P-wave (km/s) = 6.68464 7.39526 7.04891
#
# Compressibility (1/GPa) = 0.01804717
#
# Stress axis : x y z
#
# Youngs Moduli (GPa) = 80.41266 51.08789 131.86508
#
# Poissons Ratio (x) = 0.30780 0.47439
# Poissons Ratio (y) = 0.48449 0.15172
# Poissons Ratio (z) = 0.28929 0.05878
#
# Static dielectric constant tensor:
#      x y z
#    x 3.994130 -0.096790 0.058420 
#    y -0.096790 3.691690 0.153970 
#    z 0.058420 0.153970 4.025320 
# 
# 
# High freq. dielectric constant tensor:
#      x y z
#    x 1.854100 -0.013000 0.003950 
#    y -0.013000 1.813840 0.008060 
#    z 0.003950 0.008060 1.845310 
# 
# From -- ./inp_files/118705.got.cif
#   From: 2010.06.25/outbox.cif.g09.slc.cpg/sg2_60_cif.got.tgz:118705.got - 2010.06.27 13:26:56.
