data_PCOD8041293
_publ_section_title
;
Structure prediction by ZEFSAII (Michael W. Deem and Ramdas Pophale) SiO2 
 PCOD8041293
Probable space group: P -1
;
_chemical_formula_sum "Si O2"
_cell_formula_units_Z 12
_cell_length_a 6.223823
_cell_length_b 14.835383
_cell_length_c 11.205128
_cell_angle_alpha 42.695460
_cell_angle_beta 113.936852
_cell_angle_gamma 125.510303
_cell_volume 570.660699
_symmetry_space_group_name_H-M "P -1"
_symmetry_group_IT_number 2
_symmetry_cell_setting 'triclinic'
loop_
_space_group_symop_operation_xyz
x,y,z
-x,-y,-z
loop_
_atom_site_type_symbol
_atom_site_label
_atom_site_fract_x
_atom_site_fract_y
_atom_site_fract_z
Si Si1 0.912978 0.051064 0.258562
Si Si2 0.233683 0.602319 0.866728
Si Si3 0.948504 0.782097 0.631438
Si Si4 0.140794 0.200529 0.912388
Si Si5 0.424385 0.484886 0.822347
Si Si6 0.612261 0.000234 0.896329
O O1 0.058758 0.167778 0.283400
O O2 0.969612 0.908813 0.421016
O O3 0.594936 0.993695 0.252033
O O4 0.021264 0.128812 0.082554
O O5 0.222918 0.527932 0.807533
O O6 0.204813 0.753664 0.694715
O O7 0.501999 0.623624 0.971083
O O8 0.000000 0.500000 0.000000
O O9 0.679010 0.631558 0.692395
O O10 0.272006 0.380923 0.776116
O O11 0.905146 0.142587 0.816810
O O12 0.361998 0.151686 0.969882
O O13 0.500000 0.000000 0.000000
#
# Coordination Sequence:
#
# PCOD8041293 Si02
#       6
#     2   2   2   2   2   2
#     4  10  20  35  52  77 110 139 168 207 258 311
#     4   9  17  30  48  74 106 136 168 207 252 303
#     4  10  21  33  51  80 112 138 163 207 263 310
#     4  10  19  35  58  77  99 135 179 217 250 299
#     4  10  19  32  52  78 102 133 175 213 253 302
#     4   9  20  36  56  77  99 135 179 217 253 300
#
# _framework density 21.028255999999999
#
# number of rings (size 3 to 8) (size 9 to 14) (size 15 to 20)
#    0.000    2.333    0.000    4.000    0.000    5.333 
#    0.000    5.000    0.000   10.000    0.000    0.000 
#    0.000    0.000    0.000    0.000    0.000    0.000 
#
# Total GULP energy -148727.197350 kJ/mol
# GULP energy per Si atom -12393.933113 kJ/mol
# Density = 2.098040 g / cm^3
# Si number density = 21.028256 Si / 1000 Ang^3
#
#
#
# Elastic Constant Matrix: (Units=GPa)
#
#
# Indices 1 2 3 4 5 6 
#
# 1 90.2642 13.6982 17.6598 -13.3318 24.2932 -14.4742
# 2 13.6982 108.1893 19.5667 -27.3187 3.3239 0.1685
# 3 17.6598 19.5667 52.4159 -15.5422 18.6171 7.2927
# 4 -13.3318 -27.3187 -15.5422 26.9200 -6.6098 6.4944
# 5 24.2932 3.3239 18.6171 -6.6098 30.0302 -1.9439
# 6 -14.4742 0.1685 7.2927 6.4944 -1.9439 33.4460
#
#
#
# Elastic Compliance Matrix: (Units=1/GPa)
#
#
# Indices 1 2 3 4 5 6 
#
# 1 0.015682 -0.000941 -0.001329 0.001889 -0.010949 0.006078
# 2 -0.000941 0.012824 -0.001203 0.013173 0.002819 -0.002604
# 3 -0.001329 -0.001203 0.031709 0.015287 -0.015821 -0.011371
# 4 0.001889 0.013173 0.015287 0.064055 0.000665 -0.014981
# 5 -0.010949 0.002819 -0.015821 0.000665 0.051902 0.001585
# 6 0.006078 -0.002604 -0.011371 -0.014981 0.001585 0.038023
#
#
# Mechanical properties :
#
#
# Convention : Reuss Voigt Hill
#
# Bulk Modulus (GPa) = 18.77256 39.19098 28.98177
# Shear Modulus (GPa) = 20.92968 31.40888 26.16928
#
# Velocity S-wave (km/s) = 3.15828 3.86897 3.53155
# Velocity P-wave (km/s) = 4.71660 6.21581 5.51737
#
# Compressibility (1/GPa) = 0.05326923
#
# Stress axis : x y z
#
# Youngs Moduli (GPa) = 63.76866 77.98158 31.53671
#
# Poissons Ratio (x) = 0.07340 0.04190
# Poissons Ratio (y) = 0.06002 0.03793
# Poissons Ratio (z) = 0.08473 0.09378
#
# Static dielectric constant tensor:
#      x y z
#    x 4.304380 0.143450 0.593110 
#    y 0.143450 4.157160 0.002850 
#    z 0.593110 0.002850 3.517350 
# 
# 
# High freq. dielectric constant tensor:
#      x y z
#    x 1.838000 -0.004970 0.019280 
#    y -0.004970 1.828910 -0.012310 
#    z 0.019280 -0.012310 1.772480 
# 
# From -- ./inp_files/57499.got.cif
#   From: 2010.06.25/outbox.cif.g09.slc.cpg/sg2_29_cif.got.tgz:57499.got - 2010.06.27 13:26:56.
