data_PCOD8041785
_publ_section_title
;
Structure prediction by ZEFSAII (Michael W. Deem and Ramdas Pophale) SiO2 
 PCOD8041785
Probable space group: P -1
;
_chemical_formula_sum "Si O2"
_cell_formula_units_Z 16
_cell_length_a 25.544531
_cell_length_b 12.733347
_cell_length_c 12.260182
_cell_angle_alpha 37.578075
_cell_angle_beta 36.428339
_cell_angle_gamma 19.269513
_cell_volume 770.324196
_symmetry_space_group_name_H-M "P -1"
_symmetry_group_IT_number 2
_symmetry_cell_setting 'triclinic'
loop_
_space_group_symop_operation_xyz
x,y,z
-x,-y,-z
loop_
_atom_site_type_symbol
_atom_site_label
_atom_site_fract_x
_atom_site_fract_y
_atom_site_fract_z
Si Si1 0.331313 0.169450 0.257450
Si Si2 0.587202 0.352773 0.155585
Si Si3 0.916227 0.807604 0.929828
Si Si4 0.560980 0.777989 0.777969
Si Si5 0.710775 0.495064 0.121999
Si Si6 0.655391 0.217780 0.396342
Si Si7 0.711169 0.370770 0.657999
Si Si8 0.787154 0.477444 0.244703
O O1 0.339452 0.245390 0.299844
O O2 0.514462 0.833040 0.182488
O O3 0.246643 0.119151 0.453649
O O4 0.231549 0.455809 0.103739
O O5 0.583501 0.299674 0.329757
O O6 0.440950 0.505395 0.208899
O O7 0.567233 0.590343 0.987945
O O8 0.759943 0.009758 0.096700
O O9 0.044735 0.696220 0.881326
O O10 0.862751 0.014476 0.747756
O O11 0.000000 0.500000 0.000000
O O12 0.648564 0.619783 0.643386
O O13 0.369838 0.141650 0.785996
O O14 0.763903 0.214404 0.223245
O O15 0.797302 0.384119 0.183421
O O16 0.500000 0.500000 0.500000
O O17 0.778118 0.338564 0.460890
#
# Coordination Sequence:
#
# PCOD8041785 Si02
#       8
#     2   2   2   2   2   2   2   2
#     4   9  17  31  55  88 117 156 197 254 305 354
#     4  11  21  38  62  93 122 161 210 258 307 367
#     4  11  24  42  59  87 129 166 199 252 321 372
#     4  10  19  34  60  90 123 155 207 261 308 362
#     4   9  18  34  53  85 121 152 203 247 303 360
#     4  10  19  33  58  91 122 157 205 262 303 356
#     4  11  22  38  62  91 118 158 214 257 304 370
#     4  11  22  38  60  90 122 165 199 252 317 372
#
# _framework density 20.770477
#
# number of rings (size 3 to 8) (size 9 to 14) (size 15 to 20)
#    0.000    1.750    1.250    6.000    1.750    1.000 
#    2.250    0.625    0.000    0.750    0.000    0.000 
#    0.000    0.000    0.000    0.000    0.000    0.000 
#
# Total GULP energy -198381.258902 kJ/mol
# GULP energy per Si atom -12398.828681 kJ/mol
# Density = 2.072320 g / cm^3
# Si number density = 20.770477 Si / 1000 Ang^3
#
#
#
# Elastic Constant Matrix: (Units=GPa)
#
#
# Indices 1 2 3 4 5 6 
#
# 1 138.4449 42.3982 64.5332 -21.6710 -1.3478 2.2055
# 2 42.3982 65.9437 16.2331 -18.6160 -2.9343 1.5862
# 3 64.5332 16.2331 109.6860 -32.4214 1.6272 6.0564
# 4 -21.6710 -18.6160 -32.4214 23.6024 2.9488 -8.9505
# 5 -1.3478 -2.9343 1.6272 2.9488 40.9238 -6.9109
# 6 2.2055 1.5862 6.0564 -8.9505 -6.9109 24.9361
#
#
#
# Elastic Compliance Matrix: (Units=1/GPa)
#
#
# Indices 1 2 3 4 5 6 
#
# 1 0.012271 -0.007523 -0.007725 -0.005563 0.000472 -0.000597
# 2 -0.007523 0.025473 0.008286 0.027124 0.000459 0.006896
# 3 -0.007725 0.008286 0.021357 0.031147 -0.001800 0.005650
# 4 -0.005563 0.027124 0.031147 0.113616 -0.002374 0.031325
# 5 0.000472 0.000459 -0.001800 -0.002374 0.025855 0.006680
# 6 -0.000597 0.006896 0.005650 0.031325 0.006680 0.051439
#
#
# Mechanical properties :
#
#
# Convention : Reuss Voigt Hill
#
# Bulk Modulus (GPa) = 22.13476 62.26708 42.20092
# Shear Modulus (GPa) = 17.92158 30.61979 24.27069
#
# Velocity S-wave (km/s) = 2.94060 3.84369 3.42207
# Velocity P-wave (km/s) = 4.71269 7.05283 5.99799
#
# Compressibility (1/GPa) = 0.04517782
#
# Stress axis : x y z
#
# Youngs Moduli (GPa) = 81.49310 39.25671 46.82376
#
# Poissons Ratio (x) = 0.29533 0.36169
# Poissons Ratio (y) = 0.61308 -0.38799
# Poissons Ratio (z) = 0.62950 -0.32528
#
# Static dielectric constant tensor:
#      x y z
#    x 3.752670 -0.002760 0.012790 
#    y -0.002760 3.437850 -0.255640 
#    z 0.012790 -0.255640 4.059370 
# 
# 
# High freq. dielectric constant tensor:
#      x y z
#    x 1.824390 0.013380 0.004970 
#    y 0.013380 1.780380 -0.020770 
#    z 0.004970 -0.020770 1.822190 
# 
# From -- ./inp_files/189223.got.cif
#   From: 2010.06.25/outbox.cif.g09.slc.cpg/sg2_95_cif.got.tgz:189223.got - 2010.06.27 13:26:56.
