data_PCOD8041971
_publ_section_title
;
Structure prediction by ZEFSAII (Michael W. Deem and Ramdas Pophale) SiO2 
 PCOD8041971
Probable space group: P -1
;
_chemical_formula_sum "Si O2"
_cell_formula_units_Z 16
_cell_length_a 5.314319
_cell_length_b 25.080826
_cell_length_c 12.404811
_cell_angle_alpha 150.620044
_cell_angle_beta 121.066822
_cell_angle_gamma 65.216174
_cell_volume 692.982559
_symmetry_space_group_name_H-M "P -1"
_symmetry_group_IT_number 2
_symmetry_cell_setting 'triclinic'
loop_
_space_group_symop_operation_xyz
x,y,z
-x,-y,-z
loop_
_atom_site_type_symbol
_atom_site_label
_atom_site_fract_x
_atom_site_fract_y
_atom_site_fract_z
Si Si1 0.728233 0.207733 0.685957
Si Si2 0.899321 0.597761 0.293980
Si Si3 0.710301 0.279449 0.242266
Si Si4 0.312465 0.907641 0.931937
Si Si5 0.099799 0.017376 0.732839
Si Si6 0.758204 0.357289 0.766340
Si Si7 0.019399 0.238525 0.020144
Si Si8 0.857268 0.887888 0.635712
O O1 0.861446 0.260526 0.697168
O O2 0.373444 0.217104 0.617926
O O3 0.764842 0.078285 0.474380
O O4 0.869647 0.270938 0.931593
O O5 0.594727 0.653308 0.350589
O O6 0.128450 0.618896 0.479856
O O7 0.056437 0.649238 0.312881
O O8 0.838586 0.468938 0.044330
O O9 0.795905 0.168576 0.124954
O O10 0.357583 0.287426 0.179488
O O11 0.834295 0.285610 0.159327
O O12 0.176747 0.857000 0.699403
O O13 0.666859 0.912753 0.014794
O O14 0.244552 0.033607 0.153114
O O15 0.979653 0.106218 0.782609
O O16 0.854219 0.956917 0.646766
#
# Coordination Sequence:
#
# PCOD8041971 Si02
#       8
#     2   2   2   2   2   2   2   2
#     4  11  25  37  59  89 122 168 208 249 301 359
#     4  10  22  44  70  95 123 152 196 258 327 366
#     4  11  22  40  63  85 121 167 204 251 306 357
#     4   9  19  33  52  86 115 150 204 252 304 359
#     4  10  21  37  55  85 122 169 204 252 298 354
#     4  10  23  42  68  99 123 150 198 260 313 377
#     4  11  25  41  58  88 127 170 213 245 284 365
#     4  10  19  34  55  81 119 155 200 254 302 352
#
# _framework density 23.088605000000001
#
# number of rings (size 3 to 8) (size 9 to 14) (size 15 to 20)
#    0.000    1.750    1.250    2.250    5.250    0.500 
#    0.000    1.250    0.000    0.000    0.000    0.000 
#    0.000    0.000    0.000    0.000    0.000    0.000 
#
# Total GULP energy -198300.515958 kJ/mol
# GULP energy per Si atom -12393.782247 kJ/mol
# Density = 2.303605 g / cm^3
# Si number density = 23.088605 Si / 1000 Ang^3
#
#
#
# Elastic Constant Matrix: (Units=GPa)
#
#
# Indices 1 2 3 4 5 6 
#
# 1 126.3498 23.8293 33.4629 -19.9640 19.3211 13.7701
# 2 23.8293 64.8120 31.1443 -28.7931 13.4724 9.3675
# 3 33.4629 31.1443 99.1205 -33.1921 22.7834 0.1716
# 4 -19.9640 -28.7931 -33.1921 37.9467 -4.0125 -6.6220
# 5 19.3211 13.4724 22.7834 -4.0125 32.2937 -1.2299
# 6 13.7701 9.3675 0.1716 -6.6220 -1.2299 25.3248
#
#
#
# Elastic Compliance Matrix: (Units=1/GPa)
#
#
# Indices 1 2 3 4 5 6 
#
# 1 0.009982 -0.000163 -0.001331 0.002595 -0.004830 -0.004914
# 2 -0.000163 0.025965 -0.000237 0.017569 -0.008588 -0.005337
# 3 -0.001331 -0.000237 0.017539 0.014134 -0.009573 0.003923
# 4 0.002595 0.017569 0.014134 0.053059 -0.012060 0.005283
# 5 -0.004830 -0.008588 -0.009573 -0.012060 0.042876 0.004796
# 6 -0.004914 -0.005337 0.003923 0.005283 0.004796 0.045721
#
#
# Mechanical properties :
#
#
# Convention : Reuss Voigt Hill
#
# Bulk Modulus (GPa) = 19.99044 51.90614 35.94829
# Shear Modulus (GPa) = 23.22578 32.56943 27.89760
#
# Velocity S-wave (km/s) = 3.17510 3.75991 3.47981
# Velocity P-wave (km/s) = 4.70304 6.43267 5.63462
#
# Compressibility (1/GPa) = 0.05002392
#
# Stress axis : x y z
#
# Youngs Moduli (GPa) = 100.18042 38.51396 57.01534
#
# Poissons Ratio (x) = 0.00629 0.07588
# Poissons Ratio (y) = 0.01637 0.01350
# Poissons Ratio (z) = 0.13332 0.00912
#
# Static dielectric constant tensor:
#      x y z
#    x 4.113970 -0.060440 0.280410 
#    y -0.060440 4.010870 -0.092530 
#    z 0.280410 -0.092530 4.109450 
# 
# 
# High freq. dielectric constant tensor:
#      x y z
#    x 1.916360 0.006920 0.013660 
#    y 0.006920 1.886470 -0.011240 
#    z 0.013660 -0.011240 1.907210 
# 
# From -- ./inp_files/94397.got.cif
#   From: 2010.06.25/outbox.cif.g09.slc.cpg/sg2_48_cif.got.tgz:94397.got - 2010.06.27 13:26:56.
