data_PCOD8041348
_publ_section_title
;
Structure prediction by ZEFSAII (Michael W. Deem and Ramdas Pophale) SiO2 
 PCOD8041348
Probable space group: P -1
;
_chemical_formula_sum "Si O2"
_cell_formula_units_Z 16
_cell_length_a 14.101591
_cell_length_b 9.312236
_cell_length_c 15.965834
_cell_angle_alpha 134.333159
_cell_angle_beta 39.570293
_cell_angle_gamma 115.581206
_cell_volume 928.662725
_symmetry_space_group_name_H-M "P -1"
_symmetry_group_IT_number 2
_symmetry_cell_setting 'triclinic'
loop_
_space_group_symop_operation_xyz
x,y,z
-x,-y,-z
loop_
_atom_site_type_symbol
_atom_site_label
_atom_site_fract_x
_atom_site_fract_y
_atom_site_fract_z
Si Si1 0.104087 0.927168 0.774927
Si Si2 0.034573 0.642303 0.267106
Si Si3 0.169161 0.169614 0.978565
Si Si4 0.274671 0.721541 0.257483
Si Si5 0.596086 0.760718 0.028822
Si Si6 0.114295 0.507164 0.549904
Si Si7 0.940612 0.996797 0.351335
Si Si8 0.173579 0.242791 0.252822
O O1 0.192270 0.685729 0.605044
O O2 0.197106 0.038742 0.820449
O O3 0.100920 0.034479 0.729907
O O4 0.933711 0.933183 0.930080
O O5 0.165356 0.742084 0.259328
O O6 0.902820 0.653867 0.431664
O O7 0.963331 0.776546 0.290824
O O8 0.089050 0.405066 0.105011
O O9 0.334737 0.167375 0.903801
O O10 0.413030 0.831412 0.186205
O O11 0.187432 0.830252 0.443419
O O12 0.346195 0.482528 0.130060
O O13 0.666934 0.865084 0.945351
O O14 0.212926 0.389074 0.358800
O O15 0.941853 0.620034 0.681056
O O16 0.098632 0.071121 0.275488
#
# Coordination Sequence:
#
# PCOD8041348 Si02
#       8
#     2   2   2   2   2   2   2   2
#     4   9  17  29  50  71  90 118 168 194 227 261
#     4  10  18  30  46  70 102 123 149 189 237 279
#     4   9  17  32  49  71  91 122 157 204 225 267
#     4  10  19  29  47  73  97 126 148 188 244 282
#     4  10  17  31  49  69  97 122 155 194 237 269
#     4   9  15  27  48  71  93 116 159 197 224 266
#     4  11  19  29  49  72  98 123 155 189 229 283
#     4  10  15  28  49  69  92 121 155 196 223 267
#
# _framework density 17.229073
#
# number of rings (size 3 to 8) (size 9 to 14) (size 15 to 20)
#    0.000    2.250    6.250    1.875    0.000    0.500 
#    0.000    1.250    0.000    0.000    0.000    7.875 
#    0.000    0.000    0.000    0.000    0.000    0.000 
#
# Total GULP energy -198263.017748 kJ/mol
# GULP energy per Si atom -12391.438609 kJ/mol
# Density = 1.718986 g / cm^3
# Si number density = 17.229073 Si / 1000 Ang^3
#
#
#
# Elastic Constant Matrix: (Units=GPa)
#
#
# Indices 1 2 3 4 5 6 
#
# 1 85.7070 44.2915 52.6441 -3.5320 28.3251 8.2179
# 2 44.2915 95.1136 36.7872 -12.5573 7.8633 -11.2149
# 3 52.6441 36.7872 73.1120 -11.9423 25.7094 9.0716
# 4 -3.5320 -12.5573 -11.9423 21.5852 3.4033 3.3822
# 5 28.3251 7.8633 25.7094 3.4033 31.0510 0.8416
# 6 8.2179 -11.2149 9.0716 3.3822 0.8416 29.3282
#
#
#
# Elastic Compliance Matrix: (Units=1/GPa)
#
#
# Indices 1 2 3 4 5 6 
#
# 1 0.027874 -0.009225 -0.009901 -0.002836 -0.014378 -0.007536
# 2 -0.009225 0.018258 -0.006589 0.002360 0.008688 0.011083
# 3 -0.009901 -0.006589 0.036511 0.020116 -0.021388 -0.012745
# 4 -0.002836 0.002360 0.020116 0.063488 -0.021320 -0.011235
# 5 -0.014378 0.008688 -0.021388 -0.021320 0.062770 0.014624
# 6 -0.007536 0.011083 -0.012745 -0.011235 0.014624 0.045265
#
#
# Mechanical properties :
#
#
# Convention : Reuss Voigt Hill
#
# Bulk Modulus (GPa) = 32.03900 57.93093 44.98497
# Shear Modulus (GPa) = 15.82278 24.40687 20.11483
#
# Velocity S-wave (km/s) = 3.03376 3.76787 3.42057
# Velocity P-wave (km/s) = 5.55948 7.25438 6.46274
#
# Compressibility (1/GPa) = 0.03121196
#
# Stress axis : x y z
#
# Youngs Moduli (GPa) = 35.87582 54.76997 27.38923
#
# Poissons Ratio (x) = 0.50524 0.27119
# Poissons Ratio (y) = 0.33095 0.18048
# Poissons Ratio (z) = 0.35522 0.36089
#
# Static dielectric constant tensor:
#      x y z
#    x 3.057800 0.192910 0.291040 
#    y 0.192910 3.242880 -0.153490 
#    z 0.291040 -0.153490 3.143160 
# 
# 
# High freq. dielectric constant tensor:
#      x y z
#    x 1.632300 0.007060 0.035660 
#    y 0.007060 1.661430 -0.014270 
#    z 0.035660 -0.014270 1.642920 
# 
# From -- ./inp_files/404176.got.cif
#   From: 2010.06.25/outbox.cif.g09.slc.cpg/sg2_203_cif.got.tgz:404176.got - 2010.06.27 13:26:56.
