data_PCOD8041988
_publ_section_title
;
Structure prediction by ZEFSAII (Michael W. Deem and Ramdas Pophale) SiO2 
 PCOD8041988
Probable space group: P -1
;
_chemical_formula_sum "Si O2"
_cell_formula_units_Z 16
_cell_length_a 9.827691
_cell_length_b 10.807511
_cell_length_c 9.182077
_cell_angle_alpha 99.534982
_cell_angle_beta 122.136151
_cell_angle_gamma 94.819429
_cell_volume 796.934667
_symmetry_space_group_name_H-M "P -1"
_symmetry_group_IT_number 2
_symmetry_cell_setting 'triclinic'
loop_
_space_group_symop_operation_xyz
x,y,z
-x,-y,-z
loop_
_atom_site_type_symbol
_atom_site_label
_atom_site_fract_x
_atom_site_fract_y
_atom_site_fract_z
Si Si1 0.990664 0.985703 0.742505
Si Si2 0.156894 0.440817 0.056795
Si Si3 0.844468 0.122503 0.435423
Si Si4 0.540047 0.231132 0.339674
Si Si5 0.739819 0.487507 0.415526
Si Si6 0.522516 0.398884 0.615578
Si Si7 0.026256 0.399513 0.672084
Si Si8 0.170907 0.174845 0.117945
O O1 0.886405 0.876026 0.764209
O O2 0.131790 0.934081 0.722672
O O3 0.874283 0.028868 0.563649
O O4 0.061947 0.103424 0.911665
O O5 0.321654 0.550424 0.182849
O O6 0.161916 0.324380 0.146655
O O7 0.133411 0.383749 0.870172
O O8 0.000000 0.500000 0.000000
O O9 0.656066 0.132599 0.351406
O O10 0.967952 0.259986 0.541011
O O11 0.596155 0.359103 0.297599
O O12 0.543841 0.268508 0.522608
O O13 0.355657 0.160558 0.184098
O O14 0.652101 0.610893 0.400941
O O15 0.851657 0.502114 0.340723
O O16 0.861820 0.461922 0.614657
O O17 0.500000 0.500000 0.500000
#
# Coordination Sequence:
#
# PCOD8041988 Si02
#       8
#     2   2   2   2   2   2   2   2
#     4  10  24  41  64  86 114 160 211 251 291 351
#     4  12  22  35  60  88 122 156 196 245 300 366
#     4  10  21  41  63  87 114 157 208 252 294 346
#     4  10  21  37  63  84 123 155 195 247 302 359
#     4   9  19  36  56  89 119 158 192 239 309 372
#     4  10  19  34  55  87 118 154 189 235 304 365
#     4  10  21  34  61  86 123 156 199 247 298 369
#     4  11  23  41  62  88 121 158 201 249 302 351
#
# _framework density 20.076929
#
# number of rings (size 3 to 8) (size 9 to 14) (size 15 to 20)
#    0.000    1.750    3.750    2.250    1.750    3.500 
#    0.000    0.000    0.000    0.000    0.000    0.000 
#    0.000    0.000    0.000    0.000    0.000    0.000 
#
# Total GULP energy -198267.833138 kJ/mol
# GULP energy per Si atom -12391.739571 kJ/mol
# Density = 2.003123 g / cm^3
# Si number density = 20.076929 Si / 1000 Ang^3
#
#
#
# Elastic Constant Matrix: (Units=GPa)
#
#
# Indices 1 2 3 4 5 6 
#
# 1 126.5904 37.0518 24.2671 -15.8527 6.9876 -16.7807
# 2 37.0518 64.5690 12.1255 -10.6789 -4.1514 -9.2764
# 3 24.2671 12.1255 61.0044 -9.1969 3.3093 5.3501
# 4 -15.8527 -10.6789 -9.1969 22.5868 -1.8026 -0.8576
# 5 6.9876 -4.1514 3.3093 -1.8026 28.4193 -1.5394
# 6 -16.7807 -9.2764 5.3501 -0.8576 -1.5394 39.4177
#
#
#
# Elastic Compliance Matrix: (Units=1/GPa)
#
#
# Indices 1 2 3 4 5 6 
#
# 1 0.011052 -0.004652 -0.003042 0.004267 -0.002555 0.004016
# 2 -0.004652 0.020310 -0.001826 0.006112 0.004894 0.003371
# 3 -0.003042 -0.001826 0.019109 0.004485 -0.001692 -0.004287
# 4 0.004267 0.006112 0.004485 0.052360 0.002854 0.003897
# 5 -0.002555 0.004894 -0.001692 0.002854 0.037006 0.001801
# 6 0.004016 0.003371 -0.004287 0.003897 0.001801 0.028609
#
#
# Mechanical properties :
#
#
# Convention : Reuss Voigt Hill
#
# Bulk Modulus (GPa) = 31.81617 44.33918 38.07767
# Shear Modulus (GPa) = 25.25717 29.99938 27.62828
#
# Velocity S-wave (km/s) = 3.55071 3.86971 3.71363
# Velocity P-wave (km/s) = 5.71765 6.48836 6.11516
#
# Compressibility (1/GPa) = 0.03143056
#
# Stress axis : x y z
#
# Youngs Moduli (GPa) = 90.48040 49.23776 52.33108
#
# Poissons Ratio (x) = 0.22907 0.15919
# Poissons Ratio (y) = 0.42094 0.09555
# Poissons Ratio (z) = 0.27524 0.08990
#
# Static dielectric constant tensor:
#      x y z
#    x 4.833030 -0.558030 0.280520 
#    y -0.558030 3.693160 -0.216470 
#    z 0.280520 -0.216470 4.085300 
# 
# 
# High freq. dielectric constant tensor:
#      x y z
#    x 1.795750 -0.011570 0.006230 
#    y -0.011570 1.763430 0.001440 
#    z 0.006230 0.001440 1.772300 
# 
# From -- ./inp_files/180747.got.cif
#   From: 2010.06.25/outbox.cif.g09.slc.cpg/sg2_91_cif.got.tgz:180747.got - 2010.06.27 13:26:56.
