data_PCOD8041749
_publ_section_title
;
Structure prediction by ZEFSAII (Michael W. Deem and Ramdas Pophale) SiO2 
 PCOD8041749
Probable space group: P -1
;
_chemical_formula_sum "Si O2"
_cell_formula_units_Z 16
_cell_length_a 9.227935
_cell_length_b 8.782006
_cell_length_c 19.558709
_cell_angle_alpha 60.863017
_cell_angle_beta 141.429465
_cell_angle_gamma 131.960271
_cell_volume 732.658049
_symmetry_space_group_name_H-M "P -1"
_symmetry_group_IT_number 2
_symmetry_cell_setting 'triclinic'
loop_
_space_group_symop_operation_xyz
x,y,z
-x,-y,-z
loop_
_atom_site_type_symbol
_atom_site_label
_atom_site_fract_x
_atom_site_fract_y
_atom_site_fract_z
Si Si1 0.570618 0.788315 0.504871
Si Si2 0.215171 0.905459 0.280169
Si Si3 0.177312 0.063114 0.691799
Si Si4 0.281854 0.813417 0.682675
Si Si5 0.662359 0.488669 0.150316
Si Si6 0.391913 0.708415 0.968320
Si Si7 0.289401 0.350587 0.551571
Si Si8 0.155763 0.952497 0.854637
O O1 0.344772 0.852778 0.403811
O O2 0.461000 0.597045 0.558391
O O3 0.606764 0.730960 0.453448
O O4 0.853637 0.976441 0.596143
O O5 0.948065 0.701586 0.197110
O O6 0.139018 0.073628 0.236976
O O7 0.436551 0.998239 0.281900
O O8 0.333018 0.270814 0.658076
O O9 0.288279 0.094627 0.803525
O O10 0.207956 0.883930 0.709543
O O11 0.317729 0.621221 0.751039
O O12 0.035556 0.742269 0.553914
O O13 0.417248 0.535078 0.057278
O O14 0.599048 0.334448 0.098364
O O15 0.653050 0.932396 0.034725
O O16 0.130447 0.730458 0.884459
#
# Coordination Sequence:
#
# PCOD8041749 Si02
#       8
#     2   2   2   2   2   2   2   2
#     4  10  19  33  57  90 123 156 198 238 283 356
#     4  11  21  37  61  93 123 154 195 244 298 358
#     4  11  20  36  59  87 123 164 190 238 294 352
#     4  11  19  35  62  92 119 156 202 241 288 357
#     4  10  20  38  70  87 111 157 206 250 291 348
#     4   9  20  42  64  84 114 160 204 248 301 348
#     4  10  19  33  57  90 125 154 200 243 278 348
#     4  10  22  39  63  86 123 160 192 248 311 346
#
# _framework density 21.838291999999999
#
# number of rings (size 3 to 8) (size 9 to 14) (size 15 to 20)
#    0.000    1.750    5.000    0.750    0.000    0.500 
#    0.000    9.375    0.000    0.000    0.000    0.000 
#    0.000    0.000    0.000    0.000    0.000    0.000 
#
# Total GULP energy -198263.808535 kJ/mol
# GULP energy per Si atom -12391.488033 kJ/mol
# Density = 2.178859 g / cm^3
# Si number density = 21.838292 Si / 1000 Ang^3
#
#
#
# Elastic Constant Matrix: (Units=GPa)
#
#
# Indices 1 2 3 4 5 6 
#
# 1 62.5101 33.2680 38.2102 -4.5397 10.9231 -3.3724
# 2 33.2680 88.6044 42.1419 -17.4587 13.9939 4.5109
# 3 38.2102 42.1419 103.3648 -31.4178 18.9116 -5.9020
# 4 -4.5397 -17.4587 -31.4178 33.8911 -15.1111 8.8306
# 5 10.9231 13.9939 18.9116 -15.1111 30.1207 -10.1090
# 6 -3.3724 4.5109 -5.9020 8.8306 -10.1090 38.0806
#
#
#
# Elastic Compliance Matrix: (Units=1/GPa)
#
#
# Indices 1 2 3 4 5 6 
#
# 1 0.025354 -0.006863 -0.008963 -0.011524 -0.005163 0.002971
# 2 -0.006863 0.016782 -0.002396 0.005617 -0.002655 -0.004974
# 3 -0.008963 -0.002396 0.018456 0.014916 -0.000124 -0.001141
# 4 -0.011524 0.005617 0.014916 0.054147 0.016867 -0.007453
# 5 -0.005163 -0.002655 -0.000124 0.016867 0.047731 0.008597
# 6 0.002971 -0.004974 -0.001141 -0.007453 0.008597 0.030946
#
#
# Mechanical properties :
#
#
# Convention : Reuss Voigt Hill
#
# Bulk Modulus (GPa) = 41.41157 53.52437 47.46797
# Shear Modulus (GPa) = 21.01636 29.80909 25.41272
#
# Velocity S-wave (km/s) = 3.10556 3.69859 3.41497
# Velocity P-wave (km/s) = 5.64476 6.54233 6.11005
#
# Compressibility (1/GPa) = 0.02414784
#
# Stress axis : x y z
#
# Youngs Moduli (GPa) = 39.44083 59.58769 54.18326
#
# Poissons Ratio (x) = 0.40898 0.48564
# Poissons Ratio (y) = 0.27070 0.12981
# Poissons Ratio (z) = 0.35351 0.14276
#
# Static dielectric constant tensor:
#      x y z
#    x 3.740400 -0.231090 0.285370 
#    y -0.231090 3.779470 -0.358070 
#    z 0.285370 -0.358070 4.262010 
# 
# 
# High freq. dielectric constant tensor:
#      x y z
#    x 1.831400 -0.019670 0.011570 
#    y -0.019670 1.835650 -0.025770 
#    z 0.011570 -0.025770 1.873510 
# 
# From -- ./inp_files/215087.got.cif
#   From: 2010.06.25/outbox.cif.g09.slc.cpg/sg2_108_cif.got.tgz:215087.got - 2010.06.27 13:26:56.
