data_PCOD8041513
_publ_section_title
;
Structure prediction by ZEFSAII (Michael W. Deem and Ramdas Pophale) SiO2 
 PCOD8041513
Probable space group: P -1
;
_chemical_formula_sum "Si O2"
_cell_formula_units_Z 16
_cell_length_a 14.445601
_cell_length_b 11.344990
_cell_length_c 15.313020
_cell_angle_alpha 69.573746
_cell_angle_beta 48.122337
_cell_angle_gamma 31.763504
_cell_volume 816.512169
_symmetry_space_group_name_H-M "P -1"
_symmetry_group_IT_number 2
_symmetry_cell_setting 'triclinic'
loop_
_space_group_symop_operation_xyz
x,y,z
-x,-y,-z
loop_
_atom_site_type_symbol
_atom_site_label
_atom_site_fract_x
_atom_site_fract_y
_atom_site_fract_z
Si Si1 0.510100 0.588020 0.844932
Si Si2 0.916957 0.145620 0.844431
Si Si3 0.756099 0.516308 0.415101
Si Si4 0.049109 0.422964 0.364064
Si Si5 0.291760 0.684957 0.387620
Si Si6 0.688972 0.401137 0.339323
Si Si7 0.423037 0.195502 0.312060
Si Si8 0.255319 0.081866 0.658210
O O1 0.703258 0.407825 0.852278
O O2 0.636941 0.393611 0.737670
O O3 0.471362 0.767357 0.799552
O O4 0.222463 0.788057 0.999360
O O5 0.053179 0.912161 0.763968
O O6 0.131905 0.055579 0.763313
O O7 0.034096 0.336461 0.315465
O O8 0.687788 0.464916 0.537011
O O9 0.782418 0.447033 0.315900
O O10 0.515029 0.832579 0.496765
O O11 0.854450 0.537905 0.530260
O O12 0.346286 0.172297 0.284110
O O13 0.952358 0.645421 0.332610
O O14 0.509986 0.585863 0.317844
O O15 0.000000 0.000000 0.500000
O O16 0.500000 0.500000 0.500000
O O17 0.648563 0.942846 0.302930
#
# Coordination Sequence:
#
# PCOD8041513 Si02
#       8
#     2   2   2   2   2   2   2   2
#     4  11  21  36  55  86 116 147 193 234 292 343
#     4  11  22  35  58  83 116 154 183 241 293 341
#     4  10  19  35  52  81 113 144 191 225 292 334
#     4  10  20  34  55  81 115 149 185 243 280 327
#     4  11  21  33  53  83 115 147 185 240 281 339
#     4  10  19  36  53  77 115 148 188 230 292 337
#     4  10  19  33  52  81 111 142 191 228 286 334
#     4  11  19  35  55  85 114 148 186 240 284 336
#
# _framework density 19.595545000000001
#
# number of rings (size 3 to 8) (size 9 to 14) (size 15 to 20)
#    0.000    1.500    6.250    3.000    0.000    2.000 
#    2.250    0.000    0.000    0.750    0.000    4.375 
#    0.000    0.000    0.000    0.000    0.000    0.000 
#
# Total GULP energy -198279.885491 kJ/mol
# GULP energy per Si atom -12392.492843 kJ/mol
# Density = 1.955094 g / cm^3
# Si number density = 19.595545 Si / 1000 Ang^3
#
#
#
# Elastic Constant Matrix: (Units=GPa)
#
#
# Indices 1 2 3 4 5 6 
#
# 1 161.8666 14.4325 22.3243 -4.4596 -6.3542 -12.9889
# 2 14.4325 52.9331 10.7041 -4.7906 0.6079 -8.1379
# 3 22.3243 10.7041 78.4086 -6.3826 0.3467 5.5391
# 4 -4.4596 -4.7906 -6.3826 23.4217 2.9081 -0.4843
# 5 -6.3542 0.6079 0.3467 2.9081 21.0478 4.0172
# 6 -12.9889 -8.1379 5.5391 -0.4843 4.0172 23.2371
#
#
#
# Elastic Compliance Matrix: (Units=1/GPa)
#
#
# Indices 1 2 3 4 5 6 
#
# 1 0.006917 -0.000843 -0.002092 0.000487 0.001345 0.003847
# 2 -0.000843 0.021384 -0.002931 0.003953 -0.002956 0.008310
# 3 -0.002092 -0.002931 0.014371 0.002818 -0.000115 -0.005543
# 4 0.000487 0.003953 0.002818 0.045281 -0.006865 0.003115
# 5 0.001345 -0.002956 -0.000115 -0.006865 0.050702 -0.009164
# 6 0.003847 0.008310 -0.005543 0.003115 -0.009164 0.051066
#
#
# Mechanical properties :
#
#
# Convention : Reuss Voigt Hill
#
# Bulk Modulus (GPa) = 32.32229 43.12557 37.72393
# Shear Modulus (GPa) = 23.61093 29.92448 26.76770
#
# Velocity S-wave (km/s) = 3.47495 3.91206 3.69997
# Velocity P-wave (km/s) = 5.71235 6.51623 6.12749
#
# Compressibility (1/GPa) = 0.03093840
#
# Stress axis : x y z
#
# Youngs Moduli (GPa) = 144.57989 46.76477 69.58398
#
# Poissons Ratio (x) = 0.03940 0.14559
# Poissons Ratio (y) = 0.12182 0.20399
# Poissons Ratio (z) = 0.30251 0.13709
#
# Static dielectric constant tensor:
#      x y z
#    x 4.547930 -0.352100 0.013970 
#    y -0.352100 3.491720 -0.088270 
#    z 0.013970 -0.088270 3.225130 
# 
# 
# High freq. dielectric constant tensor:
#      x y z
#    x 1.784900 -0.022880 -0.011490 
#    y -0.022880 1.749940 -0.013870 
#    z -0.011490 -0.013870 1.713830 
# 
# From -- ./inp_files/282140.got.cif
#   From: 2010.06.25/outbox.cif.g09.slc.cpg/sg2_142_cif.got.tgz:282140.got - 2010.06.27 13:26:56.
