data_PCOD8041352
_publ_section_title
;
Structure prediction by ZEFSAII (Michael W. Deem and Ramdas Pophale) SiO2 
 PCOD8041352
Probable space group: P -1
;
_chemical_formula_sum "Si O2"
_cell_formula_units_Z 16
_cell_length_a 20.516256
_cell_length_b 11.305240
_cell_length_c 9.156569
_cell_angle_alpha 39.133662
_cell_angle_beta 128.545062
_cell_angle_gamma 147.713505
_cell_volume 712.613640
_symmetry_space_group_name_H-M "P -1"
_symmetry_group_IT_number 2
_symmetry_cell_setting 'triclinic'
loop_
_space_group_symop_operation_xyz
x,y,z
-x,-y,-z
loop_
_atom_site_type_symbol
_atom_site_label
_atom_site_fract_x
_atom_site_fract_y
_atom_site_fract_z
Si Si1 0.164012 0.077699 0.912667
Si Si2 0.729185 0.574496 0.997211
Si Si3 0.726291 0.473927 0.579893
Si Si4 0.913246 0.568483 0.239244
Si Si5 0.460513 0.998400 0.605662
Si Si6 0.765573 0.223332 0.636149
Si Si7 0.121310 0.896406 0.418124
Si Si8 0.069013 0.135488 0.315291
O O1 0.230386 0.333351 0.867617
O O2 0.212515 0.236198 0.674635
O O3 0.010654 0.844902 0.917390
O O4 0.209850 0.942822 0.113263
O O5 0.833877 0.614641 0.024434
O O6 0.595323 0.260437 0.120799
O O7 0.740162 0.789830 0.718069
O O8 0.580778 0.270807 0.596899
O O9 0.748202 0.326688 0.652767
O O10 0.793907 0.559547 0.750026
O O11 0.877036 0.473952 0.450548
O O12 0.879473 0.324563 0.333922
O O13 0.060065 0.835004 0.226209
O O14 0.500000 0.000000 0.500000
O O15 0.353791 0.975089 0.449436
O O16 0.061283 0.915352 0.446000
O O17 0.000000 0.000000 0.500000
#
# Coordination Sequence:
#
# PCOD8041352 Si02
#       8
#     2   2   2   2   2   2   2   2
#     4  11  19  33  58  87 111 142 183 234 284 328
#     4  11  19  34  55  87 112 137 186 242 284 310
#     4  10  20  40  54  78 120 156 184 221 277 332
#     4  10  19  32  54  84 117 135 178 234 288 329
#     4   9  18  36  58  81 114 147 185 237 275 318
#     4  10  19  33  57  89 108 141 188 237 279 319
#     4  11  21  33  55  85 110 147 183 230 281 331
#     4  10  22  38  57  77 119 155 179 219 280 349
#
# _framework density 22.452559000000001
#
# number of rings (size 3 to 8) (size 9 to 14) (size 15 to 20)
#    0.000    1.750    6.250    1.125    0.000    1.000 
#    0.000    3.125    0.000    3.000    0.000    0.000 
#    0.000    0.000    0.000    0.000    0.000    0.000 
#
# Total GULP energy -198254.334905 kJ/mol
# GULP energy per Si atom -12390.895932 kJ/mol
# Density = 2.240146 g / cm^3
# Si number density = 22.452559 Si / 1000 Ang^3
#
#
#
# Elastic Constant Matrix: (Units=GPa)
#
#
# Indices 1 2 3 4 5 6 
#
# 1 75.3140 28.1699 22.9356 -9.8823 18.0994 -16.1252
# 2 28.1699 138.1504 36.0206 -1.8160 15.0753 9.7163
# 3 22.9356 36.0206 70.8587 -11.0859 19.9625 -3.3496
# 4 -9.8823 -1.8160 -11.0859 37.3127 1.2998 -6.5480
# 5 18.0994 15.0753 19.9625 1.2998 30.4395 -9.0214
# 6 -16.1252 9.7163 -3.3496 -6.5480 -9.0214 37.8910
#
#
#
# Elastic Compliance Matrix: (Units=1/GPa)
#
#
# Indices 1 2 3 4 5 6 
#
# 1 0.019128 -0.003358 -0.001228 0.006241 -0.006689 0.008379
# 2 -0.003358 0.009417 -0.003894 -0.002406 -0.001480 -0.004956
# 3 -0.001228 -0.003894 0.020534 0.006098 -0.010842 0.000764
# 4 0.006241 -0.002406 0.006098 0.031742 -0.005507 0.007986
# 5 -0.006689 -0.001480 -0.010842 -0.005507 0.046921 0.006794
# 6 0.008379 -0.004956 0.000764 0.007986 0.006794 0.034293
#
#
# Mechanical properties :
#
#
# Convention : Reuss Voigt Hill
#
# Bulk Modulus (GPa) = 31.13309 50.95282 41.04295
# Shear Modulus (GPa) = 26.35749 34.27512 30.31630
#
# Velocity S-wave (km/s) = 3.42997 3.91136 3.67855
# Velocity P-wave (km/s) = 5.43898 6.56819 6.03007
#
# Compressibility (1/GPa) = 0.03212016
#
# Stress axis : x y z
#
# Youngs Moduli (GPa) = 52.28022 106.19288 48.69957
#
# Poissons Ratio (x) = 0.35655 0.05978
# Poissons Ratio (y) = 0.17553 0.18964
# Poissons Ratio (z) = 0.06418 0.41353
#
# Static dielectric constant tensor:
#      x y z
#    x 4.259560 0.333580 -0.180250 
#    y 0.333580 4.727100 0.180260 
#    z -0.180250 0.180260 4.186640 
# 
# 
# High freq. dielectric constant tensor:
#      x y z
#    x 1.883380 0.005720 -0.019250 
#    y 0.005720 1.867980 -0.017340 
#    z -0.019250 -0.017340 1.890520 
# 
# From -- ./inp_files/353354.got.cif
#   From: 2010.06.25/outbox.cif.g09.slc.cpg/sg2_177_cif.got.tgz:353354.got - 2010.06.27 13:26:56.
