data_PCOD8041734
_publ_section_title
;
Structure prediction by ZEFSAII (Michael W. Deem and Ramdas Pophale) SiO2 
 PCOD8041734
Probable space group: P -1
;
_chemical_formula_sum "Si O2"
_cell_formula_units_Z 16
_cell_length_a 25.136172
_cell_length_b 9.201831
_cell_length_c 22.298505
_cell_angle_alpha 63.223611
_cell_angle_beta 10.329808
_cell_angle_gamma 64.036554
_cell_volume 825.193244
_symmetry_space_group_name_H-M "P -1"
_symmetry_group_IT_number 2
_symmetry_cell_setting 'triclinic'
loop_
_space_group_symop_operation_xyz
x,y,z
-x,-y,-z
loop_
_atom_site_type_symbol
_atom_site_label
_atom_site_fract_x
_atom_site_fract_y
_atom_site_fract_z
Si Si1 0.098637 0.594798 0.963424
Si Si2 0.332605 0.950554 0.756242
Si Si3 0.948618 0.349236 0.444654
Si Si4 0.852943 0.321582 0.687195
Si Si5 0.151088 0.999061 0.395625
Si Si6 0.501835 0.561988 0.836647
Si Si7 0.761021 0.705727 0.207600
Si Si8 0.255337 0.253746 0.579137
O O1 0.428947 0.650579 0.607272
O O2 0.099159 0.411428 0.974150
O O3 0.975412 0.713949 0.026371
O O4 0.869973 0.595265 0.272263
O O5 0.527843 0.850617 0.602770
O O6 0.500000 0.000000 0.500000
O O7 0.247684 0.121702 0.848194
O O8 0.026579 0.856732 0.103264
O O9 0.751673 0.313552 0.730784
O O10 0.800207 0.479239 0.542503
O O11 0.963543 0.181191 0.419781
O O12 0.266824 0.419962 0.102287
O O13 0.000000 0.500000 0.500000
O O14 0.051259 0.161831 0.511871
O O15 0.592504 0.320724 0.025566
O O16 0.000000 0.000000 0.500000
O O17 0.500000 0.000000 0.000000
O O18 0.570330 0.681509 0.683741
#
# Coordination Sequence:
#
# PCOD8041734 Si02
#       8
#     2   2   2   2   2   2   2   2
#     4  10  19  35  53  81 106 140 176 231 270 335
#     4  12  21  37  59  85 108 147 186 238 282 342
#     4  10  20  38  58  81 111 152 198 229 273 332
#     4   9  19  36  60  85 115 148 192 233 271 330
#     4  10  19  33  57  87 110 141 189 239 274 316
#     4  11  23  38  55  83 115 155 185 235 288 337
#     4  10  20  33  57  80 105 134 186 225 276 322
#     4  12  23  37  57  83 117 146 188 232 294 340
#
# _framework density 19.389396999999999
#
# number of rings (size 3 to 8) (size 9 to 14) (size 15 to 20)
#    0.000    1.500    2.500    4.500    0.000    3.000 
#    0.000    2.500    0.000    0.000    0.000    0.000 
#    0.000    0.000    0.000    0.000    0.000    0.000 
#
# Total GULP energy -198208.947240 kJ/mol
# GULP energy per Si atom -12388.059203 kJ/mol
# Density = 1.934527 g / cm^3
# Si number density = 19.389397 Si / 1000 Ang^3
#
#
#
# Elastic Constant Matrix: (Units=GPa)
#
#
# Indices 1 2 3 4 5 6 
#
# 1 88.3976 40.3904 39.2873 3.1053 0.8836 -17.0098
# 2 40.3904 133.1902 33.5023 19.2511 12.1124 -0.7156
# 3 39.2873 33.5023 71.5629 2.7548 -4.8604 -4.3082
# 4 3.1053 19.2511 2.7548 33.9823 -1.9703 -5.2024
# 5 0.8836 12.1124 -4.8604 -1.9703 42.2076 -0.6043
# 6 -17.0098 -0.7156 -4.3082 -5.2024 -0.6043 28.6756
#
#
#
# Elastic Compliance Matrix: (Units=1/GPa)
#
#
# Indices 1 2 3 4 5 6 
#
# 1 0.018440 -0.004008 -0.007731 0.002780 0.000150 0.010185
# 2 -0.004008 0.010708 -0.003050 -0.006245 -0.003686 -0.003779
# 3 -0.007731 -0.003050 0.019752 0.000800 0.003328 -0.001479
# 4 0.002780 -0.006245 0.000800 0.034055 0.003528 0.007866
# 5 0.000150 -0.003686 0.003328 0.003528 0.025319 0.001670
# 6 0.010185 -0.003779 -0.001479 0.007866 0.001670 0.042060
#
#
# Mechanical properties :
#
#
# Convention : Reuss Voigt Hill
#
# Bulk Modulus (GPa) = 51.75362 57.72340 54.73851
# Shear Modulus (GPa) = 26.83071 32.97115 29.90093
#
# Velocity S-wave (km/s) = 3.72396 4.12815 3.93125
# Velocity P-wave (km/s) = 6.72608 7.24965 6.99277
#
# Compressibility (1/GPa) = 0.01932232
#
# Stress axis : x y z
#
# Youngs Moduli (GPa) = 54.22856 93.38521 50.62781
#
# Poissons Ratio (x) = 0.37431 0.39140
# Poissons Ratio (y) = 0.21736 0.15442
# Poissons Ratio (z) = 0.41924 0.28483
#
# Static dielectric constant tensor:
#      x y z
#    x 3.579310 0.214660 -0.011800 
#    y 0.214660 4.693290 0.414300 
#    z -0.011800 0.414300 3.663360 
# 
# 
# High freq. dielectric constant tensor:
#      x y z
#    x 1.737650 0.008460 -0.027670 
#    y 0.008460 1.773680 0.015900 
#    z -0.027670 0.015900 1.743340 
# 
# From -- ./inp_files/601939.got.cif
#   From: 2010.06.25/outbox.cif.g09.slc.cpg/sg2_301_cif.got.tgz:601939.got - 2010.06.27 13:26:56.
