data_PCOD8041408
_publ_section_title
;
Structure prediction by ZEFSAII (Michael W. Deem and Ramdas Pophale) SiO2 
 PCOD8041408
Probable space group: P -1
;
_chemical_formula_sum "Si O2"
_cell_formula_units_Z 16
_cell_length_a 12.809413
_cell_length_b 13.812172
_cell_length_c 17.573685
_cell_angle_alpha 24.830883
_cell_angle_beta 44.323671
_cell_angle_gamma 54.788595
_cell_volume 883.881706
_symmetry_space_group_name_H-M "P -1"
_symmetry_group_IT_number 2
_symmetry_cell_setting 'triclinic'
loop_
_space_group_symop_operation_xyz
x,y,z
-x,-y,-z
loop_
_atom_site_type_symbol
_atom_site_label
_atom_site_fract_x
_atom_site_fract_y
_atom_site_fract_z
Si Si1 0.550387 0.203371 0.033287
Si Si2 0.845740 0.917923 0.334451
Si Si3 0.845741 0.530678 0.721695
Si Si4 0.550384 0.607375 0.629284
Si Si5 0.351803 0.399573 0.099295
Si Si6 0.046189 0.191339 0.905427
Si Si7 0.406272 0.311537 0.625307
Si Si8 0.648197 0.199364 0.301768
O O1 0.701418 0.318764 0.922234
O O2 0.551733 0.355216 0.847106
O O3 0.393648 0.198349 0.166893
O O4 0.548740 0.935177 0.206124
O O5 0.906370 0.710686 0.492192
O O6 0.701413 0.807060 0.433942
O O7 0.792984 0.079269 0.313002
O O8 0.983041 0.074742 0.101672
O O9 0.792984 0.683509 0.708761
O O10 0.983048 0.420592 0.755821
O O11 0.548743 0.586217 0.555086
O O12 0.393645 0.684671 0.680572
O O13 0.500000 0.500000 0.000000
O O14 0.312848 0.605646 0.922887
O O15 0.227427 0.282631 0.754174
O O16 0.000000 0.000000 0.000000
O O17 0.500000 0.500000 0.500000
O O18 0.500000 0.000000 0.500000
#
# Coordination Sequence:
#
# PCOD8041408 Si02
#       8
#     2   2   2   2   2   2   2   2
#     4   9  19  34  55  86 116 146 187 237 278 330
#     4  10  19  32  56  91 116 144 181 235 295 333
#     4  10  19  32  56  91 116 144 181 235 295 333
#     4   9  19  34  55  86 116 146 187 237 278 330
#     4   9  16  27  50  86 121 141 175 233 292 334
#     4  12  22  38  58  80 122 150 186 242 275 338
#     4  12  26  40  58  80 114 162 196 225 279 342
#     4   9  16  27  50  86 121 141 175 233 292 334
#
# _framework density 18.101970000000001
#
# number of rings (size 3 to 8) (size 9 to 14) (size 15 to 20)
#    0.000    2.000    3.750    2.250    7.000    2.000 
#    0.000    0.000    0.000    1.500    0.000    0.000 
#    0.000    0.000    0.000    0.000    0.000    0.000 
#
# Total GULP energy -198290.431286 kJ/mol
# GULP energy per Si atom -12393.151955 kJ/mol
# Density = 1.806077 g / cm^3
# Si number density = 18.101970 Si / 1000 Ang^3
#
#
#
# Elastic Constant Matrix: (Units=GPa)
#
#
# Indices 1 2 3 4 5 6 
#
# 1 69.7443 62.1672 51.3234 -0.3581 5.5869 -2.1295
# 2 62.1672 135.2552 70.1250 6.5898 8.3204 -11.9182
# 3 51.3234 70.1250 90.3983 5.9094 17.2025 0.2170
# 4 -0.3581 6.5898 5.9094 33.0787 -0.5174 7.8891
# 5 5.5869 8.3204 17.2025 -0.5174 25.1484 -0.7071
# 6 -2.1295 -11.9182 0.2170 7.8891 -0.7071 25.4194
#
#
#
# Elastic Compliance Matrix: (Units=1/GPa)
#
#
# Indices 1 2 3 4 5 6 
#
# 1 0.030061 -0.008598 -0.011474 0.004818 0.004035 -0.002798
# 2 -0.008598 0.016192 -0.007842 -0.003838 0.002068 0.008187
# 3 -0.011474 -0.007842 0.026305 -0.002397 -0.013026 -0.004481
# 4 0.004818 -0.003838 -0.002397 0.034368 0.002209 -0.011980
# 5 0.004035 0.002068 -0.013026 0.002209 0.047196 0.002046
# 6 -0.002798 0.008187 -0.004481 -0.011980 0.002046 0.046757
#
#
# Mechanical properties :
#
#
# Convention : Reuss Voigt Hill
#
# Bulk Modulus (GPa) = 59.76406 73.62545 66.69475
# Shear Modulus (GPa) = 19.06332 24.18145 21.62239
#
# Velocity S-wave (km/s) = 3.24868 3.65889 3.45987
# Velocity P-wave (km/s) = 6.86723 7.65577 7.27220
#
# Compressibility (1/GPa) = 0.01673247
#
# Stress axis : x y z
#
# Youngs Moduli (GPa) = 33.26554 61.75876 38.01490
#
# Poissons Ratio (x) = 0.53099 0.43617
# Poissons Ratio (y) = 0.28601 0.29810
# Poissons Ratio (z) = 0.38168 0.48429
#
# Static dielectric constant tensor:
#      x y z
#    x 2.740270 -0.141650 0.124560 
#    y -0.141650 3.662060 0.152800 
#    z 0.124560 0.152800 2.874080 
# 
# 
# High freq. dielectric constant tensor:
#      x y z
#    x 1.652330 -0.023370 0.043470 
#    y -0.023370 1.715900 0.015210 
#    z 0.043470 0.015210 1.692660 
# 
# From -- ./inp_files/283456.got.cif
#   From: 2010.06.25/outbox.cif.g09.slc.cpg/sg2_142_cif.got.tgz:283456.got - 2010.06.27 13:26:56.
