data_PCOD8041830
_publ_section_title
;
Structure prediction by ZEFSAII (Michael W. Deem and Ramdas Pophale) SiO2 
 PCOD8041830
Probable space group: P -1
;
_chemical_formula_sum "Si O2"
_cell_formula_units_Z 16
_cell_length_a 12.648655
_cell_length_b 12.305652
_cell_length_c 10.941991
_cell_angle_alpha 34.974510
_cell_angle_beta 81.789723
_cell_angle_gamma 60.009633
_cell_volume 713.089791
_symmetry_space_group_name_H-M "P -1"
_symmetry_group_IT_number 2
_symmetry_cell_setting 'triclinic'
loop_
_space_group_symop_operation_xyz
x,y,z
-x,-y,-z
loop_
_atom_site_type_symbol
_atom_site_label
_atom_site_fract_x
_atom_site_fract_y
_atom_site_fract_z
Si Si1 0.709047 0.298474 0.625179
Si Si2 0.455736 0.611829 0.204712
Si Si3 0.188811 0.562362 0.825752
Si Si4 0.260088 0.041889 0.666638
Si Si5 0.332659 0.775935 0.646366
Si Si6 0.997174 0.914600 0.323771
Si Si7 0.887931 0.446491 0.889268
Si Si8 0.204579 0.157390 0.108401
O O1 0.592780 0.527671 0.337975
O O2 0.652366 0.377860 0.699527
O O3 0.860969 0.230087 0.652799
O O4 0.720613 0.060334 0.807778
O O5 0.510585 0.398363 0.286801
O O6 0.371464 0.889607 0.900980
O O7 0.302167 0.587161 0.820306
O O8 0.052439 0.820787 0.540145
O O9 0.138195 0.513925 0.998933
O O10 0.262809 0.304802 0.968751
O O11 0.331880 0.846309 0.720065
O O12 0.107042 0.133228 0.651157
O O13 0.236618 0.290002 0.406989
O O14 0.217062 0.033697 0.350189
O O15 0.896442 0.220764 0.049541
O O16 0.036058 0.379071 0.900085
#
# Coordination Sequence:
#
# PCOD8041830 Si02
#       8
#     2   2   2   2   2   2   2   2
#     4   9  21  44  67  81 114 162 215 239 280 360
#     4  10  22  43  64  81 120 170 195 243 299 350
#     4  12  18  32  60  90 122 154 196 237 291 355
#     4  12  23  36  62  94 126 151 189 251 317 347
#     4  11  21  38  60  88 123 159 198 242 295 358
#     4  11  21  36  65  93 117 156 200 250 291 348
#     4  11  20  32  54  96 128 149 188 246 307 354
#     4  10  19  33  60  91 115 155 201 245 287 349
#
# _framework density 22.437567000000001
#
# number of rings (size 3 to 8) (size 9 to 14) (size 15 to 20)
#    0.000    1.250    7.500    1.875    0.000    0.500 
#    0.000    6.250    2.750    0.000    0.000    0.000 
#    0.000    0.000    0.000    0.000    0.000    0.000 
#
# Total GULP energy -198288.053665 kJ/mol
# GULP energy per Si atom -12393.003354 kJ/mol
# Density = 2.238650 g / cm^3
# Si number density = 22.437567 Si / 1000 Ang^3
#
#
#
# Elastic Constant Matrix: (Units=GPa)
#
#
# Indices 1 2 3 4 5 6 
#
# 1 44.6138 32.7169 32.3712 -7.9019 -14.9538 -1.0640
# 2 32.7169 91.7222 40.5896 -2.2879 4.0143 -25.2981
# 3 32.3712 40.5896 167.3883 -0.1900 1.2836 -0.9440
# 4 -7.9019 -2.2879 -0.1900 18.7276 4.8343 0.3517
# 5 -14.9538 4.0143 1.2836 4.8343 33.5801 -2.4820
# 6 -1.0640 -25.2981 -0.9440 0.3517 -2.4820 20.1134
#
#
#
# Elastic Compliance Matrix: (Units=1/GPa)
#
#
# Indices 1 2 3 4 5 6 
#
# 1 0.053751 -0.025016 -0.004638 0.014097 0.023136 -0.026230
# 2 -0.025016 0.031478 -0.002505 -0.004473 -0.011442 0.036817
# 3 -0.004638 -0.002505 0.007474 -0.001593 -0.002064 -0.003272
# 4 0.014097 -0.004473 -0.001593 0.059455 -0.002149 -0.006260
# 5 0.023136 -0.011442 -0.002064 -0.002149 0.041237 -0.008138
# 6 -0.026230 0.036817 -0.003272 -0.006260 -0.008138 0.093590
#
#
# Mechanical properties :
#
#
# Convention : Reuss Voigt Hill
#
# Bulk Modulus (GPa) = 35.22957 57.23110 46.23034
# Shear Modulus (GPa) = 13.85948 27.68733 20.77341
#
# Velocity S-wave (km/s) = 2.48803 3.51660 3.04605
# Velocity P-wave (km/s) = 4.89786 6.48466 5.74630
#
# Compressibility (1/GPa) = 0.02838524
#
# Stress axis : x y z
#
# Youngs Moduli (GPa) = 18.60437 31.76837 133.79543
#
# Poissons Ratio (x) = 0.79471 0.62057
# Poissons Ratio (y) = 0.46540 0.33515
# Poissons Ratio (z) = 0.08629 0.07958
#
# Static dielectric constant tensor:
#      x y z
#    x 3.589380 -0.221640 -0.057670 
#    y -0.221640 4.062270 -0.116890 
#    z -0.057670 -0.116890 4.207220 
# 
# 
# High freq. dielectric constant tensor:
#      x y z
#    x 1.841280 -0.018290 -0.002620 
#    y -0.018290 1.868150 -0.003990 
#    z -0.002620 -0.003990 1.895530 
# 
# From -- ./inp_files/454361.got.cif
#   From: 2010.06.25/outbox.cif.g09.slc.cpg/sg2_228_cif.got.tgz:454361.got - 2010.06.27 13:26:56.
