data_PCOD8041854
_publ_section_title
;
Structure prediction by ZEFSAII (Michael W. Deem and Ramdas Pophale) SiO2 
 PCOD8041854
Probable space group: P -1
;
_chemical_formula_sum "Si O2"
_cell_formula_units_Z 14
_cell_length_a 17.084317
_cell_length_b 9.924336
_cell_length_c 9.700400
_cell_angle_alpha 31.127108
_cell_angle_beta 128.993175
_cell_angle_gamma 121.244253
_cell_volume 659.988194
_symmetry_space_group_name_H-M "P -1"
_symmetry_group_IT_number 2
_symmetry_cell_setting 'triclinic'
loop_
_space_group_symop_operation_xyz
x,y,z
-x,-y,-z
loop_
_atom_site_type_symbol
_atom_site_label
_atom_site_fract_x
_atom_site_fract_y
_atom_site_fract_z
Si Si1 0.428016 0.576446 0.980665
Si Si2 0.197648 0.657052 0.646036
Si Si3 0.510761 0.079592 0.600816
Si Si4 0.192652 0.332948 0.425939
Si Si5 0.729655 0.139694 0.905570
Si Si6 0.874299 0.774677 0.853562
Si Si7 0.101083 0.681908 0.232203
O O1 0.449366 0.356942 0.314641
O O2 0.541083 0.142796 0.171333
O O3 0.500000 0.500000 0.000000
O O4 0.312974 0.585429 0.795892
O O5 0.127589 0.598216 0.490352
O O6 0.188817 0.961140 0.409960
O O7 0.166142 0.475429 0.895194
O O8 0.626545 0.098412 0.749823
O O9 0.500000 0.000000 0.500000
O O10 0.269114 0.568708 0.282219
O O11 0.132591 0.274830 0.272831
O O12 0.110016 0.423058 0.372022
O O13 0.255215 0.073440 0.771070
O O14 0.819406 0.109884 0.916946
O O15 0.989829 0.814488 0.986502
#
# Coordination Sequence:
#
# PCOD8041854 Si02
#       7
#     2   2   2   2   2   2   2
#     4  10  21  37  62  93 124 158 211 264 327 375
#     4  12  26  41  67  99 134 165 215 276 333 369
#     4  10  19  33  61  94 123 148 204 280 318 351
#     4  10  24  41  67  91 137 176 222 250 313 391
#     4  10  22  37  68  98 124 161 231 263 306 368
#     4  12  26  44  63  95 143 175 205 263 335 387
#     4  10  25  40  70  97 129 174 227 260 308 384
#
# _framework density 21.212501
#
# number of rings (size 3 to 8) (size 9 to 14) (size 15 to 20)
#    0.857    0.571    0.000    5.571    8.000    0.571 
#    0.000    0.000    0.000   17.143    0.000    0.000 
#    0.000    0.000    0.000    0.000    0.000    0.000 
#
# Total GULP energy -173547.558963 kJ/mol
# GULP energy per Si atom -12396.254212 kJ/mol
# Density = 2.116422 g / cm^3
# Si number density = 21.212501 Si / 1000 Ang^3
#
#
#
# Elastic Constant Matrix: (Units=GPa)
#
#
# Indices 1 2 3 4 5 6 
#
# 1 54.4218 40.4800 44.7773 8.2379 5.5261 3.3854
# 2 40.4800 81.8923 58.4833 3.2259 2.6315 20.5763
# 3 44.7773 58.4833 175.5596 -11.0513 -10.9161 22.1269
# 4 8.2379 3.2259 -11.0513 41.9286 15.5874 5.1413
# 5 5.5261 2.6315 -10.9161 15.5874 31.6533 4.1962
# 6 3.3854 20.5763 22.1269 5.1413 4.1962 38.4344
#
#
#
# Elastic Compliance Matrix: (Units=1/GPa)
#
#
# Indices 1 2 3 4 5 6 
#
# 1 0.035693 -0.015491 -0.005942 -0.006760 -0.004992 0.010019
# 2 -0.015491 0.024348 -0.002736 0.001598 0.000321 -0.010344
# 3 -0.005942 -0.002736 0.009025 0.002964 0.003445 -0.003981
# 4 -0.006760 0.001598 0.002964 0.031111 -0.012621 -0.004750
# 5 -0.004992 0.000321 0.003445 -0.012621 0.040429 -0.004441
# 6 0.010019 -0.010344 -0.003981 -0.004750 -0.004441 0.034086
#
#
# Mechanical properties :
#
#
# Convention : Reuss Voigt Hill
#
# Bulk Modulus (GPa) = 48.23976 66.59499 57.41737
# Shear Modulus (GPa) = 21.74487 33.61212 27.67849
#
# Velocity S-wave (km/s) = 3.20519 3.98495 3.61615
# Velocity P-wave (km/s) = 6.04055 7.25503 6.67547
#
# Compressibility (1/GPa) = 0.02072979
#
# Stress axis : x y z
#
# Youngs Moduli (GPa) = 28.01653 41.07152 110.79772
#
# Poissons Ratio (x) = 0.63622 0.65837
# Poissons Ratio (y) = 0.43399 0.30309
# Poissons Ratio (z) = 0.16648 0.11235
#
# Static dielectric constant tensor:
#      x y z
#    x 3.523970 0.218580 -0.169200 
#    y 0.218580 3.984600 -0.458840 
#    z -0.169200 -0.458840 4.414310 
# 
# 
# High freq. dielectric constant tensor:
#      x y z
#    x 1.800770 0.017660 -0.005650 
#    y 0.017660 1.829070 -0.003340 
#    z -0.005650 -0.003340 1.855110 
# 
# From -- ./inp_files/449569.got.cif
#   From: 2010.06.25/outbox.cif.g09.slc.cpg/sg2_225_cif.got.tgz:449569.got - 2010.06.27 13:26:56.
