data_PCOD8041730
_publ_section_title
;
Structure prediction by ZEFSAII (Michael W. Deem and Ramdas Pophale) SiO2 
 PCOD8041730
Probable space group: P -1
;
_chemical_formula_sum "Si O2"
_cell_formula_units_Z 16
_cell_length_a 17.375012
_cell_length_b 8.576632
_cell_length_c 11.722969
_cell_angle_alpha 69.029573
_cell_angle_beta 137.607430
_cell_angle_gamma 79.581555
_cell_volume 777.686698
_symmetry_space_group_name_H-M "P -1"
_symmetry_group_IT_number 2
_symmetry_cell_setting 'triclinic'
loop_
_space_group_symop_operation_xyz
x,y,z
-x,-y,-z
loop_
_atom_site_type_symbol
_atom_site_label
_atom_site_fract_x
_atom_site_fract_y
_atom_site_fract_z
Si Si1 0.018516 0.280368 0.945140
Si Si2 0.660222 0.230866 0.610614
Si Si3 0.744269 0.769576 0.100903
Si Si4 0.611412 0.246358 0.818288
Si Si5 0.417128 0.233030 0.284878
Si Si6 0.940012 0.067551 0.288566
Si Si7 0.885912 0.433528 0.002676
Si Si8 0.063255 0.625075 0.414685
O O1 0.910288 0.360202 0.916635
O O2 0.155348 0.991896 0.168084
O O3 0.087204 0.398276 0.990092
O O4 0.905322 0.381293 0.683930
O O5 0.650221 0.187803 0.742202
O O6 0.574515 0.501221 0.430994
O O7 0.553175 0.227999 0.410441
O O8 0.783549 0.624608 0.295749
O O9 0.905403 0.674554 0.244402
O O10 0.664669 0.727827 0.934070
O O11 0.626293 0.043061 0.937164
O O12 0.746942 0.227022 0.028962
O O13 0.500000 0.000000 0.500000
O O14 0.293897 0.430080 0.193393
O O15 0.041206 0.827358 0.393309
O O16 0.989586 0.198291 0.256549
O O17 0.000000 0.000000 0.500000
#
# Coordination Sequence:
#
# PCOD8041730 Si02
#       8
#     2   2   2   2   2   2   2   2
#     4  11  22  40  57  86 122 156 188 235 306 350
#     4  11  20  35  56  85 119 149 192 242 288 342
#     4  10  19  33  57  86 114 149 194 242 290 338
#     4  10  20  33  55  86 114 149 194 240 292 331
#     4  12  18  34  59  88 111 146 202 242 283 335
#     4  11  22  35  57  92 116 149 201 248 283 337
#     4  11  23  36  58  91 115 153 198 237 291 352
#     4  10  20  36  54  82 123 152 187 244 297 339
#
# _framework density 20.573839
#
# number of rings (size 3 to 8) (size 9 to 14) (size 15 to 20)
#    0.000    1.250    7.500    0.750    3.500    0.500 
#    0.000    0.000    0.000    1.500    6.500    0.000 
#    0.000    0.000    0.000    0.000    0.000    0.000 
#
# Total GULP energy -198254.095272 kJ/mol
# GULP energy per Si atom -12390.880955 kJ/mol
# Density = 2.052701 g / cm^3
# Si number density = 20.573839 Si / 1000 Ang^3
#
#
#
# Elastic Constant Matrix: (Units=GPa)
#
#
# Indices 1 2 3 4 5 6 
#
# 1 54.9030 31.2314 39.8409 -3.3834 -23.7092 -13.8672
# 2 31.2314 97.9524 63.5997 -11.2389 -14.3410 -22.6902
# 3 39.8409 63.5997 140.1607 -7.4707 -32.4525 -11.6288
# 4 -3.3834 -11.2389 -7.4707 49.6788 4.7658 -7.2491
# 5 -23.7092 -14.3410 -32.4525 4.7658 28.8883 6.3137
# 6 -13.8672 -22.6902 -11.6288 -7.2491 6.3137 23.0254
#
#
#
# Elastic Compliance Matrix: (Units=1/GPa)
#
#
# Indices 1 2 3 4 5 6 
#
# 1 0.033506 -0.004041 -0.001990 0.000437 0.021099 0.009544
# 2 -0.004041 0.020457 -0.007950 0.006404 -0.007006 0.017647
# 3 -0.001990 -0.007950 0.013240 -0.001851 0.010892 -0.005916
# 4 0.000437 0.006404 -0.001851 0.024037 -0.005737 0.014780
# 5 0.021099 -0.007006 0.010892 -0.005737 0.063358 -0.007875
# 6 0.009544 0.017647 -0.005916 0.014780 -0.007875 0.070394
#
#
# Mechanical properties :
#
#
# Convention : Reuss Voigt Hill
#
# Bulk Modulus (GPa) = 25.48420 62.48444 43.98432
# Shear Modulus (GPa) = 18.79459 30.87477 24.83468
#
# Velocity S-wave (km/s) = 3.02573 3.87807 3.47810
# Velocity P-wave (km/s) = 4.96188 7.10558 6.12820
#
# Compressibility (1/GPa) = 0.03924000
#
# Stress axis : x y z
#
# Youngs Moduli (GPa) = 29.84568 48.88400 75.52619
#
# Poissons Ratio (x) = 0.19753 0.15030
# Poissons Ratio (y) = 0.12060 0.60047
# Poissons Ratio (z) = 0.05940 0.38865
#
# Static dielectric constant tensor:
#      x y z
#    x 3.249970 -0.003330 -0.253050 
#    y -0.003330 3.633040 -0.254870 
#    z -0.253050 -0.254870 3.981760 
# 
# 
# High freq. dielectric constant tensor:
#      x y z
#    x 1.746190 0.011780 -0.022040 
#    y 0.011780 1.828540 -0.008980 
#    z -0.022040 -0.008980 1.811360 
# 
# From -- ./inp_files/282153.got.cif
#   From: 2010.06.25/outbox.cif.g09.slc.cpg/sg2_142_cif.got.tgz:282153.got - 2010.06.27 13:26:56.
