data_PCOD8041784
_publ_section_title
;
Structure prediction by ZEFSAII (Michael W. Deem and Ramdas Pophale) SiO2 
 PCOD8041784
Probable space group: P -1
;
_chemical_formula_sum "Si O2"
_cell_formula_units_Z 16
_cell_length_a 26.427958
_cell_length_b 8.367774
_cell_length_c 15.025366
_cell_angle_alpha 119.059449
_cell_angle_beta 163.426746
_cell_angle_gamma 53.339873
_cell_volume 703.824606
_symmetry_space_group_name_H-M "P -1"
_symmetry_group_IT_number 2
_symmetry_cell_setting 'triclinic'
loop_
_space_group_symop_operation_xyz
x,y,z
-x,-y,-z
loop_
_atom_site_type_symbol
_atom_site_label
_atom_site_fract_x
_atom_site_fract_y
_atom_site_fract_z
Si Si1 0.726141 0.973180 0.374367
Si Si2 0.259496 0.137982 0.107337
Si Si3 0.589517 0.254945 0.061567
Si Si4 0.936134 0.475880 0.243379
Si Si5 0.381573 0.766625 0.093478
Si Si6 0.729763 0.524072 0.077381
Si Si7 0.177987 0.278905 0.195484
Si Si8 0.372850 0.000641 0.602352
O O1 0.910872 0.731129 0.610701
O O2 0.743827 0.118006 0.366774
O O3 0.748770 0.033918 0.530553
O O4 0.500000 0.000000 0.000000
O O5 0.117504 0.225149 0.981972
O O6 0.500000 0.000000 0.500000
O O7 0.220982 0.980683 0.937464
O O8 0.217527 0.341186 0.034234
O O9 0.500000 0.500000 0.000000
O O10 0.705351 0.203300 0.146639
O O11 0.410706 0.196408 0.739601
O O12 0.801879 0.427428 0.073552
O O13 0.067689 0.552738 0.541482
O O14 0.616743 0.711628 0.471587
O O15 0.403401 0.560269 0.122913
O O16 0.596089 0.781988 0.908022
O O17 0.232282 0.076142 0.296561
O O18 0.000000 0.500000 0.000000
#
# Coordination Sequence:
#
# PCOD8041784 Si02
#       8
#     2   2   2   2   2   2   2   2
#     4  10  19  35  56  88 124 163 205 245 325 378
#     4  10  22  43  66  90 126 173 217 264 317 373
#     4  10  19  33  58  90 127 164 201 248 317 385
#     4  11  22  37  64  89 127 171 212 248 322 395
#     4  10  23  40  62  95 131 164 210 272 319 372
#     4  11  22  39  61  93 129 167 206 262 330 378
#     4  10  21  43  70  91 121 170 222 261 316 384
#     4  10  20  39  63  87 125 169 204 263 326 370
#
# _framework density 22.732935999999999
#
# number of rings (size 3 to 8) (size 9 to 14) (size 15 to 20)
#    0.000    1.750    2.500    3.750    3.500    0.500 
#    0.000    7.500    0.000    0.000    0.000    0.000 
#    0.000    0.000    0.000    0.000    0.000    0.000 
#
# Total GULP energy -198256.717700 kJ/mol
# GULP energy per Si atom -12391.044856 kJ/mol
# Density = 2.268120 g / cm^3
# Si number density = 22.732936 Si / 1000 Ang^3
#
#
#
# Elastic Constant Matrix: (Units=GPa)
#
#
# Indices 1 2 3 4 5 6 
#
# 1 217.0083 65.2326 51.2923 -19.4683 -23.7250 -13.2279
# 2 65.2326 103.6625 26.5519 -25.7600 -2.4407 -3.1048
# 3 51.2923 26.5519 56.2075 -33.8876 -9.8579 6.1846
# 4 -19.4683 -25.7600 -33.8876 32.2273 3.0192 -2.2562
# 5 -23.7250 -2.4407 -9.8579 3.0192 36.7586 -11.1812
# 6 -13.2279 -3.1048 6.1846 -2.2562 -11.1812 46.7453
#
#
#
# Elastic Compliance Matrix: (Units=1/GPa)
#
#
# Indices 1 2 3 4 5 6 
#
# 1 0.008746 -0.005059 -0.012652 -0.012162 0.004202 0.004231
# 2 -0.005059 0.015047 0.007530 0.016998 -0.001972 -0.001080
# 3 -0.012652 0.007530 0.070188 0.071341 0.002786 -0.008256
# 4 -0.012162 0.016998 0.071341 0.111733 0.001402 -0.006023
# 5 0.004202 -0.001972 0.002786 0.001402 0.033052 0.008663
# 6 0.004231 -0.001080 -0.008256 -0.006023 0.008663 0.025392
#
#
# Mechanical properties :
#
#
# Convention : Reuss Voigt Hill
#
# Bulk Modulus (GPa) = 13.58348 73.67020 43.62684
# Shear Modulus (GPa) = 16.17807 38.73301 27.45554
#
# Velocity S-wave (km/s) = 2.67059 4.13222 3.47903
# Velocity P-wave (km/s) = 3.93670 7.43264 5.94734
#
# Compressibility (1/GPa) = 0.07361882
#
# Stress axis : x y z
#
# Youngs Moduli (GPa) = 114.34444 66.45863 14.24736
#
# Poissons Ratio (x) = 0.33624 0.18026
# Poissons Ratio (y) = 0.57851 -0.10729
# Poissons Ratio (z) = 1.44667 -0.50045
#
# Static dielectric constant tensor:
#      x y z
#    x 6.538390 -0.204760 -0.508950 
#    y -0.204760 4.009470 -0.154490 
#    z -0.508950 -0.154490 3.761420 
# 
# 
# High freq. dielectric constant tensor:
#      x y z
#    x 1.933940 -0.008070 -0.018030 
#    y -0.008070 1.879030 -0.031990 
#    z -0.018030 -0.031990 1.858080 
# 
# From -- ./inp_files/504285.got.cif
#   From: 2010.06.25/outbox.cif.g09.slc.cpg/sg2_253_cif.got.tgz:504285.got - 2010.06.27 13:26:56.
