data_PCOD8041738
_publ_section_title
;
Structure prediction by ZEFSAII (Michael W. Deem and Ramdas Pophale) SiO2 
 PCOD8041738
Probable space group: P -1
;
_chemical_formula_sum "Si O2"
_cell_formula_units_Z 16
_cell_length_a 17.429557
_cell_length_b 9.443831
_cell_length_c 9.517324
_cell_angle_alpha 48.023923
_cell_angle_beta 51.197519
_cell_angle_gamma 83.505160
_cell_volume 770.687788
_symmetry_space_group_name_H-M "P -1"
_symmetry_group_IT_number 2
_symmetry_cell_setting 'triclinic'
loop_
_space_group_symop_operation_xyz
x,y,z
-x,-y,-z
loop_
_atom_site_type_symbol
_atom_site_label
_atom_site_fract_x
_atom_site_fract_y
_atom_site_fract_z
Si Si1 0.166540 0.739517 0.311211
Si Si2 0.845109 0.881902 0.038785
Si Si3 0.044624 0.848078 0.734723
Si Si4 0.658479 0.775280 0.536028
Si Si5 0.278261 0.730038 0.925945
Si Si6 0.596512 0.531961 0.056160
Si Si7 0.935600 0.470613 0.890527
Si Si8 0.246003 0.143654 0.124169
O O1 0.053563 0.517283 0.647455
O O2 0.241112 0.912993 0.238283
O O3 0.248101 0.691285 0.153229
O O4 0.119593 0.859615 0.182165
O O5 0.763999 0.771491 0.341197
O O6 0.963317 0.883464 0.911006
O O7 0.774351 0.752978 0.062580
O O8 0.965631 0.683060 0.810089
O O9 0.142962 0.080074 0.397307
O O10 0.107962 0.748413 0.818072
O O11 0.659455 0.706988 0.740396
O O12 0.668183 0.013846 0.354336
O O13 0.540950 0.590666 0.716724
O O14 0.370216 0.656395 0.846233
O O15 0.163103 0.567045 0.078172
O O16 0.633003 0.675586 0.063136
#
# Coordination Sequence:
#
# PCOD8041738 Si02
#       8
#     2   2   2   2   2   2   2   2
#     4   8  20  35  53  83 123 144 190 237 282 352
#     4   9  19  36  58  78 123 148 184 239 290 335
#     4  10  19  33  57  87 123 150 185 244 287 347
#     4  10  24  43  55  92 116 148 203 254 281 346
#     4  11  21  39  59  86 118 156 193 243 292 347
#     4  11  23  39  70  79 114 160 201 239 301 338
#     4  10  20  32  54  89 119 153 192 228 293 358
#     4   9  19  37  59  87 110 160 191 236 287 354
#
# _framework density 20.760677000000001
#
# number of rings (size 3 to 8) (size 9 to 14) (size 15 to 20)
#    0.750    1.500    0.000    2.625    3.500    0.500 
#    0.000    1.875    0.000    1.500    0.000    0.000 
#    0.000    0.000    0.000    0.000    0.000    0.000 
#
# Total GULP energy -198295.041275 kJ/mol
# GULP energy per Si atom -12393.440080 kJ/mol
# Density = 2.071342 g / cm^3
# Si number density = 20.760677 Si / 1000 Ang^3
#
#
#
# Elastic Constant Matrix: (Units=GPa)
#
#
# Indices 1 2 3 4 5 6 
#
# 1 44.2867 16.3025 -5.3055 -1.2356 1.6642 8.0024
# 2 16.3025 46.3662 13.8032 5.4586 -4.7870 2.6300
# 3 -5.3055 13.8032 61.1721 2.5331 11.3258 -1.4141
# 4 -1.2356 5.4586 2.5331 26.5956 -2.3394 -0.6096
# 5 1.6642 -4.7870 11.3258 -2.3394 23.8030 -1.1283
# 6 8.0024 2.6300 -1.4141 -0.6096 -1.1283 16.8728
#
#
#
# Elastic Compliance Matrix: (Units=1/GPa)
#
#
# Indices 1 2 3 4 5 6 
#
# 1 0.030991 -0.013410 0.006893 0.002502 -0.008491 -0.012508
# 2 -0.013410 0.030978 -0.010050 -0.004981 0.011521 0.001280
# 3 0.006893 -0.010050 0.021619 -0.000830 -0.012908 -0.000784
# 4 0.002502 -0.004981 -0.000830 0.039118 0.003117 0.001142
# 5 -0.008491 0.011521 -0.012908 0.003117 0.051594 0.004712
# 6 -0.012508 0.001280 -0.000784 0.001142 0.004712 0.065290
#
#
# Mechanical properties :
#
#
# Convention : Reuss Voigt Hill
#
# Bulk Modulus (GPa) = 19.82031 22.38060 21.10046
# Shear Modulus (GPa) = 17.26858 21.92260 19.59559
#
# Velocity S-wave (km/s) = 2.88721 3.25309 3.07560
# Velocity P-wave (km/s) = 4.54779 4.99137 4.77474
#
# Compressibility (1/GPa) = 0.05045329
#
# Stress axis : x y z
#
# Youngs Moduli (GPa) = 32.26695 32.28119 46.25539
#
# Poissons Ratio (x) = 0.43291 -0.31884
# Poissons Ratio (y) = 0.43271 0.46488
# Poissons Ratio (z) = -0.22242 0.32443
#
# Static dielectric constant tensor:
#      x y z
#    x 3.430820 0.161120 0.102410 
#    y 0.161120 3.653370 0.069550 
#    z 0.102410 0.069550 3.671510 
# 
# 
# High freq. dielectric constant tensor:
#      x y z
#    x 1.788700 0.010820 0.011550 
#    y 0.010820 1.804400 0.002550 
#    z 0.011550 0.002550 1.806610 
# 
# From -- ./inp_files/327310.got.cif
#   From: 2010.06.25/outbox.cif.g09.slc.cpg/sg2_164_cif.got.tgz:327310.got - 2010.06.27 13:26:56.
