data_PCOD8041033
_publ_section_title
;
Structure prediction by ZEFSAII (Michael W. Deem and Ramdas Pophale) SiO2 
 PCOD8041033
Probable space group: P -1
;
_chemical_formula_sum "Si O2"
_cell_formula_units_Z 16
_cell_length_a 14.928585
_cell_length_b 9.909436
_cell_length_c 12.228462
_cell_angle_alpha 75.615469
_cell_angle_beta 29.069035
_cell_angle_gamma 86.955866
_cell_volume 797.990229
_symmetry_space_group_name_H-M "P -1"
_symmetry_group_IT_number 2
_symmetry_cell_setting 'triclinic'
loop_
_space_group_symop_operation_xyz
x,y,z
-x,-y,-z
loop_
_atom_site_type_symbol
_atom_site_label
_atom_site_fract_x
_atom_site_fract_y
_atom_site_fract_z
Si Si1 0.174473 0.467382 0.678567
Si Si2 0.989349 0.748885 0.298165
Si Si3 0.618107 0.675073 0.853214
Si Si4 0.825601 0.022509 0.111778
Si Si5 0.809277 0.550278 0.093360
Si Si6 0.428568 0.789689 0.619274
Si Si7 0.405522 0.392776 0.875344
Si Si8 0.373337 0.698569 0.928352
O O1 0.120727 0.338649 0.673222
O O2 0.183849 0.391693 0.801555
O O3 0.381309 0.589353 0.401652
O O4 0.021571 0.553604 0.827647
O O5 0.838044 0.731657 0.560525
O O6 0.092287 0.916896 0.109436
O O7 0.147108 0.681557 0.191070
O O8 0.495126 0.757899 0.898458
O O9 0.500000 0.500000 0.000000
O O10 0.636779 0.720317 0.953090
O O11 0.738163 0.137409 0.244541
O O12 0.639527 0.870666 0.321468
O O13 0.000000 0.000000 0.000000
O O14 0.651699 0.382088 0.294817
O O15 0.745422 0.656514 0.056358
O O16 0.465301 0.809514 0.707394
O O17 0.385888 0.541408 0.914531
#
# Coordination Sequence:
#
# PCOD8041033 Si02
#       8
#     2   2   2   2   2   2   2   2
#     4  11  19  32  49  69 103 135 159 186 243 285
#     4  11  19  32  47  74 101 128 157 193 246 289
#     4  10  19  28  47  68  99 132 157 194 240 284
#     4  10  19  29  49  67  97 127 154 202 241 284
#     4  10  21  33  49  70 103 134 158 195 229 294
#     4   9  18  32  45  70  97 125 162 192 238 286
#     4  10  19  31  45  71  97 133 165 191 232 285
#     4   9  17  29  45  66 100 127 151 196 233 286
#
# _framework density 20.050370000000001
#
# number of rings (size 3 to 8) (size 9 to 14) (size 15 to 20)
#    0.000    2.000    6.250    1.125    1.750    3.000 
#    0.000    0.000    0.000    0.000    0.000    0.875 
#    0.000    9.000    0.000    0.125    0.000    0.000 
#
# Total GULP energy -198250.128208 kJ/mol
# GULP energy per Si atom -12390.633013 kJ/mol
# Density = 2.000473 g / cm^3
# Si number density = 20.050370 Si / 1000 Ang^3
#
#
#
# Elastic Constant Matrix: (Units=GPa)
#
#
# Indices 1 2 3 4 5 6 
#
# 1 129.6326 9.7572 60.4121 10.3482 7.9167 -18.5499
# 2 9.7572 16.6542 1.7078 -1.0481 -3.5883 -11.1467
# 3 60.4121 1.7078 151.1345 3.4038 -1.5459 -17.2216
# 4 10.3482 -1.0481 3.4038 12.3296 -3.7286 1.0617
# 5 7.9167 -3.5883 -1.5459 -3.7286 33.8088 4.8462
# 6 -18.5499 -11.1467 -17.2216 1.0617 4.8462 18.2243
#
#
#
# Elastic Compliance Matrix: (Units=1/GPa)
#
#
# Indices 1 2 3 4 5 6 
#
# 1 0.012339 -0.002050 -0.003519 -0.012293 -0.006103 0.010319
# 2 -0.002050 0.108437 0.007572 0.003572 0.002625 0.070488
# 3 -0.003519 0.007572 0.008995 0.000543 0.000763 0.009315
# 4 -0.012293 0.003572 0.000543 0.098451 0.017018 -0.020076
# 5 -0.006103 0.002625 0.000763 0.017018 0.035240 -0.014247
# 6 0.010319 0.070488 0.009315 -0.020076 -0.014247 0.122249
#
#
# Mechanical properties :
#
#
# Convention : Reuss Voigt Hill
#
# Bulk Modulus (GPa) = 7.47503 49.01950 28.24727
# Shear Modulus (GPa) = 11.72894 27.90883 19.81889
#
# Velocity S-wave (km/s) = 2.42125 3.73491 3.14738
# Velocity P-wave (km/s) = 3.39894 6.56511 5.22750
#
# Compressibility (1/GPa) = 0.13377877
#
# Stress axis : x y z
#
# Youngs Moduli (GPa) = 81.04500 9.22190 111.17809
#
# Poissons Ratio (x) = 0.01890 0.39120
# Poissons Ratio (y) = 0.16613 -0.84188
# Poissons Ratio (z) = 0.28517 -0.06983
#
# Static dielectric constant tensor:
#      x y z
#    x 4.656300 -0.496430 0.172530 
#    y -0.496430 3.174280 -0.049510 
#    z 0.172530 -0.049510 3.958860 
# 
# 
# High freq. dielectric constant tensor:
#      x y z
#    x 1.790540 -0.033710 -0.008120 
#    y -0.033710 1.714470 0.011910 
#    z -0.008120 0.011910 1.793460 
# 
# From -- ./inp_files/451316.got.cif
#   From: 2010.06.25/outbox.cif.g09.slc.cpg/sg2_226_cif.got.tgz:451316.got - 2010.06.27 13:26:56.
