data_PCOD8041866
_publ_section_title
;
Structure prediction by ZEFSAII (Michael W. Deem and Ramdas Pophale) SiO2 
 PCOD8041866
Probable space group: P -1
;
_chemical_formula_sum "Si O2"
_cell_formula_units_Z 16
_cell_length_a 8.984613
_cell_length_b 10.277172
_cell_length_c 17.873459
_cell_angle_alpha 144.995598
_cell_angle_beta 129.889877
_cell_angle_gamma 51.508912
_cell_volume 708.503857
_symmetry_space_group_name_H-M "P -1"
_symmetry_group_IT_number 2
_symmetry_cell_setting 'triclinic'
loop_
_space_group_symop_operation_xyz
x,y,z
-x,-y,-z
loop_
_atom_site_type_symbol
_atom_site_label
_atom_site_fract_x
_atom_site_fract_y
_atom_site_fract_z
Si Si1 0.795131 0.051698 0.153199
Si Si2 0.099903 0.083876 0.144696
Si Si3 0.869998 0.978021 0.315865
Si Si4 0.507259 0.758111 0.098791
Si Si5 0.287720 0.790523 0.319991
Si Si6 0.075402 0.539547 0.422331
Si Si7 0.437443 0.319313 0.089630
Si Si8 0.292539 0.289672 0.514426
O O1 0.837369 0.058004 0.257017
O O2 0.631005 0.286714 0.190448
O O3 0.995853 0.033695 0.163907
O O4 0.710201 0.831601 0.996467
O O5 0.087577 0.363916 0.272427
O O6 0.325290 0.945391 0.161429
O O7 0.000000 0.000000 0.000000
O O8 0.868014 0.219396 0.473523
O O9 0.708090 0.838592 0.227864
O O10 0.087167 0.806030 0.311570
O O11 0.500000 0.500000 0.000000
O O12 0.487603 0.772706 0.010607
O O13 0.313193 0.583358 0.170011
O O14 0.475743 0.721291 0.402614
O O15 0.272908 0.023303 0.377645
O O16 0.233571 0.416385 0.477044
O O17 0.852559 0.587905 0.407756
#
# Coordination Sequence:
#
# PCOD8041866 Si02
#       8
#     2   2   2   2   2   2   2   2
#     4  10  21  39  64  94 124 162 224 261 315 371
#     4  12  24  41  65  94 127 174 212 259 326 385
#     4  10  23  42  66  97 126 171 218 271 316 373
#     4  11  27  42  59  92 138 173 213 261 329 389
#     4  10  19  33  62  96 130 157 210 264 332 367
#     4  10  20  39  67  90 130 163 218 265 315 381
#     4  10  21  38  63  90 127 167 210 274 308 381
#     4   9  19  35  62 102 122 161 212 274 316 374
#
# _framework density 22.582798
#
# number of rings (size 3 to 8) (size 9 to 14) (size 15 to 20)
#    0.000    1.750    1.250    3.750    5.250    1.500 
#    0.000    0.000    0.000    1.500    0.000    0.000 
#    0.000    0.000    0.000    0.000    0.000    0.000 
#
# Total GULP energy -198356.890750 kJ/mol
# GULP energy per Si atom -12397.305672 kJ/mol
# Density = 2.253140 g / cm^3
# Si number density = 22.582798 Si / 1000 Ang^3
#
#
#
# Elastic Constant Matrix: (Units=GPa)
#
#
# Indices 1 2 3 4 5 6 
#
# 1 101.3810 41.7488 55.5514 15.7061 22.5673 -30.3865
# 2 41.7488 100.8267 43.5760 13.6045 6.6644 -36.5557
# 3 55.5514 43.5760 145.2501 26.1818 5.8503 -24.7283
# 4 15.7061 13.6045 26.1818 41.1363 -10.7843 -2.5302
# 5 22.5673 6.6644 5.8503 -10.7843 37.6606 -2.2494
# 6 -30.3865 -36.5557 -24.7283 -2.5302 -2.2494 39.7365
#
#
#
# Elastic Compliance Matrix: (Units=1/GPa)
#
#
# Indices 1 2 3 4 5 6 
#
# 1 0.019136 -0.000774 -0.003447 -0.007425 -0.012287 0.010608
# 2 -0.000774 0.016368 -0.001564 -0.003985 -0.002549 0.013095
# 3 -0.003447 -0.001564 0.009761 -0.004358 -0.000320 0.001703
# 4 -0.007425 -0.003985 -0.004358 0.034674 0.015224 -0.008986
# 5 -0.012287 -0.002549 -0.000320 0.015224 0.038250 -0.008805
# 6 0.010608 0.013095 0.001703 -0.008986 -0.008805 0.045314
#
#
# Mechanical properties :
#
#
# Convention : Reuss Voigt Hill
#
# Bulk Modulus (GPa) = 29.67833 69.91225 49.79529
# Shear Modulus (GPa) = 26.83758 37.47880 32.15819
#
# Velocity S-wave (km/s) = 3.45107 4.07826 3.77770
# Velocity P-wave (km/s) = 5.38984 7.29395 6.41296
#
# Compressibility (1/GPa) = 0.03369462
#
# Stress axis : x y z
#
# Youngs Moduli (GPa) = 52.25678 61.09367 102.45012
#
# Poissons Ratio (x) = 0.04727 0.35318
# Poissons Ratio (y) = 0.04043 0.16027
# Poissons Ratio (z) = 0.18015 0.09557
#
# Static dielectric constant tensor:
#      x y z
#    x 3.948640 -0.372450 0.238690 
#    y -0.372450 4.052660 0.190000 
#    z 0.238690 0.190000 4.476810 
# 
# 
# High freq. dielectric constant tensor:
#      x y z
#    x 1.865250 -0.027640 0.016390 
#    y -0.027640 1.887620 0.011480 
#    z 0.016390 0.011480 1.910180 
# 
# From -- ./inp_files/589258.got.cif
#   From: 2010.06.25/outbox.cif.g09.slc.cpg/sg2_295_cif.got.tgz:589258.got - 2010.06.27 13:26:56.
