data_PCOD8041265
_publ_section_title
;
Structure prediction by ZEFSAII (Michael W. Deem and Ramdas Pophale) SiO2 
 PCOD8041265
Probable space group: P -1
;
_chemical_formula_sum "Si O2"
_cell_formula_units_Z 16
_cell_length_a 23.466789
_cell_length_b 17.104124
_cell_length_c 11.605749
_cell_angle_alpha 137.438029
_cell_angle_beta 29.746257
_cell_angle_gamma 156.911348
_cell_volume 858.908276
_symmetry_space_group_name_H-M "P -1"
_symmetry_group_IT_number 2
_symmetry_cell_setting 'triclinic'
loop_
_space_group_symop_operation_xyz
x,y,z
-x,-y,-z
loop_
_atom_site_type_symbol
_atom_site_label
_atom_site_fract_x
_atom_site_fract_y
_atom_site_fract_z
Si Si1 0.869047 0.711827 0.418507
Si Si2 0.111640 0.472972 0.262216
Si Si3 0.129952 0.060328 0.988658
Si Si4 0.704966 0.829794 0.792488
Si Si5 0.494976 0.630316 0.167344
Si Si6 0.067368 0.881627 0.670808
Si Si7 0.536582 0.754155 0.770447
Si Si8 0.178390 0.367991 0.840697
O O1 0.786707 0.772588 0.618330
O O2 0.732863 0.527113 0.552177
O O3 0.839357 0.620497 0.250614
O O4 0.109427 0.918841 0.261103
O O5 0.045555 0.332934 0.331382
O O6 0.000000 0.500000 0.500000
O O7 0.364917 0.703739 0.063816
O O8 0.045844 0.354768 0.129157
O O9 0.920312 0.839784 0.181880
O O10 0.157409 0.027005 0.779450
O O11 0.102473 0.176754 0.156161
O O12 0.328454 0.188880 0.853392
O O13 0.600591 0.733154 0.746244
O O14 0.541619 0.731876 0.073390
O O15 0.500000 0.500000 0.000000
O O16 0.262903 0.016809 0.390795
O O17 0.418591 0.571828 0.686688
#
# Coordination Sequence:
#
# PCOD8041265 Si02
#       8
#     2   2   2   2   2   2   2   2
#     4  10  19  32  50  74 114 152 179 213 259 338
#     4   9  22  40  56  82 108 138 190 248 286 316
#     4  10  19  34  50  85 121 142 182 221 266 339
#     4  10  21  32  47  81 119 145 181 213 266 330
#     4  10  21  29  49  72 117 161 175 205 263 326
#     4  10  21  33  57  81 112 144 180 230 275 333
#     4  10  22  34  57  83 104 152 186 228 279 325
#     4   9  19  36  56  80 109 150 180 229 276 323
#
# _framework density 18.628298999999998
#
# number of rings (size 3 to 8) (size 9 to 14) (size 15 to 20)
#    0.750    1.500    1.250    1.500    7.000    2.500 
#    0.000    0.000    0.000    0.750    0.000    1.750 
#    0.000    0.000    0.000    0.000    0.000    0.000 
#
# Total GULP energy -198245.750685 kJ/mol
# GULP energy per Si atom -12390.359418 kJ/mol
# Density = 1.858590 g / cm^3
# Si number density = 18.628299 Si / 1000 Ang^3
#
#
#
# Elastic Constant Matrix: (Units=GPa)
#
#
# Indices 1 2 3 4 5 6 
#
# 1 47.8931 24.7365 31.6439 -5.0127 16.4617 2.7390
# 2 24.7365 56.9525 37.8259 -12.7544 5.3370 -5.0628
# 3 31.6439 37.8259 91.4500 -20.8668 20.3665 -23.0981
# 4 -5.0127 -12.7544 -20.8668 30.3178 -7.7773 1.3378
# 5 16.4617 5.3370 20.3665 -7.7773 26.3391 -5.6972
# 6 2.7390 -5.0628 -23.0981 1.3378 -5.6972 31.2735
#
#
#
# Elastic Compliance Matrix: (Units=1/GPa)
#
#
# Indices 1 2 3 4 5 6 
#
# 1 0.042721 -0.012888 -0.011588 -0.011273 -0.022346 -0.017975
# 2 -0.012888 0.029209 -0.007920 0.007405 0.010805 0.001660
# 3 -0.011588 -0.007920 0.026157 0.010861 -0.004321 0.017800
# 4 -0.011273 0.007405 0.010861 0.044467 0.012568 0.010596
# 5 -0.022346 0.010805 -0.004321 0.012568 0.059120 0.010747
# 6 -0.017975 0.001660 0.017800 0.010596 0.010747 0.048470
#
#
# Mechanical properties :
#
#
# Convention : Reuss Voigt Hill
#
# Bulk Modulus (GPa) = 30.03259 42.74535 36.38897
# Shear Modulus (GPa) = 15.33579 24.39203 19.86391
#
# Velocity S-wave (km/s) = 2.87235 3.62250 3.26901
# Velocity P-wave (km/s) = 5.21129 6.36341 5.81595
#
# Compressibility (1/GPa) = 0.03329716
#
# Stress axis : x y z
#
# Youngs Moduli (GPa) = 23.40761 34.23546 38.23070
#
# Poissons Ratio (x) = 0.44121 0.44301
# Poissons Ratio (y) = 0.30167 0.30279
# Poissons Ratio (z) = 0.27124 0.27114
#
# Static dielectric constant tensor:
#      x y z
#    x 3.410950 -0.024540 0.597740 
#    y -0.024540 3.237460 -0.437920 
#    z 0.597740 -0.437920 3.352900 
# 
# 
# High freq. dielectric constant tensor:
#      x y z
#    x 1.716030 0.017550 0.038690 
#    y 0.017550 1.695650 -0.044330 
#    z 0.038690 -0.044330 1.698370 
# 
# From -- ./inp_files/471938.got.cif
#   From: 2010.06.25/outbox.cif.g09.slc.cpg/sg2_236_cif.got.tgz:471938.got - 2010.06.27 13:26:56.
