data_PCOD8041445
_publ_section_title
;
Structure prediction by ZEFSAII (Michael W. Deem and Ramdas Pophale) SiO2 
 PCOD8041445
Probable space group: P -1
;
_chemical_formula_sum "Si O2"
_cell_formula_units_Z 16
_cell_length_a 13.646961
_cell_length_b 11.746755
_cell_length_c 8.419434
_cell_angle_alpha 49.818851
_cell_angle_beta 50.780961
_cell_angle_gamma 77.095824
_cell_volume 759.029935
_symmetry_space_group_name_H-M "P -1"
_symmetry_group_IT_number 2
_symmetry_cell_setting 'triclinic'
loop_
_space_group_symop_operation_xyz
x,y,z
-x,-y,-z
loop_
_atom_site_type_symbol
_atom_site_label
_atom_site_fract_x
_atom_site_fract_y
_atom_site_fract_z
Si Si1 0.140469 0.051578 0.901410
Si Si2 0.799393 0.614610 0.340182
Si Si3 0.936686 0.631550 0.892639
Si Si4 0.177039 0.901755 0.320194
Si Si5 0.939690 0.444582 0.780587
Si Si6 0.634604 0.270769 0.880147
Si Si7 0.595752 0.958626 0.817136
Si Si8 0.301975 0.856099 0.756514
O O1 0.209872 0.238971 0.678845
O O2 0.242699 0.991481 0.750908
O O3 0.125674 0.984607 0.154928
O O4 0.000000 0.000000 0.000000
O O5 0.688345 0.459963 0.658943
O O6 0.950129 0.612704 0.194748
O O7 0.801277 0.631265 0.128896
O O8 0.903470 0.586300 0.780821
O O9 0.046841 0.801994 0.638340
O O10 0.000000 0.500000 0.000000
O O11 0.257706 0.788158 0.273688
O O12 0.266374 0.026942 0.244934
O O13 0.000000 0.500000 0.500000
O O14 0.809357 0.300411 0.035833
O O15 0.487012 0.216842 0.000779
O O16 0.613530 0.192332 0.147448
O O17 0.611339 0.079731 0.545873
O O18 0.500000 0.000000 0.000000
#
# Coordination Sequence:
#
# PCOD8041445 Si02
#       8
#     2   2   2   2   2   2   2   2
#     4  11  24  38  58  88 128 159 191 235 307 377
#     4  11  21  36  54  90 118 158 193 241 295 369
#     4  10  19  32  58  87 121 149 193 249 305 340
#     4  10  20  38  57  87 120 155 194 251 289 351
#     4  11  18  32  59  90 122 146 191 251 307 344
#     4  10  20  37  62  85 115 150 207 249 287 340
#     4  10  22  38  63  88 113 155 209 253 289 338
#     4  11  21  38  62  91 121 155 193 250 300 351
#
# _framework density 21.079539
#
# number of rings (size 3 to 8) (size 9 to 14) (size 15 to 20)
#    0.000    1.500    5.000    2.625    1.750    0.500 
#    0.000    1.250    0.000    0.000    0.000    0.000 
#    0.000    0.000    0.000    0.000    0.000    0.000 
#
# Total GULP energy -198231.433395 kJ/mol
# GULP energy per Si atom -12389.464587 kJ/mol
# Density = 2.103156 g / cm^3
# Si number density = 21.079539 Si / 1000 Ang^3
#
#
#
# Elastic Constant Matrix: (Units=GPa)
#
#
# Indices 1 2 3 4 5 6 
#
# 1 101.1217 42.1412 52.5524 -17.3228 -0.0915 29.2654
# 2 42.1412 103.7415 50.2466 -14.2691 -5.9455 24.4091
# 3 52.5524 50.2466 137.1152 -5.7804 8.4058 15.5895
# 4 -17.3228 -14.2691 -5.7804 43.0333 15.2921 -0.2260
# 5 -0.0915 -5.9455 8.4058 15.2921 26.1613 -3.0086
# 6 29.2654 24.4091 15.5895 -0.2260 -3.0086 25.8305
#
#
#
# Elastic Compliance Matrix: (Units=1/GPa)
#
#
# Indices 1 2 3 4 5 6 
#
# 1 0.019695 -0.000203 -0.004395 0.009438 -0.006397 -0.020132
# 2 -0.000203 0.014914 -0.004011 0.003868 0.001120 -0.011278
# 3 -0.004395 -0.004011 0.010443 -0.000311 -0.003869 0.002014
# 4 0.009438 0.003868 -0.000311 0.035975 -0.021902 -0.016396
# 5 -0.006397 0.001120 -0.003869 -0.021902 0.054186 0.014644
# 6 -0.020132 -0.011278 0.002014 -0.016396 0.014644 0.072528
#
#
# Mechanical properties :
#
#
# Convention : Reuss Voigt Hill
#
# Bulk Modulus (GPa) = 35.92779 70.20652 53.06716
# Shear Modulus (GPa) = 21.34591 32.14090 26.74341
#
# Velocity S-wave (km/s) = 3.18565 3.90903 3.56573
# Velocity P-wave (km/s) = 5.53282 7.33157 6.49476
#
# Compressibility (1/GPa) = 0.02783361
#
# Stress axis : x y z
#
# Youngs Moduli (GPa) = 50.77346 67.04951 95.76250
#
# Poissons Ratio (x) = 0.01364 0.42089
# Poissons Ratio (y) = 0.01033 0.38408
# Poissons Ratio (z) = 0.22316 0.26892
#
# Static dielectric constant tensor:
#      x y z
#    x 4.760660 1.606000 0.653090 
#    y 1.606000 5.643190 0.937830 
#    z 0.653090 0.937830 4.412830 
# 
# 
# High freq. dielectric constant tensor:
#      x y z
#    x 1.803970 0.044870 0.008760 
#    y 0.044870 1.814010 -0.000880 
#    z 0.008760 -0.000880 1.837550 
# 
# From -- ./inp_files/223829.got.cif
#   From: 2010.06.25/outbox.cif.g09.slc.cpg/sg2_112_cif.got.tgz:223829.got - 2010.06.27 13:26:56.
