data_PCOD8041995
_publ_section_title
;
Structure prediction by ZEFSAII (Michael W. Deem and Ramdas Pophale) SiO2 
 PCOD8041995
Probable space group: P -1
;
_chemical_formula_sum "Si O2"
_cell_formula_units_Z 16
_cell_length_a 11.380241
_cell_length_b 11.819105
_cell_length_c 11.330007
_cell_angle_alpha 53.446959
_cell_angle_beta 60.716758
_cell_angle_gamma 37.381094
_cell_volume 742.825491
_symmetry_space_group_name_H-M "P -1"
_symmetry_group_IT_number 2
_symmetry_cell_setting 'triclinic'
loop_
_space_group_symop_operation_xyz
x,y,z
-x,-y,-z
loop_
_atom_site_type_symbol
_atom_site_label
_atom_site_fract_x
_atom_site_fract_y
_atom_site_fract_z
Si Si1 0.137936 0.997518 0.716405
Si Si2 0.918071 0.928413 0.988116
Si Si3 0.647562 0.480516 0.282918
Si Si4 0.130309 0.623064 0.268898
Si Si5 0.044301 0.094939 0.276740
Si Si6 0.579479 0.364759 0.927698
Si Si7 0.534550 0.814414 0.566802
Si Si8 0.567987 0.243864 0.576738
O O1 0.070219 0.949849 0.892581
O O2 0.034584 0.228300 0.641389
O O3 0.060367 0.979796 0.646648
O O4 0.370044 0.840131 0.694344
O O5 0.025742 0.719909 0.132895
O O6 0.877947 0.906678 0.887008
O O7 0.711388 0.124359 0.029521
O O8 0.880064 0.317478 0.276059
O O9 0.595963 0.542300 0.131732
O O10 0.557007 0.401681 0.419969
O O11 0.560261 0.664709 0.297707
O O12 0.286240 0.628024 0.214193
O O13 0.248720 0.388553 0.368033
O O14 0.212603 0.958284 0.373286
O O15 0.500000 0.500000 0.000000
O O16 0.517878 0.808656 0.437422
O O17 0.500000 0.000000 0.500000
#
# Coordination Sequence:
#
# PCOD8041995 Si02
#       8
#     2   2   2   2   2   2   2   2
#     4   9  20  37  57  90 122 147 193 245 305 360
#     4   9  20  33  55  96 125 145 184 251 322 359
#     4  11  20  31  55  89 116 156 179 245 318 348
#     4  11  21  35  57  86 124 152 196 247 302 357
#     4  10  19  34  55  92 120 147 182 237 324 355
#     4  11  19  31  55  94 129 149 180 237 323 375
#     4  12  27  41  57  81 119 177 211 234 281 351
#     4  11  21  36  55  83 124 147 202 246 289 370
#
# _framework density 21.539377999999999
#
# number of rings (size 3 to 8) (size 9 to 14) (size 15 to 20)
#    0.750    0.750    3.750    2.625    7.000    0.500 
#    0.000    0.000    0.000    0.750    0.000    4.375 
#    0.000    1.250    0.000    0.000    0.000    0.000 
#
# Total GULP energy -198249.858201 kJ/mol
# GULP energy per Si atom -12390.616138 kJ/mol
# Density = 2.149035 g / cm^3
# Si number density = 21.539378 Si / 1000 Ang^3
#
#
#
# Elastic Constant Matrix: (Units=GPa)
#
#
# Indices 1 2 3 4 5 6 
#
# 1 50.7835 37.8852 40.2993 -6.0501 27.2051 8.0094
# 2 37.8852 168.7148 56.2701 5.8445 28.9231 -5.3472
# 3 40.2993 56.2701 77.6940 -8.0232 37.3006 -0.3454
# 4 -6.0501 5.8445 -8.0232 44.5146 -5.1381 6.3384
# 5 27.2051 28.9231 37.3006 -5.1381 29.2875 -2.3307
# 6 8.0094 -5.3472 -0.3454 6.3384 -2.3307 28.9139
#
#
#
# Elastic Compliance Matrix: (Units=1/GPa)
#
#
# Indices 1 2 3 4 5 6 
#
# 1 0.049646 -0.004007 -0.004865 0.004815 -0.036595 -0.018557
# 2 -0.004007 0.008458 -0.005129 -0.002868 0.001667 0.003376
# 3 -0.004865 -0.005129 0.037723 0.002808 -0.038194 -0.002844
# 4 0.004815 -0.002868 0.002808 0.024889 -0.001439 -0.007403
# 5 -0.036595 0.001667 -0.038194 -0.001439 0.116449 0.019691
# 6 -0.018557 0.003376 -0.002844 -0.007403 0.019691 0.043526
#
#
# Mechanical properties :
#
#
# Convention : Reuss Voigt Hill
#
# Bulk Modulus (GPa) = 14.74380 62.90016 38.82198
# Shear Modulus (GPa) = 15.09195 31.39236 23.24216
#
# Velocity S-wave (km/s) = 2.64988 3.82179 3.28846
# Velocity P-wave (km/s) = 4.02771 6.98144 5.69925
#
# Compressibility (1/GPa) = 0.06782514
#
# Stress axis : x y z
#
# Youngs Moduli (GPa) = 20.14267 118.23012 26.50897
#
# Poissons Ratio (x) = 0.47373 0.12898
# Poissons Ratio (y) = 0.08071 0.13596
# Poissons Ratio (z) = 0.09800 0.60637
#
# Static dielectric constant tensor:
#      x y z
#    x 3.335210 -0.182850 0.439840 
#    y -0.182850 4.448540 0.119520 
#    z 0.439840 0.119520 3.636870 
# 
# 
# High freq. dielectric constant tensor:
#      x y z
#    x 1.778940 -0.019430 0.058390 
#    y -0.019430 1.878320 0.014340 
#    z 0.058390 0.014340 1.816660 
# 
# From -- ./inp_files/425461.got.cif
#   From: 2010.06.25/outbox.cif.g09.slc.cpg/sg2_213_cif.got.tgz:425461.got - 2010.06.27 13:26:56.
