data_PCOD8041142
_publ_section_title
;
Structure prediction by ZEFSAII (Michael W. Deem and Ramdas Pophale) SiO2 
 PCOD8041142
Probable space group: P -1
;
_chemical_formula_sum "Si O2"
_cell_formula_units_Z 14
_cell_length_a 8.387652
_cell_length_b 7.203931
_cell_length_c 21.095579
_cell_angle_alpha 48.010195
_cell_angle_beta 137.857648
_cell_angle_gamma 123.463574
_cell_volume 631.769307
_symmetry_space_group_name_H-M "P -1"
_symmetry_group_IT_number 2
_symmetry_cell_setting 'triclinic'
loop_
_space_group_symop_operation_xyz
x,y,z
-x,-y,-z
loop_
_atom_site_type_symbol
_atom_site_label
_atom_site_fract_x
_atom_site_fract_y
_atom_site_fract_z
Si Si1 0.740456 0.880089 0.609787
Si Si2 0.965520 0.221966 0.392053
Si Si3 0.261061 0.127172 0.897830
Si Si4 0.358022 0.530188 0.217737
Si Si5 0.021692 0.265455 0.014219
Si Si6 0.134871 0.259893 0.696654
Si Si7 0.525057 0.340920 0.176688
O O1 0.810751 0.738451 0.599230
O O2 0.714099 0.683743 0.703779
O O3 0.500000 0.000000 0.500000
O O4 0.945003 0.110264 0.629055
O O5 0.953911 0.473269 0.372002
O O6 0.720094 0.150862 0.294512
O O7 0.000000 0.000000 0.500000
O O8 0.152830 0.093639 0.803067
O O9 0.322834 0.420161 0.866021
O O10 0.500000 0.000000 0.000000
O O11 0.072078 0.998051 0.921027
O O12 0.605352 0.698769 0.271443
O O13 0.407881 0.411144 0.192079
O O14 0.133713 0.696215 0.103939
O O15 0.303763 0.241403 0.088031
O O16 0.000000 0.500000 0.000000
#
# Coordination Sequence:
#
# PCOD8041142 Si02
#       7
#     2   2   2   2   2   2   2
#     4  12  25  41  65  92 119 162 214 257 310 368
#     4  10  23  44  64  88 126 161 209 260 309 366
#     4  10  15  29  57  92 119 159 202 236 297 365
#     4   9  19  34  58  92 121 157 206 246 303 366
#     4  10  15  27  55  87 120 157 200 243 293 365
#     4  10  22  41  65  91 126 164 200 254 312 360
#     4   9  19  33  57  87 122 162 200 247 302 359
#
# _framework density 22.159986
#
# number of rings (size 3 to 8) (size 9 to 14) (size 15 to 20)
#    0.000    2.286    4.286    3.429    0.000    2.857 
#    0.000    7.857    0.000    4.286    0.000    0.000 
#    0.000    0.000    0.000    0.000    0.000    0.000 
#
# Total GULP energy -173492.619737 kJ/mol
# GULP energy per Si atom -12392.329981 kJ/mol
# Density = 2.210955 g / cm^3
# Si number density = 22.159986 Si / 1000 Ang^3
#
#
#
# Elastic Constant Matrix: (Units=GPa)
#
#
# Indices 1 2 3 4 5 6 
#
# 1 59.6252 37.7522 39.5482 -3.2626 2.7563 27.4519
# 2 37.7522 111.6222 62.3127 9.6903 -3.1097 36.1543
# 3 39.5482 62.3127 179.3523 -7.6215 15.0250 29.3348
# 4 -3.2626 9.6903 -7.6215 37.6787 20.6956 0.8698
# 5 2.7563 -3.1097 15.0250 20.6956 33.5874 1.5950
# 6 27.4519 36.1543 29.3348 0.8698 1.5950 32.5832
#
#
#
# Elastic Compliance Matrix: (Units=1/GPa)
#
#
# Indices 1 2 3 4 5 6 
#
# 1 0.029592 -0.003629 -0.001331 0.006589 -0.005297 -0.019624
# 2 -0.003629 0.019057 -0.005256 -0.013217 0.013205 -0.013649
# 3 -0.001331 -0.005256 0.008983 0.008262 -0.009444 -0.000892
# 4 0.006589 -0.013217 0.008262 0.053187 -0.038334 0.002133
# 5 -0.005297 0.013205 -0.009444 -0.038334 0.059445 -0.003574
# 6 -0.019624 -0.013649 -0.000892 0.002133 -0.003574 0.063291
#
#
# Mechanical properties :
#
#
# Convention : Reuss Voigt Hill
#
# Bulk Modulus (GPa) = 26.88166 69.98066 48.43116
# Shear Modulus (GPa) = 18.76964 34.83561 26.80263
#
# Velocity S-wave (km/s) = 2.91349 3.96915 3.48157
# Velocity P-wave (km/s) = 4.84510 7.25630 6.16964
#
# Compressibility (1/GPa) = 0.03720008
#
# Stress axis : x y z
#
# Youngs Moduli (GPa) = 33.79262 52.47534 111.31520
#
# Poissons Ratio (x) = 0.19043 0.14817
# Poissons Ratio (y) = 0.12263 0.58508
# Poissons Ratio (z) = 0.04498 0.27581
#
# Static dielectric constant tensor:
#      x y z
#    x 3.785800 0.242090 0.397260 
#    y 0.242090 3.748410 0.445890 
#    z 0.397260 0.445890 4.300230 
# 
# 
# High freq. dielectric constant tensor:
#      x y z
#    x 1.850120 0.024950 0.011160 
#    y 0.024950 1.856380 0.002560 
#    z 0.011160 0.002560 1.894400 
# 
# From -- ./inp_files/606139.got.cif
#   From: 2010.06.25/outbox.cif.g09.slc.cpg/sg2_304_cif.got.tgz:606139.got - 2010.06.27 13:26:56.
