data_PCOD8041095
_publ_section_title
;
Structure prediction by ZEFSAII (Michael W. Deem and Ramdas Pophale) SiO2 
 PCOD8041095
Probable space group: P -1
;
_chemical_formula_sum "Si O2"
_cell_formula_units_Z 16
_cell_length_a 12.236955
_cell_length_b 9.009325
_cell_length_c 14.582958
_cell_angle_alpha 139.605805
_cell_angle_beta 87.163071
_cell_angle_gamma 109.371315
_cell_volume 927.055483
_symmetry_space_group_name_H-M "P -1"
_symmetry_group_IT_number 2
_symmetry_cell_setting 'triclinic'
loop_
_space_group_symop_operation_xyz
x,y,z
-x,-y,-z
loop_
_atom_site_type_symbol
_atom_site_label
_atom_site_fract_x
_atom_site_fract_y
_atom_site_fract_z
Si Si1 0.535174 0.717241 0.227028
Si Si2 0.584878 0.586959 0.356256
Si Si3 0.322241 0.201361 0.919679
Si Si4 0.630842 0.040242 0.693361
Si Si5 0.115199 0.690109 0.969441
Si Si6 0.292644 0.766773 0.852898
Si Si7 0.635052 0.909801 0.831734
Si Si8 0.146132 0.449729 0.035607
O O1 0.600645 0.726119 0.324206
O O2 0.641561 0.827214 0.198688
O O3 0.470237 0.901370 0.325342
O O4 0.436297 0.428332 0.072301
O O5 0.664607 0.432350 0.284001
O O6 0.440698 0.394885 0.291157
O O7 0.636388 0.797110 0.532909
O O8 0.285488 0.939215 0.851724
O O9 0.204460 0.254360 0.945895
O O10 0.764716 0.281286 0.793665
O O11 0.588921 0.984139 0.774978
O O12 0.119136 0.491329 0.951060
O O13 0.216190 0.986117 0.131027
O O14 0.156839 0.620564 0.837013
O O15 0.981123 0.674259 0.960659
O O16 0.387976 0.937535 0.009993
#
# Coordination Sequence:
#
# PCOD8041095 Si02
#       8
#     2   2   2   2   2   2   2   2
#     4  10  20  31  48  74 102 132 165 204 247 292
#     4  12  20  32  51  75 107 133 159 200 251 306
#     4  10  19  30  52  75 100 128 167 213 242 283
#     4  10  21  33  50  75 105 134 159 198 255 301
#     4   8  17  32  54  74  96 127 169 213 237 284
#     4  10  20  32  50  77  97 132 168 203 244 287
#     4   9  19  33  50  75 100 130 164 205 242 292
#     4   9  17  34  52  75 100 126 168 207 247 285
#
# _framework density 17.258946000000002
#
# number of rings (size 3 to 8) (size 9 to 14) (size 15 to 20)
#    0.750    1.500    1.250    2.625    3.500    0.500 
#    0.000    0.625    0.000    0.000    0.000    9.625 
#    0.000    0.000    0.000    0.000    0.000    0.000 
#
# Total GULP energy -198307.156564 kJ/mol
# GULP energy per Si atom -12394.197285 kJ/mol
# Density = 1.721966 g / cm^3
# Si number density = 17.258946 Si / 1000 Ang^3
#
#
#
# Elastic Constant Matrix: (Units=GPa)
#
#
# Indices 1 2 3 4 5 6 
#
# 1 112.8576 58.7666 47.0058 4.5776 -17.3752 6.3229
# 2 58.7666 106.8916 32.2842 0.9303 -13.5866 1.8482
# 3 47.0058 32.2842 71.5779 11.2347 -19.1645 0.7545
# 4 4.5776 0.9303 11.2347 15.5612 -2.1696 -0.5499
# 5 -17.3752 -13.5866 -19.1645 -2.1696 17.1889 2.8388
# 6 6.3229 1.8482 0.7545 -0.5499 2.8388 29.7704
#
#
#
# Elastic Compliance Matrix: (Units=1/GPa)
#
#
# Indices 1 2 3 4 5 6 
#
# 1 0.015438 -0.005951 -0.006382 0.000927 0.004423 -0.003152
# 2 -0.005951 0.013525 -0.001830 0.002681 0.002933 0.000241
# 3 -0.006382 -0.001830 0.026712 -0.014520 0.020285 -0.001410
# 4 0.000927 0.002681 -0.014520 0.073802 -0.004108 0.001759
# 5 0.004423 0.002933 0.020285 -0.004108 0.088745 -0.010174
# 6 -0.003152 0.000241 -0.001410 0.001759 -0.010174 0.035283
#
#
# Mechanical properties :
#
#
# Convention : Reuss Voigt Hill
#
# Bulk Modulus (GPa) = 36.56448 63.04893 49.80670
# Shear Modulus (GPa) = 17.18519 22.72213 19.95366
#
# Velocity S-wave (km/s) = 3.15894 3.63235 3.40389
# Velocity P-wave (km/s) = 5.87682 7.36223 6.66106
#
# Compressibility (1/GPa) = 0.02734894
#
# Stress axis : x y z
#
# Youngs Moduli (GPa) = 64.77681 73.93639 37.43579
#
# Poissons Ratio (x) = 0.44000 0.23891
# Poissons Ratio (y) = 0.38549 0.06851
# Poissons Ratio (z) = 0.41340 0.13531
#
# Static dielectric constant tensor:
#      x y z
#    x 3.073900 0.094390 -0.057020 
#    y 0.094390 3.331170 -0.048040 
#    z -0.057020 -0.048040 2.897660 
# 
# 
# High freq. dielectric constant tensor:
#      x y z
#    x 1.649610 0.001330 -0.011080 
#    y 0.001330 1.680500 -0.008370 
#    z -0.011080 -0.008370 1.631160 
# 
# From -- ./inp_files/270183.got.cif
#   From: 2010.06.25/outbox.cif.g09.slc.cpg/sg2_136_cif.got.tgz:270183.got - 2010.06.27 13:26:56.
