data_PCOD8041407
_publ_section_title
;
Structure prediction by ZEFSAII (Michael W. Deem and Ramdas Pophale) SiO2 
 PCOD8041407
Probable space group: P -1
;
_chemical_formula_sum "Si O2"
_cell_formula_units_Z 16
_cell_length_a 12.137057
_cell_length_b 15.176451
_cell_length_c 21.179791
_cell_angle_alpha 30.454006
_cell_angle_beta 29.936895
_cell_angle_gamma 53.306945
_cell_volume 795.998500
_symmetry_space_group_name_H-M "P -1"
_symmetry_group_IT_number 2
_symmetry_cell_setting 'triclinic'
loop_
_space_group_symop_operation_xyz
x,y,z
-x,-y,-z
loop_
_atom_site_type_symbol
_atom_site_label
_atom_site_fract_x
_atom_site_fract_y
_atom_site_fract_z
Si Si1 0.184672 0.547821 0.140286
Si Si2 0.098998 0.176502 0.991971
Si Si3 0.221451 0.562221 0.764581
Si Si4 0.489540 0.536228 0.879488
Si Si5 0.735097 0.973579 0.417031
Si Si6 0.457608 0.684352 0.396378
Si Si7 0.827257 0.632116 0.970063
Si Si8 0.345256 0.007398 0.775644
O O1 0.275424 0.461551 0.204316
O O2 0.858933 0.412214 0.391702
O O3 0.264186 0.503217 0.060924
O O4 0.354433 0.804672 0.907498
O O5 0.170719 0.415943 0.819223
O O6 0.384251 0.207255 0.816521
O O7 0.929661 0.022682 0.229823
O O8 0.935352 0.082476 0.065609
O O9 0.410831 0.815289 0.500442
O O10 0.926888 0.494528 0.975073
O O11 0.343623 0.499744 0.800138
O O12 0.615116 0.742518 0.645747
O O13 0.341656 0.350568 0.012925
O O14 0.500000 0.000000 0.500000
O O15 0.917083 0.130498 0.286439
O O16 0.500000 0.500000 0.500000
O O17 0.621864 0.874630 0.248534
#
# Coordination Sequence:
#
# PCOD8041407 Si02
#       8
#     2   2   2   2   2   2   2   2
#     4  11  26  40  60  88 124 167 199 246 299 364
#     4  11  22  36  58  93 119 152 197 255 303 347
#     4  10  19  32  56  90 121 145 196 252 299 348
#     4  11  23  43  60  88 128 158 203 246 300 365
#     4  11  22  37  64  93 122 155 202 254 304 352
#     4  12  24  40  60  91 126 156 204 257 296 355
#     4  10  19  33  57  86 119 157 192 245 305 356
#     4  12  20  36  61  88 119 159 199 244 307 354
#
# _framework density 20.100541
#
# number of rings (size 3 to 8) (size 9 to 14) (size 15 to 20)
#    0.000    1.000    2.500    7.125    0.000    1.000 
#    0.000    3.750    0.000    3.750    0.000    0.000 
#    0.000    0.000    0.000    0.000    0.000    0.000 
#
# Total GULP energy -198258.220147 kJ/mol
# GULP energy per Si atom -12391.138759 kJ/mol
# Density = 2.005479 g / cm^3
# Si number density = 20.100541 Si / 1000 Ang^3
#
#
#
# Elastic Constant Matrix: (Units=GPa)
#
#
# Indices 1 2 3 4 5 6 
#
# 1 129.1865 50.5502 62.3848 5.3357 -13.6576 9.5273
# 2 50.5502 76.4111 51.3806 13.5834 -13.0912 9.8337
# 3 62.3848 51.3806 126.1426 15.6127 -2.9158 -0.3749
# 4 5.3357 13.5834 15.6127 40.2098 6.7713 -2.6067
# 5 -13.6576 -13.0912 -2.9158 6.7713 29.9772 -8.0294
# 6 9.5273 9.8337 -0.3749 -2.6067 -8.0294 32.7453
#
#
#
# Elastic Compliance Matrix: (Units=1/GPa)
#
#
# Indices 1 2 3 4 5 6 
#
# 1 0.011839 -0.004763 -0.004004 0.001115 0.002295 -0.001408
# 2 -0.004763 0.023473 -0.006238 -0.006465 0.007771 -0.004344
# 3 -0.004004 -0.006238 0.012616 -0.001717 -0.002266 0.002490
# 4 0.001115 -0.006465 -0.001717 0.029134 -0.008578 0.001814
# 5 0.002295 0.007771 -0.002266 -0.008578 0.041229 0.006400
# 6 -0.001408 -0.004344 0.002490 0.001814 0.006400 0.033995
#
#
# Mechanical properties :
#
#
# Convention : Reuss Voigt Hill
#
# Bulk Modulus (GPa) = 55.81433 73.37460 64.59446
# Shear Modulus (GPa) = 26.55779 31.74809 29.15294
#
# Velocity S-wave (km/s) = 3.63884 3.97856 3.81249
# Velocity P-wave (km/s) = 6.74409 7.59528 7.18231
#
# Compressibility (1/GPa) = 0.01791655
#
# Stress axis : x y z
#
# Youngs Moduli (GPa) = 84.47013 42.60254 79.26391
#
# Poissons Ratio (x) = 0.20293 0.31735
# Poissons Ratio (y) = 0.40237 0.49447
# Poissons Ratio (z) = 0.33819 0.26577
#
# Static dielectric constant tensor:
#      x y z
#    x 3.888380 0.358170 -0.034420 
#    y 0.358170 3.576460 0.065610 
#    z -0.034420 0.065610 3.945410 
# 
# 
# High freq. dielectric constant tensor:
#      x y z
#    x 1.781880 0.037690 -0.003190 
#    y 0.037690 1.758150 0.000170 
#    z -0.003190 0.000170 1.802020 
# 
# From -- ./inp_files/595614.got.cif
#   From: 2010.06.25/outbox.cif.g09.slc.cpg/sg2_298_cif.got.tgz:595614.got - 2010.06.27 13:26:56.
