data_PCOD8041077
_publ_section_title
;
Structure prediction by ZEFSAII (Michael W. Deem and Ramdas Pophale) SiO2 
 PCOD8041077
Probable space group: P -1
;
_chemical_formula_sum "Si O2"
_cell_formula_units_Z 16
_cell_length_a 14.522594
_cell_length_b 20.497507
_cell_length_c 14.453436
_cell_angle_alpha 49.338006
_cell_angle_beta 160.087842
_cell_angle_gamma 138.857943
_cell_volume 932.970685
_symmetry_space_group_name_H-M "P -1"
_symmetry_group_IT_number 2
_symmetry_cell_setting 'triclinic'
loop_
_space_group_symop_operation_xyz
x,y,z
-x,-y,-z
loop_
_atom_site_type_symbol
_atom_site_label
_atom_site_fract_x
_atom_site_fract_y
_atom_site_fract_z
Si Si1 0.340709 0.791092 0.763411
Si Si2 0.292468 0.990956 0.013331
Si Si3 0.623224 0.258504 0.860390
Si Si4 0.340767 0.275482 0.749672
Si Si5 0.142761 0.908922 0.141727
Si Si6 0.360028 0.384748 0.500991
Si Si7 0.513783 0.864217 0.663670
Si Si8 0.232979 0.052772 0.585180
O O1 0.358217 0.784077 0.675607
O O2 0.009688 0.781309 0.484433
O O3 0.627402 0.900576 0.972031
O O4 0.398437 0.706036 0.941748
O O5 0.968356 0.942312 0.693253
O O6 0.216225 0.913251 0.098125
O O7 0.592481 0.006006 0.223667
O O8 0.385574 0.210363 0.771109
O O9 0.565844 0.344168 0.682825
O O10 0.523644 0.168213 0.777935
O O11 0.990248 0.310820 0.190270
O O12 0.402883 0.377397 0.660453
O O13 0.248629 0.841650 0.357648
O O14 0.329449 0.023161 0.251553
O O15 0.765707 0.850248 0.859140
O O16 0.500000 0.500000 0.500000
O O17 0.000000 0.000000 0.500000
#
# Coordination Sequence:
#
# PCOD8041077 Si02
#       8
#     2   2   2   2   2   2   2   2
#     4  11  18  30  44  71  92 131 158 201 234 285
#     4  11  22  31  47  62  95 132 176 197 232 263
#     4  10  20  34  49  68  97 126 165 201 230 277
#     4  10  19  30  48  66  99 117 158 193 237 292
#     4   9  17  31  41  62  81 123 164 206 227 275
#     4  10  20  35  54  69  89 129 162 197 250 292
#     4   9  17  27  46  59  88 115 163 199 242 270
#     4  12  23  33  47  68  98 136 169 203 228 261
#
# _framework density 17.149519999999999
#
# number of rings (size 3 to 8) (size 9 to 14) (size 15 to 20)
#    0.750    1.000    1.250    5.250    0.000    4.000 
#    0.000    0.000    0.000    0.000    0.000    0.000 
#    0.000    0.000    0.000   78.750    0.000    0.000 
#
# Total GULP energy -198243.086077 kJ/mol
# GULP energy per Si atom -12390.192880 kJ/mol
# Density = 1.711049 g / cm^3
# Si number density = 17.149520 Si / 1000 Ang^3
#
#
#
# Elastic Constant Matrix: (Units=GPa)
#
#
# Indices 1 2 3 4 5 6 
#
# 1 60.1640 16.1956 24.5732 -1.6925 1.3905 17.5974
# 2 16.1956 54.3305 21.2942 -12.7090 -9.8797 11.6924
# 3 24.5732 21.2942 114.3286 -23.3816 0.8840 7.6543
# 4 -1.6925 -12.7090 -23.3816 23.7828 4.0525 -3.2820
# 5 1.3905 -9.8797 0.8840 4.0525 26.6152 -6.8060
# 6 17.5974 11.6924 7.6543 -3.2820 -6.8060 18.3248
#
#
#
# Elastic Compliance Matrix: (Units=1/GPa)
#
#
# Indices 1 2 3 4 5 6 
#
# 1 0.027185 -0.003763 -0.004754 -0.006934 -0.008259 -0.026029
# 2 -0.003763 0.025138 -0.001423 0.009645 0.006102 -0.007838
# 3 -0.004754 -0.001423 0.012305 0.011572 -0.002028 0.001653
# 4 -0.006934 0.009645 0.011572 0.059468 -0.004287 0.004730
# 5 -0.008259 0.006102 -0.002028 -0.004287 0.046454 0.021371
# 6 -0.026029 -0.007838 0.001653 0.004730 0.021371 0.092662
#
#
# Mechanical properties :
#
#
# Convention : Reuss Voigt Hill
#
# Bulk Modulus (GPa) = 22.34720 39.21657 30.78189
# Shear Modulus (GPa) = 16.77808 24.86189 20.81999
#
# Velocity S-wave (km/s) = 3.13124 3.81164 3.48807
# Velocity P-wave (km/s) = 5.11194 6.50297 5.84895
#
# Compressibility (1/GPa) = 0.04474833
#
# Stress axis : x y z
#
# Youngs Moduli (GPa) = 36.78532 39.78049 81.26580
#
# Poissons Ratio (x) = 0.14969 0.38632
# Poissons Ratio (y) = 0.13842 0.11566
# Poissons Ratio (z) = 0.17487 0.05662
#
# Static dielectric constant tensor:
#      x y z
#    x 3.230420 0.221820 0.006060 
#    y 0.221820 2.861000 -0.330890 
#    z 0.006060 -0.330890 3.354900 
# 
# 
# High freq. dielectric constant tensor:
#      x y z
#    x 1.648150 0.029840 0.010800 
#    y 0.029840 1.606640 -0.036090 
#    z 0.010800 -0.036090 1.679210 
# 
# From -- ./inp_files/535319.got.cif
#   From: 2010.06.25/outbox.cif.g09.slc.cpg/sg2_268_cif.got.tgz:535319.got - 2010.06.27 13:26:56.
