data_PCOD8041679
_publ_section_title
;
Structure prediction by ZEFSAII (Michael W. Deem and Ramdas Pophale) SiO2 
 PCOD8041679
Probable space group: P -1
;
_chemical_formula_sum "Si O2"
_cell_formula_units_Z 16
_cell_length_a 8.316514
_cell_length_b 21.999489
_cell_length_c 12.690551
_cell_angle_alpha 30.724817
_cell_angle_beta 47.339423
_cell_angle_gamma 36.684251
_cell_volume 708.160415
_symmetry_space_group_name_H-M "P -1"
_symmetry_group_IT_number 2
_symmetry_cell_setting 'triclinic'
loop_
_space_group_symop_operation_xyz
x,y,z
-x,-y,-z
loop_
_atom_site_type_symbol
_atom_site_label
_atom_site_fract_x
_atom_site_fract_y
_atom_site_fract_z
Si Si1 0.920327 0.103542 0.614841
Si Si2 0.625970 0.038363 0.211977
Si Si3 0.963000 0.188997 0.073122
Si Si4 0.000288 0.749140 0.813166
Si Si5 0.128188 0.248810 0.591820
Si Si6 0.362202 0.697236 0.161063
Si Si7 0.589643 0.836999 0.195161
Si Si8 0.964956 0.496610 0.145767
O O1 0.664096 0.168294 0.712495
O O2 0.196938 0.044700 0.639132
O O3 0.853440 0.235399 0.373031
O O4 0.922528 0.981700 0.726635
O O5 0.737006 0.920716 0.244242
O O6 0.312308 0.110255 0.263303
O O7 0.658578 0.166514 0.978607
O O8 0.853410 0.249229 0.148748
O O9 0.736295 0.269127 0.966082
O O10 0.182911 0.226637 0.901685
O O11 0.046152 0.594375 0.017353
O O12 0.288549 0.249246 0.619891
O O13 0.817903 0.330586 0.644492
O O14 0.147771 0.333081 0.358047
O O15 0.665351 0.555973 0.226169
O O16 0.500000 0.000000 0.000000
O O17 0.000000 0.500000 0.000000
#
# Coordination Sequence:
#
# PCOD8041679 Si02
#       8
#     2   2   2   2   2   2   2   2
#     4  10  19  33  56  87 118 152 191 241 295 342
#     4  10  20  34  61  93 116 146 196 249 291 342
#     4   9  19  36  59  84 113 147 193 248 293 339
#     4  11  22  38  58  85 118 158 197 236 288 352
#     4  11  21  39  64  88 116 158 195 237 295 348
#     4   9  21  40  62  86 116 150 194 244 293 344
#     4   9  19  36  57  87 119 146 188 245 293 340
#     4  11  25  42  57  84 124 159 195 240 286 347
#
# _framework density 22.593751000000001
#
# number of rings (size 3 to 8) (size 9 to 14) (size 15 to 20)
#    0.000    2.000    0.000    4.500    0.000    5.000 
#    0.000    7.500    0.000    0.000    0.000    0.000 
#    0.000    0.000    0.000    0.000    0.000    0.000 
#
# Total GULP energy -198293.469665 kJ/mol
# GULP energy per Si atom -12393.341854 kJ/mol
# Density = 2.254233 g / cm^3
# Si number density = 22.593751 Si / 1000 Ang^3
#
#
#
# Elastic Constant Matrix: (Units=GPa)
#
#
# Indices 1 2 3 4 5 6 
#
# 1 50.3009 2.6408 21.1469 -4.2414 -9.9989 6.9999
# 2 2.6408 46.3639 8.1934 -4.7437 -5.0073 2.4898
# 3 21.1469 8.1934 97.2569 8.8753 13.6350 -5.3278
# 4 -4.2414 -4.7437 8.8753 25.7565 0.7863 -0.0173
# 5 -9.9989 -5.0073 13.6350 0.7863 26.2318 7.7003
# 6 6.9999 2.4898 -5.3278 -0.0173 7.7003 27.2570
#
#
#
# Elastic Compliance Matrix: (Units=1/GPa)
#
#
# Indices 1 2 3 4 5 6 
#
# 1 0.034204 0.005452 -0.013646 0.010515 0.026565 -0.019448
# 2 0.005452 0.024838 -0.006102 0.007197 0.012214 -0.008308
# 3 -0.013646 -0.006102 0.017998 -0.008975 -0.019274 0.013019
# 4 0.010515 0.007197 -0.008975 0.044630 0.011124 -0.008226
# 5 0.026565 0.012214 -0.019274 0.011124 0.069458 -0.031321
# 6 -0.019448 -0.008308 0.013019 -0.008226 -0.031321 0.053829
#
#
# Mechanical properties :
#
#
# Convention : Reuss Voigt Hill
#
# Bulk Modulus (GPa) = 20.64037 28.65378 24.64708
# Shear Modulus (GPa) = 17.25939 26.64510 21.95225
#
# Velocity S-wave (km/s) = 2.76687 3.43784 3.12044
# Velocity P-wave (km/s) = 4.40031 5.33554 4.89033
#
# Compressibility (1/GPa) = 0.04844874
#
# Stress axis : x y z
#
# Youngs Moduli (GPa) = 29.23596 40.26098 55.56323
#
# Poissons Ratio (x) = -0.21952 0.75820
# Poissons Ratio (y) = -0.15941 0.33906
# Poissons Ratio (z) = 0.39895 0.24568
#
# Static dielectric constant tensor:
#      x y z
#    x 4.196370 -0.264220 -0.153420 
#    y -0.264220 3.978600 0.237900 
#    z -0.153420 0.237900 3.943820 
# 
# 
# High freq. dielectric constant tensor:
#      x y z
#    x 1.892900 -0.006640 0.003170 
#    y -0.006640 1.865790 0.017710 
#    z 0.003170 0.017710 1.885010 
# 
# From -- ./inp_files/208787.got.cif
#   From: 2010.06.25/outbox.cif.g09.slc.cpg/sg2_105_cif.got.tgz:208787.got - 2010.06.27 13:26:56.
