data_PCOD8041888
_publ_section_title
;
Structure prediction by ZEFSAII (Michael W. Deem and Ramdas Pophale) SiO2 
 PCOD8041888
Probable space group: P -1
;
_chemical_formula_sum "Si O2"
_cell_formula_units_Z 16
_cell_length_a 11.720598
_cell_length_b 9.184423
_cell_length_c 8.119504
_cell_angle_alpha 62.575041
_cell_angle_beta 99.489911
_cell_angle_gamma 102.063497
_cell_volume 756.304078
_symmetry_space_group_name_H-M "P -1"
_symmetry_group_IT_number 2
_symmetry_cell_setting 'triclinic'
loop_
_space_group_symop_operation_xyz
x,y,z
-x,-y,-z
loop_
_atom_site_type_symbol
_atom_site_label
_atom_site_fract_x
_atom_site_fract_y
_atom_site_fract_z
Si Si1 0.046481 0.518446 0.683460
Si Si2 0.347129 0.467436 0.147644
Si Si3 0.794052 0.874187 0.758229
Si Si4 0.169583 0.665052 0.152452
Si Si5 0.798271 0.752121 0.172250
Si Si6 0.951967 0.047518 0.140342
Si Si7 0.237207 0.772713 0.480286
Si Si8 0.606900 0.475860 0.255347
O O1 0.115127 0.365865 0.822208
O O2 0.135753 0.691024 0.627986
O O3 0.000000 0.500000 0.500000
O O4 0.933245 0.497365 0.786922
O O5 0.268002 0.291575 0.260082
O O6 0.286085 0.615752 0.127857
O O7 0.471292 0.472638 0.266451
O O8 0.367017 0.499395 0.943844
O O9 0.934700 0.907483 0.738876
O O10 0.738987 0.029880 0.590454
O O11 0.763416 0.860329 0.953246
O O12 0.193605 0.734240 0.304879
O O13 0.124394 0.804289 0.957047
O O14 0.685165 0.633753 0.283728
O O15 0.863724 0.878480 0.260726
O O16 0.000000 0.000000 0.000000
O O17 0.355401 0.695958 0.583193
#
# Coordination Sequence:
#
# PCOD8041888 Si02
#       8
#     2   2   2   2   2   2   2   2
#     4   9  16  28  50  83 111 135 173 224 279 322
#     4  10  23  39  58  77 116 154 191 224 278 342
#     4  10  18  33  56  83 111 154 179 216 291 346
#     4  11  19  33  59  90 109 143 193 234 270 332
#     4   9  15  31  56  78 104 146 188 218 265 339
#     4  10  15  29  55  87 111 136 185 225 272 338
#     4  10  19  34  62  81 107 146 195 231 273 329
#     4   9  21  41  58  77 111 157 190 226 284 330
#
# _framework density 21.155512000000002
#
# number of rings (size 3 to 8) (size 9 to 14) (size 15 to 20)
#    0.000    2.250    5.000    0.750    0.000    1.500 
#    0.000    1.250    8.250    0.000    0.000    0.000 
#    0.000    0.000    0.000    0.000    0.000    0.000 
#
# Total GULP energy -198262.125445 kJ/mol
# GULP energy per Si atom -12391.382840 kJ/mol
# Density = 2.110736 g / cm^3
# Si number density = 21.155512 Si / 1000 Ang^3
#
#
#
# Elastic Constant Matrix: (Units=GPa)
#
#
# Indices 1 2 3 4 5 6 
#
# 1 149.8153 53.8557 29.2952 -19.0316 27.4783 9.6064
# 2 53.8557 81.2589 25.2516 -30.6636 6.1202 12.8048
# 3 29.2952 25.2516 54.5907 -34.6709 19.5753 -1.6168
# 4 -19.0316 -30.6636 -34.6709 32.7935 -8.5955 5.8843
# 5 27.4783 6.1202 19.5753 -8.5955 26.5506 -1.1180
# 6 9.6064 12.8048 -1.6168 5.8843 -1.1180 32.6827
#
#
#
# Elastic Compliance Matrix: (Units=1/GPa)
#
#
# Indices 1 2 3 4 5 6 
#
# 1 0.011233 -0.009123 -0.004332 -0.009274 -0.009272 0.001411
# 2 -0.009123 0.035500 0.023075 0.056345 0.001637 -0.020174
# 3 -0.004332 0.023075 0.093472 0.113388 -0.034084 -0.024724
# 4 -0.009274 0.056345 0.113388 0.200411 -0.024241 -0.050652
# 5 -0.009272 0.001637 -0.034084 -0.024241 0.064458 0.006967
# 6 0.001411 -0.020174 -0.024724 -0.050652 0.006967 0.046221
#
#
# Mechanical properties :
#
#
# Convention : Reuss Voigt Hill
#
# Bulk Modulus (GPa) = 6.27170 55.83000 31.05085
# Shear Modulus (GPa) = 10.30495 30.22286 20.26391
#
# Velocity S-wave (km/s) = 2.20944 3.78379 3.09828
# Velocity P-wave (km/s) = 3.07893 6.74811 5.24485
#
# Compressibility (1/GPa) = 0.15944653
#
# Stress axis : x y z
#
# Youngs Moduli (GPa) = 89.02009 28.16938 10.69834
#
# Poissons Ratio (x) = 0.25698 0.04634
# Poissons Ratio (y) = 0.81209 -0.24686
# Poissons Ratio (z) = 0.38563 -0.65001
#
# Static dielectric constant tensor:
#      x y z
#    x 3.881990 0.565150 0.097590 
#    y 0.565150 3.787740 -0.365570 
#    z 0.097590 -0.365570 3.680530 
# 
# 
# High freq. dielectric constant tensor:
#      x y z
#    x 1.814710 0.020820 0.019720 
#    y 0.020820 1.806130 -0.030490 
#    z 0.019720 -0.030490 1.813570 
# 
# From -- ./inp_files/217653.got.cif
#   From: 2010.06.25/outbox.cif.g09.slc.cpg/sg2_109_cif.got.tgz:217653.got - 2010.06.27 13:26:56.
