data_PCOD8041804
_publ_section_title
;
Structure prediction by ZEFSAII (Michael W. Deem and Ramdas Pophale) SiO2 
 PCOD8041804
Probable space group: P -1
;
_chemical_formula_sum "Si O2"
_cell_formula_units_Z 14
_cell_length_a 18.829805
_cell_length_b 11.520537
_cell_length_c 7.485699
_cell_angle_alpha 55.351569
_cell_angle_beta 101.611040
_cell_angle_gamma 143.147569
_cell_volume 687.203135
_symmetry_space_group_name_H-M "P -1"
_symmetry_group_IT_number 2
_symmetry_cell_setting 'triclinic'
loop_
_space_group_symop_operation_xyz
x,y,z
-x,-y,-z
loop_
_atom_site_type_symbol
_atom_site_label
_atom_site_fract_x
_atom_site_fract_y
_atom_site_fract_z
Si Si1 0.401549 0.639974 0.751687
Si Si2 0.833397 0.064142 0.318179
Si Si3 0.135834 0.567947 0.104275
Si Si4 0.843878 0.289806 0.626561
Si Si5 0.301138 0.767862 0.691777
Si Si6 0.688651 0.774424 0.143708
Si Si7 0.430734 0.457259 0.173577
O O1 0.310969 0.630401 0.727619
O O2 0.318009 0.388562 0.811505
O O3 0.548154 0.913428 0.493811
O O4 0.425022 0.615051 0.986187
O O5 0.981836 0.247153 0.289486
O O6 0.776019 0.892752 0.262445
O O7 0.722774 0.855472 0.600459
O O8 0.853442 0.261539 0.127697
O O9 0.177876 0.647180 0.264223
O O10 0.239908 0.647199 0.967004
O O11 0.799164 0.303332 0.418648
O O12 0.000000 0.500000 0.500000
O O13 0.759124 0.005086 0.847406
O O14 0.535656 0.588264 0.272556
O O15 0.500000 0.500000 0.000000
#
# Coordination Sequence:
#
# PCOD8041804 Si02
#       7
#     2   2   2   2   2   2   2
#     4  10  23  39  64  88 123 162 201 251 313 360
#     4  10  20  36  59  90 121 149 207 258 299 350
#     4  10  22  38  61  90 120 165 199 250 304 365
#     4  11  23  38  67  91 121 161 208 248 304 362
#     4  11  22  45  60  90 128 162 200 253 308 368
#     4  10  20  36  61  94 112 158 207 255 300 357
#     4  10  19  33  59  87 117 153 200 254 295 353
#
# _framework density 20.372433000000001
#
# number of rings (size 3 to 8) (size 9 to 14) (size 15 to 20)
#    0.000    1.714    1.429    4.714    6.000    1.143 
#    2.571    5.000    0.000    0.000    0.000    0.000 
#    0.000    0.000    0.000    0.000    0.000    0.000 
#
# Total GULP energy -173514.065261 kJ/mol
# GULP energy per Si atom -12393.861804 kJ/mol
# Density = 2.032606 g / cm^3
# Si number density = 20.372433 Si / 1000 Ang^3
#
#
#
# Elastic Constant Matrix: (Units=GPa)
#
#
# Indices 1 2 3 4 5 6 
#
# 1 92.1148 46.4760 37.0719 -8.4418 -8.4565 -9.3529
# 2 46.4760 106.7842 34.5779 -7.9676 -5.8743 -23.4341
# 3 37.0719 34.5779 101.0361 -14.3967 -22.7216 -12.1716
# 4 -8.4418 -7.9676 -14.3967 39.5789 0.1144 -2.9470
# 5 -8.4565 -5.8743 -22.7216 0.1144 35.8545 -1.8627
# 6 -9.3529 -23.4341 -12.1716 -2.9470 -1.8627 17.3994
#
#
#
# Elastic Compliance Matrix: (Units=1/GPa)
#
#
# Indices 1 2 3 4 5 6 
#
# 1 0.015124 -0.005811 -0.003714 0.000542 0.000146 -0.002188
# 2 -0.005811 0.016773 -0.000136 0.003587 0.002331 0.020229
# 3 -0.003714 -0.000136 0.015513 0.005587 0.009467 0.010632
# 4 0.000542 0.003587 0.005587 0.029202 0.004917 0.014503
# 5 0.000146 0.002331 0.009467 0.004917 0.035040 0.014424
# 6 -0.002188 0.020229 0.010632 0.014503 0.014424 0.094980
#
#
# Mechanical properties :
#
#
# Convention : Reuss Voigt Hill
#
# Bulk Modulus (GPa) = 35.60345 59.57630 47.58987
# Shear Modulus (GPa) = 21.24803 30.68718 25.96760
#
# Velocity S-wave (km/s) = 3.23302 3.88533 3.57409
# Velocity P-wave (km/s) = 5.60810 7.03099 6.35947
#
# Compressibility (1/GPa) = 0.02808717
#
# Stress axis : x y z
#
# Youngs Moduli (GPa) = 66.12141 59.61902 64.46378
#
# Poissons Ratio (x) = 0.34648 0.23941
# Poissons Ratio (y) = 0.38426 0.00875
# Poissons Ratio (z) = 0.24557 0.00809
#
# Static dielectric constant tensor:
#      x y z
#    x 3.629680 0.247190 -0.097170 
#    y 0.247190 4.183380 -0.086660 
#    z -0.097170 -0.086660 3.966860 
# 
# 
# High freq. dielectric constant tensor:
#      x y z
#    x 1.765270 -0.001790 -0.014600 
#    y -0.001790 1.800890 -0.009680 
#    z -0.014600 -0.009680 1.804880 
# 
# From -- ./inp_files/174053.got.cif
#   From: 2010.06.25/outbox.cif.g09.slc.cpg/sg2_88_cif.got.tgz:174053.got - 2010.06.27 13:26:56.
