data_PCOD8041665
_publ_section_title
;
Structure prediction by ZEFSAII (Michael W. Deem and Ramdas Pophale) SiO2 
 PCOD8041665
Probable space group: P -1
;
_chemical_formula_sum "Si O2"
_cell_formula_units_Z 14
_cell_length_a 7.387389
_cell_length_b 15.280311
_cell_length_c 10.048587
_cell_angle_alpha 142.436284
_cell_angle_beta 114.719504
_cell_angle_gamma 59.453046
_cell_volume 595.291875
_symmetry_space_group_name_H-M "P -1"
_symmetry_group_IT_number 2
_symmetry_cell_setting 'triclinic'
loop_
_space_group_symop_operation_xyz
x,y,z
-x,-y,-z
loop_
_atom_site_type_symbol
_atom_site_label
_atom_site_fract_x
_atom_site_fract_y
_atom_site_fract_z
Si Si1 0.574947 0.718960 0.918074
Si Si2 0.973266 0.108965 0.432178
Si Si3 0.223928 0.969457 0.966705
Si Si4 0.261868 0.569247 0.752714
Si Si5 0.230217 0.781311 0.230391
Si Si6 0.803241 0.703274 0.703401
Si Si7 0.632864 0.827914 0.344489
O O1 0.463690 0.595584 0.776756
O O2 0.743595 0.660919 0.782721
O O3 0.396439 0.870297 0.999132
O O4 0.690253 0.759100 0.130497
O O5 0.148766 0.184501 0.526541
O O6 0.858653 0.214771 0.645642
O O7 0.094966 0.934211 0.296592
O O8 0.791559 0.116471 0.279224
O O9 0.291095 0.118311 0.138564
O O10 0.000000 0.000000 0.000000
O O11 0.292715 0.389569 0.543269
O O12 0.054482 0.652980 0.702833
O O13 0.217271 0.636278 0.969107
O O14 0.481120 0.753649 0.285863
O O15 0.500000 0.000000 0.500000
#
# Coordination Sequence:
#
# PCOD8041665 Si02
#       7
#     2   2   2   2   2   2   2
#     4  11  22  38  59  92 119 147 198 246 294 346
#     4  10  19  33  56  84 115 148 192 238 288 340
#     4  12  22  39  57  91 127 148 188 249 302 340
#     4  10  20  39  60  86 117 153 203 240 281 352
#     4   9  17  33  54  82 109 144 196 239 276 334
#     4  11  22  36  59  86 118 163 189 238 297 348
#     4   9  18  31  54  82 111 146 187 237 283 334
#
# _framework density 23.517875
#
# number of rings (size 3 to 8) (size 9 to 14) (size 15 to 20)
#    0.000    1.714    2.857    3.429    4.000    0.000 
#    2.571    0.000    0.000    1.714    3.714    4.000 
#    0.000    0.000    0.000    0.000    0.000    0.000 
#
# Total GULP energy -173524.877633 kJ/mol
# GULP energy per Si atom -12394.634117 kJ/mol
# Density = 2.346435 g / cm^3
# Si number density = 23.517875 Si / 1000 Ang^3
#
#
#
# Elastic Constant Matrix: (Units=GPa)
#
#
# Indices 1 2 3 4 5 6 
#
# 1 78.0933 3.7039 43.5029 4.1640 0.7646 13.8682
# 2 3.7039 26.3327 15.4215 1.5385 13.6407 -0.6447
# 3 43.5029 15.4215 165.3385 15.8902 16.9898 15.0171
# 4 4.1640 1.5385 15.8902 14.6246 7.0507 0.1810
# 5 0.7646 13.6407 16.9898 7.0507 41.8044 -4.1867
# 6 13.8682 -0.6447 15.0171 0.1810 -4.1867 22.5066
#
#
#
# Elastic Compliance Matrix: (Units=1/GPa)
#
#
# Indices 1 2 3 4 5 6 
#
# 1 0.016160 -0.000768 -0.003482 -0.001026 0.000792 -0.007501
# 2 -0.000768 0.047524 -0.003390 0.006130 -0.015024 0.001252
# 3 -0.003482 -0.003390 0.008457 -0.007094 -0.001452 -0.003808
# 4 -0.001026 0.006130 -0.007094 0.081796 -0.012640 0.002532
# 5 0.000792 -0.015024 -0.001452 -0.012640 0.032145 0.006132
# 6 -0.007501 0.001252 -0.003808 0.002532 0.006132 0.052750
#
#
# Mechanical properties :
#
#
# Convention : Reuss Voigt Hill
#
# Bulk Modulus (GPa) = 17.58627 43.89123 30.73875
# Shear Modulus (GPa) = 18.31066 29.59621 23.95344
#
# Velocity S-wave (km/s) = 2.79334 3.55132 3.19489
# Velocity P-wave (km/s) = 4.23057 5.95981 5.16803
#
# Compressibility (1/GPa) = 0.05686253
#
# Stress axis : x y z
#
# Youngs Moduli (GPa) = 61.88025 21.04216 118.24050
#
# Poissons Ratio (x) = 0.01616 0.41169
# Poissons Ratio (y) = 0.04752 0.40079
# Poissons Ratio (z) = 0.21546 0.07133
#
# Static dielectric constant tensor:
#      x y z
#    x 4.629020 0.076220 0.319420 
#    y 0.076220 3.655900 -0.117910 
#    z 0.319420 -0.117910 4.650720 
# 
# 
# High freq. dielectric constant tensor:
#      x y z
#    x 1.947260 0.008460 0.007620 
#    y 0.008460 1.865130 -0.006640 
#    z 0.007620 -0.006640 1.950310 
# 
# From -- ./inp_files/204822.got.cif
#   From: 2010.06.25/outbox.cif.g09.slc.cpg/sg2_103_cif.got.tgz:204822.got - 2010.06.27 13:26:56.
