data_PCOD8041002
_publ_section_title
;
Structure prediction by ZEFSAII (Michael W. Deem and Ramdas Pophale) SiO2 
 PCOD8041002
Probable space group: P -1
;
_chemical_formula_sum "Si O2"
_cell_formula_units_Z 14
_cell_length_a 8.325940
_cell_length_b 11.023284
_cell_length_c 8.901500
_cell_angle_alpha 126.051834
_cell_angle_beta 81.039763
_cell_angle_gamma 109.076518
_cell_volume 623.520310
_symmetry_space_group_name_H-M "P -1"
_symmetry_group_IT_number 2
_symmetry_cell_setting 'triclinic'
loop_
_space_group_symop_operation_xyz
x,y,z
-x,-y,-z
loop_
_atom_site_type_symbol
_atom_site_label
_atom_site_fract_x
_atom_site_fract_y
_atom_site_fract_z
Si Si1 0.847787 0.805339 0.791079
Si Si2 0.857179 0.329163 0.036583
Si Si3 0.671387 0.893425 0.148598
Si Si4 0.836740 0.483351 0.660482
Si Si5 0.796612 0.206414 0.249675
Si Si6 0.978312 0.050259 0.706690
Si Si7 0.389056 0.617490 0.112779
O O1 0.793864 0.614636 0.656812
O O2 0.043071 0.860681 0.870409
O O3 0.859932 0.893620 0.693859
O O4 0.700882 0.840807 0.937785
O O5 0.724489 0.248020 0.131945
O O6 0.018016 0.444118 0.183871
O O7 0.898160 0.194624 0.831159
O O8 0.770752 0.429537 0.014574
O O9 0.499866 0.792576 0.179210
O O10 0.831379 0.882313 0.211620
O O11 0.660169 0.072480 0.265858
O O12 0.880813 0.359133 0.451324
O O13 0.672120 0.388072 0.710816
O O14 0.000000 0.000000 0.500000
O O15 0.500000 0.500000 0.000000
#
# Coordination Sequence:
#
# PCOD8041002 Si02
#       7
#     2   2   2   2   2   2   2
#     4  10  18  41  69  89 133 167 212 268 328 382
#     4  11  22  43  68  97 128 176 225 269 328 393
#     4  11  21  44  67  90 142 173 210 272 336 388
#     4  11  23  43  70  96 131 175 222 271 325 394
#     4  10  21  41  70 100 124 171 226 271 325 392
#     4  11  22  40  70 105 124 168 228 275 321 393
#     4  12  26  43  63  93 139 180 215 275 333 382
#
# _framework density 22.453156
#
# number of rings (size 3 to 8) (size 9 to 14) (size 15 to 20)
#    0.000    1.143    5.714    3.000    4.000    1.143 
#    5.143    0.714    0.000    0.000    0.000    0.000 
#    0.000    0.000    0.000    0.000    0.000    0.000 
#
# Total GULP energy -173471.012968 kJ/mol
# GULP energy per Si atom -12390.786641 kJ/mol
# Density = 2.240205 g / cm^3
# Si number density = 22.453156 Si / 1000 Ang^3
#
#
#
# Elastic Constant Matrix: (Units=GPa)
#
#
# Indices 1 2 3 4 5 6 
#
# 1 48.7488 22.6143 36.2779 -6.1114 -8.9847 -12.5001
# 2 22.6143 144.5021 45.1714 -5.2751 -1.6715 3.8910
# 3 36.2779 45.1714 113.1083 -2.5672 -6.4114 -9.3653
# 4 -6.1114 -5.2751 -2.5672 38.9448 1.1824 -1.1381
# 5 -8.9847 -1.6715 -6.4114 1.1824 11.0624 0.0959
# 6 -12.5001 3.8910 -9.3653 -1.1381 0.0959 40.5702
#
#
#
# Elastic Compliance Matrix: (Units=1/GPa)
#
#
# Indices 1 2 3 4 5 6 
#
# 1 0.034747 -0.002810 -0.007878 0.004133 0.022709 0.009219
# 2 -0.002810 0.008261 -0.002724 0.000513 -0.002648 -0.002266
# 3 -0.007878 -0.002724 0.012526 -0.000775 0.000526 0.000702
# 4 0.004133 0.000513 -0.000775 0.026392 0.000148 0.001785
# 5 0.022709 -0.002648 0.000526 0.000148 0.108668 0.007120
# 6 0.009219 -0.002266 0.000702 0.001785 0.007120 0.027902
#
#
# Mechanical properties :
#
#
# Convention : Reuss Voigt Hill
#
# Bulk Modulus (GPa) = 34.83092 57.16516 45.99804
# Shear Modulus (GPa) = 19.61640 31.60186 25.60913
#
# Velocity S-wave (km/s) = 2.95898 3.75568 3.38088
# Velocity P-wave (km/s) = 5.21732 6.65747 5.98090
#
# Compressibility (1/GPa) = 0.02871013
#
# Stress axis : x y z
#
# Youngs Moduli (GPa) = 28.77948 121.05603 79.83338
#
# Poissons Ratio (x) = 0.34015 0.62893
# Poissons Ratio (y) = 0.08087 0.21746
# Poissons Ratio (z) = 0.22673 0.32974
#
# Static dielectric constant tensor:
#      x y z
#    x 3.450970 0.239580 -0.936800 
#    y 0.239580 4.658760 0.532760 
#    z -0.936800 0.532760 1.377060 
# 
# 
# High freq. dielectric constant tensor:
#      x y z
#    x 1.844140 0.000730 -0.019850 
#    y 0.000730 1.920770 -0.004530 
#    z -0.019850 -0.004530 1.867570 
# 
# From -- ./inp_files/183176.got.cif
#   From: 2010.06.25/outbox.cif.g09.slc.cpg/sg2_92_cif.got.tgz:183176.got - 2010.06.27 13:26:56.
