data_PCOD8041359
_publ_section_title
;
Structure prediction by ZEFSAII (Michael W. Deem and Ramdas Pophale) SiO2 
 PCOD8041359
Probable space group: P -1
;
_chemical_formula_sum "Si O2"
_cell_formula_units_Z 16
_cell_length_a 14.807617
_cell_length_b 21.765850
_cell_length_c 11.425346
_cell_angle_alpha 149.052595
_cell_angle_beta 150.042791
_cell_angle_gamma 29.130310
_cell_volume 814.496199
_symmetry_space_group_name_H-M "P -1"
_symmetry_group_IT_number 2
_symmetry_cell_setting 'triclinic'
loop_
_space_group_symop_operation_xyz
x,y,z
-x,-y,-z
loop_
_atom_site_type_symbol
_atom_site_label
_atom_site_fract_x
_atom_site_fract_y
_atom_site_fract_z
Si Si1 0.682723 0.345568 0.167980
Si Si2 0.994225 0.365337 0.894961
Si Si3 0.326806 0.147435 0.503233
Si Si4 0.691479 0.644235 0.327180
Si Si5 0.696335 0.679050 0.020385
Si Si6 0.776993 0.219755 0.327905
Si Si7 0.013855 0.930358 0.024154
Si Si8 0.138573 0.472537 0.436449
O O1 0.746692 0.293203 0.287323
O O2 0.770327 0.447472 0.405363
O O3 0.760543 0.211915 0.948188
O O4 0.431519 0.422246 0.987838
O O5 0.812063 0.513698 0.886952
O O6 0.879510 0.275653 0.627792
O O7 0.190437 0.284685 0.895262
O O8 0.092511 0.374350 0.142449
O O9 0.409415 0.193207 0.557166
O O10 0.126331 0.139232 0.234748
O O11 0.500000 0.000000 0.500000
O O12 0.269261 0.263647 0.726783
O O13 0.689135 0.623721 0.430254
O O14 0.928043 0.579401 0.440609
O O15 0.449644 0.746598 0.824870
O O16 0.940049 0.052729 0.236186
O O17 0.000000 0.000000 0.000000
#
# Coordination Sequence:
#
# PCOD8041359 Si02
#       8
#     2   2   2   2   2   2   2   2
#     4  11  19  37  59  87 118 146 200 250 294 337
#     4  11  22  35  55  83 124 158 191 232 289 362
#     4  12  19  37  62  89 118 144 194 252 297 335
#     4  11  23  38  61  88 116 155 195 244 299 342
#     4  11  20  35  55  89 116 154 190 243 300 341
#     4  11  21  34  56  88 120 153 188 242 299 344
#     4  10  19  32  54  88 118 145 187 245 295 343
#     4  11  23  40  57  85 121 159 197 236 289 357
#
# _framework density 19.644044999999998
#
# number of rings (size 3 to 8) (size 9 to 14) (size 15 to 20)
#    0.000    1.000    5.000    4.500    0.000    1.000 
#    0.000    0.000    0.000    3.750    0.000    0.000 
#    0.000    0.000    0.000    0.000    0.000    0.000 
#
# Total GULP energy -198258.232345 kJ/mol
# GULP energy per Si atom -12391.139522 kJ/mol
# Density = 1.959933 g / cm^3
# Si number density = 19.644045 Si / 1000 Ang^3
#
#
#
# Elastic Constant Matrix: (Units=GPa)
#
#
# Indices 1 2 3 4 5 6 
#
# 1 44.9689 16.5266 14.7968 1.7950 4.2876 3.9332
# 2 16.5266 56.6415 18.2563 8.1489 -6.2276 3.5065
# 3 14.7968 18.2563 130.0567 6.4891 2.2191 7.9384
# 4 1.7950 8.1489 6.4891 24.0693 -0.6807 -7.1479
# 5 4.2876 -6.2276 2.2191 -0.6807 26.3525 -1.5121
# 6 3.9332 3.5065 7.9384 -7.1479 -1.5121 26.3173
#
#
#
# Elastic Compliance Matrix: (Units=1/GPa)
#
#
# Indices 1 2 3 4 5 6 
#
# 1 0.026434 -0.007695 -0.001659 0.000090 -0.006135 -0.002753
# 2 -0.007695 0.022404 -0.001844 -0.007185 0.006352 -0.002865
# 3 -0.001659 -0.001844 0.008443 -0.002379 -0.001097 -0.002762
# 4 0.000090 -0.007185 -0.002379 0.049096 0.000618 0.015032
# 5 -0.006135 0.006352 -0.001097 0.000618 0.040722 0.002909
# 6 -0.002753 -0.002865 -0.002762 0.015032 0.002909 0.043874
#
#
# Mechanical properties :
#
#
# Convention : Reuss Voigt Hill
#
# Bulk Modulus (GPa) = 28.66692 36.75851 32.71272
# Shear Modulus (GPa) = 22.22257 27.48697 24.85477
#
# Velocity S-wave (km/s) = 3.36707 3.74472 3.56090
# Velocity P-wave (km/s) = 5.45354 6.11965 5.79617
#
# Compressibility (1/GPa) = 0.03488341
#
# Stress axis : x y z
#
# Youngs Moduli (GPa) = 37.83056 44.63466 118.44639
#
# Poissons Ratio (x) = 0.34347 0.19651
# Poissons Ratio (y) = 0.29111 0.21846
# Poissons Ratio (z) = 0.06276 0.08232
#
# Static dielectric constant tensor:
#      x y z
#    x 3.698340 -0.284630 0.147650 
#    y -0.284630 4.031360 0.029380 
#    z 0.147650 0.029380 3.627790 
# 
# 
# High freq. dielectric constant tensor:
#      x y z
#    x 1.747470 -0.021440 0.026180 
#    y -0.021440 1.745720 -0.000110 
#    z 0.026180 -0.000110 1.774650 
# 
# From -- ./inp_files/423433.got.cif
#   From: 2010.06.25/outbox.cif.g09.slc.cpg/sg2_212_cif.got.tgz:423433.got - 2010.06.27 13:26:56.
