data_PCOD8041269
_publ_section_title
;
Structure prediction by ZEFSAII (Michael W. Deem and Ramdas Pophale) SiO2 
 PCOD8041269
Probable space group: P -1
;
_chemical_formula_sum "Si O2"
_cell_formula_units_Z 14
_cell_length_a 29.360596
_cell_length_b 13.565754
_cell_length_c 17.668290
_cell_angle_alpha 21.351157
_cell_angle_beta 19.028900
_cell_angle_gamma 22.609569
_cell_volume 779.527294
_symmetry_space_group_name_H-M "P -1"
_symmetry_group_IT_number 2
_symmetry_cell_setting 'triclinic'
loop_
_space_group_symop_operation_xyz
x,y,z
-x,-y,-z
loop_
_atom_site_type_symbol
_atom_site_label
_atom_site_fract_x
_atom_site_fract_y
_atom_site_fract_z
Si Si1 0.955559 0.236445 0.625223
Si Si2 0.229604 0.368661 0.129341
Si Si3 0.666969 0.270355 0.399851
Si Si4 0.664331 0.217036 0.711008
Si Si5 0.836141 0.347652 0.223885
Si Si6 0.334477 0.344985 0.150190
Si Si7 0.919417 0.874622 0.655108
O O1 0.783602 0.396589 0.802047
O O2 0.055212 0.409063 0.381260
O O3 0.972792 0.231332 0.511023
O O4 0.012794 0.914284 0.801410
O O5 0.301315 0.371019 0.095383
O O6 0.319803 0.072269 0.155013
O O7 0.237435 0.642269 0.875862
O O8 0.500000 0.500000 0.500000
O O9 0.750240 0.243472 0.368047
O O10 0.662071 0.961275 0.604515
O O11 0.723162 0.426173 0.417474
O O12 0.764514 0.124922 0.695004
O O13 0.494002 0.379021 0.887702
O O14 0.880737 0.614171 0.938705
O O15 0.000000 0.000000 0.500000
#
# Coordination Sequence:
#
# PCOD8041269 Si02
#       7
#     2   2   2   2   2   2   2
#     4  10  23  35  53  84 112 149 179 224 275 325
#     4  10  19  32  50  78 112 156 185 207 261 315
#     4  12  19  29  56  80 113 156 184 214 259 314
#     4  10  20  34  56  83 107 147 186 221 262 326
#     4  10  19  37  57  77 112 136 194 222 263 335
#     4  12  21  34  52  83 126 145 176 219 266 329
#     4  10  21  42  64  78 100 138 192 241 275 318
#
# _framework density 17.959602
#
# number of rings (size 3 to 8) (size 9 to 14) (size 15 to 20)
#    0.000    1.714    7.143    1.714    0.000    4.000 
#    0.000    0.714    0.000    1.714    0.000    0.000 
#    0.000    0.000    0.000    0.000    0.000    0.000 
#
# Total GULP energy -173591.864300 kJ/mol
# GULP energy per Si atom -12399.418879 kJ/mol
# Density = 1.791872 g / cm^3
# Si number density = 17.959602 Si / 1000 Ang^3
#
#
#
# Elastic Constant Matrix: (Units=GPa)
#
#
# Indices 1 2 3 4 5 6 
#
# 1 98.8445 37.0530 48.5914 6.0905 -2.7557 -22.4690
# 2 37.0530 96.8129 47.8814 30.9699 3.7639 -14.7005
# 3 48.5914 47.8814 91.3381 6.9322 16.0239 -15.1553
# 4 6.0905 30.9699 6.9322 34.8374 -9.0388 2.3560
# 5 -2.7557 3.7639 16.0239 -9.0388 25.1196 -6.1658
# 6 -22.4690 -14.7005 -15.1553 2.3560 -6.1658 12.3523
#
#
#
# Elastic Compliance Matrix: (Units=1/GPa)
#
#
# Indices 1 2 3 4 5 6 
#
# 1 0.025882 0.002750 -0.010512 -0.002975 0.019825 0.047919
# 2 0.002750 0.025134 -0.008075 -0.023049 0.000696 0.029751
# 3 -0.010512 -0.008075 0.021776 0.001251 -0.015884 -0.010182
# 4 -0.002975 -0.023049 0.001251 0.055379 0.013652 -0.035056
# 5 0.019825 0.000696 -0.015884 0.013652 0.069013 0.049246
# 6 0.047919 0.029751 -0.010182 -0.035056 0.049246 0.222304
#
#
# Mechanical properties :
#
#
# Convention : Reuss Voigt Hill
#
# Bulk Modulus (GPa) = 24.31998 61.56081 42.94039
# Shear Modulus (GPa) = 10.75570 24.69316 17.72443
#
# Velocity S-wave (km/s) = 2.44986 3.71202 3.14491
# Velocity P-wave (km/s) = 4.64471 7.26113 6.09497
#
# Compressibility (1/GPa) = 0.04111846
#
# Stress axis : x y z
#
# Youngs Moduli (GPa) = 38.63617 39.78633 45.92146
#
# Poissons Ratio (x) = -0.10943 0.48274
# Poissons Ratio (y) = -0.10627 0.37083
# Poissons Ratio (z) = 0.40616 0.32129
#
# Static dielectric constant tensor:
#      x y z
#    x 3.181010 -0.265240 0.190020 
#    y -0.265240 3.203610 0.024070 
#    z 0.190020 0.024070 3.550960 
# 
# 
# High freq. dielectric constant tensor:
#      x y z
#    x 1.675240 -0.029510 0.020810 
#    y -0.029510 1.675750 0.002460 
#    z 0.020810 0.002460 1.706480 
# 
# From -- ./inp_files/273136.got.cif
#   From: 2010.06.25/outbox.cif.g09.slc.cpg/sg2_137_cif.got.tgz:273136.got - 2010.06.27 13:26:56.
