data_PCOD8041918
_publ_section_title
;
Structure prediction by ZEFSAII (Michael W. Deem and Ramdas Pophale) SiO2 
 PCOD8041918
Probable space group: P -1
;
_chemical_formula_sum "Si O2"
_cell_formula_units_Z 14
_cell_length_a 9.172413
_cell_length_b 18.072346
_cell_length_c 16.432002
_cell_angle_alpha 157.635151
_cell_angle_beta 50.546482
_cell_angle_gamma 130.561322
_cell_volume 781.900295
_symmetry_space_group_name_H-M "P -1"
_symmetry_group_IT_number 2
_symmetry_cell_setting 'triclinic'
loop_
_space_group_symop_operation_xyz
x,y,z
-x,-y,-z
loop_
_atom_site_type_symbol
_atom_site_label
_atom_site_fract_x
_atom_site_fract_y
_atom_site_fract_z
Si Si1 0.275177 0.842154 0.120066
Si Si2 0.868405 0.579272 0.191931
Si Si3 0.060128 0.971211 0.612703
Si Si4 0.755450 0.107032 0.365760
Si Si5 0.991584 0.294054 0.334779
Si Si6 0.335876 0.141187 0.545936
Si Si7 0.297264 0.077608 0.966117
O O1 0.273314 0.943853 0.312578
O O2 0.231364 0.603923 0.902136
O O3 0.482624 0.906081 0.066297
O O4 0.118355 0.919864 0.199678
O O5 0.704957 0.667824 0.293418
O O6 0.995173 0.747643 0.375060
O O7 0.000000 0.500000 0.000000
O O8 0.162283 0.968020 0.658961
O O9 0.210360 0.107351 0.637487
O O10 0.561906 0.187085 0.535205
O O11 0.913765 0.283621 0.445265
O O12 0.704083 0.920722 0.131243
O O13 0.208769 0.255065 0.214967
O O14 0.000000 0.500000 0.500000
O O15 0.842087 0.130571 0.167516
#
# Coordination Sequence:
#
# PCOD8041918 Si02
#       7
#     2   2   2   2   2   2   2
#     4  10  19  34  55  75 103 144 177 206 249 313
#     4  11  19  33  52  75 106 147 181 198 248 310
#     4  11  20  34  50  79 116 133 168 220 255 302
#     4   9  20  36  52  81 105 134 170 219 272 293
#     4   9  18  36  58  78  99 129 176 221 255 310
#     4  10  19  34  54  74 107 145 174 209 245 314
#     4   8  19  36  57  77  94 136 179 211 256 314
#
# _framework density 17.905097000000001
#
# number of rings (size 3 to 8) (size 9 to 14) (size 15 to 20)
#    0.857    1.429    2.857    1.286    2.000    0.000 
#    2.571    1.429    0.000    1.714    0.000    0.000 
#    0.000    0.000    0.000    0.000    0.000    0.000 
#
# Total GULP energy -173505.952960 kJ/mol
# GULP energy per Si atom -12393.282354 kJ/mol
# Density = 1.786434 g / cm^3
# Si number density = 17.905097 Si / 1000 Ang^3
#
#
#
# Elastic Constant Matrix: (Units=GPa)
#
#
# Indices 1 2 3 4 5 6 
#
# 1 111.9077 34.8040 38.2785 -8.4411 -30.8881 9.6326
# 2 34.8040 55.6400 31.7982 -8.7551 -17.7081 21.9023
# 3 38.2785 31.7982 94.7988 9.1821 -23.4070 10.7777
# 4 -8.4411 -8.7551 9.1821 26.1696 4.0360 -11.7525
# 5 -30.8881 -17.7081 -23.4070 4.0360 23.8292 -7.9184
# 6 9.6326 21.9023 10.7777 -11.7525 -7.9184 27.4835
#
#
#
# Elastic Compliance Matrix: (Units=1/GPa)
#
#
# Indices 1 2 3 4 5 6 
#
# 1 0.015176 -0.005300 -0.001540 0.003786 0.015431 0.005573
# 2 -0.005300 0.035355 -0.005888 0.001546 0.006192 -0.021564
# 3 -0.001540 -0.005888 0.017616 -0.011999 0.011835 -0.003397
# 4 0.003786 0.001546 -0.011999 0.056073 -0.007240 0.024039
# 5 0.015431 0.006192 0.011835 -0.007240 0.081185 0.005310
# 6 0.005573 -0.021564 -0.003397 0.024039 0.005310 0.064758
#
#
# Mechanical properties :
#
#
# Convention : Reuss Voigt Hill
#
# Bulk Modulus (GPa) = 23.42420 52.45643 37.94031
# Shear Modulus (GPa) = 16.13675 25.99418 21.06547
#
# Velocity S-wave (km/s) = 3.00532 3.81435 3.43375
# Velocity P-wave (km/s) = 5.01532 6.98280 6.07918
#
# Compressibility (1/GPa) = 0.04269089
#
# Stress axis : x y z
#
# Youngs Moduli (GPa) = 65.89325 28.28415 56.76517
#
# Poissons Ratio (x) = 0.14990 0.08744
# Poissons Ratio (y) = 0.34922 0.33426
# Poissons Ratio (z) = 0.10150 0.16655
#
# Static dielectric constant tensor:
#      x y z
#    x 3.137690 0.285900 -0.229630 
#    y 0.285900 3.363530 -0.148050 
#    z -0.229630 -0.148050 3.396380 
# 
# 
# High freq. dielectric constant tensor:
#      x y z
#    x 1.670660 0.022420 -0.022830 
#    y 0.022420 1.690120 -0.004270 
#    z -0.022830 -0.004270 1.682870 
# 
# From -- ./inp_files/45756.got.cif
#   From: 2010.06.25/outbox.cif.g09.slc.cpg/sg2_23_cif.got.tgz:45756.got - 2010.06.27 13:26:56.
