data_PCOD8041736
_publ_section_title
;
Structure prediction by ZEFSAII (Michael W. Deem and Ramdas Pophale) SiO2 
 PCOD8041736
Probable space group: P -1
;
_chemical_formula_sum "Si O2"
_cell_formula_units_Z 16
_cell_length_a 6.571684
_cell_length_b 14.798768
_cell_length_c 7.406499
_cell_angle_alpha 102.579857
_cell_angle_beta 83.259951
_cell_angle_gamma 111.821317
_cell_volume 652.111471
_symmetry_space_group_name_H-M "P -1"
_symmetry_group_IT_number 2
_symmetry_cell_setting 'triclinic'
loop_
_space_group_symop_operation_xyz
x,y,z
-x,-y,-z
loop_
_atom_site_type_symbol
_atom_site_label
_atom_site_fract_x
_atom_site_fract_y
_atom_site_fract_z
Si Si1 0.851964 0.065847 0.571220
Si Si2 0.723015 0.780185 0.145492
Si Si3 0.228246 0.554683 0.593703
Si Si4 0.648784 0.607798 0.359862
Si Si5 0.421166 0.043220 0.760959
Si Si6 0.863855 0.780406 0.624030
Si Si7 0.545399 0.242446 0.172289
Si Si8 0.166200 0.880917 0.963654
O O1 0.687328 0.057017 0.761704
O O2 0.023135 0.175948 0.562162
O O3 0.673894 0.040070 0.417884
O O4 0.000000 0.000000 0.500000
O O5 0.698822 0.684531 0.224161
O O6 0.600826 0.853944 0.257286
O O7 0.605297 0.730523 0.950522
O O8 0.980228 0.857693 0.132535
O O9 0.392905 0.569103 0.415096
O O10 0.271513 0.484936 0.717239
O O11 0.259609 0.660243 0.731168
O O12 0.000000 0.500000 0.500000
O O13 0.780377 0.662394 0.550930
O O14 0.280291 0.996423 0.937749
O O15 0.641517 0.808581 0.678402
O O16 0.031209 0.814723 0.783971
O O17 0.639742 0.163301 0.039909
#
# Coordination Sequence:
#
# PCOD8041736 Si02
#       8
#     2   2   2   2   2   2   2   2
#     4  10  19  33  57  87 119 156 203 257 297 337
#     4  11  24  39  58  89 128 163 200 246 301 363
#     4  10  22  42  68  90 113 151 201 255 311 366
#     4  10  22  40  63  91 119 151 198 255 306 364
#     4  10  22  36  56  89 123 163 209 246 291 354
#     4   9  19  36  59  84 116 154 200 249 298 350
#     4  10  22  39  60  88 120 161 202 246 306 367
#     4  10  21  39  59  83 124 169 205 245 293 350
#
# _framework density 24.535685000000001
#
# number of rings (size 3 to 8) (size 9 to 14) (size 15 to 20)
#    0.000    2.000    0.000    2.625    0.000   11.000 
#    0.000    1.250    0.000    0.000    0.000    0.000 
#    0.000    0.000    0.000    0.000    0.000    0.000 
#
# Total GULP energy -198215.461238 kJ/mol
# GULP energy per Si atom -12388.466327 kJ/mol
# Density = 2.447984 g / cm^3
# Si number density = 24.535685 Si / 1000 Ang^3
#
#
#
# Elastic Constant Matrix: (Units=GPa)
#
#
# Indices 1 2 3 4 5 6 
#
# 1 140.1783 58.7159 35.5616 -13.5543 -10.6914 19.8020
# 2 58.7159 118.0797 36.7880 -25.8578 -12.6199 3.6493
# 3 35.5616 36.7880 66.8785 -19.7216 -24.6106 4.6969
# 4 -13.5543 -25.8578 -19.7216 41.4512 3.8250 1.4156
# 5 -10.6914 -12.6199 -24.6106 3.8250 41.3236 8.3032
# 6 19.8020 3.6493 4.6969 1.4156 8.3032 47.2218
#
#
#
# Elastic Compliance Matrix: (Units=1/GPa)
#
#
# Indices 1 2 3 4 5 6 
#
# 1 0.010065 -0.004071 -0.002835 -0.000514 0.000461 -0.003690
# 2 -0.004071 0.012590 -0.003307 0.004901 0.000191 0.000882
# 3 -0.002835 -0.003307 0.026053 0.008265 0.013775 -0.003817
# 4 -0.000514 0.004901 0.008265 0.030669 0.003970 -0.002603
# 5 0.000461 0.000191 0.013775 0.003970 0.033746 -0.007631
# 6 -0.003690 0.000882 -0.003817 -0.002603 -0.007631 0.024455
#
#
# Mechanical properties :
#
#
# Convention : Reuss Voigt Hill
#
# Bulk Modulus (GPa) = 35.35826 65.25196 50.30511
# Shear Modulus (GPa) = 29.86287 38.93739 34.40013
#
# Velocity S-wave (km/s) = 3.49251 3.98800 3.74845
# Velocity P-wave (km/s) = 5.54128 6.91795 6.26752
#
# Compressibility (1/GPa) = 0.02828193
#
# Stress axis : x y z
#
# Youngs Moduli (GPa) = 99.35596 79.42927 38.38266
#
# Poissons Ratio (x) = 0.32333 0.10883
# Poissons Ratio (y) = 0.40444 0.12694
# Poissons Ratio (z) = 0.28171 0.26268
#
# Static dielectric constant tensor:
#      x y z
#    x 4.754190 0.486540 0.099870 
#    y 0.486540 4.496590 -0.066100 
#    z 0.099870 -0.066100 4.739080 
# 
# 
# High freq. dielectric constant tensor:
#      x y z
#    x 2.000290 0.032740 0.017920 
#    y 0.032740 1.968810 0.010520 
#    z 0.017920 0.010520 1.985570 
# 
# From -- ./inp_files/135513.got.cif
#   From: 2010.06.25/outbox.cif.g09.slc.cpg/sg2_68_cif.got.tgz:135513.got - 2010.06.27 13:26:56.
