data_PCOD8041240
_publ_section_title
;
Structure prediction by ZEFSAII (Michael W. Deem and Ramdas Pophale) SiO2 
 PCOD8041240
Probable space group: P -1
;
_chemical_formula_sum "Si O2"
_cell_formula_units_Z 12
_cell_length_a 11.644798
_cell_length_b 9.118879
_cell_length_c 9.568466
_cell_angle_alpha 97.437050
_cell_angle_beta 54.145052
_cell_angle_gamma 59.655142
_cell_volume 564.183238
_symmetry_space_group_name_H-M "P -1"
_symmetry_group_IT_number 2
_symmetry_cell_setting 'triclinic'
loop_
_space_group_symop_operation_xyz
x,y,z
-x,-y,-z
loop_
_atom_site_type_symbol
_atom_site_label
_atom_site_fract_x
_atom_site_fract_y
_atom_site_fract_z
Si Si1 0.633407 0.518476 0.683323
Si Si2 0.444352 0.354358 0.770557
Si Si3 0.926135 0.215936 0.979316
Si Si4 0.532273 0.143023 0.954086
Si Si5 0.964469 0.954961 0.670806
Si Si6 0.661887 0.179523 0.301229
O O1 0.502801 0.470404 0.808040
O O2 0.520511 0.701159 0.665389
O O3 0.862127 0.298597 0.451261
O O4 0.640636 0.620686 0.824737
O O5 0.509570 0.175485 0.807118
O O6 0.568177 0.236666 0.527207
O O7 0.196041 0.543320 0.948480
O O8 0.969736 0.077770 0.798469
O O9 0.774197 0.253045 0.205799
O O10 0.148669 0.083013 0.875435
O O11 0.751269 0.030560 0.839876
O O12 0.500000 0.000000 0.000000
O O13 0.000000 0.000000 0.500000
#
# Coordination Sequence:
#
# PCOD8041240 Si02
#       6
#     2   2   2   2   2   2
#     4  11  21  37  66  90 119 156 204 248 295 355
#     4  11  20  37  62  90 117 157 199 245 295 357
#     4  10  19  31  60  94 123 143 197 254 300 340
#     4  12  26  42  58  88 128 161 198 250 300 353
#     4  12  21  36  64  91 117 161 204 242 294 355
#     4  10  20  33  59 100 118 144 197 261 295 342
#
# _framework density 21.269684999999999
#
# number of rings (size 3 to 8) (size 9 to 14) (size 15 to 20)
#    0.000    1.000    6.667    3.500    2.333    0.667 
#    0.000    0.833    0.000    2.000    0.000    0.000 
#    0.000    0.000    0.000    0.000    0.000    0.000 
#
# Total GULP energy -148718.066159 kJ/mol
# GULP energy per Si atom -12393.172180 kJ/mol
# Density = 2.122127 g / cm^3
# Si number density = 21.269685 Si / 1000 Ang^3
#
#
#
# Elastic Constant Matrix: (Units=GPa)
#
#
# Indices 1 2 3 4 5 6 
#
# 1 28.1969 27.8237 18.3895 -4.7905 -4.6157 -17.4257
# 2 27.8237 112.7664 50.2076 -0.4981 -9.2344 -30.5800
# 3 18.3895 50.2076 107.0785 2.4682 8.7135 -14.8967
# 4 -4.7905 -0.4981 2.4682 45.0515 -21.1606 -9.8879
# 5 -4.6157 -9.2344 8.7135 -21.1606 24.5470 4.6406
# 6 -17.4257 -30.5800 -14.8967 -9.8879 4.6406 42.3736
#
#
#
# Elastic Compliance Matrix: (Units=1/GPa)
#
#
# Indices 1 2 3 4 5 6 
#
# 1 0.076840 -0.001503 -0.012762 0.035914 0.043774 0.029615
# 2 -0.001503 0.016352 -0.007586 0.009486 0.015022 0.009084
# 3 -0.012762 -0.007586 0.016391 -0.013944 -0.021995 -0.005806
# 4 0.035914 0.009486 -0.013944 0.062552 0.064613 0.024233
# 5 0.043774 0.015022 -0.021995 0.064613 0.113639 0.023742
# 6 0.029615 0.009084 -0.005806 0.024233 0.023742 0.043348
#
#
# Mechanical properties :
#
#
# Convention : Reuss Voigt Hill
#
# Bulk Modulus (GPa) = 15.17876 48.98703 32.08289
# Shear Modulus (GPa) = 12.66510 32.50246 22.58378
#
# Velocity S-wave (km/s) = 2.44284 3.91335 3.26204
# Velocity P-wave (km/s) = 3.88696 6.59549 5.41336
#
# Compressibility (1/GPa) = 0.06588155
#
# Stress axis : x y z
#
# Youngs Moduli (GPa) = 13.01398 61.15462 61.00779
#
# Poissons Ratio (x) = 0.09193 0.77855
# Poissons Ratio (y) = 0.01956 0.46283
# Poissons Ratio (z) = 0.16608 0.46394
#
# Static dielectric constant tensor:
#      x y z
#    x 3.758540 -0.759770 -0.037530 
#    y -0.759770 4.207920 0.325040 
#    z -0.037530 0.325040 3.996330 
# 
# 
# High freq. dielectric constant tensor:
#      x y z
#    x 1.785760 -0.061000 0.014140 
#    y -0.061000 1.827140 0.018750 
#    z 0.014140 0.018750 1.849600 
# 
# From -- ./inp_files/238823.got.cif
#   From: 2010.06.25/outbox.cif.g09.slc.cpg/sg2_120_cif.got.tgz:238823.got - 2010.06.27 13:26:56.
