data_PCOD8041661
_publ_section_title
;
Structure prediction by ZEFSAII (Michael W. Deem and Ramdas Pophale) SiO2 
 PCOD8041661
Probable space group: P -1
;
_chemical_formula_sum "Si O2"
_cell_formula_units_Z 16
_cell_length_a 18.535229
_cell_length_b 27.853566
_cell_length_c 15.208320
_cell_angle_alpha 20.485332
_cell_angle_beta 30.599954
_cell_angle_gamma 18.289617
_cell_volume 832.364949
_symmetry_space_group_name_H-M "P -1"
_symmetry_group_IT_number 2
_symmetry_cell_setting 'triclinic'
loop_
_space_group_symop_operation_xyz
x,y,z
-x,-y,-z
loop_
_atom_site_type_symbol
_atom_site_label
_atom_site_fract_x
_atom_site_fract_y
_atom_site_fract_z
Si Si1 0.044191 0.108177 0.312338
Si Si2 0.380554 0.736651 0.031919
Si Si3 0.122320 0.523626 0.517012
Si Si4 0.966862 0.938572 0.007805
Si Si5 0.724378 0.607467 0.770707
Si Si6 0.279858 0.286877 0.586983
Si Si7 0.778246 0.216002 0.559129
Si Si8 0.579988 0.123791 0.812698
O O1 0.003446 0.115877 0.446330
O O2 0.302350 0.961329 0.263142
O O3 0.000000 0.000000 0.500000
O O4 0.847307 0.365851 0.040930
O O5 0.550038 0.493011 0.318587
O O6 0.221073 0.790380 0.031516
O O7 0.526883 0.746028 0.816215
O O8 0.217959 0.933519 0.938148
O O9 0.300406 0.361247 0.525865
O O10 0.299627 0.377802 0.664993
O O11 0.998767 0.767146 0.222102
O O12 0.917881 0.569003 0.664071
O O13 0.859250 0.128448 0.724138
O O14 0.601753 0.739265 0.579546
O O15 0.000000 0.500000 0.500000
O O16 0.396488 0.047754 0.882795
O O17 0.711070 0.124397 0.740832
#
# Coordination Sequence:
#
# PCOD8041661 Si02
#       8
#     2   2   2   2   2   2   2   2
#     4   9  19  31  55  84 123 154 181 236 291 343
#     4  10  23  44  61  86 119 147 202 256 291 338
#     4  11  22  35  59  89 120 160 197 232 294 352
#     4  11  23  41  66  85 110 161 201 243 297 348
#     4  10  21  39  57  86 121 152 193 246 290 344
#     4  10  19  33  56  83 121 155 192 231 289 358
#     4  10  20  38  63  87 116 154 199 241 295 346
#     4  11  19  36  55  88 126 157 188 238 291 353
#
# _framework density 19.222337
#
# number of rings (size 3 to 8) (size 9 to 14) (size 15 to 20)
#    0.000    1.750    3.750    2.250    1.750    1.500 
#    2.250    1.250    0.000    1.500    0.000    0.000 
#    0.000    0.000    0.000    0.000    0.000    0.000 
#
# Total GULP energy -198301.108462 kJ/mol
# GULP energy per Si atom -12393.819279 kJ/mol
# Density = 1.917859 g / cm^3
# Si number density = 19.222337 Si / 1000 Ang^3
#
#
#
# Elastic Constant Matrix: (Units=GPa)
#
#
# Indices 1 2 3 4 5 6 
#
# 1 62.5442 24.6911 40.2817 7.1214 15.5671 -1.7900
# 2 24.6911 84.5290 39.0590 14.4556 16.9325 0.9991
# 3 40.2817 39.0590 121.9746 7.6535 14.4992 2.2330
# 4 7.1214 14.4556 7.6535 30.4280 2.8218 6.4596
# 5 15.5671 16.9325 14.4992 2.8218 26.9070 -5.1751
# 6 -1.7900 0.9991 2.2330 6.4596 -5.1751 22.6483
#
#
#
# Elastic Compliance Matrix: (Units=1/GPa)
#
#
# Indices 1 2 3 4 5 6 
#
# 1 0.022902 -0.001906 -0.005820 -0.002476 -0.008413 0.001252
# 2 -0.001906 0.016313 -0.003418 -0.005715 -0.006810 -0.000459
# 3 -0.005820 -0.003418 0.011329 0.000618 -0.001004 -0.001832
# 4 -0.002476 -0.005715 0.000618 0.038555 -0.001531 -0.011351
# 5 -0.008413 -0.006810 -0.001004 -0.001531 0.049216 0.011417
# 6 0.001252 -0.000459 -0.001832 -0.011351 0.011417 0.050299
#
#
# Mechanical properties :
#
#
# Convention : Reuss Voigt Hill
#
# Bulk Modulus (GPa) = 35.39134 53.01240 44.20187
# Shear Modulus (GPa) = 22.69416 26.99773 24.84595
#
# Velocity S-wave (km/s) = 3.43973 3.75173 3.59911
# Velocity P-wave (km/s) = 5.85040 6.81217 6.34952
#
# Compressibility (1/GPa) = 0.02825550
#
# Stress axis : x y z
#
# Youngs Moduli (GPa) = 43.66515 61.29928 88.26852
#
# Poissons Ratio (x) = 0.11685 0.51374
# Poissons Ratio (y) = 0.08324 0.30169
# Poissons Ratio (z) = 0.25414 0.20951
#
# Static dielectric constant tensor:
#      x y z
#    x 3.541330 0.110990 0.224260 
#    y 0.110990 3.634610 0.170060 
#    z 0.224260 0.170060 3.621560 
# 
# 
# High freq. dielectric constant tensor:
#      x y z
#    x 1.732950 -0.000500 0.007720 
#    y -0.000500 1.740230 -0.001910 
#    z 0.007720 -0.001910 1.758160 
# 
# From -- ./inp_files/292972.got.cif
#   From: 2010.06.25/outbox.cif.g09.slc.cpg/sg2_147_cif.got.tgz:292972.got - 2010.06.27 13:26:56.
