data_PCOD8041581
_publ_section_title
;
Structure prediction by ZEFSAII (Michael W. Deem and Ramdas Pophale) SiO2 
 PCOD8041581
Probable space group: P -1
;
_chemical_formula_sum "Si O2"
_cell_formula_units_Z 14
_cell_length_a 15.029959
_cell_length_b 17.000583
_cell_length_c 5.324271
_cell_angle_alpha 119.795340
_cell_angle_beta 123.127374
_cell_angle_gamma 36.520736
_cell_volume 673.462048
_symmetry_space_group_name_H-M "P -1"
_symmetry_group_IT_number 2
_symmetry_cell_setting 'triclinic'
loop_
_space_group_symop_operation_xyz
x,y,z
-x,-y,-z
loop_
_atom_site_type_symbol
_atom_site_label
_atom_site_fract_x
_atom_site_fract_y
_atom_site_fract_z
Si Si1 0.983686 0.800734 0.341989
Si Si2 0.297453 0.939705 0.979392
Si Si3 0.090881 0.917866 0.761357
Si Si4 0.088322 0.551363 0.956433
Si Si5 0.547179 0.843739 0.903891
Si Si6 0.715622 0.902517 0.387993
Si Si7 0.200676 0.395793 0.393782
O O1 0.899164 0.801272 0.445578
O O2 0.114695 0.793183 0.613013
O O3 0.064334 0.674679 0.093006
O O4 0.849688 0.943705 0.233866
O O5 0.329863 0.006886 0.307329
O O6 0.253644 0.873137 0.949278
O O7 0.462084 0.818535 0.897446
O O8 0.000000 0.000000 0.500000
O O9 0.000000 0.000000 0.000000
O O10 0.200962 0.453413 0.742905
O O11 0.919536 0.611164 0.765901
O O12 0.163030 0.480346 0.226360
O O13 0.627786 0.752419 0.633284
O O14 0.397897 0.000420 0.863326
O O15 0.677400 0.818514 0.230553
#
# Coordination Sequence:
#
# PCOD8041581 Si02
#       7
#     2   2   2   2   2   2   2
#     4  10  20  35  56  83 114 140 188 232 274 330
#     4  10  21  33  56  83 114 148 179 226 286 337
#     4  10  20  35  56  83 113 145 181 228 279 326
#     4  10  22  36  56  79 106 150 186 227 272 317
#     4  10  21  34  51  83 114 148 181 226 276 342
#     4  10  19  33  54  82 112 147 177 222 289 334
#     4  10  22  37  54  78 110 147 188 224 269 327
#
# _framework density 20.788105000000002
#
# number of rings (size 3 to 8) (size 9 to 14) (size 15 to 20)
#    0.000    2.000    2.857    0.429    4.000    1.143 
#    0.000    0.000    0.000    1.714    0.000    0.000 
#    0.000    0.000    0.000    0.000    0.000    0.000 
#
# Total GULP energy -173436.495482 kJ/mol
# GULP energy per Si atom -12388.321106 kJ/mol
# Density = 2.074079 g / cm^3
# Si number density = 20.788105 Si / 1000 Ang^3
#
#
#
# Elastic Constant Matrix: (Units=GPa)
#
#
# Indices 1 2 3 4 5 6 
#
# 1 163.3318 27.0887 74.1050 27.5549 8.9694 -21.0230
# 2 27.0887 34.8013 22.9626 22.0794 5.2701 -8.0494
# 3 74.1050 22.9626 128.3875 33.2275 -5.6908 -5.4626
# 4 27.5549 22.0794 33.2275 34.9867 6.5391 -7.6186
# 5 8.9694 5.2701 -5.6908 6.5391 33.2697 4.4659
# 6 -21.0230 -8.0494 -5.4626 -7.6186 4.4659 20.6956
#
#
#
# Elastic Compliance Matrix: (Units=1/GPa)
#
#
# Indices 1 2 3 4 5 6 
#
# 1 0.010437 -0.002449 -0.005937 0.002109 -0.005195 0.009979
# 2 -0.002449 0.050444 -0.000339 -0.027355 -0.003036 0.007628
# 3 -0.005937 -0.000339 0.014362 -0.012008 0.007603 -0.008433
# 4 0.002109 -0.027355 -0.012008 0.060724 -0.012007 0.013278
# 5 -0.005195 -0.003036 0.007603 -0.012007 0.037888 -0.017047
# 6 0.009979 0.007628 -0.008433 0.013278 -0.017047 0.067764
#
#
# Mechanical properties :
#
#
# Convention : Reuss Voigt Hill
#
# Bulk Modulus (GPa) = 17.30338 63.87037 40.58687
# Shear Modulus (GPa) = 17.96412 31.28134 24.62273
#
# Velocity S-wave (km/s) = 2.94284 3.88335 3.44534
# Velocity P-wave (km/s) = 4.45969 7.13431 5.94925
#
# Compressibility (1/GPa) = 0.05779219
#
# Stress axis : x y z
#
# Youngs Moduli (GPa) = 95.81734 19.82412 69.62613
#
# Poissons Ratio (x) = 0.04855 0.41340
# Poissons Ratio (y) = 0.23465 0.02359
# Poissons Ratio (z) = 0.56891 0.00672
#
# Static dielectric constant tensor:
#      x y z
#    x 4.472250 -0.121550 0.255000 
#    y -0.121550 3.402750 0.015580 
#    z 0.255000 0.015580 3.935900 
# 
# 
# High freq. dielectric constant tensor:
#      x y z
#    x 1.819440 -0.002750 -0.007500 
#    y -0.002750 1.761880 0.008540 
#    z -0.007500 0.008540 1.815230 
# 
# From -- ./inp_files/53722.got.cif
#   From: 2010.06.25/outbox.cif.g09.slc.cpg/sg2_27_cif.got.tgz:53722.got - 2010.06.27 13:26:56.
