data_PCOD8041138
_publ_section_title
;
Structure prediction by ZEFSAII (Michael W. Deem and Ramdas Pophale) SiO2 
 PCOD8041138
Probable space group: P -1
;
_chemical_formula_sum "Si O2"
_cell_formula_units_Z 14
_cell_length_a 26.329076
_cell_length_b 5.128175
_cell_length_c 11.623449
_cell_angle_alpha 80.174513
_cell_angle_beta 24.619369
_cell_angle_gamma 77.891557
_cell_volume 638.473138
_symmetry_space_group_name_H-M "P -1"
_symmetry_group_IT_number 2
_symmetry_cell_setting 'triclinic'
loop_
_space_group_symop_operation_xyz
x,y,z
-x,-y,-z
loop_
_atom_site_type_symbol
_atom_site_label
_atom_site_fract_x
_atom_site_fract_y
_atom_site_fract_z
Si Si1 0.068330 0.157991 0.983786
Si Si2 0.168257 0.140635 0.311641
Si Si3 0.987970 0.331964 0.361783
Si Si4 0.419654 0.763210 0.188706
Si Si5 0.727196 0.215584 0.285928
Si Si6 0.245638 0.217964 0.915600
Si Si7 0.813615 0.969984 0.467485
O O1 0.047093 0.387434 0.108556
O O2 0.151762 0.235210 0.697620
O O3 0.934240 0.113382 0.220810
O O4 0.142477 0.895795 0.914238
O O5 0.064075 0.393388 0.491239
O O6 0.219572 0.168211 0.334431
O O7 0.115258 0.861746 0.427903
O O8 0.276844 0.156959 0.991687
O O9 0.099567 0.188546 0.219327
O O10 0.379824 0.725985 0.404663
O O11 0.302122 0.817498 0.343449
O O12 0.500000 0.500000 0.000000
O O13 0.500000 0.000000 0.000000
O O14 0.734350 0.485935 0.181840
O O15 0.685295 0.000552 0.297003
#
# Coordination Sequence:
#
# PCOD8041138 Si02
#       7
#     2   2   2   2   2   2   2
#     4   8  17  34  56  85 117 146 182 231 284 336
#     4  11  21  32  51  81 119 155 185 226 274 332
#     4  10  19  31  49  80 120 159 188 217 270 334
#     4  11  24  43  65  85 108 143 191 241 284 332
#     4  10  21  37  60  85 113 151 187 228 277 331
#     4  11  19  33  54  81 117 152 191 223 266 336
#     4   9  19  36  58  85 115 146 184 232 288 335
#
# _framework density 21.927315
#
# number of rings (size 3 to 8) (size 9 to 14) (size 15 to 20)
#    0.000    2.000    0.000    5.143    0.000    2.857 
#    0.000    5.714    0.000    5.143    0.000    0.000 
#    0.000    0.000    0.000    0.000    0.000    0.000 
#
# Total GULP energy -173456.453155 kJ/mol
# GULP energy per Si atom -12389.746654 kJ/mol
# Density = 2.187741 g / cm^3
# Si number density = 21.927315 Si / 1000 Ang^3
#
#
#
# Elastic Constant Matrix: (Units=GPa)
#
#
# Indices 1 2 3 4 5 6 
#
# 1 86.1281 31.6198 57.5639 0.8450 38.8650 -8.0688
# 2 31.6198 102.5518 45.4030 1.2063 15.5033 10.3831
# 3 57.5639 45.4030 114.6004 10.0994 32.5225 -7.3924
# 4 0.8450 1.2063 10.0994 37.4181 -0.7291 11.1095
# 5 38.8650 15.5033 32.5225 -0.7291 45.6374 -2.4892
# 6 -8.0688 10.3831 -7.3924 11.1095 -2.4892 26.1771
#
#
#
# Elastic Compliance Matrix: (Units=1/GPa)
#
#
# Indices 1 2 3 4 5 6 
#
# 1 0.024118 -0.002987 -0.006318 -0.000736 -0.014720 0.005747
# 2 -0.002987 0.013696 -0.005188 0.003819 0.001140 -0.009331
# 3 -0.006318 -0.005188 0.016089 -0.006155 -0.004046 0.006881
# 4 -0.000736 0.003819 -0.006155 0.033506 0.003303 -0.017385
# 5 -0.014720 0.001140 -0.004046 0.003303 0.036776 -0.004037
# 6 0.005747 -0.009331 0.006881 -0.017385 -0.004037 0.052612
#
#
# Mechanical properties :
#
#
# Convention : Reuss Voigt Hill
#
# Bulk Modulus (GPa) = 40.13189 63.60595 51.86892
# Shear Modulus (GPa) = 23.35476 33.09276 28.22376
#
# Velocity S-wave (km/s) = 3.26713 3.88906 3.59158
# Velocity P-wave (km/s) = 5.70737 7.01691 6.39575
#
# Compressibility (1/GPa) = 0.02491784
#
# Stress axis : x y z
#
# Youngs Moduli (GPa) = 41.46291 73.01166 62.15305
#
# Poissons Ratio (x) = 0.21809 0.39268
# Poissons Ratio (y) = 0.12385 0.32244
# Poissons Ratio (z) = 0.26196 0.37878
#
# Static dielectric constant tensor:
#      x y z
#    x 4.452520 0.056590 0.679200 
#    y 0.056590 3.596600 0.155390 
#    z 0.679200 0.155390 4.048150 
# 
# 
# High freq. dielectric constant tensor:
#      x y z
#    x 1.859930 0.006190 0.050500 
#    y 0.006190 1.846910 0.007600 
#    z 0.050500 0.007600 1.842600 
# 
# From -- ./inp_files/477351.got.cif
#   From: 2010.06.25/outbox.cif.g09.slc.cpg/sg2_239_cif.got.tgz:477351.got - 2010.06.27 13:26:56.
