data_PCOD8041143
_publ_section_title
;
Structure prediction by ZEFSAII (Michael W. Deem and Ramdas Pophale) SiO2 
 PCOD8041143
Probable space group: P -1
;
_chemical_formula_sum "Si O2"
_cell_formula_units_Z 16
_cell_length_a 11.740205
_cell_length_b 14.539966
_cell_length_c 10.584376
_cell_angle_alpha 105.962423
_cell_angle_beta 25.541185
_cell_angle_gamma 108.745741
_cell_volume 737.190733
_symmetry_space_group_name_H-M "P -1"
_symmetry_group_IT_number 2
_symmetry_cell_setting 'triclinic'
loop_
_space_group_symop_operation_xyz
x,y,z
-x,-y,-z
loop_
_atom_site_type_symbol
_atom_site_label
_atom_site_fract_x
_atom_site_fract_y
_atom_site_fract_z
Si Si1 0.658145 0.289083 0.321486
Si Si2 0.680562 0.873088 0.267258
Si Si3 0.805731 0.060426 0.360284
Si Si4 0.344898 0.203758 0.267195
Si Si5 0.463614 0.596840 0.761163
Si Si6 0.553629 0.952408 0.060141
Si Si7 0.816021 0.147658 0.929991
Si Si8 0.072865 0.520232 0.790759
O O1 0.394051 0.233701 0.636834
O O2 0.557133 0.351368 0.333621
O O3 0.838360 0.362867 0.267049
O O4 0.839185 0.210223 0.060033
O O5 0.406679 0.898353 0.498028
O O6 0.802699 0.947463 0.284716
O O7 0.899462 0.876171 0.937179
O O8 0.722977 0.070056 0.592716
O O9 0.457749 0.318837 0.180096
O O10 0.047198 0.189461 0.617077
O O11 0.340799 0.148039 0.115294
O O12 0.529197 0.159717 0.165159
O O13 0.687241 0.531323 0.510862
O O14 0.186976 0.525693 0.049299
O O15 0.500000 0.000000 0.000000
O O16 0.781994 0.029383 0.938292
O O17 0.000000 0.500000 0.000000
#
# Coordination Sequence:
#
# PCOD8041143 Si02
#       8
#     2   2   2   2   2   2   2   2
#     4  10  19  34  55  79 108 152 179 217 280 334
#     4  10  22  37  56  77 112 153 181 222 268 328
#     4  10  22  39  53  80 112 145 189 226 263 322
#     4  10  20  32  51  74 107 143 171 216 277 314
#     4  10  20  33  48  80 112 137 177 230 273 329
#     4  10  21  38  57  82 109 147 184 233 273 323
#     4  10  20  32  48  79 107 136 181 215 257 336
#     4  10  19  31  50  76 111 140 175 226 278 326
#
# _framework density 21.704017
#
# number of rings (size 3 to 8) (size 9 to 14) (size 15 to 20)
#    0.000    2.000    1.250    4.125    0.000   10.000 
#    0.000    0.000    0.000    0.000    0.000    5.250 
#    0.000    0.000    0.000    0.000    0.000    0.000 
#
# Total GULP energy -198314.107614 kJ/mol
# GULP energy per Si atom -12394.631726 kJ/mol
# Density = 2.165462 g / cm^3
# Si number density = 21.704017 Si / 1000 Ang^3
#
#
#
# Elastic Constant Matrix: (Units=GPa)
#
#
# Indices 1 2 3 4 5 6 
#
# 1 22.9680 37.3381 28.2467 -0.6467 4.1714 16.3623
# 2 37.3381 179.5920 87.4566 0.3717 3.0288 55.6240
# 3 28.2467 87.4566 161.8530 -6.5558 4.0564 23.0003
# 4 -0.6467 0.3717 -6.5558 37.2437 4.4701 6.7412
# 5 4.1714 3.0288 4.0564 4.4701 34.8861 -3.2325
# 6 16.3623 55.6240 23.0003 6.7412 -3.2325 29.8183
#
#
#
# Elastic Compliance Matrix: (Units=1/GPa)
#
#
# Indices 1 2 3 4 5 6 
#
# 1 0.090640 0.000360 -0.008352 0.010691 -0.015724 -0.048088
# 2 0.000360 0.017302 -0.004775 0.005032 -0.004453 -0.030411
# 3 -0.008352 -0.004775 0.009304 0.000286 0.000883 0.006345
# 4 0.010691 0.005032 0.000286 0.032286 -0.008077 -0.023649
# 5 -0.015724 -0.004453 0.000883 -0.008077 0.033879 0.021752
# 6 -0.048088 -0.030411 0.006345 -0.023649 0.021752 0.119464
#
#
# Mechanical properties :
#
#
# Convention : Reuss Voigt Hill
#
# Bulk Modulus (GPa) = 10.90378 74.49954 42.70166
# Shear Modulus (GPa) = 13.92832 34.48105 24.20468
#
# Velocity S-wave (km/s) = 2.53601 3.99017 3.34311
# Velocity P-wave (km/s) = 3.68915 7.45844 5.88380
#
# Compressibility (1/GPa) = 0.09171133
#
# Stress axis : x y z
#
# Youngs Moduli (GPa) = 11.03264 57.79541 107.48000
#
# Poissons Ratio (x) = -0.02079 0.89771
# Poissons Ratio (y) = -0.00397 0.51322
# Poissons Ratio (z) = 0.09215 0.27598
#
# Static dielectric constant tensor:
#      x y z
#    x 3.769390 0.903330 -0.123130 
#    y 0.903330 5.009670 0.100490 
#    z -0.123130 0.100490 4.167020 
# 
# 
# High freq. dielectric constant tensor:
#      x y z
#    x 1.800950 0.030640 -0.025000 
#    y 0.030640 1.852760 0.004730 
#    z -0.025000 0.004730 1.859320 
# 
# From -- ./inp_files/455725.got.cif
#   From: 2010.06.25/outbox.cif.g09.slc.cpg/sg2_228_cif.got.tgz:455725.got - 2010.06.27 13:26:56.
