data_PCOD8041999
_publ_section_title
;
Structure prediction by ZEFSAII (Michael W. Deem and Ramdas Pophale) SiO2 
 PCOD8041999
Probable space group: P -1
;
_chemical_formula_sum "Si O2"
_cell_formula_units_Z 16
_cell_length_a 18.224685
_cell_length_b 15.251606
_cell_length_c 8.914995
_cell_angle_alpha 98.566404
_cell_angle_beta 62.501176
_cell_angle_gamma 150.343231
_cell_volume 889.944788
_symmetry_space_group_name_H-M "P -1"
_symmetry_group_IT_number 2
_symmetry_cell_setting 'triclinic'
loop_
_space_group_symop_operation_xyz
x,y,z
-x,-y,-z
loop_
_atom_site_type_symbol
_atom_site_label
_atom_site_fract_x
_atom_site_fract_y
_atom_site_fract_z
Si Si1 0.438666 0.820616 0.390925
Si Si2 0.783283 0.828238 0.692355
Si Si3 0.034679 0.725187 0.720516
Si Si4 0.470546 0.373072 0.848425
Si Si5 0.166035 0.691539 0.772314
Si Si6 0.618304 0.349343 0.878020
Si Si7 0.618300 0.835103 0.383303
Si Si8 0.309974 0.082639 0.342325
O O1 0.249711 0.689379 0.601563
O O2 0.382801 0.735390 0.253932
O O3 0.464275 0.758929 0.452127
O O4 0.646046 0.079568 0.260053
O O5 0.610341 0.593522 0.734647
O O6 0.793895 0.929949 0.619565
O O7 0.727340 0.791823 0.910753
O O8 0.000000 0.000000 0.500000
O O9 0.057905 0.648488 0.740847
O O10 0.806325 0.530667 0.859778
O O11 0.147801 0.901394 0.777405
O O12 0.146655 0.848213 0.485348
O O13 0.601413 0.426944 0.827965
O O14 0.394076 0.263736 0.732446
O O15 0.000000 0.500000 0.000000
O O16 0.430649 0.153657 0.115062
O O17 0.557914 0.759042 0.594961
#
# Coordination Sequence:
#
# PCOD8041999 Si02
#       8
#     2   2   2   2   2   2   2   2
#     4   9  20  37  55  79 109 138 181 217 262 320
#     4  10  19  34  56  79 108 141 176 219 264 313
#     4   9  20  35  53  79 111 133 183 220 259 315
#     4   9  19  36  54  79 109 140 180 215 260 314
#     4  10  21  36  56  78 108 143 175 221 269 314
#     4  10  19  35  59  78 107 147 172 219 266 310
#     4   8  18  38  53  75 111 139 175 222 254 314
#     4   9  20  35  55  78 110 139 177 217 269 308
#
# _framework density 17.978643000000002
#
# number of rings (size 3 to 8) (size 9 to 14) (size 15 to 20)
#    0.750    2.000    0.000    0.750    1.750    2.000 
#    2.250    4.375    0.000    0.000    0.000    0.000 
#    0.000    0.000    0.000    0.000    0.000    0.000 
#
# Total GULP energy -198243.241070 kJ/mol
# GULP energy per Si atom -12390.202567 kJ/mol
# Density = 1.793772 g / cm^3
# Si number density = 17.978643 Si / 1000 Ang^3
#
#
#
# Elastic Constant Matrix: (Units=GPa)
#
#
# Indices 1 2 3 4 5 6 
#
# 1 74.0946 23.2380 61.6731 -5.1638 -1.0450 4.6513
# 2 23.2380 59.8455 40.0957 16.7708 -9.4094 -0.8887
# 3 61.6731 40.0957 122.7965 3.7960 -4.2163 -10.0866
# 4 -5.1638 16.7708 3.7960 33.0075 -4.0443 -0.4496
# 5 -1.0450 -9.4094 -4.2163 -4.0443 30.9599 -4.2255
# 6 4.6513 -0.8887 -10.0866 -0.4496 -4.2255 23.9108
#
#
#
# Elastic Compliance Matrix: (Units=1/GPa)
#
#
# Indices 1 2 3 4 5 6 
#
# 1 0.027408 -0.004192 -0.013679 0.007487 -0.002819 -0.011615
# 2 -0.004192 0.026920 -0.006097 -0.012957 0.005514 -0.000025
# 3 -0.013679 -0.006097 0.017918 -0.000790 0.001418 0.010229
# 4 0.007487 -0.012957 -0.000790 0.038247 0.001016 -0.001372
# 5 -0.002819 0.005514 0.001418 0.001016 0.035243 0.007599
# 6 -0.011615 -0.000025 0.010229 -0.001372 0.007599 0.049713
#
#
# Mechanical properties :
#
#
# Convention : Reuss Voigt Hill
#
# Bulk Modulus (GPa) = 41.13475 56.30558 48.72017
# Shear Modulus (GPa) = 19.88179 26.35762 23.11971
#
# Velocity S-wave (km/s) = 3.32905 3.83306 3.58991
# Velocity P-wave (km/s) = 6.14054 7.13974 6.65891
#
# Compressibility (1/GPa) = 0.02431034
#
# Stress axis : x y z
#
# Youngs Moduli (GPa) = 36.48612 37.14761 55.81091
#
# Poissons Ratio (x) = 0.15571 0.76343
# Poissons Ratio (y) = 0.15293 0.34027
# Poissons Ratio (z) = 0.49909 0.22648
#
# Static dielectric constant tensor:
#      x y z
#    x 3.352060 -0.023230 0.035420 
#    y -0.023230 3.235840 0.103150 
#    z 0.035420 0.103150 3.244160 
# 
# 
# High freq. dielectric constant tensor:
#      x y z
#    x 1.698220 -0.003000 0.000550 
#    y -0.003000 1.683370 0.004550 
#    z 0.000550 0.004550 1.691210 
# 
# From -- ./inp_files/214936.got.cif
#   From: 2010.06.25/outbox.cif.g09.slc.cpg/sg2_108_cif.got.tgz:214936.got - 2010.06.27 13:26:56.
