data_PCOD8041005
_publ_section_title
;
Structure prediction by ZEFSAII (Michael W. Deem and Ramdas Pophale) SiO2 
 PCOD8041005
Probable space group: P -1
;
_chemical_formula_sum "Si O2"
_cell_formula_units_Z 14
_cell_length_a 7.564157
_cell_length_b 10.726084
_cell_length_c 7.965985
_cell_angle_alpha 73.408009
_cell_angle_beta 79.219780
_cell_angle_gamma 111.511285
_cell_volume 544.532085
_symmetry_space_group_name_H-M "P -1"
_symmetry_group_IT_number 2
_symmetry_cell_setting 'triclinic'
loop_
_space_group_symop_operation_xyz
x,y,z
-x,-y,-z
loop_
_atom_site_type_symbol
_atom_site_label
_atom_site_fract_x
_atom_site_fract_y
_atom_site_fract_z
Si Si1 0.949801 0.273503 0.200561
Si Si2 0.454874 0.689192 0.713735
Si Si3 0.648346 0.963040 0.376911
Si Si4 0.672028 0.113874 0.789049
Si Si5 0.757310 0.633746 0.198304
Si Si6 0.424174 0.190250 0.007578
Si Si7 0.034858 0.362603 0.501768
O O1 0.758986 0.306973 0.237012
O O2 0.103534 0.358240 0.298002
O O3 0.873736 0.097269 0.288882
O O4 0.068344 0.336396 0.981735
O O5 0.621635 0.808243 0.514240
O O6 0.416784 0.530858 0.717262
O O7 0.557862 0.715658 0.867249
O O8 0.560603 0.948598 0.210494
O O9 0.500000 0.000000 0.500000
O O10 0.820419 0.220930 0.586707
O O11 0.726122 0.981058 0.866270
O O12 0.647467 0.201636 0.921387
O O13 0.837957 0.662612 0.363643
O O14 0.662087 0.745222 0.147633
O O15 0.000000 0.500000 0.500000
#
# Coordination Sequence:
#
# PCOD8041005 Si02
#       7
#     2   2   2   2   2   2   2
#     4  11  22  43  73  99 132 182 223 277 337 403
#     4  11  20  45  71  94 131 181 228 268 337 408
#     4  10  18  41  70  95 122 174 240 267 315 411
#     4  11  22  44  70  91 129 184 232 269 330 413
#     4  12  27  43  65 107 144 169 221 289 342 395
#     4  11  25  42  69  97 131 180 229 278 331 403
#     4  12  24  43  69 102 137 177 224 276 343 403
#
# _framework density 25.710146999999999
#
# number of rings (size 3 to 8) (size 9 to 14) (size 15 to 20)
#    0.000    0.857    7.143    1.714    4.000    0.571 
#    2.571    2.857    0.000    0.000    0.000    0.000 
#    0.000    0.000    0.000    0.000    0.000    0.000 
#
# Total GULP energy -173463.165432 kJ/mol
# GULP energy per Si atom -12390.226102 kJ/mol
# Density = 2.565163 g / cm^3
# Si number density = 25.710147 Si / 1000 Ang^3
#
#
#
# Elastic Constant Matrix: (Units=GPa)
#
#
# Indices 1 2 3 4 5 6 
#
# 1 42.3385 31.0971 21.5516 -5.0352 26.0354 -10.9990
# 2 31.0971 134.0717 42.2315 -19.4069 19.2183 7.6577
# 3 21.5516 42.2315 96.9262 -15.8018 31.8556 6.6808
# 4 -5.0352 -19.4069 -15.8018 48.1806 2.5854 7.3185
# 5 26.0354 19.2183 31.8556 2.5854 44.4138 -0.1882
# 6 -10.9990 7.6577 6.6808 7.3185 -0.1882 31.0314
#
#
#
# Elastic Compliance Matrix: (Units=1/GPa)
#
#
# Indices 1 2 3 4 5 6 
#
# 1 0.052228 -0.009474 -0.000363 -0.000237 -0.026154 0.020825
# 2 -0.009474 0.010951 -0.002429 0.003462 0.002329 -0.006340
# 3 -0.000363 -0.002429 0.016165 0.005523 -0.010671 -0.004377
# 4 -0.000237 0.003462 0.005523 0.025548 -0.006842 -0.008194
# 5 -0.026154 0.002329 -0.010671 -0.006842 0.044867 -0.005662
# 6 0.020825 -0.006340 -0.004377 -0.008194 -0.005662 0.044012
#
#
# Mechanical properties :
#
#
# Convention : Reuss Voigt Hill
#
# Bulk Modulus (GPa) = 18.24453 51.45521 34.84987
# Shear Modulus (GPa) = 21.13512 36.62225 28.87868
#
# Velocity S-wave (km/s) = 2.87026 3.77825 3.35511
# Velocity P-wave (km/s) = 4.25396 6.25225 5.34728
#
# Compressibility (1/GPa) = 0.05481094
#
# Stress axis : x y z
#
# Youngs Moduli (GPa) = 19.14698 91.31879 61.86151
#
# Poissons Ratio (x) = 0.86518 0.02247
# Poissons Ratio (y) = 0.18140 0.15024
# Poissons Ratio (z) = 0.00696 0.22178
#
# Static dielectric constant tensor:
#      x y z
#    x 3.989590 0.176530 -0.052330 
#    y 0.176530 4.980230 -0.599650 
#    z -0.052330 -0.599650 3.541870 
# 
# 
# High freq. dielectric constant tensor:
#      x y z
#    x 1.977410 -0.003730 0.004450 
#    y -0.003730 2.043440 0.005950 
#    z 0.004450 0.005950 2.052800 
# 
# From -- ./inp_files/185105.got.cif
#   From: 2010.06.25/outbox.cif.g09.slc.cpg/sg2_93_cif.got.tgz:185105.got - 2010.06.27 13:26:56.
