data_PCOD8041276
_publ_section_title
;
Structure prediction by ZEFSAII (Michael W. Deem and Ramdas Pophale) SiO2 
 PCOD8041276
Probable space group: P -1
;
_chemical_formula_sum "Si O2"
_cell_formula_units_Z 16
_cell_length_a 17.690721
_cell_length_b 8.912513
_cell_length_c 8.313804
_cell_angle_alpha 93.455223
_cell_angle_beta 136.065289
_cell_angle_gamma 72.884119
_cell_volume 846.179426
_symmetry_space_group_name_H-M "P -1"
_symmetry_group_IT_number 2
_symmetry_cell_setting 'triclinic'
loop_
_space_group_symop_operation_xyz
x,y,z
-x,-y,-z
loop_
_atom_site_type_symbol
_atom_site_label
_atom_site_fract_x
_atom_site_fract_y
_atom_site_fract_z
Si Si1 0.627513 0.605883 0.757984
Si Si2 0.763008 0.457484 0.245349
Si Si3 0.909114 0.628563 0.653971
Si Si4 0.161530 0.472681 0.138807
Si Si5 0.763080 0.279409 0.543881
Si Si6 0.372486 0.733476 0.375448
Si Si7 0.161558 0.865772 0.845715
Si Si8 0.090810 0.037692 0.426442
O O1 0.726450 0.636389 0.801706
O O2 0.500020 0.748779 0.551316
O O3 0.616530 0.441753 0.674593
O O4 0.660524 0.591475 0.997433
O O5 0.856710 0.534235 0.445123
O O6 0.711044 0.394435 0.316631
O O7 0.826754 0.309359 0.214320
O O8 0.854324 0.636520 0.747905
O O9 0.875224 0.812419 0.562914
O O10 0.047592 0.529273 0.855671
O O11 0.173244 0.636126 0.233914
O O12 0.660669 0.247631 0.484389
O O13 0.856882 0.109089 0.625292
O O14 0.273654 0.862772 0.122277
O O15 0.047689 0.923017 0.787263
O O16 0.145614 0.990891 0.684774
#
# Coordination Sequence:
#
# PCOD8041276 Si02
#       8
#     2   2   2   2   2   2   2   2
#     4   9  17  31  52  74  96 126 165 206 242 279
#     4   9  18  32  50  75 101 125 160 202 242 287
#     4  10  19  32  51  74 101 130 158 195 246 295
#     4   9  19  33  50  75 101 125 160 203 242 286
#     4   9  18  32  50  75 101 125 160 202 242 287
#     4   9  17  31  52  74  96 126 165 206 242 279
#     4   9  19  33  50  75 101 125 160 203 242 286
#     4  10  19  32  51  74 101 130 158 195 246 295
#
# _framework density 18.908518000000001
#
# number of rings (size 3 to 8) (size 9 to 14) (size 15 to 20)
#    0.000    2.750    0.000    2.250    0.000    4.500 
#    0.000    7.500    0.000    4.500    0.000    0.000 
#    0.000    0.000    0.000    0.000    0.000    0.000 
#
# Total GULP energy -198337.853613 kJ/mol
# GULP energy per Si atom -12396.115851 kJ/mol
# Density = 1.886548 g / cm^3
# Si number density = 18.908518 Si / 1000 Ang^3
#
#
#
# Elastic Constant Matrix: (Units=GPa)
#
#
# Indices 1 2 3 4 5 6 
#
# 1 133.9211 39.7774 78.1840 -12.0180 10.1894 -4.8706
# 2 39.7774 57.8797 37.8331 -4.3251 -1.7943 11.1439
# 3 78.1840 37.8331 133.4227 -23.3054 5.3188 -11.6842
# 4 -12.0180 -4.3251 -23.3054 18.0420 -6.0723 -7.2642
# 5 10.1894 -1.7943 5.3188 -6.0723 25.9583 -2.7541
# 6 -4.8706 11.1439 -11.6842 -7.2642 -2.7541 22.5559
#
#
#
# Elastic Compliance Matrix: (Units=1/GPa)
#
#
# Indices 1 2 3 4 5 6 
#
# 1 0.012781 -0.005501 -0.005819 -0.001138 -0.004304 0.001571
# 2 -0.005501 0.036185 -0.015781 -0.031853 -0.003582 -0.037935
# 3 -0.005819 -0.015781 0.025390 0.042213 0.009521 0.034450
# 4 -0.001138 -0.031853 0.042213 0.149019 0.033950 0.089495
# 5 -0.004304 -0.003582 0.009521 0.033950 0.048355 0.022610
# 6 0.001571 -0.037935 0.034450 0.089495 0.022610 0.112844
#
#
# Mechanical properties :
#
#
# Convention : Reuss Voigt Hill
#
# Bulk Modulus (GPa) = 49.61441 70.75697 60.18569
# Shear Modulus (GPa) = 11.22352 24.60652 17.91502
#
# Velocity S-wave (km/s) = 2.43897 3.61133 3.08142
# Velocity P-wave (km/s) = 5.85044 7.40884 6.67527
#
# Compressibility (1/GPa) = 0.02015543
#
# Stress axis : x y z
#
# Youngs Moduli (GPa) = 78.24324 27.63577 39.38482
#
# Poissons Ratio (x) = 0.15201 0.22919
# Poissons Ratio (y) = 0.43038 0.62151
# Poissons Ratio (z) = 0.45532 0.43611
#
# Static dielectric constant tensor:
#      x y z
#    x 3.747760 -0.048470 0.012730 
#    y -0.048470 3.132820 -0.169600 
#    z 0.012730 -0.169600 3.719630 
# 
# 
# High freq. dielectric constant tensor:
#      x y z
#    x 1.741390 -0.002620 -0.012960 
#    y -0.002620 1.695630 -0.007470 
#    z -0.012960 -0.007470 1.732800 
# 
# From -- ./inp_files/329235.got.cif
#   From: 2010.06.25/outbox.cif.g09.slc.cpg/sg2_165_cif.got.tgz:329235.got - 2010.06.27 13:26:56.
