data_PCOD8041224
_publ_section_title
;
Structure prediction by ZEFSAII (Michael W. Deem and Ramdas Pophale) SiO2 
 PCOD8041224
Probable space group: P -1
;
_chemical_formula_sum "Si O2"
_cell_formula_units_Z 16
_cell_length_a 8.779844
_cell_length_b 10.883538
_cell_length_c 12.021249
_cell_angle_alpha 78.508173
_cell_angle_beta 72.604104
_cell_angle_gamma 54.504885
_cell_volume 891.969318
_symmetry_space_group_name_H-M "P -1"
_symmetry_group_IT_number 2
_symmetry_cell_setting 'triclinic'
loop_
_space_group_symop_operation_xyz
x,y,z
-x,-y,-z
loop_
_atom_site_type_symbol
_atom_site_label
_atom_site_fract_x
_atom_site_fract_y
_atom_site_fract_z
Si Si1 0.867308 0.717739 0.953052
Si Si2 0.033894 0.645317 0.351148
Si Si3 0.774082 0.469480 0.232517
Si Si4 0.062821 0.337687 0.382714
Si Si5 0.737111 0.774371 0.208467
Si Si6 0.564025 0.671265 0.952282
Si Si7 0.406427 0.565707 0.180810
Si Si8 0.607525 0.896434 0.796761
O O1 0.767426 0.624678 0.971737
O O2 0.752655 0.867806 0.872352
O O3 0.087661 0.607020 0.890349
O O4 0.852250 0.768583 0.074437
O O5 0.086358 0.477244 0.351458
O O6 0.213657 0.654892 0.279489
O O7 0.977621 0.698402 0.480365
O O8 0.856230 0.764134 0.291763
O O9 0.704132 0.641137 0.237034
O O10 0.584764 0.471684 0.244717
O O11 0.885327 0.373643 0.335793
O O12 0.263981 0.192901 0.322886
O O13 0.528268 0.928596 0.232983
O O14 0.606910 0.545342 0.877834
O O15 0.480627 0.829831 0.875962
O O16 0.426985 0.682764 0.079946
#
# Coordination Sequence:
#
# PCOD8041224 Si02
#       8
#     2   2   2   2   2   2   2   2
#     4   9  18  33  51  79 105 133 176 208 249 306
#     4  10  21  34  55  77 104 137 178 220 247 306
#     4  10  19  31  57  80 100 137 175 217 255 305
#     4   9  19  39  54  75 100 136 187 217 247 294
#     4  11  19  31  55  79 104 139 173 208 260 311
#     4   9  19  31  52  77 112 133 160 216 260 305
#     4  11  19  31  53  82 108 133 168 216 266 301
#     4   9  18  35  55  75 106 135 174 213 253 310
#
# _framework density 17.937837999999999
#
# number of rings (size 3 to 8) (size 9 to 14) (size 15 to 20)
#    0.750    1.500    2.500    1.500    3.500    1.000 
#    0.000    0.625    5.500    0.750    0.000    0.000 
#    0.000    0.000    0.000    0.000    0.000    0.000 
#
# Total GULP energy -198275.489246 kJ/mol
# GULP energy per Si atom -12392.218078 kJ/mol
# Density = 1.789701 g / cm^3
# Si number density = 17.937838 Si / 1000 Ang^3
#
#
#
# Elastic Constant Matrix: (Units=GPa)
#
#
# Indices 1 2 3 4 5 6 
#
# 1 64.9845 19.0278 41.3520 -3.3638 1.5257 -19.3269
# 2 19.0278 95.0924 38.9889 3.0479 6.2985 -23.5315
# 3 41.3520 38.9889 141.6967 3.1433 12.2756 -15.8681
# 4 -3.3638 3.0479 3.1433 15.6566 0.0950 2.7244
# 5 1.5257 6.2985 12.2756 0.0950 26.8944 -2.4504
# 6 -19.3269 -23.5315 -15.8681 2.7244 -2.4504 17.4695
#
#
#
# Elastic Compliance Matrix: (Units=1/GPa)
#
#
# Indices 1 2 3 4 5 6 
#
# 1 0.026955 0.004402 -0.005914 0.000767 0.002931 0.030670
# 2 0.004402 0.017812 -0.002949 -0.006649 -0.000579 0.027140
# 3 -0.005914 -0.002949 0.009756 -0.002321 -0.003582 -0.001794
# 4 0.000767 -0.006649 -0.002321 0.069446 0.000415 -0.020988
# 5 0.002931 -0.000579 -0.003582 0.000415 0.039208 0.004644
# 6 0.030670 0.027140 -0.001794 -0.020988 0.004644 0.130027
#
#
# Mechanical properties :
#
#
# Convention : Reuss Voigt Hill
#
# Bulk Modulus (GPa) = 21.92931 55.61233 38.77082
# Shear Modulus (GPa) = 15.75673 25.49775 20.62724
#
# Velocity S-wave (km/s) = 2.96701 3.77430 3.39474
# Velocity P-wave (km/s) = 4.89788 7.07559 6.08495
#
# Compressibility (1/GPa) = 0.04560108
#
# Stress axis : x y z
#
# Youngs Moduli (GPa) = 37.09872 56.14276 102.50611
#
# Poissons Ratio (x) = -0.24715 0.60622
# Poissons Ratio (y) = -0.16331 0.30227
# Poissons Ratio (z) = 0.21940 0.16555
#
# Static dielectric constant tensor:
#      x y z
#    x 3.209330 -0.099620 0.105280 
#    y -0.099620 2.975170 -0.063470 
#    z 0.105280 -0.063470 3.429030 
# 
# 
# High freq. dielectric constant tensor:
#      x y z
#    x 1.675560 -0.015470 0.012980 
#    y -0.015470 1.665470 0.001300 
#    z 0.012980 0.001300 1.698230 
# 
# From -- ./inp_files/387276.got.cif
#   From: 2010.06.25/outbox.cif.g09.slc.cpg/sg2_194_cif.got.tgz:387276.got - 2010.06.27 13:26:56.
