data_PCOD8041528
_publ_section_title
;
Structure prediction by ZEFSAII (Michael W. Deem and Ramdas Pophale) SiO2 
 PCOD8041528
Probable space group: P -1
;
_chemical_formula_sum "Si O2"
_cell_formula_units_Z 14
_cell_length_a 25.094639
_cell_length_b 11.178119
_cell_length_c 25.381613
_cell_angle_alpha 32.434334
_cell_angle_beta 11.229025
_cell_angle_gamma 32.913662
_cell_volume 738.965762
_symmetry_space_group_name_H-M "P -1"
_symmetry_group_IT_number 2
_symmetry_cell_setting 'triclinic'
loop_
_space_group_symop_operation_xyz
x,y,z
-x,-y,-z
loop_
_atom_site_type_symbol
_atom_site_label
_atom_site_fract_x
_atom_site_fract_y
_atom_site_fract_z
Si Si1 0.674763 0.517406 0.270570
Si Si2 0.086747 0.239656 0.312123
Si Si3 0.974726 0.879045 0.894085
Si Si4 0.648505 0.369961 0.763780
Si Si5 0.566213 0.866368 0.691544
Si Si6 0.165796 0.060039 0.193393
Si Si7 0.600935 0.130220 0.662150
O O1 0.500000 0.500000 0.500000
O O2 0.473423 0.615544 0.382475
O O3 0.835830 0.271412 0.190678
O O4 0.902681 0.692595 0.990755
O O5 0.106017 0.250406 0.226081
O O6 0.848507 0.417036 0.502853
O O7 0.380418 0.268547 0.041104
O O8 0.000000 0.000000 0.500000
O O9 0.147331 0.061315 0.633005
O O10 0.688810 0.015149 0.141134
O O11 0.568540 0.600395 0.786448
O O12 0.809281 0.191660 0.713840
O O13 0.517028 0.947430 0.769202
O O14 0.925185 0.089158 0.373079
O O15 0.448912 0.099255 0.875964
#
# Coordination Sequence:
#
# PCOD8041528 Si02
#       7
#     2   2   2   2   2   2   2
#     4  10  19  34  57  78 110 153 187 225 273 320
#     4  10  20  39  61  78 102 147 206 241 256 305
#     4  10  19  33  53  79 112 140 192 230 253 328
#     4  11  22  38  60  80 112 154 192 224 266 330
#     4  11  22  35  53  86 118 150 183 215 281 340
#     4  11  22  36  55  84 114 148 181 234 279 312
#     4  11  22  33  54  86 122 139 177 227 284 350
#
# _framework density 18.945398000000001
#
# number of rings (size 3 to 8) (size 9 to 14) (size 15 to 20)
#    0.000    1.429    2.857    6.857    2.000    1.143 
#    0.000    0.000    0.000    0.000    0.000   20.000 
#    0.000    0.000    0.000    0.000    0.000    0.000 
#
# Total GULP energy -173506.395601 kJ/mol
# GULP energy per Si atom -12393.313972 kJ/mol
# Density = 1.890228 g / cm^3
# Si number density = 18.945398 Si / 1000 Ang^3
#
#
#
# Elastic Constant Matrix: (Units=GPa)
#
#
# Indices 1 2 3 4 5 6 
#
# 1 69.1877 45.5700 20.5780 2.6950 -5.1140 -1.6132
# 2 45.5700 70.7567 22.9195 9.9516 -11.4576 -19.8599
# 3 20.5780 22.9195 93.1342 7.1254 -9.8487 -5.0735
# 4 2.6950 9.9516 7.1254 30.3510 -4.0375 -0.3211
# 5 -5.1140 -11.4576 -9.8487 -4.0375 32.0511 9.0621
# 6 -1.6132 -19.8599 -5.0735 -0.3211 9.0621 18.8187
#
#
#
# Elastic Compliance Matrix: (Units=1/GPa)
#
#
# Indices 1 2 3 4 5 6 
#
# 1 0.035030 -0.031543 -0.001939 0.007863 0.003914 -0.032559
# 2 -0.031543 0.051061 -0.002136 -0.013406 -0.003900 0.052255
# 3 -0.001939 -0.002136 0.012062 -0.001625 0.002549 -0.000424
# 4 0.007863 -0.013406 -0.001625 0.037544 0.005146 -0.015749
# 5 0.003914 -0.003900 0.002549 0.005146 0.037867 -0.021240
# 6 -0.032559 0.052255 -0.000424 -0.015749 -0.021240 0.115339
#
#
# Mechanical properties :
#
#
# Convention : Reuss Voigt Hill
#
# Bulk Modulus (GPa) = 37.15242 45.69039 41.42140
# Shear Modulus (GPa) = 13.54603 25.84490 19.69546
#
# Velocity S-wave (km/s) = 2.67686 3.69749 3.22777
# Velocity P-wave (km/s) = 5.40434 6.51136 5.98351
#
# Compressibility (1/GPa) = 0.02691615
#
# Stress axis : x y z
#
# Youngs Moduli (GPa) = 28.54729 19.58445 82.90510
#
# Poissons Ratio (x) = 0.61776 0.16073
# Poissons Ratio (y) = 0.90047 0.17711
# Poissons Ratio (z) = 0.05534 0.04184
#
# Static dielectric constant tensor:
#      x y z
#    x 3.417360 -0.052160 0.072720 
#    y -0.052160 3.655830 0.347250 
#    z 0.072720 0.347250 3.779120 
# 
# 
# High freq. dielectric constant tensor:
#      x y z
#    x 1.695250 -0.014840 -0.005750 
#    y -0.014840 1.723320 0.016760 
#    z -0.005750 0.016760 1.763320 
# 
# From -- ./inp_files/530605.got.cif
#   From: 2010.06.25/outbox.cif.g09.slc.cpg/sg2_266_cif.got.tgz:530605.got - 2010.06.27 13:26:56.
