data_PCOD8041113
_publ_section_title
;
Structure prediction by ZEFSAII (Michael W. Deem and Ramdas Pophale) SiO2 
 PCOD8041113
Probable space group: P -1
;
_chemical_formula_sum "Si O2"
_cell_formula_units_Z 12
_cell_length_a 10.557932
_cell_length_b 15.752829
_cell_length_c 9.018439
_cell_angle_alpha 55.609688
_cell_angle_beta 133.403811
_cell_angle_gamma 147.394646
_cell_volume 586.827773
_symmetry_space_group_name_H-M "P -1"
_symmetry_group_IT_number 2
_symmetry_cell_setting 'triclinic'
loop_
_space_group_symop_operation_xyz
x,y,z
-x,-y,-z
loop_
_atom_site_type_symbol
_atom_site_label
_atom_site_fract_x
_atom_site_fract_y
_atom_site_fract_z
Si Si1 0.369176 0.354357 0.440672
Si Si2 0.604306 0.253568 0.710424
Si Si3 0.020070 0.752526 0.014086
Si Si4 0.484175 0.898515 0.926122
Si Si5 0.123070 0.943482 0.157016
Si Si6 0.862368 0.084288 0.463162
O O1 0.500000 0.500000 0.500000
O O2 0.598563 0.374153 0.558430
O O3 0.154494 0.192052 0.524423
O O4 0.237031 0.349623 0.195962
O O5 0.883065 0.323775 0.810795
O O6 0.350309 0.097503 0.570200
O O7 0.574341 0.222897 0.893909
O O8 0.955384 0.782285 0.087575
O O9 0.286730 0.925726 0.985443
O O10 0.210952 0.837084 0.738837
O O11 0.590271 0.912490 0.834915
O O12 0.139481 0.908188 0.369214
O O13 0.000000 0.000000 0.000000
#
# Coordination Sequence:
#
# PCOD8041113 Si02
#       6
#     2   2   2   2   2   2
#     4  12  24  36  56  82 110 148 190 223 267 327
#     4  11  19  36  62  79 110 144 178 237 274 311
#     4   9  20  37  52  84 115 134 183 225 276 319
#     4   9  18  33  57  85 111 135 178 232 273 315
#     4  10  19  30  55  89 114 136 175 232 278 321
#     4  11  18  36  57  85 111 140 184 225 270 332
#
# _framework density 20.448930000000001
#
# number of rings (size 3 to 8) (size 9 to 14) (size 15 to 20)
#    1.000    0.667    3.333    4.000    0.000    0.667 
#    0.000    0.833    0.000    1.000    0.000    0.000 
#    0.000    0.000    0.000    0.000    0.000    0.000 
#
# Total GULP energy -148680.489821 kJ/mol
# GULP energy per Si atom -12390.040818 kJ/mol
# Density = 2.040239 g / cm^3
# Si number density = 20.448930 Si / 1000 Ang^3
#
#
#
# Elastic Constant Matrix: (Units=GPa)
#
#
# Indices 1 2 3 4 5 6 
#
# 1 106.1943 19.6828 58.0854 -0.7130 12.5342 -33.9846
# 2 19.6828 42.9292 39.8948 5.3664 8.9661 -28.5949
# 3 58.0854 39.8948 136.4989 10.8315 7.6648 -28.9510
# 4 -0.7130 5.3664 10.8315 13.0948 -11.9368 -1.0835
# 5 12.5342 8.9661 7.6648 -11.9368 51.4260 -10.1131
# 6 -33.9846 -28.5949 -28.9510 -1.0835 -10.1131 29.8531
#
#
#
# Elastic Compliance Matrix: (Units=1/GPa)
#
#
# Indices 1 2 3 4 5 6 
#
# 1 0.022583 0.024750 -0.008109 0.001044 -0.000203 0.041521
# 2 0.024750 0.103410 -0.015212 -0.024884 -0.006031 0.109529
# 3 -0.008109 -0.015212 0.013464 -0.007566 -0.001394 -0.011492
# 4 0.001044 -0.024884 -0.007566 0.118639 0.029677 -0.015625
# 5 -0.000203 -0.006031 -0.001394 0.029677 0.028292 0.003301
# 6 0.041521 0.109529 -0.011492 -0.015625 0.003301 0.175084
#
#
# Mechanical properties :
#
#
# Convention : Reuss Voigt Hill
#
# Bulk Modulus (GPa) = 7.02661 57.88316 32.45488
# Shear Modulus (GPa) = 9.88040 30.07207 19.97623
#
# Velocity S-wave (km/s) = 2.20051 3.83899 3.12891
# Velocity P-wave (km/s) = 3.14642 6.92951 5.38136
#
# Compressibility (1/GPa) = 0.14231622
#
# Stress axis : x y z
#
# Youngs Moduli (GPa) = 44.28037 9.67028 74.27200
#
# Poissons Ratio (x) = -0.23934 0.60225
# Poissons Ratio (y) = -1.09595 1.12982
# Poissons Ratio (z) = 0.35906 0.14710
#
# Static dielectric constant tensor:
#      x y z
#    x 4.276120 -0.195180 -0.353350 
#    y -0.195180 3.015730 0.113420 
#    z -0.353350 0.113420 4.394740 
# 
# 
# High freq. dielectric constant tensor:
#      x y z
#    x 1.811160 -0.025350 0.009660 
#    y -0.025350 1.727280 0.007960 
#    z 0.009660 0.007960 1.811230 
# 
# From -- ./inp_files/151649.got.cif
#   From: 2010.06.25/outbox.cif.g09.slc.cpg/sg2_76_cif.got.tgz:151649.got - 2010.06.27 13:26:56.
