data_PCOD8041694
_publ_section_title
;
Structure prediction by ZEFSAII (Michael W. Deem and Ramdas Pophale) SiO2 
 PCOD8041694
Probable space group: P -1
;
_chemical_formula_sum "Si O2"
_cell_formula_units_Z 16
_cell_length_a 7.306928
_cell_length_b 16.868999
_cell_length_c 12.757508
_cell_angle_alpha 59.045018
_cell_angle_beta 69.533346
_cell_angle_gamma 34.512825
_cell_volume 755.109070
_symmetry_space_group_name_H-M "P -1"
_symmetry_group_IT_number 2
_symmetry_cell_setting 'triclinic'
loop_
_space_group_symop_operation_xyz
x,y,z
-x,-y,-z
loop_
_atom_site_type_symbol
_atom_site_label
_atom_site_fract_x
_atom_site_fract_y
_atom_site_fract_z
Si Si1 0.421724 0.590853 0.103724
Si Si2 0.769885 0.155787 0.501932
Si Si3 0.440930 0.128951 0.137581
Si Si4 0.913042 0.439082 0.935444
Si Si5 0.927380 0.926009 0.018964
Si Si6 0.665939 0.695520 0.689709
Si Si7 0.017939 0.731397 0.688001
Si Si8 0.941102 0.041738 0.235766
O O1 0.172486 0.621095 0.069461
O O2 0.633806 0.447350 0.236865
O O3 0.655307 0.557027 0.999472
O O4 0.216956 0.743175 0.108020
O O5 0.407061 0.290145 0.430093
O O6 0.924052 0.199343 0.437574
O O7 0.000000 0.000000 0.500000
O O8 0.772850 0.119578 0.646406
O O9 0.738490 0.042024 0.212598
O O10 0.171982 0.173403 0.228585
O O11 0.266267 0.288799 0.020111
O O12 0.596285 0.015614 0.083165
O O13 0.926504 0.522088 0.798787
O O14 0.887812 0.950734 0.883566
O O15 0.000000 0.000000 0.000000
O O16 0.315811 0.808015 0.739110
O O17 0.796835 0.748110 0.649699
#
# Coordination Sequence:
#
# PCOD8041694 Si02
#       8
#     2   2   2   2   2   2   2   2
#     4  10  20  34  59  84 123 153 191 250 291 353
#     4  10  21  37  58  87 120 154 193 250 291 342
#     4   9  21  33  56  89 119 150 189 240 297 353
#     4  10  19  33  56  89 120 145 194 249 300 338
#     4  10  20  36  55  88 119 159 191 231 307 352
#     4  10  19  33  58  87 116 149 193 248 292 341
#     4  10  21  36  60  94 113 151 201 244 297 340
#     4   9  19  34  56  82 123 152 191 234 291 351
#
# _framework density 21.188993
#
# number of rings (size 3 to 8) (size 9 to 14) (size 15 to 20)
#    0.000    2.250    2.500    0.000    3.500    6.500 
#    0.000    0.000    0.000    3.750    6.500    0.000 
#    0.000    0.000    0.000    0.000    0.000    0.000 
#
# Total GULP energy -198283.846111 kJ/mol
# GULP energy per Si atom -12392.740382 kJ/mol
# Density = 2.114077 g / cm^3
# Si number density = 21.188993 Si / 1000 Ang^3
#
#
#
# Elastic Constant Matrix: (Units=GPa)
#
#
# Indices 1 2 3 4 5 6 
#
# 1 56.3106 18.5423 22.0710 -3.0502 3.1935 1.5708
# 2 18.5423 109.5956 30.8248 -1.4340 -4.9521 4.4165
# 3 22.0710 30.8248 124.4088 -14.9009 16.2467 -7.8827
# 4 -3.0502 -1.4340 -14.9009 23.1051 2.0330 -4.0240
# 5 3.1935 -4.9521 16.2467 2.0330 28.7864 -4.9482
# 6 1.5708 4.4165 -7.8827 -4.0240 -4.9482 16.0112
#
#
#
# Elastic Compliance Matrix: (Units=1/GPa)
#
#
# Indices 1 2 3 4 5 6 
#
# 1 0.019897 -0.002499 -0.002878 0.000211 -0.001562 -0.003109
# 2 -0.002499 0.010741 -0.003251 -0.002751 0.003478 -0.003935
# 3 -0.002878 -0.003251 0.011668 0.008744 -0.006205 0.007204
# 4 0.000211 -0.002751 0.008744 0.052154 -0.006331 0.016194
# 5 -0.001562 0.003478 -0.006205 -0.006331 0.040683 0.007121
# 6 -0.003109 -0.003935 0.007204 0.016194 0.007121 0.073664
#
#
# Mechanical properties :
#
#
# Convention : Reuss Voigt Hill
#
# Bulk Modulus (GPa) = 39.92183 48.13236 44.02709
# Shear Modulus (GPa) = 21.32976 28.17233 24.75105
#
# Velocity S-wave (km/s) = 3.17621 3.65029 3.42147
# Velocity P-wave (km/s) = 5.68619 6.36641 6.03589
#
# Compressibility (1/GPa) = 0.02504895
#
# Stress axis : x y z
#
# Youngs Moduli (GPa) = 50.26007 93.09762 85.70346
#
# Poissons Ratio (x) = 0.23267 0.24668
# Poissons Ratio (y) = 0.12561 0.27863
# Poissons Ratio (z) = 0.14466 0.30267
#
# Static dielectric constant tensor:
#      x y z
#    x 3.689480 -0.064760 0.305350 
#    y -0.064760 3.878170 0.116200 
#    z 0.305350 0.116200 4.381610 
# 
# 
# High freq. dielectric constant tensor:
#      x y z
#    x 1.823290 0.006420 0.014050 
#    y 0.006420 1.796370 -0.020480 
#    z 0.014050 -0.020480 1.824810 
# 
# From -- ./inp_files/402014.got.cif
#   From: 2010.06.25/outbox.cif.g09.slc.cpg/sg2_202_cif.got.tgz:402014.got - 2010.06.27 13:26:56.
