data_PCOD8041737
_publ_section_title
;
Structure prediction by ZEFSAII (Michael W. Deem and Ramdas Pophale) SiO2 
 PCOD8041737
Probable space group: P -1
;
_chemical_formula_sum "Si O2"
_cell_formula_units_Z 12
_cell_length_a 11.708191
_cell_length_b 11.169647
_cell_length_c 11.992305
_cell_angle_alpha 36.165115
_cell_angle_beta 141.770991
_cell_angle_gamma 142.587003
_cell_volume 514.723665
_symmetry_space_group_name_H-M "P -1"
_symmetry_group_IT_number 2
_symmetry_cell_setting 'triclinic'
loop_
_space_group_symop_operation_xyz
x,y,z
-x,-y,-z
loop_
_atom_site_type_symbol
_atom_site_label
_atom_site_fract_x
_atom_site_fract_y
_atom_site_fract_z
Si Si1 0.367305 0.736552 0.596012
Si Si2 0.957850 0.748697 0.688769
Si Si3 0.702510 0.599774 0.396659
Si Si4 0.007767 0.824824 0.287005
Si Si5 0.730628 0.679343 0.981616
Si Si6 0.731358 0.450549 0.934193
O O1 0.351353 0.633513 0.536546
O O2 0.148571 0.694447 0.510196
O O3 0.493439 0.642818 0.844182
O O4 0.500000 0.000000 0.500000
O O5 0.787514 0.578371 0.599535
O O6 0.860422 0.676768 0.790880
O O7 0.000000 0.000000 0.500000
O O8 0.172437 0.727715 0.868655
O O9 0.504790 0.652721 0.211662
O O10 0.888177 0.814045 0.317941
O O11 0.131873 0.073140 0.149666
O O12 0.826411 0.662239 0.186019
O O13 0.743121 0.506631 0.031704
#
# Coordination Sequence:
#
# PCOD8041737 Si02
#       6
#     2   2   2   2   2   2
#     4   9  19  34  54  82 117 154 190 233 289 353
#     4  11  24  43  65  87 117 159 206 253 302 354
#     4  11  22  37  60  89 121 158 200 247 301 357
#     4  10  19  33  57  87 120 157 196 238 296 358
#     4   9  19  36  55  83 120 157 197 243 293 353
#     4  10  23  42  62  87 121 157 202 254 300 352
#
# _framework density 23.313479000000001
#
# number of rings (size 3 to 8) (size 9 to 14) (size 15 to 20)
#    0.000    2.000    0.000    3.000    0.000    4.667 
#    0.000    8.333    0.000    0.000    0.000    0.000 
#    0.000    0.000    0.000    0.000    0.000    0.000 
#
# Total GULP energy -148769.829085 kJ/mol
# GULP energy per Si atom -12397.485757 kJ/mol
# Density = 2.326042 g / cm^3
# Si number density = 23.313479 Si / 1000 Ang^3
#
#
#
# Elastic Constant Matrix: (Units=GPa)
#
#
# Indices 1 2 3 4 5 6 
#
# 1 119.3981 11.0028 58.1909 10.3275 25.4233 19.9928
# 2 11.0028 79.8687 34.4903 2.8136 15.9973 10.3290
# 3 58.1909 34.4903 136.1699 0.2205 24.1930 12.5493
# 4 10.3275 2.8136 0.2205 42.3292 3.1680 3.3787
# 5 25.4233 15.9973 24.1930 3.1680 47.8738 16.5501
# 6 19.9928 10.3290 12.5493 3.3787 16.5501 35.2269
#
#
#
# Elastic Compliance Matrix: (Units=1/GPa)
#
#
# Indices 1 2 3 4 5 6 
#
# 1 0.012003 0.001544 -0.004614 -0.002464 -0.003025 -0.003964
# 2 0.001544 0.014839 -0.003655 -0.000924 -0.003037 -0.002410
# 3 -0.004614 -0.003655 0.010525 0.001404 -0.001998 0.000745
# 4 -0.002464 -0.000924 0.001404 0.024386 -0.000360 -0.001000
# 5 -0.003025 -0.003037 -0.001998 -0.000360 0.027918 -0.009763
# 6 -0.003964 -0.002410 0.000745 -0.001000 -0.009763 0.035761
#
#
# Mechanical properties :
#
#
# Convention : Reuss Voigt Hill
#
# Bulk Modulus (GPa) = 41.81073 60.31163 51.06118
# Shear Modulus (GPa) = 34.04758 40.53617 37.29188
#
# Velocity S-wave (km/s) = 3.82570 4.17435 4.00382
# Velocity P-wave (km/s) = 6.12272 7.01139 6.58207
#
# Compressibility (1/GPa) = 0.02391730
#
# Stress axis : x y z
#
# Youngs Moduli (GPa) = 83.31593 67.39090 95.01021
#
# Poissons Ratio (x) = -0.10406 0.43833
# Poissons Ratio (y) = -0.12865 0.34728
# Poissons Ratio (z) = 0.38438 0.24633
#
# Static dielectric constant tensor:
#      x y z
#    x 4.258900 0.205050 0.283360 
#    y 0.205050 4.400910 0.406470 
#    z 0.283360 0.406470 4.667750 
# 
# 
# High freq. dielectric constant tensor:
#      x y z
#    x 1.923240 0.021300 0.005730 
#    y 0.021300 1.934620 0.008130 
#    z 0.005730 0.008130 1.939370 
# 
# From -- ./inp_files/226747.got.cif
#   From: 2010.06.25/outbox.cif.g09.slc.cpg/sg2_114_cif.got.tgz:226747.got - 2010.06.27 13:26:56.
