data_PCOD8041928
_publ_section_title
;
Structure prediction by ZEFSAII (Michael W. Deem and Ramdas Pophale) SiO2 
 PCOD8041928
Probable space group: P -1
;
_chemical_formula_sum "Si O2"
_cell_formula_units_Z 16
_cell_length_a 20.443342
_cell_length_b 9.384901
_cell_length_c 9.540619
_cell_angle_alpha 30.713150
_cell_angle_beta 60.321805
_cell_angle_gamma 64.457375
_cell_volume 812.184386
_symmetry_space_group_name_H-M "P -1"
_symmetry_group_IT_number 2
_symmetry_cell_setting 'triclinic'
loop_
_space_group_symop_operation_xyz
x,y,z
-x,-y,-z
loop_
_atom_site_type_symbol
_atom_site_label
_atom_site_fract_x
_atom_site_fract_y
_atom_site_fract_z
Si Si1 0.239947 0.167495 0.028908
Si Si2 0.088273 0.495963 0.429381
Si Si3 0.421301 0.775642 0.543412
Si Si4 0.163882 0.077492 0.902293
Si Si5 0.796158 0.609157 0.830666
Si Si6 0.276365 0.964100 0.648322
Si Si7 0.660119 0.326022 0.569697
Si Si8 0.490932 0.798117 0.048404
O O1 0.179437 0.154943 0.980267
O O2 0.193907 0.273351 0.123453
O O3 0.271784 0.859657 0.286263
O O4 0.310266 0.362942 0.749443
O O5 0.125362 0.370861 0.353734
O O6 0.000000 0.500000 0.500000
O O7 0.118026 0.798002 0.176131
O O8 0.110423 0.311764 0.694863
O O9 0.370982 0.797751 0.437456
O O10 0.451234 0.462079 0.792816
O O11 0.364256 0.869174 0.649338
O O12 0.488905 0.002495 0.273643
O O13 0.244832 0.054703 0.757032
O O14 0.732094 0.780012 0.668187
O O15 0.772152 0.290793 0.143050
O O16 0.593120 0.325448 0.757861
O O17 0.500000 0.000000 0.000000
#
# Coordination Sequence:
#
# PCOD8041928 Si02
#       8
#     2   2   2   2   2   2   2   2
#     4  12  20  35  55  81 113 141 177 229 270 321
#     4  10  21  41  62  82 112 145 176 214 262 323
#     4  11  17  31  51  74 105 138 190 229 270 311
#     4  10  23  37  58  86 111 140 181 217 270 322
#     4  10  19  34  56  83 106 141 183 218 263 317
#     4  10  19  34  54  78 106 142 185 230 264 311
#     4  11  20  31  51  76 112 144 176 224 290 308
#     4  10  20  29  45  77 109 138 181 234 273 320
#
# _framework density 19.699960000000001
#
# number of rings (size 3 to 8) (size 9 to 14) (size 15 to 20)
#    0.000    1.500    2.500    5.625    0.000    0.000 
#    0.000    1.250    0.000    4.500    0.000    0.000 
#    0.000    0.000    0.000    0.000    0.000    0.000 
#
# Total GULP energy -198379.362474 kJ/mol
# GULP energy per Si atom -12398.710155 kJ/mol
# Density = 1.965512 g / cm^3
# Si number density = 19.699960 Si / 1000 Ang^3
#
#
#
# Elastic Constant Matrix: (Units=GPa)
#
#
# Indices 1 2 3 4 5 6 
#
# 1 61.7141 38.3861 17.1726 4.0706 3.7342 -2.2805
# 2 38.3861 90.3462 22.8808 1.7409 7.6327 -6.8806
# 3 17.1726 22.8808 97.6598 -14.4312 3.9995 1.1766
# 4 4.0706 1.7409 -14.4312 26.7201 -7.4222 6.7409
# 5 3.7342 7.6327 3.9995 -7.4222 27.4340 2.5788
# 6 -2.2805 -6.8806 1.1766 6.7409 2.5788 32.1341
#
#
#
# Elastic Compliance Matrix: (Units=1/GPa)
#
#
# Indices 1 2 3 4 5 6 
#
# 1 0.022844 -0.008696 -0.002677 -0.005127 -0.001788 0.001076
# 2 -0.008696 0.016147 -0.002619 -0.003307 -0.004195 0.003967
# 3 -0.002677 -0.002619 0.012570 0.008704 0.001915 -0.003191
# 4 -0.005127 -0.003307 0.008704 0.050723 0.015319 -0.013261
# 5 -0.001788 -0.004195 0.001915 0.015319 0.042452 -0.007715
# 6 0.001076 0.003967 -0.003191 -0.013261 -0.007715 0.035563
#
#
# Mechanical properties :
#
#
# Convention : Reuss Voigt Hill
#
# Bulk Modulus (GPa) = 42.41352 45.17768 43.79560
# Shear Modulus (GPa) = 23.13306 28.67634 25.90470
#
# Velocity S-wave (km/s) = 3.43048 3.81944 3.63017
# Velocity P-wave (km/s) = 6.10470 6.51410 6.31272
#
# Compressibility (1/GPa) = 0.02357739
#
# Stress axis : x y z
#
# Youngs Moduli (GPa) = 43.77579 61.93249 79.55398
#
# Poissons Ratio (x) = 0.53856 0.21296
# Poissons Ratio (y) = 0.38067 0.20832
# Poissons Ratio (z) = 0.11718 0.16218
#
# Static dielectric constant tensor:
#      x y z
#    x 3.186110 -0.256320 -0.149350 
#    y -0.256320 3.696230 0.110290 
#    z -0.149350 0.110290 3.963570 
# 
# 
# High freq. dielectric constant tensor:
#      x y z
#    x 1.721270 -0.020160 -0.003550 
#    y -0.020160 1.762730 -0.007330 
#    z -0.003550 -0.007330 1.793240 
# 
# From -- ./inp_files/45307.got.cif
#   From: 2010.06.25/outbox.cif.g09.slc.cpg/sg2_23_cif.got.tgz:45307.got - 2010.06.27 13:26:56.
