data_PCOD8041465
_publ_section_title
;
Structure prediction by ZEFSAII (Michael W. Deem and Ramdas Pophale) SiO2 
 PCOD8041465
Probable space group: P -1
;
_chemical_formula_sum "Si O2"
_cell_formula_units_Z 16
_cell_length_a 8.821248
_cell_length_b 11.491742
_cell_length_c 15.570010
_cell_angle_alpha 28.988247
_cell_angle_beta 64.204978
_cell_angle_gamma 70.511801
_cell_volume 684.688566
_symmetry_space_group_name_H-M "P -1"
_symmetry_group_IT_number 2
_symmetry_cell_setting 'triclinic'
loop_
_space_group_symop_operation_xyz
x,y,z
-x,-y,-z
loop_
_atom_site_type_symbol
_atom_site_label
_atom_site_fract_x
_atom_site_fract_y
_atom_site_fract_z
Si Si1 0.369267 0.197514 0.486777
Si Si2 0.270019 0.731560 0.725123
Si Si3 0.341535 0.103432 0.882039
Si Si4 0.795429 0.437458 0.434881
Si Si5 0.306572 0.669614 0.284008
Si Si6 0.472670 0.964041 0.283582
Si Si7 0.311865 0.407353 0.078194
Si Si8 0.999974 0.722762 0.659045
O O1 0.539110 0.295847 0.331996
O O2 0.276575 0.426230 0.391582
O O3 0.410870 0.027567 0.666323
O O4 0.251654 0.014438 0.571553
O O5 0.142985 0.634031 0.744216
O O6 0.230682 0.559182 0.927196
O O7 0.207253 0.278188 0.767372
O O8 0.494268 0.263553 0.789543
O O9 0.413193 0.962305 0.874973
O O10 0.245233 0.898310 0.100064
O O11 0.807766 0.380057 0.570298
O O12 0.616264 0.307625 0.528877
O O13 0.953935 0.341369 0.408544
O O14 0.322001 0.135046 0.217870
O O15 0.186124 0.410253 0.188507
O O16 0.500000 0.500000 0.000000
O O17 0.000000 0.000000 0.500000
#
# Coordination Sequence:
#
# PCOD8041465 Si02
#       8
#     2   2   2   2   2   2   2   2
#     4  11  19  37  65  98 139 177 223 277 340 396
#     4  11  24  39  66 100 138 181 223 280 338 409
#     4  10  19  32  61  98 130 174 226 276 332 397
#     4  11  20  38  64  90 138 178 221 278 337 396
#     4  10  19  34  59  98 131 177 228 276 330 404
#     4  11  18  37  62  97 135 175 222 279 332 397
#     4  12  25  42  68 101 133 178 233 281 334 407
#     4  12  25  46  66  98 136 183 220 279 351 398
#
# _framework density 23.368289999999998
#
# number of rings (size 3 to 8) (size 9 to 14) (size 15 to 20)
#    0.000    1.000    6.250    1.875    1.750    2.000 
#    2.250    0.000    0.000    3.750    0.000    0.000 
#    0.000    0.000    0.000    0.000    0.000    0.000 
#
# Total GULP energy -198408.581067 kJ/mol
# GULP energy per Si atom -12400.536317 kJ/mol
# Density = 2.331510 g / cm^3
# Si number density = 23.368290 Si / 1000 Ang^3
#
#
#
# Elastic Constant Matrix: (Units=GPa)
#
#
# Indices 1 2 3 4 5 6 
#
# 1 42.5511 18.4725 28.5850 5.6983 -10.6058 -5.9913
# 2 18.4725 158.4533 67.1891 16.2433 -2.5265 -24.3079
# 3 28.5850 67.1891 148.7780 19.4518 22.3189 -21.5820
# 4 5.6983 16.2433 19.4518 39.5816 -2.5547 -1.0796
# 5 -10.6058 -2.5265 22.3189 -2.5547 27.0146 -4.2519
# 6 -5.9913 -24.3079 -21.5820 -1.0796 -4.2519 32.0471
#
#
#
# Elastic Compliance Matrix: (Units=1/GPa)
#
#
# Indices 1 2 3 4 5 6 
#
# 1 0.036611 0.001126 -0.010782 0.001220 0.024080 0.003674
# 2 0.001126 0.008908 -0.004175 -0.001288 0.005362 0.004823
# 3 -0.010782 -0.004175 0.014014 -0.004623 -0.016334 0.001932
# 4 0.001220 -0.001288 -0.004623 0.028254 0.006528 -0.002044
# 5 0.024080 0.005362 -0.016334 0.006528 0.062031 0.006019
# 6 0.003674 0.004823 0.001932 -0.002044 0.006019 0.037580
#
#
# Mechanical properties :
#
#
# Convention : Reuss Voigt Hill
#
# Bulk Modulus (GPa) = 31.37736 64.25285 47.81511
# Shear Modulus (GPa) = 22.15496 35.43106 28.79301
#
# Velocity S-wave (km/s) = 3.08243 3.89807 3.51399
# Velocity P-wave (km/s) = 5.11126 6.91486 6.08031
#
# Compressibility (1/GPa) = 0.03187011
#
# Stress axis : x y z
#
# Youngs Moduli (GPa) = 27.31434 112.26245 71.35960
#
# Poissons Ratio (x) = -0.12641 0.76937
# Poissons Ratio (y) = -0.03076 0.29796
# Poissons Ratio (z) = 0.29449 0.46875
#
# Static dielectric constant tensor:
#      x y z
#    x 3.794330 0.073740 0.170930 
#    y 0.073740 4.495050 0.037010 
#    z 0.170930 0.037010 4.341510 
# 
# 
# High freq. dielectric constant tensor:
#      x y z
#    x 1.883270 0.002540 0.017240 
#    y 0.002540 1.933090 0.005840 
#    z 0.017240 0.005840 1.929880 
# 
# From -- ./inp_files/499668.got.cif
#   From: 2010.06.25/outbox.cif.g09.slc.cpg/sg2_250_cif.got.tgz:499668.got - 2010.06.27 13:26:56.
