data_PCOD8041845
_publ_section_title
;
Structure prediction by ZEFSAII (Michael W. Deem and Ramdas Pophale) SiO2 
 PCOD8041845
Probable space group: P -1
;
_chemical_formula_sum "Si O2"
_cell_formula_units_Z 16
_cell_length_a 14.735622
_cell_length_b 9.317011
_cell_length_c 7.846883
_cell_angle_alpha 71.704610
_cell_angle_beta 108.418208
_cell_angle_gamma 133.224855
_cell_volume 737.347504
_symmetry_space_group_name_H-M "P -1"
_symmetry_group_IT_number 2
_symmetry_cell_setting 'triclinic'
loop_
_space_group_symop_operation_xyz
x,y,z
-x,-y,-z
loop_
_atom_site_type_symbol
_atom_site_label
_atom_site_fract_x
_atom_site_fract_y
_atom_site_fract_z
Si Si1 0.524005 0.884440 0.683223
Si Si2 0.842220 0.667064 0.572300
Si Si3 0.848585 0.192030 0.441612
Si Si4 0.559604 0.397963 0.552435
Si Si5 0.398757 0.983560 0.773331
Si Si6 0.931112 0.436523 0.716265
Si Si7 0.105013 0.001227 0.712717
Si Si8 0.755376 0.093170 0.963584
O O1 0.463497 0.677765 0.630418
O O2 0.500000 0.000000 0.500000
O O3 0.455365 0.872226 0.822117
O O4 0.668324 0.991545 0.780048
O O5 0.707899 0.560608 0.618044
O O6 0.850697 0.500516 0.583892
O O7 0.954877 0.820239 0.718277
O O8 0.861155 0.787401 0.366702
O O9 0.915499 0.284765 0.626873
O O10 0.857789 0.029864 0.440682
O O11 0.921489 0.364652 0.270086
O O12 0.704044 0.093515 0.407709
O O13 0.500000 0.500000 0.500000
O O14 0.502657 0.221977 0.721878
O O15 0.329348 0.918166 0.936784
O O16 0.877142 0.322653 0.906901
O O17 0.190571 0.014595 0.906530
#
# Coordination Sequence:
#
# PCOD8041845 Si02
#       8
#     2   2   2   2   2   2   2   2
#     4  10  21  37  59  83 116 156 192 238 291 349
#     4  10  20  38  59  84 114 155 197 233 293 352
#     4   9  18  34  57  86 114 153 197 235 288 350
#     4  11  21  36  61  85 113 158 201 235 287 363
#     4  10  20  35  55  85 120 150 189 245 295 341
#     4  10  19  33  61  86 113 152 200 244 280 347
#     4   9  21  38  61  83 117 154 191 247 295 344
#     4  11  21  37  60  92 120 151 199 248 297 339
#
# _framework density 21.699401999999999
#
# number of rings (size 3 to 8) (size 9 to 14) (size 15 to 20)
#    0.000    2.000    0.000    5.625    0.000    4.500 
#    0.000    2.500    0.000   30.750    0.000    0.000 
#    0.000    1.000    0.000    0.000    0.000    0.000 
#
# Total GULP energy -198225.839461 kJ/mol
# GULP energy per Si atom -12389.114966 kJ/mol
# Density = 2.165001 g / cm^3
# Si number density = 21.699402 Si / 1000 Ang^3
#
#
#
# Elastic Constant Matrix: (Units=GPa)
#
#
# Indices 1 2 3 4 5 6 
#
# 1 113.4461 45.4287 28.6981 -5.5579 15.1348 13.1962
# 2 45.4287 75.5547 25.8148 -11.7063 -1.3953 5.4595
# 3 28.6981 25.8148 94.4415 -12.2455 11.7449 0.0827
# 4 -5.5579 -11.7063 -12.2455 24.5948 9.3391 2.1605
# 5 15.1348 -1.3953 11.7449 9.3391 39.0831 -2.0864
# 6 13.1962 5.4595 0.0827 2.1605 -2.0864 46.2297
#
#
#
# Elastic Compliance Matrix: (Units=1/GPa)
#
#
# Indices 1 2 3 4 5 6 
#
# 1 0.013156 -0.007168 -0.001179 0.001340 -0.005488 -0.003217
# 2 -0.007168 0.019382 -0.002852 0.005036 0.003104 -0.000333
# 3 -0.001179 -0.002852 0.013295 0.007004 -0.005310 0.000083
# 4 0.001340 0.005036 0.007004 0.053036 -0.015340 -0.004161
# 5 -0.005488 0.003104 -0.005310 -0.015340 0.033267 0.003428
# 6 -0.003217 -0.000333 0.000083 -0.004161 0.003428 0.022938
#
#
# Mechanical properties :
#
#
# Convention : Reuss Voigt Hill
#
# Bulk Modulus (GPa) = 42.67555 53.70283 48.18919
# Shear Modulus (GPa) = 26.98570 34.21492 30.60031
#
# Velocity S-wave (km/s) = 3.53032 3.97516 3.75933
# Velocity P-wave (km/s) = 6.02718 6.77285 6.41087
#
# Compressibility (1/GPa) = 0.02343262
#
# Stress axis : x y z
#
# Youngs Moduli (GPa) = 76.01334 51.59502 75.21634
#
# Poissons Ratio (x) = 0.36985 0.08868
# Poissons Ratio (y) = 0.54489 0.21454
# Poissons Ratio (z) = 0.08962 0.14717
#
# Static dielectric constant tensor:
#      x y z
#    x 4.371380 0.183300 -0.008740 
#    y 0.183300 3.982090 0.081750 
#    z -0.008740 0.081750 3.681830 
# 
# 
# High freq. dielectric constant tensor:
#      x y z
#    x 1.867700 0.020360 0.007670 
#    y 0.020360 1.843870 0.000230 
#    z 0.007670 0.000230 1.820900 
# 
# From -- ./inp_files/297951.got.cif
#   From: 2010.06.25/outbox.cif.g09.slc.cpg/sg2_149_cif.got.tgz:297951.got - 2010.06.27 13:26:56.
