data_PCOD8041505
_publ_section_title
;
Structure prediction by ZEFSAII (Michael W. Deem and Ramdas Pophale) SiO2 
 PCOD8041505
Probable space group: P -1
;
_chemical_formula_sum "Si O2"
_cell_formula_units_Z 16
_cell_length_a 9.777645
_cell_length_b 10.548401
_cell_length_c 17.861784
_cell_angle_alpha 117.841192
_cell_angle_beta 146.142145
_cell_angle_gamma 62.770305
_cell_volume 898.428716
_symmetry_space_group_name_H-M "P -1"
_symmetry_group_IT_number 2
_symmetry_cell_setting 'triclinic'
loop_
_space_group_symop_operation_xyz
x,y,z
-x,-y,-z
loop_
_atom_site_type_symbol
_atom_site_label
_atom_site_fract_x
_atom_site_fract_y
_atom_site_fract_z
Si Si1 0.591279 0.470954 0.811582
Si Si2 0.955451 0.615244 0.109040
Si Si3 0.053906 0.226611 0.707296
Si Si4 0.626422 0.055007 0.460384
Si Si5 0.227125 0.071746 0.881974
Si Si6 0.845403 0.875807 0.652787
Si Si7 0.902000 0.352899 0.398914
Si Si8 0.261912 0.229662 0.644514
O O1 0.395026 0.612117 0.738000
O O2 0.451969 0.334713 0.730364
O O3 0.770773 0.434095 0.812272
O O4 0.760636 0.506416 0.968862
O O5 0.984094 0.630479 0.216577
O O6 0.845939 0.772803 0.067872
O O7 0.196006 0.092651 0.783355
O O8 0.213462 0.262027 0.718651
O O9 0.794408 0.178041 0.549320
O O10 0.352460 0.140526 0.376252
O O11 0.716508 0.965999 0.550334
O O12 0.619628 0.938471 0.358183
O O13 0.051977 0.962887 0.805347
O O14 0.500000 0.000000 0.000000
O O15 0.974005 0.718203 0.640344
O O16 0.000000 0.500000 0.500000
O O17 0.997665 0.251943 0.485626
#
# Coordination Sequence:
#
# PCOD8041505 Si02
#       8
#     2   2   2   2   2   2   2   2
#     4  10  19  35  53  73 102 135 181 204 239 299
#     4   9  20  33  53  76  98 138 175 208 240 296
#     4   9  20  32  51  79 103 131 164 207 264 300
#     4   9  17  29  52  73 103 125 166 211 251 305
#     4   9  17  31  52  75  97 130 169 208 244 299
#     4   9  16  28  50  77  93 131 168 208 249 286
#     4   9  19  29  51  76  99 130 171 209 243 294
#     4  10  19  33  52  78 103 134 161 211 263 300
#
# _framework density 17.808869999999999
#
# number of rings (size 3 to 8) (size 9 to 14) (size 15 to 20)
#    0.750    2.000    0.000    1.875    5.250    0.500 
#    0.000    0.625    0.000    4.500    0.000    0.000 
#    0.000    0.000    0.000    0.000    0.000    0.000 
#
# Total GULP energy -198223.618519 kJ/mol
# GULP energy per Si atom -12388.976157 kJ/mol
# Density = 1.776834 g / cm^3
# Si number density = 17.808870 Si / 1000 Ang^3
#
#
#
# Elastic Constant Matrix: (Units=GPa)
#
#
# Indices 1 2 3 4 5 6 
#
# 1 96.4836 26.2108 44.8479 -3.9238 2.9690 -26.8227
# 2 26.2108 67.5461 30.6551 -3.9245 3.4709 -31.5956
# 3 44.8479 30.6551 100.1203 1.4614 14.8535 -14.4494
# 4 -3.9238 -3.9245 1.4614 34.8109 -10.8405 1.8710
# 5 2.9690 3.4709 14.8535 -10.8405 19.8064 0.1026
# 6 -26.8227 -31.5956 -14.4494 1.8710 0.1026 31.2336
#
#
#
# Elastic Compliance Matrix: (Units=1/GPa)
#
#
# Indices 1 2 3 4 5 6 
#
# 1 0.016712 0.003407 -0.007056 0.002955 0.003732 0.014345
# 2 0.003407 0.031316 -0.006663 0.002587 0.000251 0.031367
# 3 -0.007056 -0.006663 0.016625 -0.006238 -0.013632 -0.004690
# 4 0.002955 0.002587 -0.006238 0.037119 0.024098 -0.000034
# 5 0.003732 0.000251 -0.013632 0.024098 0.073322 -0.004532
# 6 0.014345 0.031367 -0.004690 -0.000034 -0.004532 0.073914
#
#
# Mechanical properties :
#
#
# Convention : Reuss Voigt Hill
#
# Bulk Modulus (GPa) = 22.71149 51.95308 37.33228
# Shear Modulus (GPa) = 17.58658 27.99925 22.79292
#
# Velocity S-wave (km/s) = 3.14589 3.96941 3.58140
# Velocity P-wave (km/s) = 5.09667 7.08831 6.17334
#
# Compressibility (1/GPa) = 0.04403058
#
# Stress axis : x y z
#
# Youngs Moduli (GPa) = 59.83796 31.93246 60.14950
#
# Poissons Ratio (x) = -0.10880 0.42440
# Poissons Ratio (y) = -0.20388 0.40077
# Poissons Ratio (z) = 0.42220 0.21276
#
# Static dielectric constant tensor:
#      x y z
#    x 4.109900 1.709390 3.342440 
#    y 1.709390 7.226960 6.100180 
#    z 3.342440 6.100180 13.384310 
# 
# 
# High freq. dielectric constant tensor:
#      x y z
#    x 1.657090 -0.032840 0.011860 
#    y -0.032840 1.678190 0.013570 
#    z 0.011860 0.013570 1.690450 
# 
# From -- ./inp_files/253131.got.cif
#   From: 2010.06.25/outbox.cif.g09.slc.cpg/sg2_127_cif.got.tgz:253131.got - 2010.06.27 13:26:56.
