data_PCOD8041216
_publ_section_title
;
Structure prediction by ZEFSAII (Michael W. Deem and Ramdas Pophale) SiO2 
 PCOD8041216
Probable space group: P -1
;
_chemical_formula_sum "Si O2"
_cell_formula_units_Z 16
_cell_length_a 11.279435
_cell_length_b 17.304389
_cell_length_c 8.821283
_cell_angle_alpha 111.911842
_cell_angle_beta 55.951780
_cell_angle_gamma 145.333955
_cell_volume 797.390408
_symmetry_space_group_name_H-M "P -1"
_symmetry_group_IT_number 2
_symmetry_cell_setting 'triclinic'
loop_
_space_group_symop_operation_xyz
x,y,z
-x,-y,-z
loop_
_atom_site_type_symbol
_atom_site_label
_atom_site_fract_x
_atom_site_fract_y
_atom_site_fract_z
Si Si1 0.634071 0.835747 0.568062
Si Si2 0.963426 0.115524 0.690190
Si Si3 0.825929 0.665236 0.796198
Si Si4 0.622982 0.432085 0.941960
Si Si5 0.912261 0.080691 0.042648
Si Si6 0.627185 0.821223 0.220588
Si Si7 0.230965 0.390332 0.557311
Si Si8 0.232931 0.559359 0.831749
O O1 0.553144 0.813043 0.436921
O O2 0.412622 0.708907 0.738936
O O3 0.814943 0.843216 0.449783
O O4 0.748920 0.975301 0.645794
O O5 0.869322 0.089019 0.907224
O O6 0.045791 0.242590 0.661287
O O7 0.837305 0.584066 0.824120
O O8 0.805498 0.637520 0.614456
O O9 0.607210 0.620768 0.970267
O O10 0.054841 0.825045 0.799699
O O11 0.595451 0.330439 0.804550
O O12 0.651226 0.431801 0.099776
O O13 0.136344 0.123759 0.911503
O O14 0.677567 0.925723 0.158954
O O15 0.500000 0.500000 0.500000
O O16 0.164001 0.454525 0.687526
O O17 0.000000 0.500000 0.000000
#
# Coordination Sequence:
#
# PCOD8041216 Si02
#       8
#     2   2   2   2   2   2   2   2
#     4  10  19  35  56  87 118 155 195 242 296 343
#     4  10  19  32  60  88 118 148 195 250 293 343
#     4  10  19  31  56  84 113 140 191 248 288 335
#     4  10  19  33  54  81 111 150 189 239 291 336
#     4   9  17  28  47  84 117 142 177 237 303 338
#     4   9  17  29  50  77 115 148 184 232 289 347
#     4  12  21  36  59  87 115 152 200 246 289 340
#     4  12  25  40  57  85 124 162 196 237 294 359
#
# _framework density 20.065452000000001
#
# number of rings (size 3 to 8) (size 9 to 14) (size 15 to 20)
#    0.000    1.750    2.500    3.000    3.500    4.000 
#    0.000    3.125    0.000    0.000    0.000    5.250 
#    0.000    0.000    0.000    0.000    0.000    0.000 
#
# Total GULP energy -198363.339314 kJ/mol
# GULP energy per Si atom -12397.708707 kJ/mol
# Density = 2.001978 g / cm^3
# Si number density = 20.065452 Si / 1000 Ang^3
#
#
#
# Elastic Constant Matrix: (Units=GPa)
#
#
# Indices 1 2 3 4 5 6 
#
# 1 27.7088 36.5119 36.8067 -7.2433 15.9794 -14.7403
# 2 36.5119 168.7576 70.3364 9.5420 18.0570 -30.8691
# 3 36.8067 70.3364 117.9400 8.2381 33.0360 -6.7417
# 4 -7.2433 9.5420 8.2381 43.7346 -2.7266 13.4913
# 5 15.9794 18.0570 33.0360 -2.7266 42.5344 -4.4942
# 6 -14.7403 -30.8691 -6.7417 13.4913 -4.4942 24.3383
#
#
#
# Elastic Compliance Matrix: (Units=1/GPa)
#
#
# Indices 1 2 3 4 5 6 
#
# 1 0.113264 -0.002845 -0.027349 0.008134 -0.014269 0.050270
# 2 -0.002845 0.011867 -0.005147 -0.006943 0.001273 0.015986
# 3 -0.027349 -0.005147 0.020883 -0.002451 -0.005714 -0.017003
# 4 0.008134 -0.006943 -0.002451 0.033297 0.001528 -0.022734
# 5 -0.014269 0.001273 -0.005714 0.001528 0.032502 -0.003456
# 6 0.050270 0.015986 -0.017003 -0.022734 -0.003456 0.099063
#
#
# Mechanical properties :
#
#
# Convention : Reuss Voigt Hill
#
# Bulk Modulus (GPa) = 13.27436 66.85737 40.06587
# Shear Modulus (GPa) = 12.29508 33.50489 22.89999
#
# Velocity S-wave (km/s) = 2.47806 4.09073 3.38193
# Velocity P-wave (km/s) = 3.84937 7.46351 5.93808
#
# Compressibility (1/GPa) = 0.07533317
#
# Stress axis : x y z
#
# Youngs Moduli (GPa) = 8.82897 84.26735 47.88521
#
# Poissons Ratio (x) = 0.23971 1.30959
# Poissons Ratio (y) = 0.02511 0.24647
# Poissons Ratio (z) = 0.24146 0.43373
#
# Static dielectric constant tensor:
#      x y z
#    x 3.271980 -0.292940 0.330080 
#    y -0.292940 4.028330 0.164950 
#    z 0.330080 0.164950 3.599610 
# 
# 
# High freq. dielectric constant tensor:
#      x y z
#    x 1.735330 -0.023510 0.040900 
#    y -0.023510 1.803090 0.014430 
#    z 0.040900 0.014430 1.775920 
# 
# From -- ./inp_files/182372.got.cif
#   From: 2010.06.25/outbox.cif.g09.slc.cpg/sg2_92_cif.got.tgz:182372.got - 2010.06.27 13:26:56.
