data_PCOD8041318
_publ_section_title
;
Structure prediction by ZEFSAII (Michael W. Deem and Ramdas Pophale) SiO2 
 PCOD8041318
Probable space group: P -1
;
_chemical_formula_sum "Si O2"
_cell_formula_units_Z 16
_cell_length_a 12.434233
_cell_length_b 27.179276
_cell_length_c 11.832828
_cell_angle_alpha 37.356666
_cell_angle_beta 34.586632
_cell_angle_gamma 20.272328
_cell_volume 781.308115
_symmetry_space_group_name_H-M "P -1"
_symmetry_group_IT_number 2
_symmetry_cell_setting 'triclinic'
loop_
_space_group_symop_operation_xyz
x,y,z
-x,-y,-z
loop_
_atom_site_type_symbol
_atom_site_label
_atom_site_fract_x
_atom_site_fract_y
_atom_site_fract_z
Si Si1 0.614176 0.581053 0.956286
Si Si2 0.027039 0.579628 0.611689
Si Si3 0.745201 0.730956 0.120555
Si Si4 0.817938 0.821666 0.447605
Si Si5 0.527131 0.581731 0.284174
Si Si6 0.722916 0.863270 0.706108
Si Si7 0.217269 0.665081 0.957145
Si Si8 0.396773 0.689616 0.537526
O O1 0.259028 0.687877 0.006122
O O2 0.680180 0.654119 0.759208
O O3 0.909852 0.434447 0.901104
O O4 0.644810 0.536836 0.136200
O O5 0.206655 0.472300 0.761522
O O6 0.280835 0.478715 0.470454
O O7 0.920069 0.709736 0.485219
O O8 0.468115 0.761335 0.335784
O O9 0.624461 0.825859 0.944516
O O10 0.846349 0.757005 0.089069
O O11 0.689568 0.840311 0.649088
O O12 0.160952 0.753005 0.292991
O O13 0.544160 0.970717 0.347363
O O14 0.500000 0.500000 0.500000
O O15 0.091157 0.770283 0.575050
O O16 0.294099 0.708640 0.720137
O O17 0.500000 0.500000 0.000000
#
# Coordination Sequence:
#
# PCOD8041318 Si02
#       8
#     2   2   2   2   2   2   2   2
#     4  10  20  34  54  88 114 140 187 236 279 328
#     4  10  20  33  58  85 114 145 180 236 280 337
#     4   9  19  35  59  81 111 150 187 232 278 331
#     4  10  21  35  55  84 114 151 187 225 284 335
#     4  10  19  32  53  80 113 146 175 223 283 335
#     4  10  20  39  56  81 119 151 186 230 275 344
#     4   9  20  33  56  88 115 143 185 241 278 327
#     4  10  20  37  60  84 114 147 191 231 284 325
#
# _framework density 20.478476000000001
#
# number of rings (size 3 to 8) (size 9 to 14) (size 15 to 20)
#    0.000    2.250    1.250    1.875    8.750    5.500 
#    2.250    1.250    0.000    6.000    0.000    0.000 
#    0.000    0.000    0.000    0.000    0.000    0.000 
#
# Total GULP energy -198226.496312 kJ/mol
# GULP energy per Si atom -12389.156020 kJ/mol
# Density = 2.043187 g / cm^3
# Si number density = 20.478476 Si / 1000 Ang^3
#
#
#
# Elastic Constant Matrix: (Units=GPa)
#
#
# Indices 1 2 3 4 5 6 
#
# 1 57.3560 6.0236 17.3585 -3.3771 -6.9219 -2.2795
# 2 6.0236 57.6217 19.2438 -8.4582 -18.6158 2.1381
# 3 17.3585 19.2438 94.7704 -8.2048 -15.8083 -6.8106
# 4 -3.3771 -8.4582 -8.2048 20.8600 -0.2344 2.1615
# 5 -6.9219 -18.6158 -15.8083 -0.2344 25.0025 0.3006
# 6 -2.2795 2.1381 -6.8106 2.1615 0.3006 16.1380
#
#
#
# Elastic Compliance Matrix: (Units=1/GPa)
#
#
# Indices 1 2 3 4 5 6 
#
# 1 0.018821 0.000430 -0.002623 0.002115 0.003878 0.001139
# 2 0.000430 0.025532 -0.001731 0.010548 0.018204 -0.005804
# 3 -0.002623 -0.001731 0.013077 0.003592 0.006230 0.004781
# 4 0.002115 0.010548 0.003592 0.054838 0.011310 -0.007138
# 5 0.003878 0.018204 0.006230 0.011310 0.058691 -0.001843
# 6 0.001139 -0.005804 0.004781 -0.007138 -0.001843 0.065903
#
#
# Mechanical properties :
#
#
# Convention : Reuss Voigt Hill
#
# Bulk Modulus (GPa) = 20.16799 32.77779 26.47289
# Shear Modulus (GPa) = 19.13964 23.54158 21.34061
#
# Velocity S-wave (km/s) = 3.06048 3.39422 3.23166
# Velocity P-wave (km/s) = 4.72847 5.60372 5.18460
#
# Compressibility (1/GPa) = 0.04958351
#
# Stress axis : x y z
#
# Youngs Moduli (GPa) = 53.13079 39.16602 76.46801
#
# Poissons Ratio (x) = -0.01682 0.20055
# Poissons Ratio (y) = -0.02282 0.13234
# Poissons Ratio (z) = 0.13935 0.06778
#
# Static dielectric constant tensor:
#      x y z
#    x 6.155140 -1.046910 -0.171920 
#    y -1.046910 3.786270 0.082280 
#    z -0.171920 0.082280 3.708190 
# 
# 
# High freq. dielectric constant tensor:
#      x y z
#    x 1.807710 -0.019350 0.001200 
#    y -0.019350 1.755800 0.001240 
#    z 0.001200 0.001240 1.794360 
# 
# From -- ./inp_files/439569.got.cif
#   From: 2010.06.25/outbox.cif.g09.slc.cpg/sg2_220_cif.got.tgz:439569.got - 2010.06.27 13:26:56.
