data_PCOD8041531
_publ_section_title
;
Structure prediction by ZEFSAII (Michael W. Deem and Ramdas Pophale) SiO2 
 PCOD8041531
Probable space group: P -1
;
_chemical_formula_sum "Si O2"
_cell_formula_units_Z 16
_cell_length_a 23.317688
_cell_length_b 14.599148
_cell_length_c 11.461943
_cell_angle_alpha 49.834102
_cell_angle_beta 150.409087
_cell_angle_gamma 150.357442
_cell_volume 849.301971
_symmetry_space_group_name_H-M "P -1"
_symmetry_group_IT_number 2
_symmetry_cell_setting 'triclinic'
loop_
_space_group_symop_operation_xyz
x,y,z
-x,-y,-z
loop_
_atom_site_type_symbol
_atom_site_label
_atom_site_fract_x
_atom_site_fract_y
_atom_site_fract_z
Si Si1 0.864355 0.945234 0.903359
Si Si2 0.334531 0.996957 0.102425
Si Si3 0.580956 0.514646 0.809175
Si Si4 0.711780 0.186658 0.605553
Si Si5 0.532032 0.403036 0.071512
Si Si6 0.104844 0.418338 0.323246
Si Si7 0.060071 0.332823 0.045351
Si Si8 0.434365 0.608395 0.349756
O O1 0.781149 0.763899 0.983538
O O2 0.665881 0.848283 0.579340
O O3 0.000000 0.000000 0.000000
O O4 0.995306 0.145262 0.047168
O O5 0.513223 0.076143 0.282902
O O6 0.355626 0.976463 0.292330
O O7 0.366734 0.166962 0.014644
O O8 0.116041 0.777631 0.847366
O O9 0.502986 0.392295 0.890771
O O10 0.412211 0.457956 0.496310
O O11 0.622814 0.445696 0.844260
O O12 0.821904 0.383121 0.713964
O O13 0.877837 0.271728 0.740951
O O14 0.500000 0.500000 0.000000
O O15 0.753996 0.543509 0.377869
O O16 0.100844 0.364830 0.229082
O O17 0.263856 0.545800 0.163334
#
# Coordination Sequence:
#
# PCOD8041531 Si02
#       8
#     2   2   2   2   2   2   2   2
#     4  10  19  33  53  80 109 139 186 227 272 321
#     4   9  19  37  52  76 109 150 181 217 276 319
#     4   9  19  37  50  74 117 148 172 228 268 324
#     4   9  20  35  59  79 110 142 192 239 265 316
#     4  11  23  35  51  83 121 150 179 215 274 350
#     4  10  22  37  54  83 115 148 185 225 277 327
#     4  11  18  31  57  86 103 138 183 237 274 319
#     4   9  19  35  55  76 107 143 186 231 269 313
#
# _framework density 18.838999000000001
#
# number of rings (size 3 to 8) (size 9 to 14) (size 15 to 20)
#    0.750    1.500    1.250    2.250    3.500    4.500 
#    4.500    0.000    0.000    3.000    0.000    7.875 
#    0.000    0.000    0.000    0.000    0.000    0.000 
#
# Total GULP energy -198214.223814 kJ/mol
# GULP energy per Si atom -12388.388988 kJ/mol
# Density = 1.879612 g / cm^3
# Si number density = 18.838999 Si / 1000 Ang^3
#
#
#
# Elastic Constant Matrix: (Units=GPa)
#
#
# Indices 1 2 3 4 5 6 
#
# 1 111.6712 36.7381 46.1882 2.1946 7.9503 3.9610
# 2 36.7381 106.2285 30.7882 5.3328 -0.6446 1.8924
# 3 46.1882 30.7882 75.0350 17.0102 14.5458 11.6704
# 4 2.1946 5.3328 17.0102 32.6989 6.4692 1.3944
# 5 7.9503 -0.6446 14.5458 6.4692 37.9134 7.4720
# 6 3.9610 1.8924 11.6704 1.3944 7.4720 20.0860
#
#
#
# Elastic Compliance Matrix: (Units=1/GPa)
#
#
# Indices 1 2 3 4 5 6 
#
# 1 0.012981 -0.002381 -0.008092 0.003778 -0.000774 0.002392
# 2 -0.002381 0.011296 -0.003624 -0.000220 0.001962 0.000796
# 3 -0.008092 -0.003624 0.024494 -0.010386 -0.004002 -0.010084
# 4 0.003778 -0.000220 -0.010386 0.036348 -0.003844 0.004217
# 5 -0.000774 0.001962 -0.004002 -0.003844 0.030494 -0.008784
# 6 0.002392 0.000796 -0.010084 0.004217 -0.008784 0.058073
#
#
# Mechanical properties :
#
#
# Convention : Reuss Voigt Hill
#
# Bulk Modulus (GPa) = 48.59670 57.81819 53.20744
# Shear Modulus (GPa) = 23.95335 30.08768 27.02052
#
# Velocity S-wave (km/s) = 3.56965 4.00070 3.79131
# Velocity P-wave (km/s) = 6.54535 7.21791 6.88984
#
# Compressibility (1/GPa) = 0.02057753
#
# Stress axis : x y z
#
# Youngs Moduli (GPa) = 77.03495 88.52567 40.82666
#
# Poissons Ratio (x) = 0.21078 0.33037
# Poissons Ratio (y) = 0.18342 0.14795
# Poissons Ratio (z) = 0.62336 0.32080
#
# Static dielectric constant tensor:
#      x y z
#    x 3.384200 -0.037440 0.379140 
#    y -0.037440 3.422380 0.254550 
#    z 0.379140 0.254550 3.577400 
# 
# 
# High freq. dielectric constant tensor:
#      x y z
#    x 1.712990 -0.007270 0.026610 
#    y -0.007270 1.716080 0.028030 
#    z 0.026610 0.028030 1.723490 
# 
# From -- ./inp_files/474958.got.cif
#   From: 2010.06.25/outbox.cif.g09.slc.cpg/sg2_238_cif.got.tgz:474958.got - 2010.06.27 13:26:56.
