data_PCOD8041385
_publ_section_title
;
Structure prediction by ZEFSAII (Michael W. Deem and Ramdas Pophale) SiO2 
 PCOD8041385
Probable space group: P -1
;
_chemical_formula_sum "Si O2"
_cell_formula_units_Z 14
_cell_length_a 12.600262
_cell_length_b 21.785832
_cell_length_c 8.941534
_cell_angle_alpha 39.169185
_cell_angle_beta 36.096418
_cell_angle_gamma 28.778219
_cell_volume 676.429669
_symmetry_space_group_name_H-M "P -1"
_symmetry_group_IT_number 2
_symmetry_cell_setting 'triclinic'
loop_
_space_group_symop_operation_xyz
x,y,z
-x,-y,-z
loop_
_atom_site_type_symbol
_atom_site_label
_atom_site_fract_x
_atom_site_fract_y
_atom_site_fract_z
Si Si1 0.555754 0.889103 0.749938
Si Si2 0.591003 0.385434 0.726837
Si Si3 0.866213 0.098852 0.830822
Si Si4 0.817640 0.995115 0.628908
Si Si5 0.291067 0.174241 0.971525
Si Si6 0.981271 0.377622 0.366883
Si Si7 0.074288 0.538610 0.067601
O O1 0.743669 0.759275 0.682643
O O2 0.500000 0.000000 0.500000
O O3 0.318405 0.911029 0.013677
O O4 0.666825 0.875833 0.809981
O O5 0.500000 0.500000 0.500000
O O6 0.720693 0.249452 0.751345
O O7 0.789407 0.362107 0.656655
O O8 0.356599 0.435190 0.995508
O O9 0.086306 0.043337 0.575482
O O10 0.000000 0.000000 0.000000
O O11 0.537340 0.132526 0.700433
O O12 0.801656 0.886364 0.903589
O O13 0.000000 0.000000 0.500000
O O14 0.084315 0.331110 0.898173
O O15 0.958470 0.472700 0.334226
O O16 0.921050 0.434832 0.161115
#
# Coordination Sequence:
#
# PCOD8041385 Si02
#       7
#     2   2   2   2   2   2   2
#     4  11  20  35  56  88 126 155 192 250 305 353
#     4  10  19  32  55  86 118 150 194 249 296 352
#     4  12  23  38  60  93 125 154 200 255 306 352
#     4  11  22  39  59  86 122 162 199 243 299 363
#     4  10  22  37  58  87 120 156 205 243 291 358
#     4   9  17  29  49  80 114 146 188 238 294 338
#     4   9  17  31  51  80 112 147 191 242 284 343
#
# _framework density 20.696904
#
# number of rings (size 3 to 8) (size 9 to 14) (size 15 to 20)
#    0.000    1.714    2.857    4.286    2.000    1.143 
#    0.000    0.000    0.000    0.857    3.714    6.000 
#    0.000    0.000    0.000    0.000    0.000    0.000 
#
# Total GULP energy -173462.712032 kJ/mol
# GULP energy per Si atom -12390.193717 kJ/mol
# Density = 2.064980 g / cm^3
# Si number density = 20.696904 Si / 1000 Ang^3
#
#
#
# Elastic Constant Matrix: (Units=GPa)
#
#
# Indices 1 2 3 4 5 6 
#
# 1 68.1102 37.8093 36.7497 7.1498 -41.5030 3.5858
# 2 37.8093 149.2620 50.9969 20.8467 -9.0140 15.0278
# 3 36.7497 50.9969 82.4877 14.5787 -31.8627 -0.0493
# 4 7.1498 20.8467 14.5787 38.3693 -8.2447 -7.8979
# 5 -41.5030 -9.0140 -31.8627 -8.2447 43.2718 -4.0131
# 6 3.5858 15.0278 -0.0493 -7.8979 -4.0131 27.3178
#
#
#
# Elastic Compliance Matrix: (Units=1/GPa)
#
#
# Indices 1 2 3 4 5 6 
#
# 1 0.048172 -0.012945 0.003875 0.009351 0.049137 0.010727
# 2 -0.012945 0.014075 -0.008603 -0.008217 -0.018417 -0.011140
# 3 0.003875 -0.008603 0.023246 0.000934 0.019912 0.007461
# 4 0.009351 -0.008217 0.000934 0.035148 0.016108 0.015823
# 5 0.049137 -0.018417 0.019912 0.016108 0.086082 0.021021
# 6 0.010727 -0.011140 0.007461 0.015823 0.021021 0.049003
#
#
# Mechanical properties :
#
#
# Convention : Reuss Voigt Hill
#
# Bulk Modulus (GPa) = 19.94100 61.21908 40.58004
# Shear Modulus (GPa) = 16.24504 33.41204 24.82854
#
# Velocity S-wave (km/s) = 2.80465 4.02226 3.46732
# Velocity P-wave (km/s) = 4.48818 7.15643 5.97320
#
# Compressibility (1/GPa) = 0.05014794
#
# Stress axis : x y z
#
# Youngs Moduli (GPa) = 20.75885 71.04798 43.01839
#
# Poissons Ratio (x) = 0.91972 -0.16672
# Poissons Ratio (y) = 0.26872 0.37009
# Poissons Ratio (z) = -0.08045 0.61123
#
# Static dielectric constant tensor:
#      x y z
#    x 3.841280 -0.096070 -0.810050 
#    y -0.096070 5.439750 -0.092430 
#    z -0.810050 -0.092430 4.051560 
# 
# 
# High freq. dielectric constant tensor:
#      x y z
#    x 1.785900 0.000900 -0.054570 
#    y 0.000900 1.825990 0.009300 
#    z -0.054570 0.009300 1.789600 
# 
# From -- ./inp_files/259455.got.cif
#   From: 2010.06.25/outbox.cif.g09.slc.cpg/sg2_130_cif.got.tgz:259455.got - 2010.06.27 13:26:56.
