data_PCOD8041506
_publ_section_title
;
Structure prediction by ZEFSAII (Michael W. Deem and Ramdas Pophale) SiO2 
 PCOD8041506
Probable space group: P -1
;
_chemical_formula_sum "Si O2"
_cell_formula_units_Z 14
_cell_length_a 10.418188
_cell_length_b 11.880206
_cell_length_c 11.147014
_cell_angle_alpha 43.648546
_cell_angle_beta 132.286633
_cell_angle_gamma 137.577772
_cell_volume 613.246005
_symmetry_space_group_name_H-M "P -1"
_symmetry_group_IT_number 2
_symmetry_cell_setting 'triclinic'
loop_
_space_group_symop_operation_xyz
x,y,z
-x,-y,-z
loop_
_atom_site_type_symbol
_atom_site_label
_atom_site_fract_x
_atom_site_fract_y
_atom_site_fract_z
Si Si1 0.297849 0.458791 0.789496
Si Si2 0.071637 0.214396 0.629851
Si Si3 0.035611 0.171399 0.040072
Si Si4 0.698646 0.511545 0.894179
Si Si5 0.544752 0.758438 0.232418
Si Si6 0.401101 0.949277 0.163680
Si Si7 0.285887 0.754407 0.714874
O O1 0.513923 0.484863 0.880540
O O2 0.315393 0.653420 0.694981
O O3 0.167687 0.398572 0.632194
O O4 0.201033 0.290748 0.954057
O O5 0.889665 0.198422 0.452293
O O6 0.239535 0.226830 0.632546
O O7 0.997846 0.036415 0.809719
O O8 0.118404 0.275926 0.141470
O O9 0.835123 0.172200 0.872262
O O10 0.626283 0.450143 0.758530
O O11 0.776870 0.379958 0.104937
O O12 0.482900 0.810081 0.279594
O O13 0.555098 0.896475 0.028015
O O14 0.512114 0.050220 0.279183
#
# Coordination Sequence:
#
# PCOD8041506 Si02
#       7
#     2   2   2   2   2   2   2
#     4  10  20  37  53  72 103 139 171 201 249 310
#     4  10  20  33  54  79 102 130 168 214 254 290
#     4  10  19  33  53  77 102 133 171 207 245 301
#     4   9  19  36  56  73  99 138 172 203 248 304
#     4   8  17  35  54  73 101 137 171 203 247 305
#     4   9  18  33  53  76 102 134 172 206 245 301
#     4  10  19  33  52  78 104 132 165 208 259 297
#
# _framework density 22.829336999999999
#
# number of rings (size 3 to 8) (size 9 to 14) (size 15 to 20)
#    0.000    2.571    0.000    3.429    0.000    2.286 
#    0.000   13.571    0.000    4.286    0.000    0.000 
#    0.000    0.000    0.000    0.000    0.000    0.000 
#
# Total GULP energy -173540.895119 kJ/mol
# GULP energy per Si atom -12395.778223 kJ/mol
# Density = 2.277738 g / cm^3
# Si number density = 22.829337 Si / 1000 Ang^3
#
#
#
# Elastic Constant Matrix: (Units=GPa)
#
#
# Indices 1 2 3 4 5 6 
#
# 1 76.4320 62.2547 38.3525 4.0131 29.1937 -17.0680
# 2 62.2547 179.4997 33.4934 28.8309 24.9844 -12.2423
# 3 38.3525 33.4934 72.5808 18.3896 36.6867 4.1265
# 4 4.0131 28.8309 18.3896 25.0981 7.0748 12.0135
# 5 29.1937 24.9844 36.6867 7.0748 28.7788 -0.3654
# 6 -17.0680 -12.2423 4.1265 12.0135 -0.3654 30.7849
#
#
#
# Elastic Compliance Matrix: (Units=1/GPa)
#
#
# Indices 1 2 3 4 5 6 
#
# 1 0.032604 -0.007758 -0.006032 0.007909 -0.020436 0.012471
# 2 -0.007758 0.010921 0.004609 -0.016531 -0.003349 0.005835
# 3 -0.006032 0.004609 0.047575 -0.025032 -0.052361 0.001259
# 4 0.007909 -0.016531 -0.025032 0.086832 0.016480 -0.032524
# 5 -0.020436 -0.003349 -0.052361 0.016480 0.120950 -0.010639
# 6 0.012471 0.005835 0.001259 -0.032524 -0.010639 0.054116
#
#
# Mechanical properties :
#
#
# Convention : Reuss Voigt Hill
#
# Bulk Modulus (GPa) = 13.74754 66.30150 40.02452
# Shear Modulus (GPa) = 12.63886 29.89315 21.26600
#
# Velocity S-wave (km/s) = 2.35547 3.62251 3.05539
# Velocity P-wave (km/s) = 3.66505 6.82657 5.47881
#
# Compressibility (1/GPa) = 0.07274026
#
# Stress axis : x y z
#
# Youngs Moduli (GPa) = 30.67063 91.56753 21.01935
#
# Poissons Ratio (x) = 0.71036 0.12678
# Poissons Ratio (y) = 0.23793 -0.09688
# Poissons Ratio (z) = 0.18500 -0.42206
#
# Static dielectric constant tensor:
#      x y z
#    x 3.861410 -0.254400 0.347690 
#    y -0.254400 4.813240 0.210600 
#    z 0.347690 0.210600 3.632040 
# 
# 
# High freq. dielectric constant tensor:
#      x y z
#    x 1.873110 -0.010340 0.030200 
#    y -0.010340 1.926960 0.019670 
#    z 0.030200 0.019670 1.866180 
# 
# From -- ./inp_files/181930.got.cif
#   From: 2010.06.25/outbox.cif.g09.slc.cpg/sg2_91_cif.got.tgz:181930.got - 2010.06.27 13:26:56.
