data_PCOD8041612
_publ_section_title
;
Structure prediction by ZEFSAII (Michael W. Deem and Ramdas Pophale) SiO2 
 PCOD8041612
Probable space group: P -1
;
_chemical_formula_sum "Si O2"
_cell_formula_units_Z 16
_cell_length_a 9.288197
_cell_length_b 29.246405
_cell_length_c 29.351990
_cell_angle_alpha 169.990040
_cell_angle_beta 145.917189
_cell_angle_gamma 34.518095
_cell_volume 773.816350
_symmetry_space_group_name_H-M "P -1"
_symmetry_group_IT_number 2
_symmetry_cell_setting 'triclinic'
loop_
_space_group_symop_operation_xyz
x,y,z
-x,-y,-z
loop_
_atom_site_type_symbol
_atom_site_label
_atom_site_fract_x
_atom_site_fract_y
_atom_site_fract_z
Si Si1 0.347369 0.492906 0.997507
Si Si2 0.505224 0.856487 0.753899
Si Si3 0.776887 0.070503 0.159078
Si Si4 0.722340 0.017032 0.381543
Si Si5 0.759023 0.552930 0.875418
Si Si6 0.954942 0.615010 0.699167
Si Si7 0.466968 0.604992 0.763193
Si Si8 0.319845 0.955401 0.503732
O O1 0.053967 0.551530 0.964359
O O2 0.425991 0.216538 0.769616
O O3 0.500000 0.500000 0.000000
O O4 0.452407 0.704795 0.266769
O O5 0.255209 0.900932 0.766023
O O6 0.751029 0.738732 0.730807
O O7 0.460376 0.649055 0.498644
O O8 0.571302 0.133902 0.021491
O O9 0.865225 0.340671 0.426005
O O10 0.500000 0.000000 0.000000
O O11 0.974473 0.824292 0.951767
O O12 0.015552 0.961773 0.421104
O O13 0.662071 0.267412 0.578940
O O14 0.575593 0.073354 0.445605
O O15 0.617224 0.771815 0.086660
O O16 0.708267 0.628643 0.883800
O O17 0.223038 0.566377 0.694328
#
# Coordination Sequence:
#
# PCOD8041612 Si02
#       8
#     2   2   2   2   2   2   2   2
#     4  10  19  33  55  79 107 139 181 219 268 322
#     4  11  21  37  59  85 110 152 193 235 278 343
#     4  10  20  37  60  84 112 147 187 240 288 332
#     4   9  17  33  54  77 102 130 182 216 268 317
#     4  10  21  35  54  76 111 146 172 221 281 331
#     4  11  21  37  60  86 113 145 198 241 279 330
#     4  12  23  36  58  84 119 150 189 237 289 334
#     4   9  17  30  55  81  97 131 173 231 258 308
#
# _framework density 20.676739000000001
#
# number of rings (size 3 to 8) (size 9 to 14) (size 15 to 20)
#    0.000    1.750    0.000    7.125    0.000    3.000 
#    0.000    0.000   16.500    0.000    0.000    0.000 
#    0.000    0.000    0.000    0.000    0.000    0.000 
#
# Total GULP energy -198256.274235 kJ/mol
# GULP energy per Si atom -12391.017140 kJ/mol
# Density = 2.062968 g / cm^3
# Si number density = 20.676739 Si / 1000 Ang^3
#
#
#
# Elastic Constant Matrix: (Units=GPa)
#
#
# Indices 1 2 3 4 5 6 
#
# 1 145.3379 25.6094 69.1472 -1.2214 -18.3517 26.8640
# 2 25.6094 29.2390 46.2243 12.9862 1.7569 31.3119
# 3 69.1472 46.2243 139.2421 -11.3980 -31.7661 -2.2207
# 4 -1.2214 12.9862 -11.3980 7.6049 7.3755 -13.5890
# 5 -18.3517 1.7569 -31.7661 7.3755 48.0765 -11.2758
# 6 26.8640 31.3119 -2.2207 -13.5890 -11.2758 12.0117
#
#
#
# Elastic Compliance Matrix: (Units=1/GPa)
#
#
# Indices 1 2 3 4 5 6 
#
# 1 0.009288 -0.005407 -0.002177 0.004100 0.001414 -0.001114
# 2 -0.005407 0.007307 0.002271 0.021159 0.000006 0.017409
# 3 -0.002177 0.002271 0.007441 -0.009979 0.003798 -0.007399
# 4 0.004100 0.021159 -0.009979 0.050325 -0.020118 -0.028123
# 5 0.001414 0.000006 0.003798 -0.020118 0.026950 0.000062
# 6 -0.001114 0.017409 -0.007399 -0.028123 0.000062 0.007237
#
#
# Mechanical properties :
#
#
# Convention : Reuss Voigt Hill
#
# Bulk Modulus (GPa) = 74.57871 66.19787 70.38829
# Shear Modulus (GPa) = 40.43896 25.06117 32.75006
#
# Velocity S-wave (km/s) = 4.42721 3.48522 3.98415
# Velocity P-wave (km/s) = 7.89182 6.94844 7.43511
#
# Compressibility (1/GPa) = 0.01340865
#
# Stress axis : x y z
#
# Youngs Moduli (GPa) = 107.66793 136.86419 134.39754
#
# Poissons Ratio (x) = 0.74001 0.29256
# Poissons Ratio (y) = 0.58215 -0.30516
# Poissons Ratio (z) = 0.23438 -0.31076
#
# Static dielectric constant tensor:
#      x y z
#    x 4.084170 0.319930 -0.360120 
#    y 0.319930 3.422140 0.038730 
#    z -0.360120 0.038730 4.199930 
# 
# 
# High freq. dielectric constant tensor:
#      x y z
#    x 1.812460 0.026940 -0.013620 
#    y 0.026940 1.775910 0.006700 
#    z -0.013620 0.006700 1.833040 
# 
# From -- ./inp_files/617720.got.cif
#   From: 2010.06.25/outbox.cif.g09.slc.cpg/sg2_309_cif.got.tgz:617720.got - 2010.06.27 13:26:56.
