data_PCOD8041017
_publ_section_title
;
Structure prediction by ZEFSAII (Michael W. Deem and Ramdas Pophale) SiO2 
 PCOD8041017
Probable space group: P -1
;
_chemical_formula_sum "Si O2"
_cell_formula_units_Z 14
_cell_length_a 8.982593
_cell_length_b 10.966962
_cell_length_c 9.439451
_cell_angle_alpha 94.705239
_cell_angle_beta 61.010494
_cell_angle_gamma 61.875026
_cell_volume 656.674638
_symmetry_space_group_name_H-M "P -1"
_symmetry_group_IT_number 2
_symmetry_cell_setting 'triclinic'
loop_
_space_group_symop_operation_xyz
x,y,z
-x,-y,-z
loop_
_atom_site_type_symbol
_atom_site_label
_atom_site_fract_x
_atom_site_fract_y
_atom_site_fract_z
Si Si1 0.830839 0.971159 0.619657
Si Si2 0.596640 0.290075 0.821933
Si Si3 0.986546 0.651358 0.000772
Si Si4 0.446109 0.530182 0.691217
Si Si5 0.726973 0.841925 0.876464
Si Si6 0.995691 0.270124 0.694585
Si Si7 0.695440 0.592468 0.775294
O O1 0.883215 0.874335 0.731461
O O2 0.815993 0.876217 0.492329
O O3 0.615654 0.136810 0.764675
O O4 0.000000 0.000000 0.500000
O O5 0.564224 0.367901 0.694431
O O6 0.804275 0.255188 0.797443
O O7 0.403030 0.398464 0.024508
O O8 0.805423 0.767195 0.986701
O O9 0.199054 0.621897 0.840873
O O10 0.000000 0.500000 0.000000
O O11 0.918755 0.734884 0.190577
O O12 0.500000 0.500000 0.500000
O O13 0.540474 0.615537 0.722475
O O14 0.724526 0.724983 0.762266
O O15 0.500000 0.000000 0.000000
O O16 0.916518 0.425293 0.660438
#
# Coordination Sequence:
#
# PCOD8041017 Si02
#       7
#     2   2   2   2   2   2   2
#     4  10  24  41  66  96 136 176 218 272 340 400
#     4  10  18  42  67  93 135 177 213 267 347 394
#     4  12  24  43  69 103 134 175 231 279 327 401
#     4  11  24  40  70 103 130 171 232 283 324 397
#     4  12  26  44  68  99 137 181 221 277 341 396
#     4  10  20  40  66  98 129 177 219 274 330 397
#     4  11  20  43  70  92 135 179 221 267 342 401
#
# _framework density 21.319538999999999
#
# number of rings (size 3 to 8) (size 9 to 14) (size 15 to 20)
#    0.000    1.143    5.714    0.857    6.000    1.714 
#    2.571    4.286    0.000    0.000    0.000    0.000 
#    0.000    0.000    0.000    0.000    0.000    0.000 
#
# Total GULP energy -173501.050308 kJ/mol
# GULP energy per Si atom -12392.932165 kJ/mol
# Density = 2.127101 g / cm^3
# Si number density = 21.319539 Si / 1000 Ang^3
#
#
#
# Elastic Constant Matrix: (Units=GPa)
#
#
# Indices 1 2 3 4 5 6 
#
# 1 97.7920 57.8499 33.9654 -3.4886 23.1261 -4.4646
# 2 57.8499 140.2754 47.0486 -0.6985 21.6472 11.0758
# 3 33.9654 47.0486 91.5786 -4.2360 41.0891 0.2669
# 4 -3.4886 -0.6985 -4.2360 48.1505 7.4248 4.6881
# 5 23.1261 21.6472 41.0891 7.4248 33.9651 -2.8764
# 6 -4.4646 11.0758 0.2669 4.6881 -2.8764 33.4018
#
#
#
# Elastic Compliance Matrix: (Units=1/GPa)
#
#
# Indices 1 2 3 4 5 6 
#
# 1 0.015372 -0.005610 0.001008 0.002124 -0.008330 0.002891
# 2 -0.005610 0.010948 -0.004460 -0.000552 0.002011 -0.004094
# 3 0.001008 -0.004460 0.028781 0.008155 -0.034676 -0.002747
# 4 0.002124 -0.000552 0.008155 0.024649 -0.016729 -0.004499
# 5 -0.008330 0.002011 -0.034676 -0.016729 0.080094 0.007742
# 6 0.002891 -0.004094 -0.002747 -0.004499 0.007742 0.033003
#
#
# Mechanical properties :
#
#
# Convention : Reuss Voigt Hill
#
# Bulk Modulus (GPa) = 27.04347 67.48599 47.26473
# Shear Modulus (GPa) = 22.39179 35.82230 29.10704
#
# Velocity S-wave (km/s) = 3.24434 4.10354 3.69897
# Velocity P-wave (km/s) = 5.17172 7.36039 6.36090
#
# Compressibility (1/GPa) = 0.03697750
#
# Stress axis : x y z
#
# Youngs Moduli (GPa) = 65.05408 91.33788 34.74545
#
# Poissons Ratio (x) = 0.51238 -0.03503
# Poissons Ratio (y) = 0.36494 0.15497
# Poissons Ratio (z) = -0.06558 0.40738
#
# Static dielectric constant tensor:
#      x y z
#    x 3.921310 0.315950 0.105320 
#    y 0.315950 4.144980 0.292940 
#    z 0.105320 0.292940 4.241800 
# 
# 
# High freq. dielectric constant tensor:
#      x y z
#    x 1.818390 0.021730 0.002720 
#    y 0.021730 1.838130 0.004440 
#    z 0.002720 0.004440 1.846700 
# 
# From -- ./inp_files/180029.got.cif
#   From: 2010.06.25/outbox.cif.g09.slc.cpg/sg2_91_cif.got.tgz:180029.got - 2010.06.27 13:26:56.
