data_PCOD8041420
_publ_section_title
;
Structure prediction by ZEFSAII (Michael W. Deem and Ramdas Pophale) SiO2 
 PCOD8041420
Probable space group: P -1
;
_chemical_formula_sum "Si O2"
_cell_formula_units_Z 14
_cell_length_a 12.114814
_cell_length_b 8.625791
_cell_length_c 9.564424
_cell_angle_alpha 83.008935
_cell_angle_beta 129.169932
_cell_angle_gamma 86.064661
_cell_volume 755.237330
_symmetry_space_group_name_H-M "P -1"
_symmetry_group_IT_number 2
_symmetry_cell_setting 'triclinic'
loop_
_space_group_symop_operation_xyz
x,y,z
-x,-y,-z
loop_
_atom_site_type_symbol
_atom_site_label
_atom_site_fract_x
_atom_site_fract_y
_atom_site_fract_z
Si Si1 0.147954 0.994644 0.537964
Si Si2 0.651189 0.586385 0.979030
Si Si3 0.962262 0.062210 0.118986
Si Si4 0.324729 0.642388 0.716051
Si Si5 0.059202 0.553904 0.400428
Si Si6 0.919730 0.423800 0.061993
Si Si7 0.813966 0.839102 0.188491
O O1 0.215408 0.121513 0.672998
O O2 0.106696 0.037490 0.337998
O O3 0.256370 0.827162 0.657123
O O4 0.000000 0.000000 0.500000
O O5 0.486975 0.621794 0.787701
O O6 0.675439 0.443296 0.125576
O O7 0.760266 0.530784 0.945101
O O8 0.684011 0.751027 0.050617
O O9 0.900948 0.248058 0.030464
O O10 0.827988 0.993050 0.088243
O O11 0.000000 0.000000 0.000000
O O12 0.229661 0.559339 0.540763
O O13 0.000000 0.500000 0.500000
O O14 0.025328 0.424987 0.278499
O O15 0.970091 0.731463 0.285485
O O16 0.000000 0.500000 0.000000
#
# Coordination Sequence:
#
# PCOD8041420 Si02
#       7
#     2   2   2   2   2   2   2
#     4  10  19  32  57  85 109 147 188 233 278 329
#     4  10  22  36  56  90 119 152 183 237 290 333
#     4  11  21  34  58  84 109 143 192 242 278 325
#     4  11  20  35  59  86 125 145 188 237 286 333
#     4  11  18  34  60  86 111 149 193 234 273 335
#     4  11  23  38  61  84 111 150 198 234 281 345
#     4  10  19  33  57  83 114 145 191 230 280 335
#
# _framework density 18.537219
#
# number of rings (size 3 to 8) (size 9 to 14) (size 15 to 20)
#    0.000    1.429    5.714    4.286    0.000    0.571 
#    0.000    0.714    0.000    1.714    0.000    0.000 
#    0.000    0.000    0.000    0.000    0.000    0.000 
#
# Total GULP energy -173468.199943 kJ/mol
# GULP energy per Si atom -12390.585710 kJ/mol
# Density = 1.849503 g / cm^3
# Si number density = 18.537219 Si / 1000 Ang^3
#
#
#
# Elastic Constant Matrix: (Units=GPa)
#
#
# Indices 1 2 3 4 5 6 
#
# 1 110.0997 39.9421 55.9925 10.1044 11.3890 0.4744
# 2 39.9421 112.4655 34.3682 11.6269 2.7632 -1.4924
# 3 55.9925 34.3682 82.6620 16.9992 7.9809 -2.9558
# 4 10.1044 11.6269 16.9992 34.2488 -0.2250 -4.0344
# 5 11.3890 2.7632 7.9809 -0.2250 48.3994 2.5952
# 6 0.4744 -1.4924 -2.9558 -4.0344 2.5952 29.2537
#
#
#
# Elastic Compliance Matrix: (Units=1/GPa)
#
#
# Indices 1 2 3 4 5 6 
#
# 1 0.014639 -0.002536 -0.008896 0.000829 -0.001776 -0.000994
# 2 -0.002536 0.010696 -0.002419 -0.001671 0.000373 0.000079
# 3 -0.008896 -0.002419 0.020671 -0.006669 -0.001278 0.001303
# 4 0.000829 -0.001671 -0.006669 0.033277 0.000955 0.003732
# 5 -0.001776 0.000373 -0.001278 0.000955 0.021372 -0.001846
# 6 -0.000994 0.000079 0.001303 0.003732 -0.001846 0.035014
#
#
# Mechanical properties :
#
#
# Convention : Reuss Voigt Hill
#
# Bulk Modulus (GPa) = 54.63408 62.87031 58.75220
# Shear Modulus (GPa) = 29.50364 34.04200 31.77282
#
# Velocity S-wave (km/s) = 3.99380 4.28999 4.14454
# Velocity P-wave (km/s) = 7.12768 7.65036 7.39364
#
# Compressibility (1/GPa) = 0.01830360
#
# Stress axis : x y z
#
# Youngs Moduli (GPa) = 68.31232 93.49298 48.37811
#
# Poissons Ratio (x) = 0.23706 0.43037
# Poissons Ratio (y) = 0.17321 0.11703
# Poissons Ratio (z) = 0.60771 0.22617
#
# Static dielectric constant tensor:
#      x y z
#    x 3.229720 0.048990 -0.091370 
#    y 0.048990 3.722600 0.380340 
#    z -0.091370 0.380340 3.613510 
# 
# 
# High freq. dielectric constant tensor:
#      x y z
#    x 1.688630 0.004240 -0.003260 
#    y 0.004240 1.740820 0.008150 
#    z -0.003260 0.008150 1.704330 
# 
# From -- ./inp_files/154586.got.cif
#   From: 2010.06.25/outbox.cif.g09.slc.cpg/sg2_78_cif.got.tgz:154586.got - 2010.06.27 13:26:56.
