data_PCOD8041816
_publ_section_title
;
Structure prediction by ZEFSAII (Michael W. Deem and Ramdas Pophale) SiO2 
 PCOD8041816
Probable space group: P -1
;
_chemical_formula_sum "Si O2"
_cell_formula_units_Z 12
_cell_length_a 13.966166
_cell_length_b 11.554003
_cell_length_c 13.997457
_cell_angle_alpha 119.925556
_cell_angle_beta 129.796119
_cell_angle_gamma 21.335835
_cell_volume 591.909222
_symmetry_space_group_name_H-M "P -1"
_symmetry_group_IT_number 2
_symmetry_cell_setting 'triclinic'
loop_
_space_group_symop_operation_xyz
x,y,z
-x,-y,-z
loop_
_atom_site_type_symbol
_atom_site_label
_atom_site_fract_x
_atom_site_fract_y
_atom_site_fract_z
Si Si1 0.353291 0.394160 0.712165
Si Si2 0.265833 0.616031 0.928796
Si Si3 0.325571 0.748110 0.575881
Si Si4 0.188231 0.173848 0.588121
Si Si5 0.304892 0.182981 0.356009
Si Si6 0.387561 0.600067 0.189833
O O1 0.322519 0.429494 0.822804
O O2 0.342265 0.555588 0.728473
O O3 0.058054 0.602564 0.565401
O O4 0.681988 0.987519 0.735592
O O5 0.500000 0.500000 0.000000
O O6 0.341975 0.523145 0.052625
O O7 0.916869 0.008057 0.845461
O O8 0.500000 0.500000 0.500000
O O9 0.554663 0.521004 0.720554
O O10 0.263032 0.960972 0.597290
O O11 0.000000 0.000000 0.500000
O O12 0.042386 0.415023 0.676894
O O13 0.518520 0.906504 0.650874
O O14 0.500000 0.000000 0.500000
#
# Coordination Sequence:
#
# PCOD8041816 Si02
#       6
#     2   2   2   2   2   2
#     4  10  19  33  60  81 117 148 196 242 291 341
#     4   9  20  36  56  87 111 149 200 248 292 333
#     4  12  24  38  61  87 124 160 187 234 300 364
#     4  11  22  37  54  90 122 153 190 232 296 352
#     4  10  22  35  56  84 120 155 192 240 284 342
#     4  10  21  36  58  88 116 151 195 245 296 343
#
# _framework density 20.273378999999998
#
# number of rings (size 3 to 8) (size 9 to 14) (size 15 to 20)
#    0.000    1.667    1.667    4.000   11.667    0.000 
#    0.000    0.000    0.000    2.000    0.000    0.000 
#    0.000    0.000    0.000    0.000    0.000    0.000 
#
# Total GULP energy -148672.755737 kJ/mol
# GULP energy per Si atom -12389.396311 kJ/mol
# Density = 2.022724 g / cm^3
# Si number density = 20.273379 Si / 1000 Ang^3
#
#
#
# Elastic Constant Matrix: (Units=GPa)
#
#
# Indices 1 2 3 4 5 6 
#
# 1 89.5117 36.7048 19.6134 7.6831 -17.4641 -0.5651
# 2 36.7048 115.5423 46.7359 41.5505 -26.4199 -5.6435
# 3 19.6134 46.7359 100.2591 24.3577 -32.9670 -0.1690
# 4 7.6831 41.5505 24.3577 36.0712 -8.3124 2.6123
# 5 -17.4641 -26.4199 -32.9670 -8.3124 31.0519 0.0880
# 6 -0.5651 -5.6435 -0.1690 2.6123 0.0880 39.7451
#
#
#
# Elastic Compliance Matrix: (Units=1/GPa)
#
#
# Indices 1 2 3 4 5 6 
#
# 1 0.013659 -0.004538 0.000281 0.003333 0.005013 -0.000679
# 2 -0.004538 0.019332 -0.000890 -0.019187 0.007804 0.003921
# 3 0.000281 -0.000890 0.017256 -0.007068 0.015829 0.000380
# 4 0.003333 -0.019187 -0.007068 0.052516 -0.007878 -0.006141
# 5 0.005013 0.007804 0.015829 -0.007878 0.056355 0.001640
# 6 -0.000679 0.003921 0.000380 -0.006141 0.001640 0.026109
#
#
# Mechanical properties :
#
#
# Convention : Reuss Voigt Hill
#
# Bulk Modulus (GPa) = 25.02904 56.82459 40.92681
# Shear Modulus (GPa) = 23.94185 34.85758 29.39971
#
# Velocity S-wave (km/s) = 3.44022 4.15104 3.81223
# Velocity P-wave (km/s) = 5.30592 7.14596 6.29355
#
# Compressibility (1/GPa) = 0.03995360
#
# Stress axis : x y z
#
# Youngs Moduli (GPa) = 73.21315 51.72707 57.94951
#
# Poissons Ratio (x) = 0.23474 -0.01628
# Poissons Ratio (y) = 0.33225 0.05156
# Poissons Ratio (z) = -0.02057 0.04603
#
# Static dielectric constant tensor:
#      x y z
#    x 3.744440 -0.079070 -0.017800 
#    y -0.079070 4.686970 0.634240 
#    z -0.017800 0.634240 4.069840 
# 
# 
# High freq. dielectric constant tensor:
#      x y z
#    x 1.785080 -0.022990 0.005120 
#    y -0.022990 1.800360 0.023770 
#    z 0.005120 0.023770 1.768160 
# 
# From -- ./inp_files/51001.got.cif
#   From: 2010.06.25/outbox.cif.g09.slc.cpg/sg2_26_cif.got.tgz:51001.got - 2010.06.27 13:26:56.
