data_PCOD8041234
_publ_section_title
;
Structure prediction by ZEFSAII (Michael W. Deem and Ramdas Pophale) SiO2 
 PCOD8041234
Probable space group: P -1
;
_chemical_formula_sum "Si O2"
_cell_formula_units_Z 16
_cell_length_a 20.856323
_cell_length_b 9.295133
_cell_length_c 15.212727
_cell_angle_alpha 55.012904
_cell_angle_beta 17.948156
_cell_angle_gamma 53.570804
_cell_volume 730.791999
_symmetry_space_group_name_H-M "P -1"
_symmetry_group_IT_number 2
_symmetry_cell_setting 'triclinic'
loop_
_space_group_symop_operation_xyz
x,y,z
-x,-y,-z
loop_
_atom_site_type_symbol
_atom_site_label
_atom_site_fract_x
_atom_site_fract_y
_atom_site_fract_z
Si Si1 0.089886 0.845408 0.371313
Si Si2 0.662223 0.771212 0.924802
Si Si3 0.509178 0.169840 0.053697
Si Si4 0.398731 0.379344 0.607928
Si Si5 0.748389 0.078020 0.199447
Si Si6 0.867476 0.894207 0.930944
Si Si7 0.716476 0.293009 0.457549
Si Si8 0.222697 0.049124 0.610650
O O1 0.918698 0.716429 0.623979
O O2 0.143668 0.939860 0.177953
O O3 0.304732 0.740739 0.175787
O O4 0.000000 0.000000 0.500000
O O5 0.614356 0.719315 0.904636
O O6 0.521524 0.668426 0.205369
O O7 0.602781 0.979656 0.954060
O O8 0.347964 0.161238 0.346134
O O9 0.500000 0.500000 0.500000
O O10 0.576999 0.259538 0.357559
O O11 0.246003 0.515432 0.693469
O O12 0.258090 0.257391 0.887072
O O13 0.706071 0.949773 0.380886
O O14 0.975985 0.134471 0.893251
O O15 0.742581 0.965918 0.157532
O O16 0.112068 0.799508 0.661620
O O17 0.729211 0.160184 0.404901
#
# Coordination Sequence:
#
# PCOD8041234 Si02
#       8
#     2   2   2   2   2   2   2   2
#     4  10  19  31  58  91 116 143 196 251 290 333
#     4   9  17  31  52  85 116 146 186 248 294 333
#     4   9  16  29  51  81 114 145 190 241 289 335
#     4  12  24  37  56  86 120 156 194 237 293 356
#     4  10  20  36  57  84 115 155 197 240 291 345
#     4  11  23  38  59  87 117 153 198 242 288 350
#     4  10  20  37  57  83 122 153 190 240 300 346
#     4   9  17  33  58  82 114 153 191 240 290 345
#
# _framework density 21.894055999999999
#
# number of rings (size 3 to 8) (size 9 to 14) (size 15 to 20)
#    0.000    2.000    1.250    5.250    3.500    0.000 
#    0.000    0.000    0.000    3.000    0.000    3.500 
#    0.000    0.000    0.000    0.000    0.000    0.000 
#
# Total GULP energy -198273.159726 kJ/mol
# GULP energy per Si atom -12392.072483 kJ/mol
# Density = 2.184422 g / cm^3
# Si number density = 21.894056 Si / 1000 Ang^3
#
#
#
# Elastic Constant Matrix: (Units=GPa)
#
#
# Indices 1 2 3 4 5 6 
#
# 1 117.3350 4.4996 44.5839 2.1534 -5.8395 9.8298
# 2 4.4996 33.2592 20.2337 0.5082 -6.3180 -0.5659
# 3 44.5839 20.2337 124.4630 -3.1219 -5.6605 9.4488
# 4 2.1534 0.5082 -3.1219 17.9190 5.1677 -5.6810
# 5 -5.8395 -6.3180 -5.6605 5.1677 42.2565 1.5952
# 6 9.8298 -0.5659 9.4488 -5.6810 1.5952 16.6199
#
#
#
# Elastic Compliance Matrix: (Units=1/GPa)
#
#
# Indices 1 2 3 4 5 6 
#
# 1 0.010472 0.001036 -0.003500 -0.004281 0.001876 -0.005812
# 2 0.001036 0.034590 -0.006046 -0.002691 0.004735 0.002628
# 3 -0.003500 -0.006046 0.010587 0.001249 0.000018 -0.003729
# 4 -0.004281 -0.002691 0.001249 0.067717 -0.010084 0.025846
# 5 0.001876 0.004735 0.000018 -0.010084 0.026129 -0.006914
# 6 -0.005812 0.002628 -0.003729 0.025846 -0.006914 0.075314
#
#
# Mechanical properties :
#
#
# Convention : Reuss Voigt Hill
#
# Bulk Modulus (GPa) = 25.88846 45.96574 35.92710
# Shear Modulus (GPa) = 19.63051 29.07506 24.35279
#
# Velocity S-wave (km/s) = 2.99760 3.64811 3.33874
# Velocity P-wave (km/s) = 4.88169 6.22777 5.59536
#
# Compressibility (1/GPa) = 0.03862725
#
# Stress axis : x y z
#
# Youngs Moduli (GPa) = 95.49529 28.90997 94.45992
#
# Poissons Ratio (x) = -0.02994 0.33064
# Poissons Ratio (y) = -0.09890 0.57109
# Poissons Ratio (z) = 0.33426 0.17479
#
# Static dielectric constant tensor:
#      x y z
#    x 4.240070 0.043680 -0.349480 
#    y 0.043680 3.332090 0.048170 
#    z -0.349480 0.048170 4.372810 
# 
# 
# High freq. dielectric constant tensor:
#      x y z
#    x 1.874250 -0.001300 -0.006550 
#    y -0.001300 1.788830 0.004440 
#    z -0.006550 0.004440 1.878560 
# 
# From -- ./inp_files/540432.got.cif
#   From: 2010.06.25/outbox.cif.g09.slc.cpg/sg2_271_cif.got.tgz:540432.got - 2010.06.27 13:26:56.
