data_PCOD8041056
_publ_section_title
;
Structure prediction by ZEFSAII (Michael W. Deem and Ramdas Pophale) SiO2 
 PCOD8041056
Probable space group: P -1
;
_chemical_formula_sum "Si O2"
_cell_formula_units_Z 16
_cell_length_a 5.117240
_cell_length_b 15.099194
_cell_length_c 15.838742
_cell_angle_alpha 53.171356
_cell_angle_beta 108.785824
_cell_angle_gamma 94.182745
_cell_volume 915.665113
_symmetry_space_group_name_H-M "P -1"
_symmetry_group_IT_number 2
_symmetry_cell_setting 'triclinic'
loop_
_space_group_symop_operation_xyz
x,y,z
-x,-y,-z
loop_
_atom_site_type_symbol
_atom_site_label
_atom_site_fract_x
_atom_site_fract_y
_atom_site_fract_z
Si Si1 0.916246 0.879695 0.553563
Si Si2 0.297794 0.684483 0.605412
Si Si3 0.647737 0.574625 0.854517
Si Si4 0.773695 0.356425 0.084860
Si Si5 0.411488 0.743608 0.406697
Si Si6 0.985132 0.116399 0.251786
Si Si7 0.519791 0.970032 0.327720
Si Si8 0.048748 0.379649 0.532287
O O1 0.908300 0.839171 0.672658
O O2 0.614829 0.903864 0.462651
O O3 0.139224 0.794459 0.572980
O O4 0.000000 0.000000 0.500000
O O5 0.499473 0.603362 0.733612
O O6 0.485260 0.721843 0.526838
O O7 0.072547 0.614725 0.579592
O O8 0.470088 0.642122 0.872207
O O9 0.954879 0.607235 0.863729
O O10 0.669384 0.441152 0.949231
O O11 0.836683 0.230161 0.126030
O O12 0.428849 0.873788 0.312393
O O13 0.105667 0.708288 0.379268
O O14 0.623376 0.666047 0.411587
O O15 0.257087 0.066226 0.256472
O O16 0.778274 0.024194 0.286520
O O17 0.000000 0.500000 0.500000
#
# Coordination Sequence:
#
# PCOD8041056 Si02
#       8
#     2   2   2   2   2   2   2   2
#     4  10  19  30  42  71  99 138 164 197 224 291
#     4  10  21  32  54  71 103 136 168 206 242 298
#     4  10  21  34  50  67  94 135 180 207 252 275
#     4  10  21  35  47  68  96 135 177 219 233 280
#     4  10  20  33  51  70 103 128 159 198 248 301
#     4  11  21  29  48  63 102 130 174 200 237 274
#     4  11  20  33  43  72  95 136 163 198 239 293
#     4  10  21  35  52  73 100 130 160 205 253 300
#
# _framework density 17.473638999999999
#
# number of rings (size 3 to 8) (size 9 to 14) (size 15 to 20)
#    0.750    1.000    2.500    3.750    5.250    0.000 
#    0.000    0.000    0.000    0.000    0.000    0.000 
#    0.000    6.000    0.000    0.000    0.000    0.000 
#
# Total GULP energy -198228.650834 kJ/mol
# GULP energy per Si atom -12389.290677 kJ/mol
# Density = 1.743387 g / cm^3
# Si number density = 17.473639 Si / 1000 Ang^3
#
#
#
# Elastic Constant Matrix: (Units=GPa)
#
#
# Indices 1 2 3 4 5 6 
#
# 1 74.0715 14.5631 9.8177 -7.9158 9.7224 -8.9318
# 2 14.5631 87.4872 19.8741 -23.2162 4.5654 -8.6135
# 3 9.8177 19.8741 61.4702 -21.0420 8.8841 -4.0729
# 4 -7.9158 -23.2162 -21.0420 22.1515 -3.0581 4.6655
# 5 9.7224 4.5654 8.8841 -3.0581 20.1095 -9.8274
# 6 -8.9318 -8.6135 -4.0729 4.6655 -9.8274 29.5849
#
#
#
# Elastic Compliance Matrix: (Units=1/GPa)
#
#
# Indices 1 2 3 4 5 6 
#
# 1 0.015018 -0.001264 -0.000108 0.002776 -0.005598 0.001854
# 2 -0.001264 0.016095 0.000902 0.016901 -0.000011 0.001759
# 3 -0.000108 0.000902 0.025523 0.024547 -0.009261 -0.003204
# 4 0.002776 0.016901 0.024547 0.087753 -0.005941 -0.006674
# 5 -0.005598 -0.000011 -0.009261 -0.005941 0.065219 0.019633
# 6 0.001854 0.001759 -0.003204 -0.006674 0.019633 0.042006
#
#
# Mechanical properties :
#
#
# Convention : Reuss Voigt Hill
#
# Bulk Modulus (GPa) = 17.95456 34.61539 26.28497
# Shear Modulus (GPa) = 18.44215 26.28745 22.36480
#
# Velocity S-wave (km/s) = 3.25226 3.88288 3.58147
# Velocity P-wave (km/s) = 4.93968 6.32103 5.67256
#
# Compressibility (1/GPa) = 0.05569616
#
# Stress axis : x y z
#
# Youngs Moduli (GPa) = 66.58527 62.13288 39.18080
#
# Poissons Ratio (x) = 0.07854 0.00422
# Poissons Ratio (y) = 0.08417 -0.03534
# Poissons Ratio (z) = 0.00716 -0.05604
#
# Static dielectric constant tensor:
#      x y z
#    x 3.583100 0.104300 -0.171860 
#    y 0.104300 3.114250 -0.205500 
#    z -0.171860 -0.205500 3.539530 
# 
# 
# High freq. dielectric constant tensor:
#      x y z
#    x 1.693210 0.002600 0.004820 
#    y 0.002600 1.648840 -0.044950 
#    z 0.004820 -0.044950 1.636490 
# 
# From -- ./inp_files/484923.got.cif
#   From: 2010.06.25/outbox.cif.g09.slc.cpg/sg2_243_cif.got.tgz:484923.got - 2010.06.27 13:26:56.
