data_PCOD8041715
_publ_section_title
;
Structure prediction by ZEFSAII (Michael W. Deem and Ramdas Pophale) SiO2 
 PCOD8041715
Probable space group: P -1
;
_chemical_formula_sum "Si O2"
_cell_formula_units_Z 16
_cell_length_a 11.905728
_cell_length_b 8.627322
_cell_length_c 9.490229
_cell_angle_alpha 101.807087
_cell_angle_beta 65.101298
_cell_angle_gamma 100.790567
_cell_volume 859.848195
_symmetry_space_group_name_H-M "P -1"
_symmetry_group_IT_number 2
_symmetry_cell_setting 'triclinic'
loop_
_space_group_symop_operation_xyz
x,y,z
-x,-y,-z
loop_
_atom_site_type_symbol
_atom_site_label
_atom_site_fract_x
_atom_site_fract_y
_atom_site_fract_z
Si Si1 0.353702 0.316035 0.616924
Si Si2 0.803625 0.832902 0.094109
Si Si3 0.003374 0.355427 0.173500
Si Si4 0.784011 0.174222 0.071403
Si Si5 0.096828 0.704214 0.238982
Si Si6 0.160219 0.751174 0.515337
Si Si7 0.629013 0.316170 0.393634
Si Si8 0.124463 0.105900 0.634395
O O1 0.319061 0.266754 0.788990
O O2 0.487607 0.261495 0.501906
O O3 0.348941 0.500380 0.625582
O O4 0.249095 0.224221 0.553020
O O5 0.895464 0.902090 0.185975
O O6 0.774729 0.983540 0.046795
O O7 0.867160 0.714793 0.936523
O O8 0.024202 0.545983 0.176844
O O9 0.899029 0.272406 0.109638
O O10 0.961975 0.323378 0.350211
O O11 0.658379 0.219617 0.219789
O O12 0.795121 0.222220 0.910783
O O13 0.162428 0.667764 0.345360
O O14 0.998098 0.828911 0.350654
O O15 0.285039 0.723950 0.528489
O O16 0.148113 0.936345 0.529924
#
# Coordination Sequence:
#
# PCOD8041715 Si02
#       8
#     2   2   2   2   2   2   2   2
#     4   9  19  34  59  85  98 136 185 234 260 299
#     4  10  19  33  57  83 103 135 181 234 258 301
#     4  11  19  34  53  77 108 143 183 220 257 311
#     4  11  19  33  55  79 107 141 184 223 258 310
#     4  12  23  33  53  82 116 146 171 214 273 329
#     4  11  23  35  52  81 117 145 169 216 275 327
#     4  10  19  36  59  81 106 135 183 229 261 312
#     4  10  19  35  54  80 109 140 177 219 261 316
#
# _framework density 18.607935999999999
#
# number of rings (size 3 to 8) (size 9 to 14) (size 15 to 20)
#    0.750    0.750    3.750    4.500    0.000    2.000 
#    0.000    0.000    0.000   11.250    0.000    0.000 
#    0.000    0.000    0.000    0.000    0.000    0.000 
#
# Total GULP energy -198332.001490 kJ/mol
# GULP energy per Si atom -12395.750093 kJ/mol
# Density = 1.856558 g / cm^3
# Si number density = 18.607936 Si / 1000 Ang^3
#
#
#
# Elastic Constant Matrix: (Units=GPa)
#
#
# Indices 1 2 3 4 5 6 
#
# 1 63.9013 14.6570 51.4911 1.5989 -14.7583 -12.5332
# 2 14.6570 77.4653 26.9167 -0.2866 -7.2035 -16.5256
# 3 51.4911 26.9167 132.6904 -9.8398 -11.2804 -9.4648
# 4 1.5989 -0.2866 -9.8398 25.5679 -3.5349 -5.6866
# 5 -14.7583 -7.2035 -11.2804 -3.5349 28.7949 5.3504
# 6 -12.5332 -16.5256 -9.4648 -5.6866 5.3504 16.7101
#
#
#
# Elastic Compliance Matrix: (Units=1/GPa)
#
#
# Indices 1 2 3 4 5 6 
#
# 1 0.027492 0.001840 -0.009422 -0.001058 0.008101 0.014149
# 2 0.001840 0.017399 -0.002623 0.003208 0.001363 0.017757
# 3 -0.009422 -0.002623 0.012008 0.004921 0.000046 -0.001200
# 4 -0.001058 0.003208 0.004921 0.046023 0.004219 0.019478
# 5 0.008101 0.001363 0.000046 0.004219 0.040517 -0.004088
# 6 0.014149 0.017757 -0.001200 0.019478 -0.004088 0.095275
#
#
# Mechanical properties :
#
#
# Convention : Reuss Voigt Hill
#
# Bulk Modulus (GPa) = 27.40618 51.13186 39.26902
# Shear Modulus (GPa) = 18.43076 26.28072 22.35574
#
# Velocity S-wave (km/s) = 3.15060 3.76219 3.46989
# Velocity P-wave (km/s) = 5.29105 6.81251 6.09941
#
# Compressibility (1/GPa) = 0.03648812
#
# Stress axis : x y z
#
# Youngs Moduli (GPa) = 36.37450 57.47496 83.27817
#
# Poissons Ratio (x) = -0.10575 0.78466
# Poissons Ratio (y) = -0.06693 0.21845
# Poissons Ratio (z) = 0.34272 0.15076
#
# Static dielectric constant tensor:
#      x y z
#    x 3.063120 -0.106630 -0.187200 
#    y -0.106630 3.429180 -0.063410 
#    z -0.187200 -0.063410 3.551500 
# 
# 
# High freq. dielectric constant tensor:
#      x y z
#    x 1.675380 -0.013170 -0.013650 
#    y -0.013170 1.736380 -0.006790 
#    z -0.013650 -0.006790 1.724270 
# 
# From -- ./inp_files/238917.got.cif
#   From: 2010.06.25/outbox.cif.g09.slc.cpg/sg2_120_cif.got.tgz:238917.got - 2010.06.27 13:26:56.
