data_PCOD8041437
_publ_section_title
;
Structure prediction by ZEFSAII (Michael W. Deem and Ramdas Pophale) SiO2 
 PCOD8041437
Probable space group: P -1
;
_chemical_formula_sum "Si O2"
_cell_formula_units_Z 16
_cell_length_a 13.805900
_cell_length_b 12.762071
_cell_length_c 12.582429
_cell_angle_alpha 103.582883
_cell_angle_beta 31.179538
_cell_angle_gamma 124.117165
_cell_volume 779.653537
_symmetry_space_group_name_H-M "P -1"
_symmetry_group_IT_number 2
_symmetry_cell_setting 'triclinic'
loop_
_space_group_symop_operation_xyz
x,y,z
-x,-y,-z
loop_
_atom_site_type_symbol
_atom_site_label
_atom_site_fract_x
_atom_site_fract_y
_atom_site_fract_z
Si Si1 0.016587 0.033006 0.669088
Si Si2 0.801332 0.781620 0.650902
Si Si3 0.826361 0.553280 0.638226
Si Si4 0.570832 0.775405 0.164413
Si Si5 0.020574 0.164415 0.055037
Si Si6 0.331438 0.161931 0.606990
Si Si7 0.796573 0.424244 0.837325
Si Si8 0.812818 0.316536 0.318601
O O1 0.990455 0.914642 0.593142
O O2 0.747197 0.933037 0.968390
O O3 0.051526 0.150007 0.585771
O O4 0.276259 0.128835 0.525011
O O5 0.730694 0.632238 0.717057
O O6 0.517944 0.725150 0.888247
O O7 0.601029 0.370141 0.786108
O O8 0.876134 0.560249 0.719426
O O9 0.087401 0.635721 0.341651
O O10 0.392578 0.772858 0.410500
O O11 0.763277 0.769831 0.041041
O O12 0.927442 0.248571 0.162290
O O13 0.764235 0.982833 0.271686
O O14 0.162503 0.195459 0.816356
O O15 0.650143 0.301445 0.367259
O O16 0.938745 0.504580 0.837110
#
# Coordination Sequence:
#
# PCOD8041437 Si02
#       8
#     2   2   2   2   2   2   2   2
#     4  10  22  38  56  81 117 152 184 223 274 335
#     4  11  22  39  58  80 115 154 184 221 278 336
#     4  10  20  36  59  85 110 145 185 235 281 316
#     4   9  18  35  57  84 116 135 182 241 270 322
#     4   9  17  31  53  83 108 144 183 225 282 323
#     4   9  19  34  49  78 118 143 179 230 269 326
#     4  10  21  35  59  87 109 137 192 236 272 329
#     4  10  19  32  58  86 107 139 184 235 278 322
#
# _framework density 20.521936
#
# number of rings (size 3 to 8) (size 9 to 14) (size 15 to 20)
#    0.000    2.250    1.250    2.250    3.500    0.000 
#    0.000    6.875    0.000   10.500    0.000    0.000 
#    0.000    0.000    0.000    0.000    0.000    0.000 
#
# Total GULP energy -198300.238461 kJ/mol
# GULP energy per Si atom -12393.764904 kJ/mol
# Density = 2.047523 g / cm^3
# Si number density = 20.521936 Si / 1000 Ang^3
#
#
#
# Elastic Constant Matrix: (Units=GPa)
#
#
# Indices 1 2 3 4 5 6 
#
# 1 96.1140 36.6996 31.4061 -1.1102 -6.7102 33.7070
# 2 36.6996 61.4216 18.5060 6.4764 -6.2951 19.8003
# 3 31.4061 18.5060 59.0880 6.9146 -9.1279 9.8880
# 4 -1.1102 6.4764 6.9146 27.6874 -0.9869 -5.2264
# 5 -6.7102 -6.2951 -9.1279 -0.9869 27.2617 -1.4604
# 6 33.7070 19.8003 9.8880 -5.2264 -1.4604 32.4063
#
#
#
# Elastic Compliance Matrix: (Units=1/GPa)
#
#
# Indices 1 2 3 4 5 6 
#
# 1 0.019907 -0.004922 -0.006373 0.000622 0.000816 -0.015617
# 2 -0.004922 0.024095 -0.001972 -0.007129 0.002897 -0.010020
# 3 -0.006373 -0.001972 0.022260 -0.005079 0.005270 0.000459
# 4 0.000622 -0.007129 -0.005079 0.041281 -0.001063 0.011868
# 5 0.000816 0.002897 0.005270 -0.001063 0.039136 -0.002634
# 6 -0.015617 -0.010020 0.000459 0.011868 -0.002634 0.054880
#
#
# Mechanical properties :
#
#
# Convention : Reuss Voigt Hill
#
# Bulk Modulus (GPa) = 25.17034 43.31633 34.24333
# Shear Modulus (GPa) = 20.71816 26.13855 23.42836
#
# Velocity S-wave (km/s) = 3.18081 3.57275 3.38246
# Velocity P-wave (km/s) = 5.07757 6.17839 5.65483
#
# Compressibility (1/GPa) = 0.03972930
#
# Stress axis : x y z
#
# Youngs Moduli (GPa) = 50.23341 41.50312 44.92325
#
# Poissons Ratio (x) = 0.20428 0.28628
# Poissons Ratio (y) = 0.24725 0.08857
# Poissons Ratio (z) = 0.32012 0.08183
#
# Static dielectric constant tensor:
#      x y z
#    x 3.754780 0.466590 -0.145640 
#    y 0.466590 3.538770 -0.010900 
#    z -0.145640 -0.010900 3.726540 
# 
# 
# High freq. dielectric constant tensor:
#      x y z
#    x 1.792570 0.039230 -0.015040 
#    y 0.039230 1.782580 0.003920 
#    z -0.015040 0.003920 1.792360 
# 
# From -- ./inp_files/306232.got.cif
#   From: 2010.06.25/outbox.cif.g09.slc.cpg/sg2_154_cif.got.tgz:306232.got - 2010.06.27 13:26:56.
