data_PCOD8041691
_publ_section_title
;
Structure prediction by ZEFSAII (Michael W. Deem and Ramdas Pophale) SiO2 
 PCOD8041691
Probable space group: P -1
;
_chemical_formula_sum "Si O2"
_cell_formula_units_Z 16
_cell_length_a 12.040792
_cell_length_b 10.277239
_cell_length_c 8.591609
_cell_angle_alpha 91.151054
_cell_angle_beta 115.099997
_cell_angle_gamma 124.762430
_cell_volume 740.291420
_symmetry_space_group_name_H-M "P -1"
_symmetry_group_IT_number 2
_symmetry_cell_setting 'triclinic'
loop_
_space_group_symop_operation_xyz
x,y,z
-x,-y,-z
loop_
_atom_site_type_symbol
_atom_site_label
_atom_site_fract_x
_atom_site_fract_y
_atom_site_fract_z
Si Si1 0.986580 0.290307 0.587561
Si Si2 0.529394 0.607632 0.254181
Si Si3 0.028558 0.239887 0.957418
Si Si4 0.856684 0.944023 0.066993
Si Si5 0.133603 0.192878 0.455194
Si Si6 0.755799 0.345096 0.393687
Si Si7 0.493091 0.307205 0.083654
Si Si8 0.262660 0.502903 0.323454
O O1 0.821154 0.241474 0.425306
O O2 0.971304 0.259861 0.761764
O O3 0.021779 0.176818 0.523909
O O4 0.128525 0.483579 0.632732
O O5 0.715171 0.782831 0.382777
O O6 0.524195 0.446815 0.226936
O O7 0.433512 0.594447 0.346357
O O8 0.447758 0.613496 0.051504
O O9 0.156836 0.207817 0.022688
O O10 0.120299 0.416438 0.109507
O O11 0.880590 0.078938 0.962732
O O12 0.690260 0.858939 0.047998
O O13 0.008529 0.027211 0.274195
O O14 0.223721 0.357998 0.408640
O O15 0.586613 0.244549 0.203450
O O16 0.738668 0.369480 0.567378
#
# Coordination Sequence:
#
# PCOD8041691 Si02
#       8
#     2   2   2   2   2   2   2   2
#     4  10  20  39  58  81 113 151 196 227 273 332
#     4  11  20  33  60  86 114 141 184 241 290 322
#     4  10  20  35  57  82 116 152 181 233 280 339
#     4  10  22  36  56  85 118 146 184 227 294 335
#     4  10  21  36  58  86 114 149 182 233 282 339
#     4  10  22  36  58  83 113 153 188 234 276 326
#     4  11  21  36  55  85 113 149 183 235 281 334
#     4  10  19  33  56  89 114 141 185 235 285 331
#
# _framework density 21.613111
#
# number of rings (size 3 to 8) (size 9 to 14) (size 15 to 20)
#    0.000    1.750    3.750    1.875    0.000    2.500 
#    0.000    3.750    0.000    0.000    0.000    0.000 
#    0.000    0.000    0.000    0.000    0.000    0.000 
#
# Total GULP energy -198298.136595 kJ/mol
# GULP energy per Si atom -12393.633537 kJ/mol
# Density = 2.156392 g / cm^3
# Si number density = 21.613111 Si / 1000 Ang^3
#
#
#
# Elastic Constant Matrix: (Units=GPa)
#
#
# Indices 1 2 3 4 5 6 
#
# 1 80.9839 27.6474 35.1997 -5.5296 6.7877 19.0181
# 2 27.6474 40.6551 31.1087 -4.0260 2.4384 22.3626
# 3 35.1997 31.1087 118.1802 -6.4892 6.0940 13.5459
# 4 -5.5296 -4.0260 -6.4892 28.3801 6.4693 2.3987
# 5 6.7877 2.4384 6.0940 6.4693 32.5162 2.4064
# 6 19.0181 22.3626 13.5459 2.3987 2.4064 20.4776
#
#
#
# Elastic Compliance Matrix: (Units=1/GPa)
#
#
# Indices 1 2 3 4 5 6 
#
# 1 0.017838 -0.003122 -0.002810 0.004021 -0.002917 -0.011426
# 2 -0.003122 0.079194 -0.010042 0.015112 -0.000592 -0.078643
# 3 -0.002810 -0.010042 0.011321 0.000394 -0.001319 0.006196
# 4 0.004021 0.015112 0.000394 0.042291 -0.008652 -0.024435
# 5 -0.002917 -0.000592 -0.001319 -0.008652 0.033277 0.001331
# 6 -0.011426 -0.078643 0.006196 -0.024435 0.001331 0.143936
#
#
# Mechanical properties :
#
#
# Convention : Reuss Voigt Hill
#
# Bulk Modulus (GPa) = 13.08813 47.52563 30.30688
# Shear Modulus (GPa) = 12.97777 25.99901 19.48839
#
# Velocity S-wave (km/s) = 2.45308 3.47209 3.00608
# Velocity P-wave (km/s) = 3.75397 6.17340 5.10897
#
# Compressibility (1/GPa) = 0.07640514
#
# Stress axis : x y z
#
# Youngs Moduli (GPa) = 56.06076 12.62715 88.32761
#
# Poissons Ratio (x) = 0.03942 0.24822
# Poissons Ratio (y) = 0.17501 0.88700
# Poissons Ratio (z) = 0.15755 0.12680
#
# Static dielectric constant tensor:
#      x y z
#    x 3.908180 0.214120 -0.123070 
#    y 0.214120 3.653950 0.018920 
#    z -0.123070 0.018920 4.091330 
# 
# 
# High freq. dielectric constant tensor:
#      x y z
#    x 1.825110 0.030140 -0.008030 
#    y 0.030140 1.821260 -0.008650 
#    z -0.008030 -0.008650 1.861150 
# 
# From -- ./inp_files/258230.got.cif
#   From: 2010.06.25/outbox.cif.g09.slc.cpg/sg2_130_cif.got.tgz:258230.got - 2010.06.27 13:26:56.
