data_PCOD8041405
_publ_section_title
;
Structure prediction by ZEFSAII (Michael W. Deem and Ramdas Pophale) SiO2 
 PCOD8041405
Probable space group: P -1
;
_chemical_formula_sum "Si O2"
_cell_formula_units_Z 16
_cell_length_a 20.424454
_cell_length_b 20.269609
_cell_length_c 11.870935
_cell_angle_alpha 153.586916
_cell_angle_beta 153.197027
_cell_angle_gamma 19.461186
_cell_volume 688.901289
_symmetry_space_group_name_H-M "P -1"
_symmetry_group_IT_number 2
_symmetry_cell_setting 'triclinic'
loop_
_space_group_symop_operation_xyz
x,y,z
-x,-y,-z
loop_
_atom_site_type_symbol
_atom_site_label
_atom_site_fract_x
_atom_site_fract_y
_atom_site_fract_z
Si Si1 0.300571 0.923109 0.457767
Si Si2 0.168019 0.472691 0.782683
Si Si3 0.911529 0.768532 0.190314
Si Si4 0.244173 0.441106 0.356235
Si Si5 0.727090 0.303868 0.092785
Si Si6 0.394541 0.794792 0.040202
Si Si7 0.409059 0.046961 0.609784
Si Si8 0.173674 0.097388 0.974941
O O1 0.511315 0.706230 0.504841
O O2 0.163644 0.084608 0.593797
O O3 0.357201 0.012927 0.597065
O O4 0.174965 0.884354 0.136304
O O5 0.355102 0.407421 0.895723
O O6 0.275124 0.294549 0.771642
O O7 0.000000 0.500000 0.500000
O O8 0.045169 0.697239 0.993221
O O9 0.145689 0.548404 0.246406
O O10 0.790091 0.703452 0.881553
O O11 0.884514 0.893914 0.231911
O O12 0.156619 0.621749 0.596197
O O13 0.500000 0.500000 0.000000
O O14 0.707435 0.254174 0.113084
O O15 0.350564 0.986439 0.322122
O O16 0.271961 0.885396 0.869928
O O17 0.655188 0.897191 0.751791
#
# Coordination Sequence:
#
# PCOD8041405 Si02
#       8
#     2   2   2   2   2   2   2   2
#     4  10  21  39  63  91 124 167 200 257 312 363
#     4  11  19  31  55  88 125 158 197 256 309 352
#     4  11  24  37  63  97 125 162 207 259 307 369
#     4  10  22  40  60  91 126 161 208 255 305 366
#     4   9  21  43  67  89 124 164 204 258 310 371
#     4  10  20  38  58  88 122 162 206 253 308 367
#     4  10  19  32  56  88 123 155 203 254 311 355
#     4  11  21  35  56  91 125 161 201 256 304 366
#
# _framework density 23.225390000000001
#
# number of rings (size 3 to 8) (size 9 to 14) (size 15 to 20)
#    0.000    1.750    3.750    1.125    3.500    1.500 
#    0.000    3.125    0.000    3.750    0.000    0.000 
#    0.000    0.000    0.000    0.000    0.000    0.000 
#
# Total GULP energy -198235.835155 kJ/mol
# GULP energy per Si atom -12389.739697 kJ/mol
# Density = 2.317253 g / cm^3
# Si number density = 23.225390 Si / 1000 Ang^3
#
#
#
# Elastic Constant Matrix: (Units=GPa)
#
#
# Indices 1 2 3 4 5 6 
#
# 1 103.7768 47.1319 17.9307 -0.9085 -32.4961 7.5156
# 2 47.1319 97.9492 35.0615 -11.6386 -10.5932 6.9556
# 3 17.9307 35.0615 78.9492 3.0277 -15.0059 -7.5962
# 4 -0.9085 -11.6386 3.0277 34.9066 3.0349 -11.2499
# 5 -32.4961 -10.5932 -15.0059 3.0349 21.7843 -4.8753
# 6 7.5156 6.9556 -7.5962 -11.2499 -4.8753 38.6960
#
#
#
# Elastic Compliance Matrix: (Units=1/GPa)
#
#
# Indices 1 2 3 4 5 6 
#
# 1 0.025649 -0.011584 0.007081 -0.006721 0.038760 0.001420
# 2 -0.011584 0.018346 -0.009158 0.007114 -0.016293 -0.002830
# 3 0.007081 -0.009158 0.019980 -0.004700 0.021774 0.005570
# 4 -0.006721 0.007114 -0.004700 0.034827 -0.012957 0.007597
# 5 0.038760 -0.016293 0.021774 -0.012957 0.114930 0.010388
# 6 0.001420 -0.002830 0.005570 0.007597 0.010388 0.030686
#
#
# Mechanical properties :
#
#
# Convention : Reuss Voigt Hill
#
# Bulk Modulus (GPa) = 27.28379 53.43595 40.35987
# Shear Modulus (GPa) = 17.60806 31.11411 24.36109
#
# Velocity S-wave (km/s) = 2.75642 3.66411 3.24218
# Velocity P-wave (km/s) = 4.68010 6.39988 5.60633
#
# Compressibility (1/GPa) = 0.03665180
#
# Stress axis : x y z
#
# Youngs Moduli (GPa) = 38.98730 54.50715 50.04957
#
# Poissons Ratio (x) = 0.63143 -0.35439
# Poissons Ratio (y) = 0.45164 0.45838
# Poissons Ratio (z) = -0.27606 0.49920
#
# Static dielectric constant tensor:
#      x y z
#    x 4.099830 0.190760 -0.025450 
#    y 0.190760 4.721430 -0.272720 
#    z -0.025450 -0.272720 4.751760 
# 
# 
# High freq. dielectric constant tensor:
#      x y z
#    x 1.893150 0.017810 -0.012320 
#    y 0.017810 1.937610 -0.013390 
#    z -0.012320 -0.013390 1.900370 
# 
# From -- ./inp_files/472657.got.cif
#   From: 2010.06.25/outbox.cif.g09.slc.cpg/sg2_237_cif.got.tgz:472657.got - 2010.06.27 13:26:56.
