data_PCOD8041123
_publ_section_title
;
Structure prediction by ZEFSAII (Michael W. Deem and Ramdas Pophale) SiO2 
 PCOD8041123
Probable space group: P -1
;
_chemical_formula_sum "Si O2"
_cell_formula_units_Z 16
_cell_length_a 13.379943
_cell_length_b 13.846468
_cell_length_c 13.975573
_cell_angle_alpha 122.160973
_cell_angle_beta 124.645305
_cell_angle_gamma 21.341031
_cell_volume 775.144592
_symmetry_space_group_name_H-M "P -1"
_symmetry_group_IT_number 2
_symmetry_cell_setting 'triclinic'
loop_
_space_group_symop_operation_xyz
x,y,z
-x,-y,-z
loop_
_atom_site_type_symbol
_atom_site_label
_atom_site_fract_x
_atom_site_fract_y
_atom_site_fract_z
Si Si1 0.263267 0.488891 0.654682
Si Si2 0.646821 0.940643 0.134033
Si Si3 0.126765 0.396846 0.621911
Si Si4 0.896685 0.260963 0.550154
Si Si5 0.413211 0.584752 0.709999
Si Si6 0.694857 0.992511 0.506450
Si Si7 0.846203 0.556903 0.737672
Si Si8 0.022473 0.113545 0.745070
O O1 0.278231 0.394793 0.707901
O O2 0.413973 0.484707 0.739878
O O3 0.937426 0.792170 0.613512
O O4 0.405440 0.295409 0.543167
O O5 0.424662 0.159599 0.210536
O O6 0.799052 0.923074 0.165054
O O7 0.880121 0.660201 0.160278
O O8 0.500000 0.000000 0.000000
O O9 0.351120 0.102043 0.597481
O O10 0.000000 0.500000 0.500000
O O11 0.894993 0.582190 0.677397
O O12 0.659617 0.407550 0.429751
O O13 0.780198 0.480035 0.642769
O O14 0.192710 0.031714 0.535791
O O15 0.973594 0.119111 0.609919
O O16 0.182829 0.876011 0.761915
O O17 0.717571 0.386110 0.771857
#
# Coordination Sequence:
#
# PCOD8041123 Si02
#       8
#     2   2   2   2   2   2   2   2
#     4  10  19  31  45  69 107 150 181 209 247 306
#     4  11  24  44  63  82 108 141 193 259 297 323
#     4   9  19  33  54  82 119 154 184 225 273 334
#     4   9  19  32  49  76 117 149 178 222 267 338
#     4  11  21  32  48  78 116 154 182 207 260 348
#     4   9  18  29  45  68 102 151 188 209 251 306
#     4  10  22  37  60  90 113 147 193 229 288 349
#     4  11  22  34  52  77 103 144 188 228 281 334
#
# _framework density 20.641311000000002
#
# number of rings (size 3 to 8) (size 9 to 14) (size 15 to 20)
#    0.000    2.000    0.000    5.250    0.000   18.000 
#    0.000    0.000    0.000    0.000    0.000    5.250 
#    0.000    0.000    0.000    0.000    0.000    0.000 
#
# Total GULP energy -198245.974593 kJ/mol
# GULP energy per Si atom -12390.373412 kJ/mol
# Density = 2.059433 g / cm^3
# Si number density = 20.641311 Si / 1000 Ang^3
#
#
#
# Elastic Constant Matrix: (Units=GPa)
#
#
# Indices 1 2 3 4 5 6 
#
# 1 139.9138 36.8245 15.8657 -0.5834 4.8400 3.9788
# 2 36.8245 84.7594 15.8133 -6.1099 3.3813 -4.8080
# 3 15.8657 15.8133 55.2698 -11.2910 12.5591 -10.9623
# 4 -0.5834 -6.1099 -11.2910 20.6998 -4.1718 2.1246
# 5 4.8400 3.3813 12.5591 -4.1718 18.7958 -1.7505
# 6 3.9788 -4.8080 -10.9623 2.1246 -1.7505 22.6819
#
#
#
# Elastic Compliance Matrix: (Units=1/GPa)
#
#
# Indices 1 2 3 4 5 6 
#
# 1 0.008442 -0.003532 -0.002260 -0.001857 -0.000739 -0.003205
# 2 -0.003532 0.014035 -0.002109 0.002777 0.000630 0.002364
# 3 -0.002260 -0.002109 0.026624 0.009983 -0.013604 0.010832
# 4 -0.001857 0.002777 0.009983 0.055578 0.005735 0.000976
# 5 -0.000739 0.000630 -0.013604 0.005735 0.063461 -0.001951
# 6 -0.003205 0.002364 0.010832 0.000976 -0.001951 0.050145
#
#
# Mechanical properties :
#
#
# Convention : Reuss Voigt Hill
#
# Bulk Modulus (GPa) = 30.03002 46.32776 38.17889
# Shear Modulus (GPa) = 20.39255 26.53148 23.46201
#
# Velocity S-wave (km/s) = 3.14657 3.58908 3.37509
# Velocity P-wave (km/s) = 5.27080 6.29827 5.80730
#
# Compressibility (1/GPa) = 0.03330001
#
# Stress axis : x y z
#
# Youngs Moduli (GPa) = 118.45268 71.24875 37.55975
#
# Poissons Ratio (x) = 0.25168 0.08488
# Poissons Ratio (y) = 0.41842 0.07920
# Poissons Ratio (z) = 0.26770 0.15023
#
# Static dielectric constant tensor:
#      x y z
#    x 4.502670 0.182220 0.015590 
#    y 0.182220 3.780930 -0.029540 
#    z 0.015590 -0.029540 3.117290 
# 
# 
# High freq. dielectric constant tensor:
#      x y z
#    x 1.828740 0.001820 0.005740 
#    y 0.001820 1.823460 0.002870 
#    z 0.005740 0.002870 1.716320 
# 
# From -- ./inp_files/533369.got.cif
#   From: 2010.06.25/outbox.cif.g09.slc.cpg/sg2_267_cif.got.tgz:533369.got - 2010.06.27 13:26:56.
