data_PCOD8041646
_publ_section_title
;
Structure prediction by ZEFSAII (Michael W. Deem and Ramdas Pophale) SiO2 
 PCOD8041646
Probable space group: P -1
;
_chemical_formula_sum "Si O2"
_cell_formula_units_Z 16
_cell_length_a 9.460610
_cell_length_b 20.407051
_cell_length_c 5.003191
_cell_angle_alpha 123.724578
_cell_angle_beta 92.404856
_cell_angle_gamma 73.040249
_cell_volume 759.650704
_symmetry_space_group_name_H-M "P -1"
_symmetry_group_IT_number 2
_symmetry_cell_setting 'triclinic'
loop_
_space_group_symop_operation_xyz
x,y,z
-x,-y,-z
loop_
_atom_site_type_symbol
_atom_site_label
_atom_site_fract_x
_atom_site_fract_y
_atom_site_fract_z
Si Si1 0.713293 0.417184 0.842743
Si Si2 0.422657 0.637049 0.781334
Si Si3 0.839549 0.012965 0.625558
Si Si4 0.475635 0.134671 0.337850
Si Si5 0.599281 0.185952 0.979617
Si Si6 0.723232 0.962825 0.988937
Si Si7 0.972455 0.433744 0.650955
Si Si8 0.750800 0.553834 0.501650
O O1 0.612436 0.422187 0.581482
O O2 0.891397 0.375987 0.675350
O O3 0.661811 0.367266 0.958643
O O4 0.695050 0.511733 0.147078
O O5 0.602939 0.610939 0.773172
O O6 0.358504 0.732049 0.895133
O O7 0.856018 0.966425 0.808030
O O8 0.754710 0.111743 0.853041
O O9 0.757678 0.967757 0.313755
O O10 0.000000 0.000000 0.500000
O O11 0.493668 0.166232 0.703591
O O12 0.314068 0.122454 0.261596
O O13 0.503221 0.200128 0.277176
O O14 0.590345 0.044403 0.069483
O O15 0.852001 0.477671 0.514369
O O16 0.140765 0.390446 0.444337
O O17 0.000000 0.500000 0.000000
#
# Coordination Sequence:
#
# PCOD8041646 Si02
#       8
#     2   2   2   2   2   2   2   2
#     4  11  22  38  58  88 111 151 193 242 275 341
#     4  12  24  35  60  84 119 150 191 236 291 335
#     4  10  19  33  56  80 112 142 185 220 272 326
#     4   9  17  34  55  77 107 132 184 222 274 318
#     4  10  21  36  53  80 113 147 173 230 280 330
#     4   9  17  30  57  83  96 137 178 235 262 310
#     4   9  20  37  61  82 112 142 187 239 290 328
#     4  10  21  38  60  87 111 148 197 240 281 337
#
# _framework density 21.062313
#
# number of rings (size 3 to 8) (size 9 to 14) (size 15 to 20)
#    0.000    2.000    1.250    2.625    3.500    3.000 
#    0.000    0.000    8.250    0.000    0.000    0.000 
#    0.000    0.000    0.000    0.000    0.000    0.000 
#
# Total GULP energy -198220.732041 kJ/mol
# GULP energy per Si atom -12388.795753 kJ/mol
# Density = 2.101437 g / cm^3
# Si number density = 21.062313 Si / 1000 Ang^3
#
#
#
# Elastic Constant Matrix: (Units=GPa)
#
#
# Indices 1 2 3 4 5 6 
#
# 1 148.7301 42.2154 18.3465 4.3808 -14.8046 28.5596
# 2 42.2154 54.3935 8.7892 -9.3812 -13.7296 17.6066
# 3 18.3465 8.7892 41.9568 -12.3389 -2.5138 -4.8561
# 4 4.3808 -9.3812 -12.3389 27.3129 5.0999 -2.8244
# 5 -14.8046 -13.7296 -2.5138 5.0999 22.7562 -12.9106
# 6 28.5596 17.6066 -4.8561 -2.8244 -12.9106 30.1919
#
#
#
# Elastic Compliance Matrix: (Units=1/GPa)
#
#
# Indices 1 2 3 4 5 6 
#
# 1 0.011297 -0.006157 -0.007102 -0.007978 -0.000606 -0.009244
# 2 -0.006157 0.029063 -0.001411 0.008197 0.007303 -0.007462
# 3 -0.007102 -0.001411 0.034393 0.017182 0.003704 0.016264
# 4 -0.007978 0.008197 0.017182 0.050244 -0.005021 0.008083
# 5 -0.000606 0.007303 0.003704 -0.005021 0.062677 0.023242
# 6 -0.009244 -0.007462 0.016264 0.008083 0.023242 0.059527
#
#
# Mechanical properties :
#
#
# Convention : Reuss Voigt Hill
#
# Bulk Modulus (GPa) = 22.02075 42.64251 32.33163
# Shear Modulus (GPa) = 17.14210 27.76748 22.45479
#
# Velocity S-wave (km/s) = 2.85594 3.63485 3.26868
# Velocity P-wave (km/s) = 4.62093 6.15678 5.44330
#
# Compressibility (1/GPa) = 0.04541171
#
# Stress axis : x y z
#
# Youngs Moduli (GPa) = 88.51967 34.40743 29.07583
#
# Poissons Ratio (x) = 0.21184 0.20651
# Poissons Ratio (y) = 0.54501 0.04104
# Poissons Ratio (z) = 0.62871 0.04856
#
# Static dielectric constant tensor:
#      x y z
#    x 4.449050 0.336950 0.020620 
#    y 0.336950 3.708230 -0.611060 
#    z 0.020620 -0.611060 4.043520 
# 
# 
# High freq. dielectric constant tensor:
#      x y z
#    x 1.841750 0.029460 0.007750 
#    y 0.029460 1.787310 -0.043950 
#    z 0.007750 -0.043950 1.811650 
# 
# From -- ./inp_files/52097.got.cif
#   From: 2010.06.25/outbox.cif.g09.slc.cpg/sg2_27_cif.got.tgz:52097.got - 2010.06.27 13:26:56.
