data_PCOD8041198
_publ_section_title
;
Structure prediction by ZEFSAII (Michael W. Deem and Ramdas Pophale) SiO2 
 PCOD8041198
Probable space group: P -1
;
_chemical_formula_sum "Si O2"
_cell_formula_units_Z 16
_cell_length_a 6.360563
_cell_length_b 5.425697
_cell_length_c 18.178285
_cell_angle_alpha 88.377563
_cell_angle_beta 87.236934
_cell_angle_gamma 74.710481
_cell_volume 604.354381
_symmetry_space_group_name_H-M "P -1"
_symmetry_group_IT_number 2
_symmetry_cell_setting 'triclinic'
loop_
_space_group_symop_operation_xyz
x,y,z
-x,-y,-z
loop_
_atom_site_type_symbol
_atom_site_label
_atom_site_fract_x
_atom_site_fract_y
_atom_site_fract_z
Si Si1 0.934784 0.239954 0.913380
Si Si2 0.533622 0.883707 0.273583
Si Si3 0.191634 0.657008 0.933593
Si Si4 0.842876 0.362615 0.465252
Si Si5 0.573911 0.369743 0.212978
Si Si6 0.546338 0.172259 0.561711
Si Si7 0.997040 0.765808 0.692066
Si Si8 0.059571 0.721539 0.251202
O O1 0.106625 0.403192 0.928480
O O2 0.846558 0.329600 0.833075
O O3 0.028425 0.931961 0.911846
O O4 0.750756 0.314070 0.980879
O O5 0.439478 0.650010 0.244524
O O6 0.461133 0.955529 0.358274
O O7 0.795517 0.803721 0.258971
O O8 0.445825 0.151514 0.229164
O O9 0.395816 0.612370 0.875481
O O10 0.785959 0.194201 0.534154
O O11 0.625945 0.553999 0.435066
O O12 0.946714 0.199751 0.394021
O O13 0.000000 0.500000 0.500000
O O14 0.800392 0.298948 0.254687
O O15 0.500000 0.000000 0.500000
O O16 0.866424 0.546840 0.703475
O O17 0.849850 0.050343 0.715058
#
# Coordination Sequence:
#
# PCOD8041198 Si02
#       8
#     2   2   2   2   2   2   2   2
#     4  10  16  22  34  59  93 136 171 215 267 324
#     4  10  18  28  50  69  95 132 186 218 270 338
#     4  10  16  22  34  58  96 133 172 215 269 320
#     4  11  25  41  59  86 116 150 196 249 298 349
#     4  10  15  28  44  69  95 138 180 221 269 336
#     4  11  23  40  61  83 112 153 195 241 298 359
#     4  10  18  31  49  69  97 136 182 221 278 338
#     4  10  15  28  45  68  96 137 183 219 271 337
#
# _framework density 26.474530999999999
#
# number of rings (size 3 to 8) (size 9 to 14) (size 15 to 20)
#    0.000    1.750    7.500    1.500    1.750    0.500 
#    0.000    0.000    0.000    0.000    0.000    0.000 
#    0.000    0.000    0.000   12.375    0.000    1.500 
#
# Total GULP energy -198287.903861 kJ/mol
# GULP energy per Si atom -12392.993991 kJ/mol
# Density = 2.641427 g / cm^3
# Si number density = 26.474531 Si / 1000 Ang^3
#
#
#
# Elastic Constant Matrix: (Units=GPa)
#
#
# Indices 1 2 3 4 5 6 
#
# 1 57.1029 39.9715 47.6023 2.5807 -11.1132 16.4380
# 2 39.9715 198.1246 65.1072 15.8134 -30.1904 28.6950
# 3 47.6023 65.1072 259.3005 14.7214 -48.4230 8.6047
# 4 2.5807 15.8134 14.7214 50.8428 2.7799 -9.2880
# 5 -11.1132 -30.1904 -48.4230 2.7799 36.8450 3.1231
# 6 16.4380 28.6950 8.6047 -9.2880 3.1231 48.7563
#
#
#
# Elastic Compliance Matrix: (Units=1/GPa)
#
#
# Indices 1 2 3 4 5 6 
#
# 1 0.024184 -0.002627 -0.003266 -0.000685 0.001430 -0.006253
# 2 -0.002627 0.007380 0.000089 -0.003337 0.006005 -0.004494
# 3 -0.003266 0.000089 0.005904 -0.002113 0.007078 -0.000849
# 4 -0.000685 -0.003337 -0.002113 0.023166 -0.008102 0.007500
# 5 0.001430 0.006005 0.007078 -0.008102 0.043218 -0.009577
# 6 -0.006253 -0.004494 -0.000849 0.007500 -0.009577 0.027455
#
#
# Mechanical properties :
#
#
# Convention : Reuss Voigt Hill
#
# Bulk Modulus (GPa) = 38.67207 91.09886 64.88547
# Shear Modulus (GPa) = 32.99545 51.41196 42.20370
#
# Velocity S-wave (km/s) = 3.53414 4.41153 3.99698
# Velocity P-wave (km/s) = 5.59397 7.77390 6.77222
#
# Compressibility (1/GPa) = 0.02585845
#
# Stress axis : x y z
#
# Youngs Moduli (GPa) = 41.35021 135.49500 169.38300
#
# Poissons Ratio (x) = 0.35600 0.55328
# Poissons Ratio (y) = 0.10864 -0.01511
# Poissons Ratio (z) = 0.13507 -0.01208
#
# Static dielectric constant tensor:
#      x y z
#    x 4.688260 0.199660 -0.463500 
#    y 0.199660 6.338210 0.144640 
#    z -0.463500 0.144640 5.085020 
# 
# 
# High freq. dielectric constant tensor:
#      x y z
#    x 2.054130 0.002850 -0.026460 
#    y 0.002850 2.095910 0.007330 
#    z -0.026460 0.007330 2.077020 
# 
# From -- ./inp_files/552686.got.cif
#   From: 2010.06.25/outbox.cif.g09.slc.cpg/sg2_277_cif.got.tgz:552686.got - 2010.06.27 13:26:56.
