data_PCOD8041602
_publ_section_title
;
Structure prediction by ZEFSAII (Michael W. Deem and Ramdas Pophale) SiO2 
 PCOD8041602
Probable space group: P -1
;
_chemical_formula_sum "Si O2"
_cell_formula_units_Z 16
_cell_length_a 11.348449
_cell_length_b 8.715240
_cell_length_c 17.302496
_cell_angle_alpha 64.822000
_cell_angle_beta 90.339260
_cell_angle_gamma 40.510120
_cell_volume 833.278029
_symmetry_space_group_name_H-M "P -1"
_symmetry_group_IT_number 2
_symmetry_cell_setting 'triclinic'
loop_
_space_group_symop_operation_xyz
x,y,z
-x,-y,-z
loop_
_atom_site_type_symbol
_atom_site_label
_atom_site_fract_x
_atom_site_fract_y
_atom_site_fract_z
Si Si1 0.942482 0.730966 0.849377
Si Si2 0.284971 0.324273 0.806191
Si Si3 0.698101 0.319578 0.227533
Si Si4 0.376581 0.423377 0.194042
Si Si5 0.258882 0.353724 0.073238
Si Si6 0.061423 0.669072 0.419574
Si Si7 0.203306 0.315320 0.639426
Si Si8 0.874986 0.182655 0.743057
O O1 0.105424 0.485712 0.833107
O O2 0.777797 0.775196 0.850772
O O3 0.076117 0.604441 0.955224
O O4 0.803776 0.070989 0.758373
O O5 0.362322 0.423725 0.795764
O O6 0.180172 0.426292 0.699586
O O7 0.499689 0.947376 0.899415
O O8 0.477201 0.488806 0.167851
O O9 0.833582 0.049567 0.351641
O O10 0.857007 0.139423 0.190885
O O11 0.245455 0.528826 0.094136
O O12 0.207029 0.632008 0.219028
O O13 0.564591 0.058015 0.289849
O O14 0.188109 0.483341 0.539602
O O15 0.213504 0.598008 0.377282
O O16 0.999282 0.567281 0.399019
#
# Coordination Sequence:
#
# PCOD8041602 Si02
#       8
#     2   2   2   2   2   2   2   2
#     4  10  21  38  52  77 106 136 172 214 259 307
#     4  10  19  35  58  74 106 138 169 213 262 304
#     4   8  18  34  51  76 106 136 167 213 253 303
#     4  10  19  33  55  75 105 138 172 214 255 301
#     4  10  22  34  55  79 102 134 178 214 255 305
#     4   8  17  34  51  79 105 135 171 211 250 306
#     4   9  18  32  55  80 103 134 175 208 256 304
#     4   9  19  34  54  72 107 139 168 208 262 298
#
# _framework density 19.201274999999999
#
# number of rings (size 3 to 8) (size 9 to 14) (size 15 to 20)
#    0.750    2.000    0.000    1.125    1.750    1.500 
#    0.000    2.500    0.000    3.750    0.000    0.000 
#    0.000    0.000    0.000    0.000    0.000    0.000 
#
# Total GULP energy -198295.132990 kJ/mol
# GULP energy per Si atom -12393.445812 kJ/mol
# Density = 1.915757 g / cm^3
# Si number density = 19.201275 Si / 1000 Ang^3
#
#
#
# Elastic Constant Matrix: (Units=GPa)
#
#
# Indices 1 2 3 4 5 6 
#
# 1 69.7964 19.4709 30.3240 13.6503 -6.6595 6.2865
# 2 19.4709 83.9907 16.8559 21.1291 -4.9356 -0.1258
# 3 30.3240 16.8559 46.4768 15.9420 -1.3655 2.0866
# 4 13.6503 21.1291 15.9420 21.2722 0.4889 -2.5556
# 5 -6.6595 -4.9356 -1.3655 0.4889 29.0164 -0.3045
# 6 6.2865 -0.1258 2.0866 -2.5556 -0.3045 20.1669
#
#
#
# Elastic Compliance Matrix: (Units=1/GPa)
#
#
# Indices 1 2 3 4 5 6 
#
# 1 0.021599 -0.001243 -0.011617 -0.004746 0.004215 -0.006076
# 2 -0.001243 0.016277 0.000562 -0.016042 0.002764 -0.001560
# 3 -0.011617 0.000562 0.035988 -0.020384 -0.000562 -0.002690
# 4 -0.004746 -0.016042 -0.020384 0.083077 -0.006031 0.013925
# 5 0.004215 0.002764 -0.000562 -0.006031 0.035961 -0.001460
# 6 -0.006076 -0.001560 -0.002690 0.013925 -0.001460 0.053491
#
#
# Mechanical properties :
#
#
# Convention : Reuss Voigt Hill
#
# Bulk Modulus (GPa) = 20.29746 37.06281 28.68013
# Shear Modulus (GPa) = 17.39657 22.99867 20.19762
#
# Velocity S-wave (km/s) = 3.01327 3.46463 3.24680
# Velocity P-wave (km/s) = 4.76447 5.94551 5.38745
#
# Compressibility (1/GPa) = 0.04926725
#
# Stress axis : x y z
#
# Youngs Moduli (GPa) = 46.29852 61.43560 27.78690
#
# Poissons Ratio (x) = 0.07638 0.32280
# Poissons Ratio (y) = 0.05756 -0.01560
# Poissons Ratio (z) = 0.53785 -0.03450
#
# Static dielectric constant tensor:
#      x y z
#    x 3.569660 0.089480 -0.175030 
#    y 0.089480 3.358310 0.064370 
#    z -0.175030 0.064370 3.332120 
# 
# 
# High freq. dielectric constant tensor:
#      x y z
#    x 1.745360 0.007570 -0.014550 
#    y 0.007570 1.742400 0.005620 
#    z -0.014550 0.005620 1.723060 
# 
# From -- ./inp_files/268443.got.cif
#   From: 2010.06.25/outbox.cif.g09.slc.cpg/sg2_135_cif.got.tgz:268443.got - 2010.06.27 13:26:56.
