data_PCOD8041750
_publ_section_title
;
Structure prediction by ZEFSAII (Michael W. Deem and Ramdas Pophale) SiO2 
 PCOD8041750
Probable space group: P -1
;
_chemical_formula_sum "Si O2"
_cell_formula_units_Z 16
_cell_length_a 18.366309
_cell_length_b 10.449820
_cell_length_c 19.822806
_cell_angle_alpha 147.360124
_cell_angle_beta 156.319329
_cell_angle_gamma 34.613915
_cell_volume 800.220065
_symmetry_space_group_name_H-M "P -1"
_symmetry_group_IT_number 2
_symmetry_cell_setting 'triclinic'
loop_
_space_group_symop_operation_xyz
x,y,z
-x,-y,-z
loop_
_atom_site_type_symbol
_atom_site_label
_atom_site_fract_x
_atom_site_fract_y
_atom_site_fract_z
Si Si1 0.067604 0.693923 0.097767
Si Si2 0.338789 0.336710 0.085330
Si Si3 0.075341 0.007153 0.674342
Si Si4 0.729817 0.023134 0.310165
Si Si5 0.631329 0.543852 0.987998
Si Si6 0.938076 0.798473 0.657498
Si Si7 0.076519 0.933585 0.961415
Si Si8 0.231718 0.583596 0.713084
O O1 0.262876 0.572133 0.172281
O O2 0.097983 0.915796 0.270069
O O3 0.000000 0.500000 0.000000
O O4 0.916851 0.820254 0.966777
O O5 0.161876 0.215233 0.873845
O O6 0.511828 0.159840 0.192182
O O7 0.409119 0.408223 0.104537
O O8 0.193424 0.901682 0.661703
O O9 0.090040 0.781353 0.635901
O O10 0.854955 0.101629 0.510491
O O11 0.751583 0.729087 0.199260
O O12 0.724960 0.258482 0.950811
O O13 0.441381 0.609041 0.898652
O O14 0.144242 0.638552 0.737953
O O15 0.775495 0.684814 0.439253
O O16 0.940739 0.800492 0.743096
O O17 0.000000 0.000000 0.000000
#
# Coordination Sequence:
#
# PCOD8041750 Si02
#       8
#     2   2   2   2   2   2   2   2
#     4  10  22  41  64  85 125 178 212 254 330 392
#     4  11  19  38  61  93 129 168 216 264 321 386
#     4  10  19  33  57  90 132 163 204 267 326 371
#     4  10  20  32  57 100 123 166 214 263 321 378
#     4  11  19  35  63  91 127 161 217 274 314 381
#     4   9  23  38  60  89 120 174 207 259 335 374
#     4  10  21  41  60  91 122 169 216 260 315 383
#     4  11  19  38  61  90 131 161 212 274 326 379
#
# _framework density 19.994501
#
# number of rings (size 3 to 8) (size 9 to 14) (size 15 to 20)
#    0.750    1.000    3.750    2.250    0.000    0.500 
#    0.000    6.250    0.000    2.250    0.000    0.000 
#    0.000    0.000    0.000    0.000    0.000    0.000 
#
# Total GULP energy -198222.815212 kJ/mol
# GULP energy per Si atom -12388.925951 kJ/mol
# Density = 1.994899 g / cm^3
# Si number density = 19.994501 Si / 1000 Ang^3
#
#
#
# Elastic Constant Matrix: (Units=GPa)
#
#
# Indices 1 2 3 4 5 6 
#
# 1 71.3343 31.8915 30.1252 6.5564 -2.0653 -1.3809
# 2 31.8915 126.5930 39.7084 -3.8009 -4.2125 3.1372
# 3 30.1252 39.7084 98.8288 -2.8617 -4.0699 -7.3532
# 4 6.5564 -3.8009 -2.8617 34.2467 -1.6646 0.2940
# 5 -2.0653 -4.2125 -4.0699 -1.6646 23.7954 4.4142
# 6 -1.3809 3.1372 -7.3532 0.2940 4.4142 37.5394
#
#
#
# Elastic Compliance Matrix: (Units=1/GPa)
#
#
# Indices 1 2 3 4 5 6 
#
# 1 0.017612 -0.003257 -0.004170 -0.004087 -0.000074 0.000144
# 2 -0.003257 0.009783 -0.002963 0.001543 0.001364 -0.001690
# 3 -0.004170 -0.002963 0.012850 0.001569 0.000960 0.002486
# 4 -0.004087 0.001543 0.001569 0.030406 0.002405 -0.000493
# 5 -0.000074 0.001364 0.000960 0.002405 0.043532 -0.005066
# 6 0.000144 -0.001690 0.002486 -0.000493 -0.005066 0.027872
#
#
# Mechanical properties :
#
#
# Convention : Reuss Voigt Hill
#
# Bulk Modulus (GPa) = 51.37681 55.57849 53.47765
# Shear Modulus (GPa) = 29.52916 32.11836 30.82376
#
# Velocity S-wave (km/s) = 3.84717 4.01229 3.93060
# Velocity P-wave (km/s) = 6.74430 7.02295 6.88503
#
# Compressibility (1/GPa) = 0.01946404
#
# Stress axis : x y z
#
# Youngs Moduli (GPa) = 56.77845 102.21995 77.82075
#
# Poissons Ratio (x) = 0.33298 0.32455
# Poissons Ratio (y) = 0.18496 0.23055
# Poissons Ratio (z) = 0.23679 0.30284
#
# Static dielectric constant tensor:
#      x y z
#    x 3.628000 -0.007780 -0.078250 
#    y -0.007780 3.749370 0.075140 
#    z -0.078250 0.075140 3.373170 
# 
# 
# High freq. dielectric constant tensor:
#      x y z
#    x 1.777910 0.002220 -0.002770 
#    y 0.002220 1.781610 0.008130 
#    z -0.002770 0.008130 1.748000 
# 
# From -- ./inp_files/613750.got.cif
#   From: 2010.06.25/outbox.cif.g09.slc.cpg/sg2_307_cif.got.tgz:613750.got - 2010.06.27 13:26:56.
