data_PCOD8041063
_publ_section_title
;
Structure prediction by ZEFSAII (Michael W. Deem and Ramdas Pophale) SiO2 
 PCOD8041063
Probable space group: P -1
;
_chemical_formula_sum "Si O2"
_cell_formula_units_Z 16
_cell_length_a 15.137568
_cell_length_b 13.913952
_cell_length_c 12.045793
_cell_angle_alpha 159.756100
_cell_angle_beta 68.237615
_cell_angle_gamma 109.796486
_cell_volume 814.989025
_symmetry_space_group_name_H-M "P -1"
_symmetry_group_IT_number 2
_symmetry_cell_setting 'triclinic'
loop_
_space_group_symop_operation_xyz
x,y,z
-x,-y,-z
loop_
_atom_site_type_symbol
_atom_site_label
_atom_site_fract_x
_atom_site_fract_y
_atom_site_fract_z
Si Si1 0.890663 0.083389 0.637841
Si Si2 0.675113 0.789278 0.025069
Si Si3 0.341330 0.499574 0.930367
Si Si4 0.753275 0.945396 0.372513
Si Si5 0.309133 0.293865 0.320675
Si Si6 0.451336 0.683220 0.389339
Si Si7 0.206058 0.366455 0.664964
Si Si8 0.429225 0.780617 0.747052
O O1 0.852989 0.036140 0.477917
O O2 0.830040 0.923101 0.584461
O O3 0.876679 0.406572 0.023845
O O4 0.000000 0.000000 0.500000
O O5 0.757411 0.908475 0.196171
O O6 0.587320 0.009601 0.289171
O O7 0.719764 0.680309 0.768850
O O8 0.629535 0.535370 0.838994
O O9 0.269757 0.348461 0.881640
O O10 0.448036 0.396207 0.800032
O O11 0.307092 0.436080 0.751439
O O12 0.330678 0.829145 0.313994
O O13 0.222615 0.357078 0.514053
O O14 0.395712 0.510807 0.541267
O O15 0.334997 0.969892 0.974032
O O16 0.474417 0.657138 0.480691
O O17 0.500000 0.000000 0.000000
#
# Coordination Sequence:
#
# PCOD8041063 Si02
#       8
#     2   2   2   2   2   2   2   2
#     4  10  21  38  60  82 101 124 160 211 268 321
#     4  10  21  34  48  71 103 143 177 202 244 293
#     4  10  20  32  49  74 101 134 176 216 249 285
#     4  10  21  35  52  73 100 134 168 209 259 306
#     4  10  20  33  50  72 102 137 171 209 250 302
#     4  10  20  31  46  71 103 141 180 211 241 283
#     4  10  20  35  56  80 104 130 165 211 263 305
#     4  10  19  30  46  69 101 141 181 216 247 279
#
# _framework density 19.632166000000002
#
# number of rings (size 3 to 8) (size 9 to 14) (size 15 to 20)
#    0.000    2.000    0.000    3.750    0.000    7.000 
#    0.000    0.000    0.000    1.500    0.000    0.000 
#    0.000    0.000    0.000    0.000    0.000    0.000 
#
# Total GULP energy -198284.038360 kJ/mol
# GULP energy per Si atom -12392.752397 kJ/mol
# Density = 1.958748 g / cm^3
# Si number density = 19.632166 Si / 1000 Ang^3
#
#
#
# Elastic Constant Matrix: (Units=GPa)
#
#
# Indices 1 2 3 4 5 6 
#
# 1 73.2033 12.9332 31.7442 -26.5086 3.8016 -5.3518
# 2 12.9332 56.7917 23.3806 -8.8594 9.0405 -5.6526
# 3 31.7442 23.3806 73.1637 -0.4624 7.1739 -7.4927
# 4 -26.5086 -8.8594 -0.4624 38.6307 -8.7063 1.8798
# 5 3.8016 9.0405 7.1739 -8.7063 23.0070 -0.1938
# 6 -5.3518 -5.6526 -7.4927 1.8798 -0.1938 16.0162
#
#
#
# Elastic Compliance Matrix: (Units=1/GPa)
#
#
# Indices 1 2 3 4 5 6 
#
# 1 0.024960 0.001117 -0.011538 0.018553 0.006065 0.001233
# 2 0.001117 0.021978 -0.006519 0.004360 -0.005100 0.004507
# 3 -0.011538 -0.006519 0.021856 -0.010851 -0.006409 0.005265
# 4 0.018553 0.004360 -0.010851 0.042938 0.014835 -0.002198
# 5 0.006065 -0.005100 -0.006409 0.014835 0.052046 -0.003883
# 6 0.001233 0.004507 0.005265 -0.002198 -0.003883 0.067113
#
#
# Mechanical properties :
#
#
# Convention : Reuss Voigt Hill
#
# Bulk Modulus (GPa) = 28.64080 37.69716 33.16898
# Shear Modulus (GPa) = 18.08911 24.53751 21.31331
#
# Velocity S-wave (km/s) = 3.03875 3.53917 3.29847
# Velocity P-wave (km/s) = 5.18964 5.99537 5.60700
#
# Compressibility (1/GPa) = 0.03491523
#
# Stress axis : x y z
#
# Youngs Moduli (GPa) = 40.06402 45.49947 45.75338
#
# Poissons Ratio (x) = -0.05084 0.52790
# Poissons Ratio (y) = -0.04476 0.29827
# Poissons Ratio (z) = 0.46225 0.29661
#
# Static dielectric constant tensor:
#      x y z
#    x 3.214960 -0.315730 0.110200 
#    y -0.315730 3.628600 0.271290 
#    z 0.110200 0.271290 4.010640 
# 
# 
# High freq. dielectric constant tensor:
#      x y z
#    x 1.714610 -0.026930 0.007400 
#    y -0.026930 1.757920 0.015490 
#    z 0.007400 0.015490 1.784170 
# 
# From -- ./inp_files/75699.got.cif
#   From: 2010.06.25/outbox.cif.g09.slc.cpg/sg2_38_cif.got.tgz:75699.got - 2010.06.27 13:26:56.
