data_PCOD8041852
_publ_section_title
;
Structure prediction by ZEFSAII (Michael W. Deem and Ramdas Pophale) SiO2 
 PCOD8041852
Probable space group: P -1
;
_chemical_formula_sum "Si O2"
_cell_formula_units_Z 16
_cell_length_a 8.349344
_cell_length_b 7.868314
_cell_length_c 16.364300
_cell_angle_alpha 112.326484
_cell_angle_beta 87.593295
_cell_angle_gamma 49.876148
_cell_volume 695.104566
_symmetry_space_group_name_H-M "P -1"
_symmetry_group_IT_number 2
_symmetry_cell_setting 'triclinic'
loop_
_space_group_symop_operation_xyz
x,y,z
-x,-y,-z
loop_
_atom_site_type_symbol
_atom_site_label
_atom_site_fract_x
_atom_site_fract_y
_atom_site_fract_z
Si Si1 0.668112 0.675183 0.001362
Si Si2 0.742093 0.571797 0.167635
Si Si3 0.154071 0.380991 0.395072
Si Si4 0.757569 0.107969 0.741082
Si Si5 0.665362 0.018909 0.315150
Si Si6 0.016711 0.853625 0.396327
Si Si7 0.045560 0.085532 0.850806
Si Si8 0.196661 0.047471 0.014116
O O1 0.722928 0.655938 0.091126
O O2 0.416166 0.783647 0.010671
O O3 0.686989 0.863447 0.002789
O O4 0.870269 0.398514 0.903122
O O5 0.515267 0.636961 0.199752
O O6 0.976883 0.262869 0.116980
O O7 0.746706 0.740151 0.260017
O O8 0.403283 0.251911 0.387420
O O9 0.064559 0.602546 0.372168
O O10 0.000000 0.500000 0.500000
O O11 0.173738 0.160592 0.319728
O O12 0.806639 0.202017 0.681194
O O13 0.901081 0.036790 0.806602
O O14 0.726948 0.062026 0.234349
O O15 0.776046 0.043509 0.390165
O O16 0.000000 0.000000 0.500000
O O17 0.111387 0.993888 0.928147
#
# Coordination Sequence:
#
# PCOD8041852 Si02
#       8
#     2   2   2   2   2   2   2   2
#     4  10  19  33  61  92 134 175 222 271 315 394
#     4  10  19  40  58  94 134 177 213 274 326 374
#     4  11  24  47  70  98 132 172 217 278 339 397
#     4  10  24  43  68  98 138 170 224 279 326 398
#     4  10  22  39  68  96 134 176 220 269 332 400
#     4  11  24  47  70  98 132 172 217 278 339 397
#     4  10  19  40  58  94 134 177 213 274 326 374
#     4  10  19  33  63  96 134 175 227 263 326 389
#
# _framework density 23.018121000000001
#
# number of rings (size 3 to 8) (size 9 to 14) (size 15 to 20)
#    0.000    1.750    3.750    0.750    0.000    7.000 
#    0.000    7.500    0.000    0.000    0.000    0.000 
#    0.000    0.000    0.000    0.000    0.000    0.000 
#
# Total GULP energy -198268.934210 kJ/mol
# GULP energy per Si atom -12391.808388 kJ/mol
# Density = 2.296573 g / cm^3
# Si number density = 23.018121 Si / 1000 Ang^3
#
#
#
# Elastic Constant Matrix: (Units=GPa)
#
#
# Indices 1 2 3 4 5 6 
#
# 1 87.9872 8.8318 39.9720 -2.9238 -15.7344 -19.7737
# 2 8.8318 62.5097 21.3528 3.9700 -7.9042 -0.6525
# 3 39.9720 21.3528 101.2407 -0.2204 -10.3016 -21.2006
# 4 -2.9238 3.9700 -0.2204 13.7531 -9.8537 -6.0820
# 5 -15.7344 -7.9042 -10.3016 -9.8537 47.3385 -0.4504
# 6 -19.7737 -0.6525 -21.2006 -6.0820 -0.4504 48.5190
#
#
#
# Elastic Compliance Matrix: (Units=1/GPa)
#
#
# Indices 1 2 3 4 5 6 
#
# 1 0.016381 -0.000631 -0.004308 0.011235 0.006800 0.006257
# 2 -0.000631 0.017889 -0.003999 -0.006023 0.000629 -0.002513
# 3 -0.004308 -0.003999 0.013560 0.003676 0.001660 0.004592
# 4 0.011235 -0.006023 0.003676 0.103541 0.025265 0.019318
# 5 0.006800 0.000629 0.001660 0.025265 0.029176 0.006943
# 6 0.006257 -0.002513 0.004592 0.019318 0.006943 0.027619
#
#
# Mechanical properties :
#
#
# Convention : Reuss Voigt Hill
#
# Bulk Modulus (GPa) = 33.38499 43.56120 38.47310
# Shear Modulus (GPa) = 21.18401 34.02752 27.60577
#
# Velocity S-wave (km/s) = 3.03697 3.84903 3.46686
# Velocity P-wave (km/s) = 5.18004 6.22247 5.72503
#
# Compressibility (1/GPa) = 0.02995358
#
# Stress axis : x y z
#
# Youngs Moduli (GPa) = 61.04595 55.90154 73.74475
#
# Poissons Ratio (x) = 0.03529 0.31769
# Poissons Ratio (y) = 0.03853 0.29491
# Poissons Ratio (z) = 0.26298 0.22355
#
# Static dielectric constant tensor:
#      x y z
#    x 4.661810 -0.232610 0.097230 
#    y -0.232610 4.138860 0.081410 
#    z 0.097230 0.081410 4.362390 
# 
# 
# High freq. dielectric constant tensor:
#      x y z
#    x 1.939650 -0.004020 -0.001780 
#    y -0.004020 1.895060 0.000140 
#    z -0.001780 0.000140 1.902420 
# 
# From -- ./inp_files/557465.got.cif
#   From: 2010.06.25/outbox.cif.g09.slc.cpg/sg2_279_cif.got.tgz:557465.got - 2010.06.27 13:26:56.
