data_PCOD8041682
_publ_section_title
;
Structure prediction by ZEFSAII (Michael W. Deem and Ramdas Pophale) SiO2 
 PCOD8041682
Probable space group: P -1
;
_chemical_formula_sum "Si O2"
_cell_formula_units_Z 16
_cell_length_a 11.186582
_cell_length_b 9.933579
_cell_length_c 12.696770
_cell_angle_alpha 143.686413
_cell_angle_beta 107.793792
_cell_angle_gamma 76.284792
_cell_volume 795.466491
_symmetry_space_group_name_H-M "P -1"
_symmetry_group_IT_number 2
_symmetry_cell_setting 'triclinic'
loop_
_space_group_symop_operation_xyz
x,y,z
-x,-y,-z
loop_
_atom_site_type_symbol
_atom_site_label
_atom_site_fract_x
_atom_site_fract_y
_atom_site_fract_z
Si Si1 0.763018 0.701685 0.430721
Si Si2 0.057799 0.668886 0.829279
Si Si3 0.658844 0.138046 0.561631
Si Si4 0.530668 0.536500 0.182564
Si Si5 0.948624 0.922706 0.770144
Si Si6 0.098897 0.199611 0.815769
Si Si7 0.105107 0.582211 0.223586
Si Si8 0.377474 0.200673 0.818062
O O1 0.848309 0.538962 0.280212
O O2 0.631966 0.553694 0.316852
O O3 0.832327 0.767437 0.599425
O O4 0.731663 0.936119 0.511879
O O5 0.034466 0.769685 0.771397
O O6 0.927504 0.572567 0.781899
O O7 0.108481 0.865677 0.046853
O O8 0.573123 0.271769 0.704612
O O9 0.762477 0.302644 0.641823
O O10 0.576038 0.027867 0.373503
O O11 0.610683 0.592260 0.132783
O O12 0.463937 0.285778 0.994183
O O13 0.038303 0.002588 0.748772
O O14 0.235555 0.134684 0.770168
O O15 0.004397 0.236593 0.715647
O O16 0.120745 0.434866 0.030261
#
# Coordination Sequence:
#
# PCOD8041682 Si02
#       8
#     2   2   2   2   2   2   2   2
#     4  11  21  35  60  82 113 151 191 231 272 348
#     4  10  23  38  57  88 114 152 185 231 289 336
#     4  11  21  34  55  88 119 150 183 236 284 334
#     4  10  22  37  51  85 120 150 189 231 282 329
#     4  10  22  40  58  85 118 149 184 233 291 337
#     4  10  19  34  58  87 113 144 182 239 289 328
#     4  10  19  33  56  87 119 140 184 236 286 336
#     4  10  20  33  54  78 116 149 182 230 279 335
#
# _framework density 20.113983999999999
#
# number of rings (size 3 to 8) (size 9 to 14) (size 15 to 20)
#    0.000    1.750    2.500    3.375    1.750    5.000 
#    0.000    0.000    0.000    1.500    3.250    0.000 
#    0.000    0.000    0.000    0.000    0.000    0.000 
#
# Total GULP energy -198226.070845 kJ/mol
# GULP energy per Si atom -12389.129428 kJ/mol
# Density = 2.006820 g / cm^3
# Si number density = 20.113984 Si / 1000 Ang^3
#
#
#
# Elastic Constant Matrix: (Units=GPa)
#
#
# Indices 1 2 3 4 5 6 
#
# 1 92.3091 26.6994 51.9713 -8.7299 15.8798 -1.0349
# 2 26.6994 58.2675 21.4402 -0.7137 0.6995 9.7242
# 3 51.9713 21.4402 130.8193 -8.4092 16.5665 -7.7108
# 4 -8.7299 -0.7137 -8.4092 15.5022 -7.0463 -1.1328
# 5 15.8798 0.6995 16.5665 -7.0463 37.2972 0.9956
# 6 -1.0349 9.7242 -7.7108 -1.1328 0.9956 16.1912
#
#
#
# Elastic Compliance Matrix: (Units=1/GPa)
#
#
# Indices 1 2 3 4 5 6 
#
# 1 0.016352 -0.006302 -0.004442 0.004919 -0.004030 0.003306
# 2 -0.006302 0.023869 -0.003056 -0.003818 0.003316 -0.016664
# 3 -0.004442 -0.003056 0.010814 0.002576 -0.002556 0.007039
# 4 0.004919 -0.003818 0.002576 0.073916 0.010574 0.008356
# 5 -0.004030 0.003316 -0.002556 0.010574 0.031723 -0.004677
# 6 0.003306 -0.016664 0.007039 0.008356 -0.004677 0.076206
#
#
# Mechanical properties :
#
#
# Convention : Reuss Voigt Hill
#
# Bulk Modulus (GPa) = 42.67057 53.51309 48.09183
# Shear Modulus (GPa) = 18.63647 25.88380 22.26013
#
# Velocity S-wave (km/s) = 3.04722 3.59117 3.33032
# Velocity P-wave (km/s) = 5.80010 6.62254 6.22492
#
# Compressibility (1/GPa) = 0.02343536
#
# Stress axis : x y z
#
# Youngs Moduli (GPa) = 61.15320 41.89572 92.47321
#
# Poissons Ratio (x) = 0.26401 0.41079
# Poissons Ratio (y) = 0.38536 0.28260
# Poissons Ratio (z) = 0.27166 0.12804
#
# Static dielectric constant tensor:
#      x y z
#    x 3.745420 0.013630 0.253260 
#    y 0.013630 3.183810 -0.097720 
#    z 0.253260 -0.097720 4.236180 
# 
# 
# High freq. dielectric constant tensor:
#      x y z
#    x 1.782190 0.009330 0.007890 
#    y 0.009330 1.723270 -0.002440 
#    z 0.007890 -0.002440 1.814890 
# 
# From -- ./inp_files/418644.got.cif
#   From: 2010.06.25/outbox.cif.g09.slc.cpg/sg2_210_cif.got.tgz:418644.got - 2010.06.27 13:26:56.
