data_PCOD8041698
_publ_section_title
;
Structure prediction by ZEFSAII (Michael W. Deem and Ramdas Pophale) SiO2 
 PCOD8041698
Probable space group: P -1
;
_chemical_formula_sum "Si O2"
_cell_formula_units_Z 16
_cell_length_a 12.208163
_cell_length_b 17.294611
_cell_length_c 11.897377
_cell_angle_alpha 32.011470
_cell_angle_beta 49.552419
_cell_angle_gamma 37.681460
_cell_volume 812.010167
_symmetry_space_group_name_H-M "P -1"
_symmetry_group_IT_number 2
_symmetry_cell_setting 'triclinic'
loop_
_space_group_symop_operation_xyz
x,y,z
-x,-y,-z
loop_
_atom_site_type_symbol
_atom_site_label
_atom_site_fract_x
_atom_site_fract_y
_atom_site_fract_z
Si Si1 0.828177 0.899373 0.228879
Si Si2 0.265973 0.340852 0.320000
Si Si3 0.995726 0.423769 0.214332
Si Si4 0.345465 0.441994 0.589530
Si Si5 0.300617 0.800723 0.230360
Si Si6 0.204234 0.572088 0.294222
Si Si7 0.595541 0.318197 0.090969
Si Si8 0.922667 0.945300 0.349515
O O1 0.707263 0.839515 0.429937
O O2 0.901360 0.948803 0.223846
O O3 0.996225 0.732724 0.254546
O O4 0.703649 0.073332 0.017997
O O5 0.217486 0.474291 0.291421
O O6 0.448073 0.282852 0.206481
O O7 0.107458 0.446086 0.204701
O O8 0.791729 0.535476 0.254309
O O9 0.081118 0.212167 0.399346
O O10 0.000000 0.500000 0.000000
O O11 0.342507 0.619257 0.371153
O O12 0.541261 0.258262 0.713596
O O13 0.284962 0.429595 0.520019
O O14 0.112264 0.910763 0.288098
O O15 0.318025 0.654474 0.108421
O O16 0.760127 0.140294 0.268232
O O17 0.500000 0.500000 0.000000
#
# Coordination Sequence:
#
# PCOD8041698 Si02
#       8
#     2   2   2   2   2   2   2   2
#     4  11  19  34  63  90 110 156 203 252 290 342
#     4  10  23  37  59  89 118 159 195 245 301 352
#     4  10  22  38  57  89 124 160 194 246 306 356
#     4  10  21  35  58  91 119 156 201 242 296 361
#     4  10  19  33  56  91 117 150 195 251 299 333
#     4  11  19  39  64  82 121 156 206 240 291 361
#     4  10  22  36  59  88 118 157 202 245 298 354
#     4  10  19  36  59  87 118 153 210 247 286 362
#
# _framework density 19.704184999999999
#
# number of rings (size 3 to 8) (size 9 to 14) (size 15 to 20)
#    0.000    1.750    5.000    1.500    0.000    7.000 
#    0.000    0.625    5.500    4.500    0.000    0.000 
#    0.000    0.000    0.000    0.000    0.000    0.000 
#
# Total GULP energy -198336.765860 kJ/mol
# GULP energy per Si atom -12396.047866 kJ/mol
# Density = 1.965934 g / cm^3
# Si number density = 19.704185 Si / 1000 Ang^3
#
#
#
# Elastic Constant Matrix: (Units=GPa)
#
#
# Indices 1 2 3 4 5 6 
#
# 1 99.5867 47.3723 65.5083 0.2600 13.0004 -19.3452
# 2 47.3723 86.5793 51.8556 -10.3599 1.9242 -19.5554
# 3 65.5083 51.8556 147.9113 11.0039 19.6553 -13.0332
# 4 0.2600 -10.3599 11.0039 33.4715 -8.7382 3.8578
# 5 13.0004 1.9242 19.6553 -8.7382 33.7457 4.6238
# 6 -19.3452 -19.5554 -13.0332 3.8578 4.6238 33.1004
#
#
#
# Elastic Compliance Matrix: (Units=1/GPa)
#
#
# Indices 1 2 3 4 5 6 
#
# 1 0.017551 -0.005867 -0.004234 -0.002716 -0.005515 0.006211
# 2 -0.005867 0.020001 -0.005532 0.009160 0.006126 0.004286
# 3 -0.004234 -0.005532 0.012204 -0.007708 -0.007292 0.000980
# 4 -0.002716 0.009160 -0.007708 0.040227 0.016276 -0.006172
# 5 -0.005515 0.006126 -0.007292 0.016276 0.041259 -0.010136
# 6 0.006211 0.004286 0.000980 -0.006172 -0.010136 0.038895
#
#
# Mechanical properties :
#
#
# Convention : Reuss Voigt Hill
#
# Bulk Modulus (GPa) = 54.07913 73.72776 63.90345
# Shear Modulus (GPa) = 24.08866 31.35290 27.72078
#
# Velocity S-wave (km/s) = 3.50024 3.99329 3.75487
# Velocity P-wave (km/s) = 6.62123 7.66553 7.16244
#
# Compressibility (1/GPa) = 0.01849142
#
# Stress axis : x y z
#
# Youngs Moduli (GPa) = 56.97648 49.99665 81.93889
#
# Poissons Ratio (x) = 0.29331 0.34695
# Poissons Ratio (y) = 0.33426 0.45327
# Poissons Ratio (z) = 0.24125 0.27657
#
# Static dielectric constant tensor:
#      x y z
#    x 3.629730 -0.409300 -0.152940 
#    y -0.409300 3.720230 0.122600 
#    z -0.152940 0.122600 3.882050 
# 
# 
# High freq. dielectric constant tensor:
#      x y z
#    x 1.747390 -0.022790 -0.008450 
#    y -0.022790 1.760940 0.004900 
#    z -0.008450 0.004900 1.774340 
# 
# From -- ./inp_files/333035.got.cif
#   From: 2010.06.25/outbox.cif.g09.slc.cpg/sg2_167_cif.got.tgz:333035.got - 2010.06.27 13:26:56.
