data_PCOD8041448
_publ_section_title
;
Structure prediction by ZEFSAII (Michael W. Deem and Ramdas Pophale) SiO2 
 PCOD8041448
Probable space group: P -1
;
_chemical_formula_sum "Si O2"
_cell_formula_units_Z 16
_cell_length_a 18.127831
_cell_length_b 10.129166
_cell_length_c 12.344303
_cell_angle_alpha 53.606179
_cell_angle_beta 151.472362
_cell_angle_gamma 126.733149
_cell_volume 853.817186
_symmetry_space_group_name_H-M "P -1"
_symmetry_group_IT_number 2
_symmetry_cell_setting 'triclinic'
loop_
_space_group_symop_operation_xyz
x,y,z
-x,-y,-z
loop_
_atom_site_type_symbol
_atom_site_label
_atom_site_fract_x
_atom_site_fract_y
_atom_site_fract_z
Si Si1 0.700129 0.864647 0.495990
Si Si2 0.221504 0.161867 0.770301
Si Si3 0.961195 0.902962 0.647356
Si Si4 0.960860 0.446263 0.096877
Si Si5 0.425537 0.803507 0.801950
Si Si6 0.505721 0.384500 0.810760
Si Si7 0.262961 0.517687 0.576913
Si Si8 0.338258 0.429622 0.266540
O O1 0.873640 0.884773 0.657965
O O2 0.568027 0.759917 0.298338
O O3 0.706184 0.768712 0.665703
O O4 0.667004 0.047190 0.383378
O O5 0.167442 0.091450 0.615267
O O6 0.233117 0.361471 0.698002
O O7 0.393434 0.121200 0.031797
O O8 0.096522 0.070983 0.741612
O O9 0.047519 0.751037 0.807266
O O10 0.098172 0.547423 0.301973
O O11 0.793853 0.479052 0.901316
O O12 0.000000 0.500000 0.000000
O O13 0.348829 0.683620 0.665435
O O14 0.409801 0.699064 0.944278
O O15 0.368758 0.472360 0.636675
O O16 0.635871 0.527329 0.848882
O O17 0.500000 0.500000 0.500000
#
# Coordination Sequence:
#
# PCOD8041448 Si02
#       8
#     2   2   2   2   2   2   2   2
#     4  11  20  37  55  95 118 150 201 249 286 342
#     4   9  19  34  57  87 118 150 196 240 292 343
#     4  10  19  32  58  91 115 146 198 251 281 341
#     4  11  19  38  64  84 115 157 197 238 296 351
#     4  11  22  36  63  85 125 156 194 244 301 346
#     4  10  19  38  61  86 119 157 202 240 287 347
#     4  10  21  41  59  87 116 161 194 238 299 362
#     4  10  22  35  59  90 118 147 198 250 291 343
#
# _framework density 18.739374000000002
#
# number of rings (size 3 to 8) (size 9 to 14) (size 15 to 20)
#    0.000    1.750    5.000    2.625    3.500    2.000 
#    0.000    5.000    2.750    0.000    0.000    0.000 
#    0.000    0.000    0.000    0.000    0.000    0.000 
#
# Total GULP energy -198378.392392 kJ/mol
# GULP energy per Si atom -12398.649525 kJ/mol
# Density = 1.869672 g / cm^3
# Si number density = 18.739374 Si / 1000 Ang^3
#
#
#
# Elastic Constant Matrix: (Units=GPa)
#
#
# Indices 1 2 3 4 5 6 
#
# 1 94.6531 52.7072 40.7389 -2.4070 12.1442 30.2992
# 2 52.7072 100.9043 44.1712 -0.4426 7.0093 1.7323
# 3 40.7389 44.1712 95.5903 -10.2801 23.8279 2.8940
# 4 -2.4070 -0.4426 -10.2801 25.2068 -0.0032 0.1858
# 5 12.1442 7.0093 23.8279 -0.0032 26.5807 -2.9292
# 6 30.2992 1.7323 2.8940 0.1858 -2.9292 34.5932
#
#
#
# Elastic Compliance Matrix: (Units=1/GPa)
#
#
# Indices 1 2 3 4 5 6 
#
# 1 0.027385 -0.011949 -0.002943 0.001380 -0.009361 -0.023942
# 2 -0.011949 0.017914 -0.005568 -0.003175 0.006899 0.010636
# 3 -0.002943 -0.005568 0.018480 0.007155 -0.013740 0.000109
# 4 0.001380 -0.003175 0.007155 0.042683 -0.006470 -0.002426
# 5 -0.009361 0.006899 -0.013740 -0.006470 0.053894 0.013601
# 6 -0.023942 0.010636 0.000109 -0.002426 0.013601 0.050500
#
#
# Mechanical properties :
#
#
# Convention : Reuss Voigt Hill
#
# Bulk Modulus (GPa) = 43.74811 62.93138 53.33974
# Shear Modulus (GPa) = 19.27551 27.51151 23.39351
#
# Velocity S-wave (km/s) = 3.21067 3.83575 3.53705
# Velocity P-wave (km/s) = 6.09433 7.29881 6.72360
#
# Compressibility (1/GPa) = 0.02285813
#
# Stress axis : x y z
#
# Youngs Moduli (GPa) = 36.51587 55.82286 54.11291
#
# Poissons Ratio (x) = 0.66703 0.15925
# Poissons Ratio (y) = 0.43633 0.30132
# Poissons Ratio (z) = 0.10747 0.31084
#
# Static dielectric constant tensor:
#      x y z
#    x 3.719260 0.420630 0.000430 
#    y 0.420630 3.473720 -0.191920 
#    z 0.000430 -0.191920 3.519790 
# 
# 
# High freq. dielectric constant tensor:
#      x y z
#    x 1.723350 0.022310 0.010180 
#    y 0.022310 1.713170 -0.012450 
#    z 0.010180 -0.012450 1.722450 
# 
# From -- ./inp_files/175372.got.cif
#   From: 2010.06.25/outbox.cif.g09.slc.cpg/sg2_88_cif.got.tgz:175372.got - 2010.06.27 13:26:56.
