data_PCOD8041537
_publ_section_title
;
Structure prediction by ZEFSAII (Michael W. Deem and Ramdas Pophale) SiO2 
 PCOD8041537
Probable space group: P -1
;
_chemical_formula_sum "Si O2"
_cell_formula_units_Z 16
_cell_length_a 9.707787
_cell_length_b 16.311244
_cell_length_c 11.635390
_cell_angle_alpha 121.901338
_cell_angle_beta 103.039256
_cell_angle_gamma 35.439794
_cell_volume 824.634720
_symmetry_space_group_name_H-M "P -1"
_symmetry_group_IT_number 2
_symmetry_cell_setting 'triclinic'
loop_
_space_group_symop_operation_xyz
x,y,z
-x,-y,-z
loop_
_atom_site_type_symbol
_atom_site_label
_atom_site_fract_x
_atom_site_fract_y
_atom_site_fract_z
Si Si1 0.582732 0.902012 0.105805
Si Si2 0.254091 0.411547 0.513848
Si Si3 0.551850 0.061960 0.404489
Si Si4 0.056793 0.267895 0.153236
Si Si5 0.865394 0.852392 0.529285
Si Si6 0.592401 0.536551 0.617579
Si Si7 0.243514 0.942157 0.144132
Si Si8 0.825562 0.206666 0.073683
O O1 0.530655 0.827779 0.101539
O O2 0.695449 0.920100 0.224598
O O3 0.292366 0.103313 0.160971
O O4 0.800728 0.759521 0.944913
O O5 0.468129 0.216380 0.462704
O O6 0.375302 0.390995 0.408059
O O7 0.000000 0.500000 0.500000
O O8 0.161639 0.541638 0.686677
O O9 0.308362 0.134878 0.446328
O O10 0.749225 0.963950 0.474086
O O11 0.878363 0.281565 0.085079
O O12 0.141256 0.645392 0.403357
O O13 0.903128 0.919188 0.676597
O O14 0.500000 0.500000 0.500000
O O15 0.396519 0.674081 0.783642
O O16 0.252129 0.820196 0.068177
O O17 0.098683 0.029241 0.058191
#
# Coordination Sequence:
#
# PCOD8041537 Si02
#       8
#     2   2   2   2   2   2   2   2
#     4   9  18  33  54  83 111 144 186 236 279 325
#     4  12  21  35  59  90 113 145 196 236 274 332
#     4  10  21  37  60  86 116 148 186 237 287 332
#     4  10  19  33  53  82 116 141 186 238 278 325
#     4  10  20  39  59  84 118 149 185 235 287 336
#     4  12  21  37  60  84 117 149 191 236 278 334
#     4   9  18  33  54  82 108 147 190 227 278 334
#     4  10  20  33  55  81 113 149 186 231 279 334
#
# _framework density 19.402529000000001
#
# number of rings (size 3 to 8) (size 9 to 14) (size 15 to 20)
#    0.000    1.750    5.000    0.750    1.750    2.000 
#    0.000    1.875    0.000    6.000    0.000    0.000 
#    0.000    0.000    0.000    0.000    0.000    0.000 
#
# Total GULP energy -198239.802411 kJ/mol
# GULP energy per Si atom -12389.987651 kJ/mol
# Density = 1.935837 g / cm^3
# Si number density = 19.402529 Si / 1000 Ang^3
#
#
#
# Elastic Constant Matrix: (Units=GPa)
#
#
# Indices 1 2 3 4 5 6 
#
# 1 103.1518 30.6850 38.1557 3.1221 13.2849 10.4550
# 2 30.6850 71.6908 11.9523 0.2170 3.7821 5.9738
# 3 38.1557 11.9523 82.2424 3.8218 11.3162 -2.5839
# 4 3.1221 0.2170 3.8218 19.6363 -3.2738 1.4373
# 5 13.2849 3.7821 11.3162 -3.2738 41.3947 0.7031
# 6 10.4550 5.9738 -2.5839 1.4373 0.7031 15.2600
#
#
#
# Elastic Compliance Matrix: (Units=1/GPa)
#
#
# Indices 1 2 3 4 5 6 
#
# 1 0.014451 -0.004300 -0.005976 -0.000847 -0.002525 -0.009033
# 2 -0.004300 0.016163 -0.000532 0.000900 0.000181 -0.003564
# 3 -0.005976 -0.000532 0.015759 -0.003104 -0.002712 0.007389
# 4 -0.000847 0.000900 -0.003104 0.052946 0.005319 -0.005530
# 5 -0.002525 0.000181 -0.002712 0.005319 0.026122 -0.000505
# 6 -0.009033 -0.003564 0.007389 -0.005530 -0.000505 0.074910
#
#
# Mechanical properties :
#
#
# Convention : Reuss Voigt Hill
#
# Bulk Modulus (GPa) = 40.39751 46.51901 43.45826
# Shear Modulus (GPa) = 21.71831 27.01103 24.36467
#
# Velocity S-wave (km/s) = 3.34931 3.73519 3.54750
# Velocity P-wave (km/s) = 5.98524 6.52916 6.26311
#
# Compressibility (1/GPa) = 0.02475400
#
# Stress axis : x y z
#
# Youngs Moduli (GPa) = 69.20114 61.86994 63.45633
#
# Poissons Ratio (x) = 0.26606 0.37924
# Poissons Ratio (y) = 0.29759 0.03379
# Poissons Ratio (z) = 0.41357 0.03295
#
# Static dielectric constant tensor:
#      x y z
#    x 4.088730 0.271850 0.423800 
#    y 0.271850 3.581830 0.362480 
#    z 0.423800 0.362480 3.995890 
# 
# 
# High freq. dielectric constant tensor:
#      x y z
#    x 1.767940 -0.002680 0.010820 
#    y -0.002680 1.704560 0.003630 
#    z 0.010820 0.003630 1.758960 
# 
# From -- ./inp_files/321070.got.cif
#   From: 2010.06.25/outbox.cif.g09.slc.cpg/sg2_161_cif.got.tgz:321070.got - 2010.06.27 13:26:56.
