data_PCOD8041148
_publ_section_title
;
Structure prediction by ZEFSAII (Michael W. Deem and Ramdas Pophale) SiO2 
 PCOD8041148
Probable space group: P -1
;
_chemical_formula_sum "Si O2"
_cell_formula_units_Z 16
_cell_length_a 13.093120
_cell_length_b 24.135964
_cell_length_c 13.586343
_cell_angle_alpha 148.667301
_cell_angle_beta 46.600416
_cell_angle_gamma 155.184677
_cell_volume 857.078648
_symmetry_space_group_name_H-M "P -1"
_symmetry_group_IT_number 2
_symmetry_cell_setting 'triclinic'
loop_
_space_group_symop_operation_xyz
x,y,z
-x,-y,-z
loop_
_atom_site_type_symbol
_atom_site_label
_atom_site_fract_x
_atom_site_fract_y
_atom_site_fract_z
Si Si1 0.337563 0.785863 0.383164
Si Si2 0.765220 0.448095 0.201798
Si Si3 0.672529 0.271400 0.477865
Si Si4 0.922530 0.617415 0.722488
Si Si5 0.657795 0.963483 0.253770
Si Si6 0.347063 0.013470 0.129744
Si Si7 0.471922 0.660723 0.599006
Si Si8 0.234607 0.322746 0.470903
O O1 0.386091 0.759357 0.414488
O O2 0.559566 0.885591 0.312828
O O3 0.049281 0.570487 0.199624
O O4 0.366354 0.930101 0.601464
O O5 0.714830 0.451073 0.351888
O O6 0.797315 0.577840 0.312290
O O7 0.523453 0.221228 0.980048
O O8 0.835498 0.480721 0.657704
O O9 0.853555 0.287148 0.353311
O O10 0.392987 0.085444 0.320024
O O11 0.681500 0.495672 0.626587
O O12 0.039617 0.795155 0.973108
O O13 0.964223 0.121110 0.283315
O O14 0.454074 0.171025 0.222547
O O15 0.500000 0.000000 0.000000
O O16 0.724366 0.745347 0.579987
O O17 0.500000 0.500000 0.500000
#
# Coordination Sequence:
#
# PCOD8041148 Si02
#       8
#     2   2   2   2   2   2   2   2
#     4  10  20  35  53  76 110 142 169 221 265 303
#     4  10  20  33  54  77 106 141 179 212 258 317
#     4   9  17  30  48  72 106 134 161 211 266 306
#     4   9  17  30  46  74 106 130 167 210 258 313
#     4  10  22  35  52  79 105 139 186 212 254 319
#     4   9  19  28  48  81 105 129 171 211 258 329
#     4  10  19  31  51  76 107 139 163 216 268 300
#     4   9  21  37  51  74 106 140 180 219 256 305
#
# _framework density 18.668066
#
# number of rings (size 3 to 8) (size 9 to 14) (size 15 to 20)
#    0.000    2.500    1.250    1.125    3.500    3.000 
#    0.000    0.000    0.000    3.000    0.000    5.250 
#    0.000    0.000    0.000    0.000    0.000    0.000 
#
# Total GULP energy -198252.040846 kJ/mol
# GULP energy per Si atom -12390.752553 kJ/mol
# Density = 1.862558 g / cm^3
# Si number density = 18.668066 Si / 1000 Ang^3
#
#
#
# Elastic Constant Matrix: (Units=GPa)
#
#
# Indices 1 2 3 4 5 6 
#
# 1 95.5613 27.7574 39.0062 6.9523 5.4036 -8.1638
# 2 27.7574 68.5586 28.0817 7.5037 12.7144 -7.4849
# 3 39.0062 28.0817 114.4449 34.3441 19.9275 2.4295
# 4 6.9523 7.5037 34.3441 25.3151 2.1033 7.1246
# 5 5.4036 12.7144 19.9275 2.1033 22.7094 1.4181
# 6 -8.1638 -7.4849 2.4295 7.1246 1.4181 25.9446
#
#
#
# Elastic Compliance Matrix: (Units=1/GPa)
#
#
# Indices 1 2 3 4 5 6 
#
# 1 0.013592 -0.004058 -0.005431 0.003899 0.003295 0.002364
# 2 -0.004058 0.019372 -0.000266 -0.005246 -0.009554 0.006299
# 3 -0.005431 -0.000266 0.021476 -0.027605 -0.015135 0.004611
# 4 0.003899 -0.005246 -0.027605 0.081756 0.019987 -0.021245
# 5 0.003295 -0.009554 -0.015135 0.019987 0.060598 -0.009103
# 6 0.002364 0.006299 0.004611 -0.021245 -0.009103 0.047005
#
#
# Mechanical properties :
#
#
# Convention : Reuss Voigt Hill
#
# Bulk Modulus (GPa) = 28.62902 52.02839 40.32870
# Shear Modulus (GPa) = 18.18504 27.04177 22.61341
#
# Velocity S-wave (km/s) = 3.12448 3.81012 3.48421
# Velocity P-wave (km/s) = 5.32782 6.87654 6.15112
#
# Compressibility (1/GPa) = 0.03492959
#
# Stress axis : x y z
#
# Youngs Moduli (GPa) = 73.57305 51.62143 46.56435
#
# Poissons Ratio (x) = 0.20949 0.25287
# Poissons Ratio (y) = 0.29858 0.01239
# Poissons Ratio (z) = 0.39954 0.01374
#
# Static dielectric constant tensor:
#      x y z
#    x 3.748880 -0.008880 0.147420 
#    y -0.008880 3.172130 0.326150 
#    z 0.147420 0.326150 3.618270 
# 
# 
# High freq. dielectric constant tensor:
#      x y z
#    x 1.723720 -0.014770 0.012650 
#    y -0.014770 1.685960 0.031320 
#    z 0.012650 0.031320 1.723900 
# 
# From -- ./inp_files/431533.got.cif
#   From: 2010.06.25/outbox.cif.g09.slc.cpg/sg2_216_cif.got.tgz:431533.got - 2010.06.27 13:26:56.
