data_PCOD8041093
_publ_section_title
;
Structure prediction by ZEFSAII (Michael W. Deem and Ramdas Pophale) SiO2 
 PCOD8041093
Probable space group: P -1
;
_chemical_formula_sum "Si O2"
_cell_formula_units_Z 14
_cell_length_a 14.836335
_cell_length_b 16.377125
_cell_length_c 10.781499
_cell_angle_alpha 146.134906
_cell_angle_beta 35.545428
_cell_angle_gamma 152.896156
_cell_volume 635.807532
_symmetry_space_group_name_H-M "P -1"
_symmetry_group_IT_number 2
_symmetry_cell_setting 'triclinic'
loop_
_space_group_symop_operation_xyz
x,y,z
-x,-y,-z
loop_
_atom_site_type_symbol
_atom_site_label
_atom_site_fract_x
_atom_site_fract_y
_atom_site_fract_z
Si Si1 0.013021 0.251250 0.783048
Si Si2 0.023523 0.597862 0.750081
Si Si3 0.093254 0.195692 0.004596
Si Si4 0.750400 0.852996 0.462825
Si Si5 0.630074 0.522948 0.497177
Si Si6 0.345228 0.768870 0.407393
Si Si7 0.305062 0.224295 0.033782
O O1 0.135710 0.202701 0.657900
O O2 0.156382 0.408156 0.710740
O O3 0.812156 0.052272 0.694115
O O4 0.945284 0.339002 0.061915
O O5 0.250980 0.711529 0.580680
O O6 0.859178 0.359710 0.617811
O O7 0.904550 0.649167 0.870889
O O8 0.189995 0.128293 0.724378
O O9 0.229465 0.290561 0.096615
O O10 0.856647 0.010054 0.068962
O O11 0.501929 0.683462 0.543636
O O12 0.500000 0.500000 0.500000
O O13 0.680113 0.687982 0.740289
O O14 0.500000 0.000000 0.500000
O O15 0.472509 0.699573 0.156735
#
# Coordination Sequence:
#
# PCOD8041093 Si02
#       7
#     2   2   2   2   2   2   2
#     4   9  17  31  49  78 111 134 183 226 272 328
#     4  10  22  37  58  83 112 153 184 231 280 334
#     4  10  20  36  57  87 115 146 187 227 291 329
#     4   9  17  29  51  78 108 141 172 231 279 327
#     4  10  19  30  51  82 110 141 180 229 284 321
#     4  11  22  37  55  81 116 149 191 228 276 331
#     4  11  21  35  58  86 118 147 181 239 278 332
#
# _framework density 22.019242999999999
#
# number of rings (size 3 to 8) (size 9 to 14) (size 15 to 20)
#    0.000    2.000    2.857    2.571    2.000    3.429 
#    0.000    0.000    0.000    0.857    0.000   19.000 
#    0.000    0.000    0.000    0.000    0.000    0.000 
#
# Total GULP energy -173528.552583 kJ/mol
# GULP energy per Si atom -12394.896613 kJ/mol
# Density = 2.196913 g / cm^3
# Si number density = 22.019243 Si / 1000 Ang^3
#
#
#
# Elastic Constant Matrix: (Units=GPa)
#
#
# Indices 1 2 3 4 5 6 
#
# 1 45.5926 3.3058 16.1110 -1.0895 18.1929 6.5064
# 2 3.3058 142.3154 42.9573 -18.7327 13.8117 -4.3216
# 3 16.1110 42.9573 140.2548 -23.4418 44.3917 4.9417
# 4 -1.0895 -18.7327 -23.4418 43.5090 0.6179 8.4463
# 5 18.1929 13.8117 44.3917 0.6179 25.4138 3.6436
# 6 6.5064 -4.3216 4.9417 8.4463 3.6436 18.9234
#
#
#
# Elastic Compliance Matrix: (Units=1/GPa)
#
#
# Indices 1 2 3 4 5 6 
#
# 1 0.039795 0.001119 0.014114 0.012256 -0.052252 -0.012522
# 2 0.001119 0.008063 -0.001034 0.002763 -0.003615 0.001189
# 3 0.014114 -0.001034 0.025988 0.016382 -0.054077 -0.008775
# 4 0.012256 0.002763 0.016382 0.037190 -0.037317 -0.017275
# 5 -0.052252 -0.003615 -0.054077 -0.037317 0.171963 0.014808
# 6 -0.012522 0.001189 -0.008775 -0.017275 0.014808 0.064573
#
#
# Mechanical properties :
#
#
# Convention : Reuss Voigt Hill
#
# Bulk Modulus (GPa) = 9.78047 50.32345 30.05196
# Shear Modulus (GPa) = 14.15405 35.28849 24.72127
#
# Velocity S-wave (km/s) = 2.53811 4.00762 3.35432
# Velocity P-wave (km/s) = 3.61120 6.65722 5.35534
#
# Compressibility (1/GPa) = 0.10224455
#
# Stress axis : x y z
#
# Youngs Moduli (GPa) = 25.12877 124.01649 38.47867
#
# Poissons Ratio (x) = -0.13883 -0.54308
# Poissons Ratio (y) = -0.02813 0.03980
# Poissons Ratio (z) = -0.35466 0.12828
#
# Static dielectric constant tensor:
#      x y z
#    x 3.422590 -0.068420 0.433540 
#    y -0.068420 4.463200 -0.205420 
#    z 0.433540 -0.205420 4.097190 
# 
# 
# High freq. dielectric constant tensor:
#      x y z
#    x 1.807680 0.000390 0.036470 
#    y 0.000390 1.891740 -0.006470 
#    z 0.036470 -0.006470 1.864910 
# 
# From -- ./inp_files/256750.got.cif
#   From: 2010.06.25/outbox.cif.g09.slc.cpg/sg2_129_cif.got.tgz:256750.got - 2010.06.27 13:26:56.
