data_PCOD8041308
_publ_section_title
;
Structure prediction by ZEFSAII (Michael W. Deem and Ramdas Pophale) SiO2 
 PCOD8041308
Probable space group: P -1
;
_chemical_formula_sum "Si O2"
_cell_formula_units_Z 16
_cell_length_a 15.770199
_cell_length_b 11.021971
_cell_length_c 10.241278
_cell_angle_alpha 73.895878
_cell_angle_beta 133.512563
_cell_angle_gamma 67.981767
_cell_volume 723.652649
_symmetry_space_group_name_H-M "P -1"
_symmetry_group_IT_number 2
_symmetry_cell_setting 'triclinic'
loop_
_space_group_symop_operation_xyz
x,y,z
-x,-y,-z
loop_
_atom_site_type_symbol
_atom_site_label
_atom_site_fract_x
_atom_site_fract_y
_atom_site_fract_z
Si Si1 0.337275 0.532534 0.378108
Si Si2 0.377465 0.655648 0.042275
Si Si3 0.706239 0.680794 0.076406
Si Si4 0.507435 0.708143 0.643989
Si Si5 0.871200 0.801762 0.278733
Si Si6 0.336749 0.919406 0.764023
Si Si7 0.138385 0.928995 0.928863
Si Si8 0.104575 0.062970 0.228017
O O1 0.465665 0.402738 0.682613
O O2 0.408203 0.374903 0.386540
O O3 0.332659 0.688106 0.280319
O O4 0.106689 0.692698 0.114678
O O5 0.439695 0.455808 0.153400
O O6 0.160337 0.855682 0.825256
O O7 0.369885 0.738851 0.874317
O O8 0.772023 0.768042 0.116832
O O9 0.896607 0.423243 0.375606
O O10 0.604451 0.742767 0.809391
O O11 0.548987 0.797176 0.992259
O O12 0.262909 0.929944 0.316425
O O13 0.754772 0.936386 0.247966
O O14 0.855722 0.925178 0.115214
O O15 0.187904 0.066269 0.439920
O O16 0.936020 0.050373 0.742638
#
# Coordination Sequence:
#
# PCOD8041308 Si02
#       8
#     2   2   2   2   2   2   2   2
#     4   9  19  37  52  81 111 141 175 214 272 327
#     4  10  20  33  55  81 112 143 169 216 281 317
#     4  10  22  34  53  80 108 143 182 217 270 309
#     4  10  19  32  53  77 108 136 176 223 258 320
#     4  10  20  35  52  77 109 146 177 220 263 316
#     4  10  21  35  55  82 111 137 173 227 269 318
#     4   8  18  32  53  75 107 136 175 214 261 318
#     4   9  20  31  53  85 105 140 171 217 281 307
#
# _framework density 22.110053000000001
#
# number of rings (size 3 to 8) (size 9 to 14) (size 15 to 20)
#    0.750    1.750    0.000    2.625    3.500    2.500 
#    0.000    0.000    0.000    6.750    0.000   34.125 
#    0.000    0.000    0.000    0.000    0.000    0.000 
#
# Total GULP energy -198271.428941 kJ/mol
# GULP energy per Si atom -12391.964309 kJ/mol
# Density = 2.205973 g / cm^3
# Si number density = 22.110053 Si / 1000 Ang^3
#
#
#
# Elastic Constant Matrix: (Units=GPa)
#
#
# Indices 1 2 3 4 5 6 
#
# 1 50.5489 19.1039 22.9275 -9.5819 16.7035 -7.2746
# 2 19.1039 82.1366 27.4195 -6.4370 10.6846 -11.7538
# 3 22.9275 27.4195 69.8183 -9.3996 20.5388 -10.9383
# 4 -9.5819 -6.4370 -9.3996 25.3599 -4.4531 2.9125
# 5 16.7035 10.6846 20.5388 -4.4531 32.7112 -3.5006
# 6 -7.2746 -11.7538 -10.9383 2.9125 -3.5006 27.7828
#
#
#
# Elastic Compliance Matrix: (Units=1/GPa)
#
#
# Indices 1 2 3 4 5 6 
#
# 1 0.027301 -0.003011 -0.003760 0.006200 -0.009480 0.002550
# 2 -0.003011 0.014868 -0.004096 0.000638 -0.000255 0.003790
# 3 -0.003760 -0.004096 0.020874 0.003238 -0.008977 0.004031
# 4 0.006200 0.000638 0.003238 0.043352 0.000352 -0.001332
# 5 -0.009480 -0.000255 -0.008977 0.000352 0.041073 -0.000986
# 6 0.002550 0.003790 0.004031 -0.001332 -0.000986 0.039867
#
#
# Mechanical properties :
#
#
# Convention : Reuss Voigt Hill
#
# Bulk Modulus (GPa) = 24.20716 37.93395 31.07056
# Shear Modulus (GPa) = 22.43792 26.04098 24.23945
#
# Velocity S-wave (km/s) = 3.18909 3.43562 3.31465
# Velocity P-wave (km/s) = 4.95305 5.73865 5.36026
#
# Compressibility (1/GPa) = 0.04131009
#
# Stress axis : x y z
#
# Youngs Moduli (GPa) = 36.62908 67.25911 47.90619
#
# Poissons Ratio (x) = 0.20249 0.18013
# Poissons Ratio (y) = 0.11028 0.19620
# Poissons Ratio (z) = 0.13773 0.27547
#
# Static dielectric constant tensor:
#      x y z
#    x 3.709070 -0.157690 0.214050 
#    y -0.157690 3.758370 -0.157510 
#    z 0.214050 -0.157510 4.063680 
# 
# 
# High freq. dielectric constant tensor:
#      x y z
#    x 1.841900 -0.027100 0.018280 
#    y -0.027100 1.854520 -0.001370 
#    z 0.018280 -0.001370 1.881040 
# 
# From -- ./inp_files/463015.got.cif
#   From: 2010.06.25/outbox.cif.g09.slc.cpg/sg2_232_cif.got.tgz:463015.got - 2010.06.27 13:26:56.
