data_PCOD8041862
_publ_section_title
;
Structure prediction by ZEFSAII (Michael W. Deem and Ramdas Pophale) SiO2 
 PCOD8041862
Probable space group: P -1
;
_chemical_formula_sum "Si O2"
_cell_formula_units_Z 14
_cell_length_a 15.965019
_cell_length_b 7.142596
_cell_length_c 8.219923
_cell_angle_alpha 124.820649
_cell_angle_beta 119.811267
_cell_angle_gamma 47.218332
_cell_volume 555.397637
_symmetry_space_group_name_H-M "P -1"
_symmetry_group_IT_number 2
_symmetry_cell_setting 'triclinic'
loop_
_space_group_symop_operation_xyz
x,y,z
-x,-y,-z
loop_
_atom_site_type_symbol
_atom_site_label
_atom_site_fract_x
_atom_site_fract_y
_atom_site_fract_z
Si Si1 0.322721 0.331238 0.654775
Si Si2 0.957799 0.785949 0.208263
Si Si3 0.690079 0.145666 0.655945
Si Si4 0.061118 0.162688 0.140835
Si Si5 0.059824 0.662794 0.574173
Si Si6 0.710350 0.158462 0.302738
Si Si7 0.479867 0.354782 0.053869
O O1 0.191924 0.469116 0.664128
O O2 0.326183 0.538108 0.636830
O O3 0.356555 0.051540 0.458804
O O4 0.407386 0.242401 0.849301
O O5 0.981593 0.022752 0.326282
O O6 0.826144 0.919398 0.208117
O O7 0.044775 0.578610 0.332563
O O8 0.977716 0.659205 0.978953
O O9 0.726659 0.141870 0.503372
O O10 0.589514 0.446071 0.763532
O O11 0.800373 0.047495 0.830089
O O12 0.021046 0.340523 0.360019
O O13 0.000000 0.000000 0.000000
O O14 0.606328 0.121325 0.131605
O O15 0.500000 0.500000 0.000000
#
# Coordination Sequence:
#
# PCOD8041862 Si02
#       7
#     2   2   2   2   2   2   2
#     4  10  24  42  65  95 130 170 215 272 322 387
#     4   9  17  34  61  89 125 169 209 262 321 378
#     4  12  23  41  67  97 126 173 220 262 333 389
#     4  10  19  33  62  90 130 173 208 264 325 380
#     4   9  17  35  58  87 126 170 207 259 323 379
#     4  10  21  41  65  93 129 170 215 272 324 385
#     4  10  22  43  66  92 129 169 216 271 328 383
#
# _framework density 25.207163999999999
#
# number of rings (size 3 to 8) (size 9 to 14) (size 15 to 20)
#    0.000    2.000    1.429    3.857    2.000    3.429 
#    0.000    5.000    0.000    0.000    0.000    0.000 
#    0.000    0.000    0.000    0.000    0.000    0.000 
#
# Total GULP energy -173598.912717 kJ/mol
# GULP energy per Si atom -12399.922337 kJ/mol
# Density = 2.514979 g / cm^3
# Si number density = 25.207164 Si / 1000 Ang^3
#
#
#
# Elastic Constant Matrix: (Units=GPa)
#
#
# Indices 1 2 3 4 5 6 
#
# 1 110.4121 49.5383 72.3235 -22.3656 -8.9151 -7.1192
# 2 49.5383 51.6385 36.5228 -21.2359 7.8735 -3.6569
# 3 72.3235 36.5228 183.9476 -11.2329 -5.0637 -10.1296
# 4 -22.3656 -21.2359 -11.2329 44.9248 -3.7477 5.4643
# 5 -8.9151 7.8735 -5.0637 -3.7477 52.8375 -3.6433
# 6 -7.1192 -3.6569 -10.1296 5.4643 -3.6433 47.4116
#
#
#
# Elastic Compliance Matrix: (Units=1/GPa)
#
#
# Indices 1 2 3 4 5 6 
#
# 1 0.020043 -0.016311 -0.004336 0.001518 0.005579 0.001079
# 2 -0.016311 0.041658 -0.001519 0.010662 -0.008448 -0.001439
# 3 -0.004336 -0.001519 0.007433 -0.001119 0.000194 0.000964
# 4 0.001518 0.010662 -0.001119 0.028099 0.000388 -0.002397
# 5 0.005579 -0.008448 0.000194 0.000388 0.021298 0.001819
# 6 0.001079 -0.001439 0.000964 -0.002397 0.001819 0.021765
#
#
# Mechanical properties :
#
#
# Convention : Reuss Voigt Hill
#
# Bulk Modulus (GPa) = 40.31935 73.64081 56.98008
# Shear Modulus (GPa) = 25.92089 41.54235 33.73162
#
# Velocity S-wave (km/s) = 3.21021 4.06401 3.66208
# Velocity P-wave (km/s) = 5.45624 7.16235 6.36670
#
# Compressibility (1/GPa) = 0.02480198
#
# Stress axis : x y z
#
# Youngs Moduli (GPa) = 49.89278 24.00507 134.53783
#
# Poissons Ratio (x) = 0.39154 0.58338
# Poissons Ratio (y) = 0.81379 0.20435
# Poissons Ratio (z) = 0.21634 0.03646
#
# Static dielectric constant tensor:
#      x y z
#    x 4.960600 0.042920 -0.071890 
#    y 0.042920 4.669180 -0.092970 
#    z -0.071890 -0.092970 5.876530 
# 
# 
# High freq. dielectric constant tensor:
#      x y z
#    x 2.022600 0.023950 0.006680 
#    y 0.023950 2.006110 -0.004690 
#    z 0.006680 -0.004690 2.041650 
# 
# From -- ./inp_files/325300.got.cif
#   From: 2010.06.25/outbox.cif.g09.slc.cpg/sg2_163_cif.got.tgz:325300.got - 2010.06.27 13:26:56.
