data_PCOD8041518
_publ_section_title
;
Structure prediction by ZEFSAII (Michael W. Deem and Ramdas Pophale) SiO2 
 PCOD8041518
Probable space group: P -1
;
_chemical_formula_sum "Si O2"
_cell_formula_units_Z 14
_cell_length_a 13.672795
_cell_length_b 9.236727
_cell_length_c 14.974738
_cell_angle_alpha 105.590115
_cell_angle_beta 56.430855
_cell_angle_gamma 149.178254
_cell_volume 707.066137
_symmetry_space_group_name_H-M "P -1"
_symmetry_group_IT_number 2
_symmetry_cell_setting 'triclinic'
loop_
_space_group_symop_operation_xyz
x,y,z
-x,-y,-z
loop_
_atom_site_type_symbol
_atom_site_label
_atom_site_fract_x
_atom_site_fract_y
_atom_site_fract_z
Si Si1 0.168822 0.910313 0.957428
Si Si2 0.272932 0.011965 0.285668
Si Si3 0.078349 0.241751 0.452956
Si Si4 0.678556 0.238467 0.155856
Si Si5 0.983845 0.217408 0.800088
Si Si6 0.583572 0.669215 0.259486
Si Si7 0.224914 0.177998 0.626862
O O1 0.357894 0.981756 0.868653
O O2 0.239122 0.110910 0.879915
O O3 0.880748 0.523526 0.025353
O O4 0.186653 0.009041 0.062751
O O5 0.410767 0.013254 0.239550
O O6 0.458493 0.362785 0.268843
O O7 0.023870 0.740039 0.429294
O O8 0.194273 0.912534 0.206090
O O9 0.380873 0.576336 0.347440
O O10 0.953735 0.120266 0.397914
O O11 0.000000 0.000000 0.500000
O O12 0.792314 0.413349 0.224781
O O13 0.103354 0.203538 0.697822
O O14 0.757874 0.879148 0.294122
O O15 0.500000 0.500000 0.500000
#
# Coordination Sequence:
#
# PCOD8041518 Si02
#       7
#     2   2   2   2   2   2   2
#     4   9  22  40  53  78 116 145 181 224 267 324
#     4  11  19  33  62  82 104 144 181 227 274 318
#     4  10  19  33  52  87 113 135 179 226 275 324
#     4   9  20  41  54  75 112 149 185 218 265 329
#     4  10  19  34  56  82 105 145 182 216 271 330
#     4  11  20  35  55  85 115 138 177 233 268 317
#     4  12  18  32  58  84 109 145 175 222 278 316
#
# _framework density 19.800128000000001
#
# number of rings (size 3 to 8) (size 9 to 14) (size 15 to 20)
#    0.857    0.857    7.143    0.000    0.000    3.429 
#    2.571    0.714    0.000    6.000    0.000    0.000 
#    0.000    0.000    0.000    0.000    0.000    0.000 
#
# Total GULP energy -173504.560815 kJ/mol
# GULP energy per Si atom -12393.182915 kJ/mol
# Density = 1.975506 g / cm^3
# Si number density = 19.800128 Si / 1000 Ang^3
#
#
#
# Elastic Constant Matrix: (Units=GPa)
#
#
# Indices 1 2 3 4 5 6 
#
# 1 82.6972 23.0033 32.1540 15.0875 -5.6828 31.2457
# 2 23.0033 22.8463 9.7600 6.4123 11.8716 16.6751
# 3 32.1540 9.7600 84.8032 21.5028 0.8811 4.4922
# 4 15.0875 6.4123 21.5028 19.3644 8.2258 5.8900
# 5 -5.6828 11.8716 0.8811 8.2258 43.7699 10.2485
# 6 31.2457 16.6751 4.4922 5.8900 10.2485 36.1518
#
#
#
# Elastic Compliance Matrix: (Units=1/GPa)
#
#
# Indices 1 2 3 4 5 6 
#
# 1 0.029792 -0.018712 -0.005221 -0.012150 0.015771 -0.018960
# 2 -0.018712 0.087747 -0.002746 0.003702 -0.022620 -0.018150
# 3 -0.005221 -0.002746 0.018276 -0.017830 0.001658 0.005943
# 4 -0.012150 0.003702 -0.017830 0.087122 -0.019119 0.002235
# 5 0.015771 -0.022620 0.001658 -0.019119 0.037121 -0.010812
# 6 -0.018960 -0.018150 0.005943 0.002235 -0.010812 0.054382
#
#
# Mechanical properties :
#
#
# Convention : Reuss Voigt Hill
#
# Bulk Modulus (GPa) = 12.12751 35.57570 23.85160
# Shear Modulus (GPa) = 12.64910 28.21918 20.43414
#
# Velocity S-wave (km/s) = 2.53027 3.77928 3.21599
# Velocity P-wave (km/s) = 3.83075 6.08690 5.08552
#
# Compressibility (1/GPa) = 0.08245715
#
# Stress axis : x y z
#
# Youngs Moduli (GPa) = 33.56643 11.39635 54.71522
#
# Poissons Ratio (x) = 0.21325 0.28566
# Poissons Ratio (y) = 0.62811 0.15025
# Poissons Ratio (z) = 0.17524 0.03129
#
# Static dielectric constant tensor:
#      x y z
#    x 3.608430 0.409490 -0.212900 
#    y 0.409490 3.276210 0.072620 
#    z -0.212900 0.072620 4.037650 
# 
# 
# High freq. dielectric constant tensor:
#      x y z
#    x 1.763950 0.026970 -0.012340 
#    y 0.026970 1.722040 0.013580 
#    z -0.012340 0.013580 1.786460 
# 
# From -- ./inp_files/513339.got.cif
#   From: 2010.06.25/outbox.cif.g09.slc.cpg/sg2_257_cif.got.tgz:513339.got - 2010.06.27 13:26:56.
