data_PCOD8041648
_publ_section_title
;
Structure prediction by ZEFSAII (Michael W. Deem and Ramdas Pophale) SiO2 
 PCOD8041648
Probable space group: P -1
;
_chemical_formula_sum "Si O2"
_cell_formula_units_Z 14
_cell_length_a 6.501362
_cell_length_b 22.880701
_cell_length_c 14.719298
_cell_angle_alpha 20.789910
_cell_angle_beta 112.830501
_cell_angle_gamma 111.396935
_cell_volume 716.273610
_symmetry_space_group_name_H-M "P -1"
_symmetry_group_IT_number 2
_symmetry_cell_setting 'triclinic'
loop_
_space_group_symop_operation_xyz
x,y,z
-x,-y,-z
loop_
_atom_site_type_symbol
_atom_site_label
_atom_site_fract_x
_atom_site_fract_y
_atom_site_fract_z
Si Si1 0.326188 0.387294 0.187194
Si Si2 0.848664 0.365174 0.063194
Si Si3 0.291714 0.270707 0.792524
Si Si4 0.438134 0.028209 0.728764
Si Si5 0.710094 0.403761 0.776716
Si Si6 0.627116 0.037132 0.557489
Si Si7 0.023648 0.810578 0.998783
O O1 0.239248 0.468776 0.146574
O O2 0.447180 0.218193 0.485571
O O3 0.500000 0.500000 0.000000
O O4 0.117218 0.353355 0.133125
O O5 0.768549 0.359434 0.954014
O O6 0.744219 0.214619 0.320051
O O7 0.472916 0.326362 0.819495
O O8 0.292591 0.398209 0.523903
O O9 0.047093 0.265468 0.804848
O O10 0.356478 0.087005 0.033763
O O11 0.447878 0.028076 0.621008
O O12 0.213035 0.947850 0.845119
O O13 0.900991 0.334034 0.844829
O O14 0.500000 0.000000 0.500000
O O15 0.807440 0.895345 0.798869
#
# Coordination Sequence:
#
# PCOD8041648 Si02
#       7
#     2   2   2   2   2   2   2
#     4  11  23  40  58  79 115 159 194 236 281 331
#     4  11  23  36  57  86 115 150 195 232 283 344
#     4   9  20  37  59  85 117 149 189 232 286 347
#     4  10  20  36  57  80 111 150 190 235 281 335
#     4  10  21  37  56  87 118 150 188 235 284 342
#     4  11  21  32  54  90 117 141 183 237 293 351
#     4  10  19  33  56  81 115 152 179 229 290 339
#
# _framework density 19.545604000000001
#
# number of rings (size 3 to 8) (size 9 to 14) (size 15 to 20)
#    0.000    1.714    2.857    3.000    2.000    2.286 
#    0.000    0.714    0.000    1.714    0.000    0.000 
#    0.000    0.000    0.000    0.000    0.000    0.000 
#
# Total GULP energy -173555.252553 kJ/mol
# GULP energy per Si atom -12396.803754 kJ/mol
# Density = 1.950112 g / cm^3
# Si number density = 19.545604 Si / 1000 Ang^3
#
#
#
# Elastic Constant Matrix: (Units=GPa)
#
#
# Indices 1 2 3 4 5 6 
#
# 1 111.6639 8.8549 31.1340 -8.4990 -13.3184 -2.8686
# 2 8.8549 26.1995 7.9645 -5.8690 1.1319 4.0471
# 3 31.1340 7.9645 126.1971 -20.5373 -0.6130 -7.8531
# 4 -8.4990 -5.8690 -20.5373 27.9274 -7.0147 2.8062
# 5 -13.3184 1.1319 -0.6130 -7.0147 36.1684 -10.7358
# 6 -2.8686 4.0471 -7.8531 2.8062 -10.7358 21.0095
#
#
#
# Elastic Compliance Matrix: (Units=1/GPa)
#
#
# Indices 1 2 3 4 5 6 
#
# 1 0.010668 -0.003434 -0.001774 0.002231 0.005637 0.004038
# 2 -0.003434 0.043615 -0.001613 0.006944 -0.005183 -0.013049
# 3 -0.001774 -0.001613 0.009754 0.006396 0.001947 0.003855
# 4 0.002231 0.006944 0.006396 0.045015 0.009503 0.000201
# 5 0.005637 -0.005183 0.001947 0.009503 0.037871 0.020578
# 6 0.004038 -0.013049 0.003855 0.000201 0.020578 0.062592
#
#
# Mechanical properties :
#
#
# Convention : Reuss Voigt Hill
#
# Bulk Modulus (GPa) = 19.84269 39.99637 29.91953
# Shear Modulus (GPa) = 20.83737 31.42820 26.13278
#
# Velocity S-wave (km/s) = 3.26865 4.01427 3.66049
# Velocity P-wave (km/s) = 4.94160 6.48022 5.76250
#
# Compressibility (1/GPa) = 0.05039639
#
# Stress axis : x y z
#
# Youngs Moduli (GPa) = 93.73755 22.92805 102.52582
#
# Poissons Ratio (x) = 0.07873 0.18183
# Poissons Ratio (y) = 0.32189 0.16533
# Poissons Ratio (z) = 0.16624 0.03697
#
# Static dielectric constant tensor:
#      x y z
#    x 3.834960 -0.082810 0.111600 
#    y -0.082810 3.076670 -0.084640 
#    z 0.111600 -0.084640 3.395410 
# 
# 
# High freq. dielectric constant tensor:
#      x y z
#    x 1.778290 -0.006360 -0.003300 
#    y -0.006360 1.707670 -0.015840 
#    z -0.003300 -0.015840 1.784970 
# 
# From -- ./inp_files/28422.got.cif
#   From: 2010.06.25/outbox.cif.g09.slc.cpg/sg2_15_cif.got.tgz:28422.got - 2010.06.27 13:26:56.
