data_PCOD8041215
_publ_section_title
;
Structure prediction by ZEFSAII (Michael W. Deem and Ramdas Pophale) SiO2 
 PCOD8041215
Probable space group: P -1
;
_chemical_formula_sum "Si O2"
_cell_formula_units_Z 16
_cell_length_a 11.517840
_cell_length_b 14.343450
_cell_length_c 15.071152
_cell_angle_alpha 131.534951
_cell_angle_beta 108.791513
_cell_angle_gamma 33.153577
_cell_volume 838.053687
_symmetry_space_group_name_H-M "P -1"
_symmetry_group_IT_number 2
_symmetry_cell_setting 'triclinic'
loop_
_space_group_symop_operation_xyz
x,y,z
-x,-y,-z
loop_
_atom_site_type_symbol
_atom_site_label
_atom_site_fract_x
_atom_site_fract_y
_atom_site_fract_z
Si Si1 0.906040 0.240851 0.220137
Si Si2 0.458575 0.230003 0.609878
Si Si3 0.728767 0.127673 0.769378
Si Si4 0.613305 0.772146 0.919499
Si Si5 0.306561 0.576140 0.086847
Si Si6 0.206890 0.274357 0.704283
Si Si7 0.224928 0.385269 0.954182
Si Si8 0.315842 0.812836 0.910131
O O1 0.681044 0.542430 0.341236
O O2 0.788233 0.208608 0.187691
O O3 0.074096 0.122186 0.274969
O O4 0.077800 0.089640 0.077950
O O5 0.654609 0.111757 0.656281
O O6 0.242289 0.332530 0.664701
O O7 0.634232 0.994190 0.437005
O O8 0.850005 0.154202 0.787125
O O9 0.469417 0.399010 0.927118
O O10 0.452068 0.792466 0.864177
O O11 0.910232 0.501022 0.790938
O O12 0.565310 0.812303 0.040144
O O13 0.500000 0.000000 0.000000
O O14 0.487770 0.423284 0.120715
O O15 0.119478 0.622478 0.075553
O O16 0.332174 0.240583 0.795618
O O17 0.000000 0.500000 0.000000
#
# Coordination Sequence:
#
# PCOD8041215 Si02
#       8
#     2   2   2   2   2   2   2   2
#     4  10  20  33  55  88 109 147 186 233 287 323
#     4  11  21  39  56  81 122 148 188 228 277 351
#     4  10  19  31  56  82 111 145 181 235 280 327
#     4  10  20  36  58  85 111 143 188 241 276 327
#     4   9  16  30  52  81 108 136 184 234 277 318
#     4  10  22  38  56  81 111 158 185 220 291 339
#     4   9  18  33  56  77 107 144 185 223 275 328
#     4   9  18  32  55  83 113 139 188 239 282 326
#
# _framework density 19.091854999999999
#
# number of rings (size 3 to 8) (size 9 to 14) (size 15 to 20)
#    0.000    2.250    2.500    0.750    1.750    2.000 
#    2.250    1.875    0.000    0.750    0.000    0.000 
#    0.000    0.000    0.000    0.000    0.000    0.000 
#
# Total GULP energy -198236.700518 kJ/mol
# GULP energy per Si atom -12389.793782 kJ/mol
# Density = 1.904840 g / cm^3
# Si number density = 19.091855 Si / 1000 Ang^3
#
#
#
# Elastic Constant Matrix: (Units=GPa)
#
#
# Indices 1 2 3 4 5 6 
#
# 1 131.7591 29.1138 32.0731 13.6266 9.2796 -2.5908
# 2 29.1138 77.8883 34.7381 9.3626 13.2891 6.5843
# 3 32.0731 34.7381 71.5774 11.3848 9.0388 1.6536
# 4 13.6266 9.3626 11.3848 21.3725 0.8358 5.7670
# 5 9.2796 13.2891 9.0388 0.8358 25.9199 2.8158
# 6 -2.5908 6.5843 1.6536 5.7670 2.8158 31.0874
#
#
#
# Elastic Compliance Matrix: (Units=1/GPa)
#
#
# Indices 1 2 3 4 5 6 
#
# 1 0.009169 -0.001732 -0.002422 -0.004330 -0.001651 0.002213
# 2 -0.001732 0.018019 -0.006813 -0.002214 -0.005883 -0.002655
# 3 -0.002422 -0.006813 0.019632 -0.006259 -0.002456 0.001580
# 4 -0.004330 -0.002214 -0.006259 0.056502 0.004178 -0.010419
# 5 -0.001651 -0.005883 -0.002456 0.004178 0.043285 -0.003457
# 6 0.002213 -0.002655 0.001580 -0.010419 -0.003457 0.035076
#
#
# Mechanical properties :
#
#
# Convention : Reuss Voigt Hill
#
# Bulk Modulus (GPa) = 40.18230 52.56386 46.37308
# Shear Modulus (GPa) = 23.59478 28.02929 25.81204
#
# Velocity S-wave (km/s) = 3.51929 3.83577 3.68093
# Velocity P-wave (km/s) = 6.13240 6.87091 6.51213
#
# Compressibility (1/GPa) = 0.02488658
#
# Stress axis : x y z
#
# Youngs Moduli (GPa) = 109.05725 55.49708 50.93812
#
# Poissons Ratio (x) = 0.09613 0.12338
# Poissons Ratio (y) = 0.18890 0.34702
# Poissons Ratio (z) = 0.26415 0.37808
#
# Static dielectric constant tensor:
#      x y z
#    x 4.057570 0.111360 0.275650 
#    y 0.111360 2.830290 -0.129710 
#    z 0.275650 -0.129710 3.566520 
# 
# 
# High freq. dielectric constant tensor:
#      x y z
#    x 1.767990 -0.001760 0.016880 
#    y -0.001760 1.733540 -0.009470 
#    z 0.016880 -0.009470 1.692230 
# 
# From -- ./inp_files/252622.got.cif
#   From: 2010.06.25/outbox.cif.g09.slc.cpg/sg2_127_cif.got.tgz:252622.got - 2010.06.27 13:26:56.
