data_PCOD8041250
_publ_section_title
;
Structure prediction by ZEFSAII (Michael W. Deem and Ramdas Pophale) SiO2 
 PCOD8041250
Probable space group: P -1
;
_chemical_formula_sum "Si O2"
_cell_formula_units_Z 16
_cell_length_a 14.781137
_cell_length_b 13.959612
_cell_length_c 11.439326
_cell_angle_alpha 149.656391
_cell_angle_beta 101.160125
_cell_angle_gamma 59.059066
_cell_volume 835.055548
_symmetry_space_group_name_H-M "P -1"
_symmetry_group_IT_number 2
_symmetry_cell_setting 'triclinic'
loop_
_space_group_symop_operation_xyz
x,y,z
-x,-y,-z
loop_
_atom_site_type_symbol
_atom_site_label
_atom_site_fract_x
_atom_site_fract_y
_atom_site_fract_z
Si Si1 0.328891 0.216031 0.083130
Si Si2 0.693411 0.103053 0.410508
Si Si3 0.139287 0.381669 0.886202
Si Si4 0.457213 0.267648 0.803551
Si Si5 0.380452 0.178311 0.312949
Si Si6 0.285513 0.048755 0.356617
Si Si7 0.396625 0.525096 0.823825
Si Si8 0.234381 0.587446 0.253016
O O1 0.298456 0.276216 0.276224
O O2 0.229595 0.495967 0.283142
O O3 0.310276 0.021826 0.838151
O O4 0.471746 0.090795 0.958959
O O5 0.547812 0.379349 0.698949
O O6 0.787627 0.152341 0.469474
O O7 0.750805 0.889378 0.301763
O O8 0.170871 0.305194 0.675328
O O9 0.139652 0.604648 0.159333
O O10 0.000000 0.500000 0.000000
O O11 0.590107 0.182622 0.773956
O O12 0.374442 0.477683 0.899315
O O13 0.500000 0.000000 0.500000
O O14 0.376444 0.357361 0.994855
O O15 0.375188 0.398929 0.587891
O O16 0.314332 0.140899 0.352741
O O17 0.277220 0.841930 0.094503
#
# Coordination Sequence:
#
# PCOD8041250 Si02
#       8
#     2   2   2   2   2   2   2   2
#     4   9  19  32  49  78 114 138 167 209 259 315
#     4  10  19  33  55  77 102 140 175 210 259 312
#     4  11  24  37  51  77 109 139 172 215 260 309
#     4  12  16  29  51  78 103 134 168 207 264 310
#     4  10  19  32  48  78 115 141 164 208 263 311
#     4  12  20  32  53  78 109 138 171 212 259 315
#     4  11  19  29  52  83 107 135 171 209 261 317
#     4  11  19  33  54  74 103 139 175 211 254 309
#
# _framework density 19.160402999999999
#
# number of rings (size 3 to 8) (size 9 to 14) (size 15 to 20)
#    0.000    1.250    6.250    1.875    0.000    1.500 
#    0.000    3.750    0.000    3.000    0.000    5.250 
#    0.000    0.000    0.000    0.000    0.000    0.000 
#
# Total GULP energy -198216.279014 kJ/mol
# GULP energy per Si atom -12388.517438 kJ/mol
# Density = 1.911679 g / cm^3
# Si number density = 19.160403 Si / 1000 Ang^3
#
#
#
# Elastic Constant Matrix: (Units=GPa)
#
#
# Indices 1 2 3 4 5 6 
#
# 1 94.2061 37.3485 36.7911 -7.4531 10.1521 16.2109
# 2 37.3485 70.7737 38.6903 -28.1540 2.2322 13.5214
# 3 36.7911 38.6903 46.2645 -14.2140 4.1756 11.8280
# 4 -7.4531 -28.1540 -14.2140 21.8836 6.4522 -1.7485
# 5 10.1521 2.2322 4.1756 6.4522 30.2244 4.0506
# 6 16.2109 13.5214 11.8280 -1.7485 4.0506 17.7759
#
#
#
# Elastic Compliance Matrix: (Units=1/GPa)
#
#
# Indices 1 2 3 4 5 6 
#
# 1 0.017173 -0.005893 -0.009728 -0.007991 -0.001596 -0.005128
# 2 -0.005893 0.051250 -0.016756 0.054533 -0.009120 -0.015018
# 3 -0.009728 -0.016756 0.047733 0.006048 -0.002167 -0.009055
# 4 -0.007991 0.054533 0.006048 0.123031 -0.025729 -0.020254
# 5 -0.001596 -0.009120 -0.002167 -0.025729 0.040340 -0.001889
# 6 -0.005128 -0.015018 -0.009055 -0.020254 -0.001889 0.076819
#
#
# Mechanical properties :
#
#
# Convention : Reuss Voigt Hill
#
# Bulk Modulus (GPa) = 19.45495 48.54490 33.99993
# Shear Modulus (GPa) = 11.40943 20.53774 15.97359
#
# Velocity S-wave (km/s) = 2.44287 3.27752 2.89048
# Velocity P-wave (km/s) = 4.25824 6.30189 5.37803
#
# Compressibility (1/GPa) = 0.05140079
#
# Stress axis : x y z
#
# Youngs Moduli (GPa) = 58.23198 19.51218 20.94986
#
# Poissons Ratio (x) = 0.11498 0.20380
# Poissons Ratio (y) = 0.34315 0.35104
# Poissons Ratio (z) = 0.56649 0.32695
#
# Static dielectric constant tensor:
#      x y z
#    x 3.525910 0.080610 0.404750 
#    y 0.080610 3.082390 -0.046170 
#    z 0.404750 -0.046170 3.341890 
# 
# 
# High freq. dielectric constant tensor:
#      x y z
#    x 1.731620 0.017640 0.040040 
#    y 0.017640 1.717620 -0.022950 
#    z 0.040040 -0.022950 1.734970 
# 
# From -- ./inp_files/424528.got.cif
#   From: 2010.06.25/outbox.cif.g09.slc.cpg/sg2_213_cif.got.tgz:424528.got - 2010.06.27 13:26:56.
