data_PCOD8041155
_publ_section_title
;
Structure prediction by ZEFSAII (Michael W. Deem and Ramdas Pophale) SiO2 
 PCOD8041155
Probable space group: P -1
;
_chemical_formula_sum "Si O2"
_cell_formula_units_Z 16
_cell_length_a 12.022135
_cell_length_b 9.101817
_cell_length_c 11.417271
_cell_angle_alpha 116.353721
_cell_angle_beta 141.898385
_cell_angle_gamma 52.493827
_cell_volume 609.962249
_symmetry_space_group_name_H-M "P -1"
_symmetry_group_IT_number 2
_symmetry_cell_setting 'triclinic'
loop_
_space_group_symop_operation_xyz
x,y,z
-x,-y,-z
loop_
_atom_site_type_symbol
_atom_site_label
_atom_site_fract_x
_atom_site_fract_y
_atom_site_fract_z
Si Si1 0.646028 0.924380 0.206012
Si Si2 0.818711 0.249373 0.149428
Si Si3 0.263366 0.658342 0.287847
Si Si4 0.539041 0.167953 0.624278
Si Si5 0.655138 0.747478 0.795351
Si Si6 0.917759 0.864129 0.217154
Si Si7 0.366367 0.386217 0.766983
Si Si8 0.093509 0.166871 0.131203
O O1 0.566858 0.074167 0.299880
O O2 0.865359 0.887724 0.321412
O O3 0.660719 0.731983 0.192733
O O4 0.500000 0.000000 0.000000
O O5 0.807707 0.399888 0.291422
O O6 0.003296 0.221299 0.205957
O O7 0.848280 0.062758 0.169288
O O8 0.596791 0.361380 0.944806
O O9 0.437864 0.721342 0.430524
O O10 0.367558 0.438450 0.277648
O O11 0.161792 0.730867 0.357023
O O12 0.080316 0.766220 0.084792
O O13 0.353034 0.305831 0.600556
O O14 0.500000 0.000000 0.500000
O O15 0.765275 0.060418 0.840635
O O16 0.749188 0.750979 0.745139
O O17 0.807365 0.756954 0.023026
#
# Coordination Sequence:
#
# PCOD8041155 Si02
#       8
#     2   2   2   2   2   2   2   2
#     4  10  19  31  51  84 131 150 184 248 316 357
#     4  11  21  32  62  91 123 151 199 255 311 354
#     4  11  22  36  62  92 121 154 208 253 305 359
#     4  12  25  43  63  85 124 170 209 250 297 361
#     4  10  21  32  56  92 126 155 193 250 310 363
#     4  10  19  32  50  90 122 152 183 250 311 355
#     4  11  22  36  56  93 123 162 197 250 312 359
#     4  11  20  39  62  90 120 154 203 263 302 348
#
# _framework density 26.23113
#
# number of rings (size 3 to 8) (size 9 to 14) (size 15 to 20)
#    0.000    1.250    6.250    2.625    7.000    0.000 
#    0.000    1.250    0.000    0.750    0.000    0.000 
#    0.000    0.000    0.000    0.000    0.000    0.000 
#
# Total GULP energy -198269.821178 kJ/mol
# GULP energy per Si atom -12391.863824 kJ/mol
# Density = 2.617143 g / cm^3
# Si number density = 26.231130 Si / 1000 Ang^3
#
#
#
# Elastic Constant Matrix: (Units=GPa)
#
#
# Indices 1 2 3 4 5 6 
#
# 1 241.2333 68.9735 28.2075 33.0983 1.9089 -8.6011
# 2 68.9735 146.9141 17.1291 35.8074 9.9015 -3.2208
# 3 28.2075 17.1291 14.6339 7.6408 2.6837 3.0354
# 4 33.0983 35.8074 7.6408 37.5023 2.5762 0.7779
# 5 1.9089 9.9015 2.6837 2.5762 25.7534 13.2145
# 6 -8.6011 -3.2208 3.0354 0.7779 13.2145 51.1866
#
#
#
# Elastic Compliance Matrix: (Units=1/GPa)
#
#
# Indices 1 2 3 4 5 6 
#
# 1 0.005913 -0.001138 -0.009233 -0.002313 0.000485 0.001379
# 2 -0.001138 0.010010 -0.005487 -0.007241 -0.003362 0.001742
# 3 -0.009233 -0.005487 0.097782 -0.006167 -0.003318 -0.006745
# 4 -0.002313 -0.007241 -0.006167 0.036865 0.000511 -0.001171
# 5 0.000485 -0.003362 -0.003318 0.000511 0.046512 -0.011949
# 6 0.001379 0.001742 -0.006745 -0.001171 -0.011949 0.023380
#
#
# Mechanical properties :
#
#
# Convention : Reuss Voigt Hill
#
# Bulk Modulus (GPa) = 12.19688 70.15572 41.17630
# Shear Modulus (GPa) = 17.88851 42.11987 30.00419
#
# Velocity S-wave (km/s) = 2.61426 4.01149 3.38574
# Velocity P-wave (km/s) = 3.71111 6.94690 5.56919
#
# Compressibility (1/GPa) = 0.08198815
#
# Stress axis : x y z
#
# Youngs Moduli (GPa) = 169.11588 99.89555 10.22687
#
# Poissons Ratio (x) = 0.11372 0.09442
# Poissons Ratio (y) = 0.19253 0.05612
# Poissons Ratio (z) = 1.56143 0.54815
#
# Static dielectric constant tensor:
#      x y z
#    x 6.891360 -1.219270 0.521740 
#    y -1.219270 5.852460 -0.580850 
#    z 0.521740 -0.580850 5.105670 
# 
# 
# High freq. dielectric constant tensor:
#      x y z
#    x 2.079420 -0.006620 0.007630 
#    y -0.006620 2.053590 0.010020 
#    z 0.007630 0.010020 2.020090 
# 
# From -- ./inp_files/357773.got.cif
#   From: 2010.06.25/outbox.cif.g09.slc.cpg/sg2_179_cif.got.tgz:357773.got - 2010.06.27 13:26:56.
