data_PCOD8041889
_publ_section_title
;
Structure prediction by ZEFSAII (Michael W. Deem and Ramdas Pophale) SiO2 
 PCOD8041889
Probable space group: P -1
;
_chemical_formula_sum "Si O2"
_cell_formula_units_Z 16
_cell_length_a 18.673882
_cell_length_b 22.068917
_cell_length_c 9.159898
_cell_angle_alpha 60.022657
_cell_angle_beta 50.911718
_cell_angle_gamma 18.238367
_cell_volume 837.083584
_symmetry_space_group_name_H-M "P -1"
_symmetry_group_IT_number 2
_symmetry_cell_setting 'triclinic'
loop_
_space_group_symop_operation_xyz
x,y,z
-x,-y,-z
loop_
_atom_site_type_symbol
_atom_site_label
_atom_site_fract_x
_atom_site_fract_y
_atom_site_fract_z
Si Si1 0.665085 0.532837 0.864176
Si Si2 0.167683 0.077750 0.102149
Si Si3 0.801439 0.614795 0.825436
Si Si4 0.158034 0.946012 0.450955
Si Si5 0.249671 0.496171 0.883370
Si Si6 0.882455 0.895636 0.199099
Si Si7 0.279992 0.359401 0.433354
Si Si8 0.109734 0.859456 0.124882
O O1 0.646321 0.611053 0.681303
O O2 0.977448 0.279854 0.748874
O O3 0.614585 0.591135 0.026090
O O4 0.439690 0.634568 0.995267
O O5 0.977588 0.282161 0.133898
O O6 0.091518 0.069484 0.318219
O O7 0.115926 0.085028 0.997399
O O8 0.494460 0.864621 0.958794
O O9 0.821260 0.579160 0.674627
O O10 0.037169 0.506196 0.679077
O O11 0.881247 0.488671 0.969893
O O12 0.487765 0.690659 0.339254
O O13 0.000000 0.000000 0.500000
O O14 0.055828 0.022690 0.653996
O O15 0.064387 0.820289 0.145417
O O16 0.565580 0.114261 0.400261
O O17 0.000000 0.000000 0.000000
#
# Coordination Sequence:
#
# PCOD8041889 Si02
#       8
#     2   2   2   2   2   2   2   2
#     4  10  19  34  52  77 112 140 176 218 259 312
#     4   9  19  36  55  79 109 139 174 219 262 312
#     4   8  16  29  55  79 109 135 171 220 265 311
#     4  11  21  36  54  77 108 141 179 216 257 314
#     4   9  18  35  55  80 105 139 177 218 263 309
#     4  10  20  34  53  78 110 141 177 215 261 312
#     4   9  16  31  50  81 109 139 170 216 269 309
#     4  12  22  37  54  76 110 146 174 215 265 310
#
# _framework density 19.113983000000001
#
# number of rings (size 3 to 8) (size 9 to 14) (size 15 to 20)
#    0.000    2.250    2.500    1.875    0.000    1.500 
#    4.500    5.000    0.000    3.000    0.000    5.250 
#    0.000    0.000    0.000    0.000    0.000    0.000 
#
# Total GULP energy -198326.727667 kJ/mol
# GULP energy per Si atom -12395.420479 kJ/mol
# Density = 1.907048 g / cm^3
# Si number density = 19.113983 Si / 1000 Ang^3
#
#
#
# Elastic Constant Matrix: (Units=GPa)
#
#
# Indices 1 2 3 4 5 6 
#
# 1 51.2001 23.0239 43.3288 7.7049 -7.1115 2.8651
# 2 23.0239 133.0790 71.9264 12.3302 -5.0393 17.4167
# 3 43.3288 71.9264 128.7365 10.3205 -23.5094 2.6636
# 4 7.7049 12.3302 10.3205 22.6931 -6.7033 -2.9134
# 5 -7.1115 -5.0393 -23.5094 -6.7033 24.1546 -0.0722
# 6 2.8651 17.4167 2.6636 -2.9134 -0.0722 20.9135
#
#
#
# Elastic Compliance Matrix: (Units=1/GPa)
#
#
# Indices 1 2 3 4 5 6 
#
# 1 0.028664 0.002193 -0.010832 -0.007834 -0.003836 -0.005478
# 2 0.002193 0.014075 -0.009084 -0.008024 -0.007522 -0.012009
# 3 -0.010832 -0.009084 0.018546 0.005422 0.014493 0.007492
# 4 -0.007834 -0.008024 0.005422 0.055470 0.016735 0.014851
# 5 -0.003836 -0.007522 0.014493 0.016735 0.057474 0.007473
# 6 -0.005478 -0.012009 0.007492 0.014851 0.007473 0.059708
#
#
# Mechanical properties :
#
#
# Convention : Reuss Voigt Hill
#
# Bulk Modulus (GPa) = 38.70069 65.50821 52.10445
# Shear Modulus (GPa) = 17.98595 25.20134 21.59364
#
# Velocity S-wave (km/s) = 3.07087 3.63502 3.36479
# Velocity P-wave (km/s) = 5.73280 7.20865 6.51267
#
# Compressibility (1/GPa) = 0.02583933
#
# Stress axis : x y z
#
# Youngs Moduli (GPa) = 34.88649 71.04916 53.92122
#
# Poissons Ratio (x) = -0.15579 0.58407
# Poissons Ratio (y) = -0.07650 0.48980
# Poissons Ratio (z) = 0.37789 0.64538
#
# Static dielectric constant tensor:
#      x y z
#    x 3.252570 0.013240 -0.178730 
#    y 0.013240 3.509780 0.089350 
#    z -0.178730 0.089350 3.589700 
# 
# 
# High freq. dielectric constant tensor:
#      x y z
#    x 1.715180 0.007810 -0.018270 
#    y 0.007810 1.748450 0.008690 
#    z -0.018270 0.008690 1.736790 
# 
# From -- ./inp_files/272338.got.cif
#   From: 2010.06.25/outbox.cif.g09.slc.cpg/sg2_137_cif.got.tgz:272338.got - 2010.06.27 13:26:56.
