data_PCOD8041861
_publ_section_title
;
Structure prediction by ZEFSAII (Michael W. Deem and Ramdas Pophale) SiO2 
 PCOD8041861
Probable space group: P -1
;
_chemical_formula_sum "Si O2"
_cell_formula_units_Z 12
_cell_length_a 16.446365
_cell_length_b 26.243579
_cell_length_c 10.814868
_cell_angle_alpha 19.837514
_cell_angle_beta 155.673235
_cell_angle_gamma 163.108690
_cell_volume 457.311063
_symmetry_space_group_name_H-M "P -1"
_symmetry_group_IT_number 2
_symmetry_cell_setting 'triclinic'
loop_
_space_group_symop_operation_xyz
x,y,z
-x,-y,-z
loop_
_atom_site_type_symbol
_atom_site_label
_atom_site_fract_x
_atom_site_fract_y
_atom_site_fract_z
Si Si1 0.397489 0.583915 0.367047
Si Si2 0.883008 0.308498 0.123567
Si Si3 0.136899 0.982590 0.119515
Si Si4 0.852090 0.703895 0.884941
Si Si5 0.228535 0.191302 0.213897
Si Si6 0.272955 0.748360 0.239143
O O1 0.550376 0.541182 0.763781
O O2 0.196433 0.426677 0.333697
O O3 0.218954 0.588639 0.203053
O O4 0.644567 0.808047 0.134160
O O5 0.700462 0.073158 0.468092
O O6 0.878243 0.303631 0.981683
O O7 0.885619 0.796406 0.100203
O O8 0.000000 0.000000 0.000000
O O9 0.803210 0.701623 0.967578
O O10 0.046122 0.944358 0.554066
O O11 0.025467 0.640048 0.247706
O O12 0.562036 0.322400 0.367616
O O13 0.500000 0.000000 0.000000
#
# Coordination Sequence:
#
# PCOD8041861 Si02
#       6
#     2   2   2   2   2   2
#     4  10  22  40  64  90 126 165 205 255 311 364
#     4  11  22  40  65  91 125 163 208 256 307 370
#     4  11  23  39  61  94 123 163 207 257 308 367
#     4   9  17  33  59  85 113 166 200 244 308 360
#     4   9  18  35  55  85 124 151 203 254 299 369
#     4  10  19  33  62  88 117 162 207 249 305 369
#
# _framework density 26.240345000000001
#
# number of rings (size 3 to 8) (size 9 to 14) (size 15 to 20)
#    0.000    2.000    1.667    3.500    2.333    2.667 
#    3.000    0.833    0.000    5.000    0.000    0.000 
#    0.000    0.000    0.000    0.000    0.000    0.000 
#
# Total GULP energy -148812.642642 kJ/mol
# GULP energy per Si atom -12401.053554 kJ/mol
# Density = 2.618062 g / cm^3
# Si number density = 26.240345 Si / 1000 Ang^3
#
#
#
# Elastic Constant Matrix: (Units=GPa)
#
#
# Indices 1 2 3 4 5 6 
#
# 1 182.0426 74.6034 70.2120 34.1097 3.4654 -11.7911
# 2 74.6034 114.2542 32.0200 38.0832 -10.7912 -2.0318
# 3 70.2120 32.0200 169.3855 36.1011 3.2832 -10.0170
# 4 34.1097 38.0832 36.1011 28.3803 -6.6922 -0.8717
# 5 3.4654 -10.7912 3.2832 -6.6922 48.9564 7.1211
# 6 -11.7911 -2.0318 -10.0170 -0.8717 7.1211 41.8200
#
#
#
# Elastic Compliance Matrix: (Units=1/GPa)
#
#
# Indices 1 2 3 4 5 6 
#
# 1 0.008766 -0.004599 -0.002172 -0.002026 -0.002062 0.002037
# 2 -0.004599 0.018842 0.003390 -0.023834 0.001028 -0.000241
# 3 -0.002172 0.003390 0.009339 -0.014217 -0.001934 0.001822
# 4 -0.002026 -0.023834 -0.014217 0.089665 0.008793 -0.004763
# 5 -0.002062 0.001028 -0.001934 0.008793 0.022814 -0.004696
# 6 0.002037 -0.000241 0.001822 -0.004763 -0.004696 0.025611
#
#
# Mechanical properties :
#
#
# Convention : Reuss Voigt Hill
#
# Bulk Modulus (GPa) = 33.12872 91.03922 62.08397
# Shear Modulus (GPa) = 26.06050 43.08781 34.57415
#
# Velocity S-wave (km/s) = 3.15484 4.05661 3.63381
# Velocity P-wave (km/s) = 5.09148 7.53068 6.42784
#
# Compressibility (1/GPa) = 0.03018529
#
# Stress axis : x y z
#
# Youngs Moduli (GPa) = 114.07285 53.07179 107.08165
#
# Poissons Ratio (x) = 0.24406 0.23262
# Poissons Ratio (y) = 0.52458 -0.36299
# Poissons Ratio (z) = 0.24780 -0.17991
#
# Static dielectric constant tensor:
#      x y z
#    x 4.354250 0.037770 0.213140 
#    y 0.037770 5.426630 0.076140 
#    z 0.213140 0.076140 5.035380 
# 
# 
# High freq. dielectric constant tensor:
#      x y z
#    x 2.048820 0.002130 -0.001770 
#    y 0.002130 2.093760 -0.021460 
#    z -0.001770 -0.021460 2.083610 
# 
# From -- ./inp_files/155904.got.cif
#   From: 2010.06.25/outbox.cif.g09.slc.cpg/sg2_78_cif.got.tgz:155904.got - 2010.06.27 13:26:56.
