data_PCOD8041950
_publ_section_title
;
Structure prediction by ZEFSAII (Michael W. Deem and Ramdas Pophale) SiO2 
 PCOD8041950
Probable space group: P -1
;
_chemical_formula_sum "Si O2"
_cell_formula_units_Z 16
_cell_length_a 14.855103
_cell_length_b 18.445726
_cell_length_c 8.432150
_cell_angle_alpha 133.828293
_cell_angle_beta 58.259044
_cell_angle_gamma 156.595490
_cell_volume 611.916659
_symmetry_space_group_name_H-M "P -1"
_symmetry_group_IT_number 2
_symmetry_cell_setting 'triclinic'
loop_
_space_group_symop_operation_xyz
x,y,z
-x,-y,-z
loop_
_atom_site_type_symbol
_atom_site_label
_atom_site_fract_x
_atom_site_fract_y
_atom_site_fract_z
Si Si1 0.783823 0.470114 0.091161
Si Si2 0.766286 0.667714 0.987835
Si Si3 0.581134 0.122503 0.928859
Si Si4 0.935267 0.266854 0.068713
Si Si5 0.290686 0.694813 0.592782
Si Si6 0.519522 0.421522 0.144095
Si Si7 0.386247 0.588073 0.529557
Si Si8 0.195060 0.169312 0.334952
O O1 0.576563 0.351167 0.998924
O O2 0.808046 0.541954 0.352245
O O3 0.704980 0.286015 0.914049
O O4 0.031973 0.684534 0.080340
O O5 0.712292 0.596075 0.746062
O O6 0.928463 0.719388 0.995245
O O7 0.520185 0.460270 0.017403
O O8 0.912017 0.898381 0.210788
O O9 0.346383 0.987742 0.003442
O O10 0.489860 0.933389 0.671860
O O11 0.757992 0.276418 0.158109
O O12 0.050439 0.460232 0.356495
O O13 0.418281 0.700249 0.535523
O O14 0.264384 0.230632 0.176177
O O15 0.746776 0.672449 0.404068
O O16 0.643120 0.780650 0.661303
#
# Coordination Sequence:
#
# PCOD8041950 Si02
#       8
#     2   2   2   2   2   2   2   2
#     4   9  19  36  53  76 107 134 171 216 252 302
#     4  10  19  34  55  76 103 138 172 209 257 305
#     4  10  19  36  56  74 106 140 166 210 264 299
#     4  10  19  34  55  76 103 138 172 209 257 305
#     4   9  19  34  53  80 105 131 175 215 246 308
#     4   9  19  34  53  80 105 131 175 215 246 308
#     4   9  19  36  53  76 107 134 171 216 252 302
#     4  10  19  36  56  74 106 140 166 210 264 299
#
# _framework density 26.147351
#
# number of rings (size 3 to 8) (size 9 to 14) (size 15 to 20)
#    0.000    2.500    0.000    3.000    0.000    1.000 
#    0.000   25.000    0.000    0.000    0.000    0.000 
#    0.000    0.000    0.000    0.000    0.000    0.000 
#
# Total GULP energy -198275.835495 kJ/mol
# GULP energy per Si atom -12392.239718 kJ/mol
# Density = 2.608784 g / cm^3
# Si number density = 26.147351 Si / 1000 Ang^3
#
#
#
# Elastic Constant Matrix: (Units=GPa)
#
#
# Indices 1 2 3 4 5 6 
#
# 1 66.5917 32.6798 15.0422 -4.7510 3.7948 -29.8847
# 2 32.6798 127.7656 28.3706 -1.1781 16.2537 -15.8989
# 3 15.0422 28.3706 92.8303 12.8833 4.4894 -0.3976
# 4 -4.7510 -1.1781 12.8833 36.5108 -2.4220 -2.2030
# 5 3.7948 16.2537 4.4894 -2.4220 38.9397 -3.6543
# 6 -29.8847 -15.8989 -0.3976 -2.2030 -3.6543 39.1179
#
#
#
# Elastic Compliance Matrix: (Units=1/GPa)
#
#
# Indices 1 2 3 4 5 6 
#
# 1 0.026803 -0.003684 -0.004054 0.006078 0.001595 0.019429
# 2 -0.003684 0.009821 -0.002305 0.000480 -0.003363 0.000866
# 3 -0.004054 -0.002305 0.012918 -0.005477 -0.000876 -0.004293
# 4 0.006078 0.000480 -0.005477 0.030692 0.002380 0.006733
# 5 0.001595 -0.003363 -0.000876 0.002380 0.027416 0.002538
# 6 0.019429 0.000866 -0.004293 0.006733 0.002538 0.041331
#
#
# Mechanical properties :
#
#
# Convention : Reuss Voigt Hill
#
# Bulk Modulus (GPa) = 33.95062 48.81920 41.38491
# Shear Modulus (GPa) = 27.95054 36.98670 32.46862
#
# Velocity S-wave (km/s) = 3.27305 3.76513 3.52768
# Velocity P-wave (km/s) = 5.22459 6.13294 5.69690
#
# Compressibility (1/GPa) = 0.02945454
#
# Stress axis : x y z
#
# Youngs Moduli (GPa) = 37.30943 101.82154 77.41247
#
# Poissons Ratio (x) = 0.37516 0.31387
# Poissons Ratio (y) = 0.13746 0.17841
# Poissons Ratio (z) = 0.15127 0.23467
#
# Static dielectric constant tensor:
#      x y z
#    x 5.178790 -0.258950 -0.134660 
#    y -0.258950 4.550720 -0.136010 
#    z -0.134660 -0.136010 4.665150 
# 
# 
# High freq. dielectric constant tensor:
#      x y z
#    x 2.097100 -0.012510 -0.015950 
#    y -0.012510 2.022180 -0.007940 
#    z -0.015950 -0.007940 2.027260 
# 
# From -- ./inp_files/215391.got.cif
#   From: 2010.06.25/outbox.cif.g09.slc.cpg/sg2_108_cif.got.tgz:215391.got - 2010.06.27 13:26:56.
