data_PCOD8041087
_publ_section_title
;
Structure prediction by ZEFSAII (Michael W. Deem and Ramdas Pophale) SiO2 
 PCOD8041087
Probable space group: P -1
;
_chemical_formula_sum "Si O2"
_cell_formula_units_Z 12
_cell_length_a 14.477062
_cell_length_b 12.348218
_cell_length_c 11.606271
_cell_angle_alpha 65.068977
_cell_angle_beta 123.368178
_cell_angle_gamma 159.654478
_cell_volume 569.887188
_symmetry_space_group_name_H-M "P -1"
_symmetry_group_IT_number 2
_symmetry_cell_setting 'triclinic'
loop_
_space_group_symop_operation_xyz
x,y,z
-x,-y,-z
loop_
_atom_site_type_symbol
_atom_site_label
_atom_site_fract_x
_atom_site_fract_y
_atom_site_fract_z
Si Si1 0.415373 0.153027 0.019529
Si Si2 0.291892 0.774634 0.157041
Si Si3 0.929401 0.812445 0.963173
Si Si4 0.087602 0.206155 0.539535
Si Si5 0.152393 0.814574 0.751955
Si Si6 0.335822 0.302730 0.356168
O O1 0.748382 0.536086 0.041831
O O2 0.215546 0.935618 0.865000
O O3 0.246476 0.075985 0.021155
O O4 0.449421 0.062457 0.153538
O O5 0.148225 0.573711 0.265812
O O6 0.544718 0.945861 0.193485
O O7 0.000000 0.500000 0.000000
O O8 0.724426 0.641086 0.787901
O O9 0.000000 0.000000 0.000000
O O10 0.455270 0.582243 0.621863
O O11 0.931500 0.167212 0.402714
O O12 0.000000 0.000000 0.500000
O O13 0.980293 0.080727 0.654808
O O14 0.500000 0.500000 0.500000
#
# Coordination Sequence:
#
# PCOD8041087 Si02
#       6
#     2   2   2   2   2   2
#     4  11  20  36  54  77 115 152 183 231 279 332
#     4  10  20  32  52  82 113 149 186 229 286 335
#     4  12  24  37  56  84 115 152 188 225 279 339
#     4  10  19  30  50  78 108 141 172 217 276 329
#     4  11  19  33  54  85 116 143 183 235 285 334
#     4  10  19  34  52  78 108 141 179 223 275 327
#
# _framework density 21.056799000000002
#
# number of rings (size 3 to 8) (size 9 to 14) (size 15 to 20)
#    0.000    1.333    0.000   11.500    0.000    0.000 
#    0.000    0.000    0.000    0.000    0.000   23.333 
#    0.000    0.000    0.000    0.000    0.000    0.000 
#
# Total GULP energy -148710.274338 kJ/mol
# GULP energy per Si atom -12392.522862 kJ/mol
# Density = 2.100887 g / cm^3
# Si number density = 21.056799 Si / 1000 Ang^3
#
#
#
# Elastic Constant Matrix: (Units=GPa)
#
#
# Indices 1 2 3 4 5 6 
#
# 1 131.2174 55.6658 32.4187 -8.6978 31.7783 31.2438
# 2 55.6658 152.2926 28.5592 -31.5888 10.6029 30.5738
# 3 32.4187 28.5592 43.1292 -17.8195 18.6395 0.9549
# 4 -8.6978 -31.5888 -17.8195 25.8955 -6.4063 5.4763
# 5 31.7783 10.6029 18.6395 -6.4063 30.8003 4.7050
# 6 31.2438 30.5738 0.9549 5.4763 4.7050 53.6655
#
#
#
# Elastic Compliance Matrix: (Units=1/GPa)
#
#
# Indices 1 2 3 4 5 6 
#
# 1 0.013539 -0.003287 -0.005701 -0.004817 -0.009692 -0.004567
# 2 -0.003287 0.012358 -0.000648 0.016000 0.003941 -0.007093
# 3 -0.005701 -0.000648 0.044644 0.023578 -0.016301 0.001917
# 4 -0.004817 0.016000 0.023578 0.076731 0.003423 -0.014860
# 5 -0.009692 0.003941 -0.016301 0.003423 0.051872 -0.001210
# 6 -0.004567 -0.007093 0.001917 -0.014860 -0.001210 0.026922
#
#
# Mechanical properties :
#
#
# Convention : Reuss Voigt Hill
#
# Bulk Modulus (GPa) = 19.50458 62.21407 40.85933
# Shear Modulus (GPa) = 19.05283 36.07195 27.56239
#
# Velocity S-wave (km/s) = 3.01130 4.14343 3.62187
# Velocity P-wave (km/s) = 4.62315 7.24573 6.07759
#
# Compressibility (1/GPa) = 0.05127001
#
# Stress axis : x y z
#
# Youngs Moduli (GPa) = 73.85927 80.92132 22.39918
#
# Poissons Ratio (x) = 0.26602 0.12769
# Poissons Ratio (y) = 0.24281 0.01450
# Poissons Ratio (z) = 0.42105 0.05240
#
# Static dielectric constant tensor:
#      x y z
#    x 3.565880 0.127050 0.169410 
#    y 0.127050 4.687190 -0.611210 
#    z 0.169410 -0.611210 3.519790 
# 
# 
# High freq. dielectric constant tensor:
#      x y z
#    x 1.818260 0.035610 0.034020 
#    y 0.035610 1.846190 -0.030300 
#    z 0.034020 -0.030300 1.785370 
# 
# From -- ./inp_files/62382.got.cif
#   From: 2010.06.25/outbox.cif.g09.slc.cpg/sg2_32_cif.got.tgz:62382.got - 2010.06.27 13:26:56.
