data_PCOD8041273
_publ_section_title
;
Structure prediction by ZEFSAII (Michael W. Deem and Ramdas Pophale) SiO2 
 PCOD8041273
Probable space group: P -1
;
_chemical_formula_sum "Si O2"
_cell_formula_units_Z 16
_cell_length_a 11.428358
_cell_length_b 12.292583
_cell_length_c 9.006100
_cell_angle_alpha 72.863053
_cell_angle_beta 63.902181
_cell_angle_gamma 50.590403
_cell_volume 877.657044
_symmetry_space_group_name_H-M "P -1"
_symmetry_group_IT_number 2
_symmetry_cell_setting 'triclinic'
loop_
_space_group_symop_operation_xyz
x,y,z
-x,-y,-z
loop_
_atom_site_type_symbol
_atom_site_label
_atom_site_fract_x
_atom_site_fract_y
_atom_site_fract_z
Si Si1 0.722164 0.856540 0.996719
Si Si2 0.057431 0.580430 0.352284
Si Si3 0.580943 0.572518 0.747852
Si Si4 0.854425 0.564574 0.948123
Si Si5 0.538422 0.614172 0.100989
Si Si6 0.453335 0.852254 0.536404
Si Si7 0.602741 0.105720 0.782464
Si Si8 0.246120 0.142693 0.686543
O O1 0.544494 0.906242 0.118358
O O2 0.806174 0.830054 0.121589
O O3 0.795403 0.724535 0.898071
O O4 0.740850 0.963921 0.849261
O O5 0.226357 0.538171 0.343159
O O6 0.084174 0.524708 0.195679
O O7 0.000000 0.500000 0.500000
O O8 0.917722 0.749119 0.360355
O O9 0.503431 0.491257 0.784785
O O10 0.493981 0.707033 0.635466
O O11 0.544329 0.627165 0.915131
O O12 0.710817 0.560415 0.097382
O O13 0.000000 0.500000 0.000000
O O14 0.409055 0.768160 0.177510
O O15 0.365397 0.887025 0.411827
O O16 0.624485 0.827170 0.439503
O O17 0.326128 0.980710 0.663794
#
# Coordination Sequence:
#
# PCOD8041273 Si02
#       8
#     2   2   2   2   2   2   2   2
#     4   9  17  31  51  75 106 134 171 219 264 311
#     4  11  21  32  54  81 112 138 173 220 272 309
#     4  10  20  37  55  78 107 145 179 216 258 322
#     4  10  19  33  55  81 106 135 177 220 266 312
#     4   9  20  35  57  75 106 141 182 212 260 318
#     4  10  20  31  53  79 109 139 176 217 268 315
#     4   9  18  31  51  78 101 135 177 218 261 309
#     4  10  19  32  50  80 109 138 173 219 268 316
#
# _framework density 18.230356
#
# number of rings (size 3 to 8) (size 9 to 14) (size 15 to 20)
#    0.000    2.250    2.500    0.750    1.750    3.500 
#    0.000    0.000    2.750    3.750    0.000    0.000 
#    0.000    0.000    0.000    0.000    0.000    0.000 
#
# Total GULP energy -198264.464504 kJ/mol
# GULP energy per Si atom -12391.529032 kJ/mol
# Density = 1.818886 g / cm^3
# Si number density = 18.230356 Si / 1000 Ang^3
#
#
#
# Elastic Constant Matrix: (Units=GPa)
#
#
# Indices 1 2 3 4 5 6 
#
# 1 79.2915 54.8936 26.2350 -12.7769 -4.9974 4.3342
# 2 54.8936 130.8438 44.2998 -17.3970 -6.2986 0.5319
# 3 26.2350 44.2998 55.4323 -20.0356 -2.9290 -0.3802
# 4 -12.7769 -17.3970 -20.0356 34.1799 -1.0655 2.8851
# 5 -4.9974 -6.2986 -2.9290 -1.0655 14.8075 -0.9610
# 6 4.3342 0.5319 -0.3802 2.8851 -0.9610 28.0813
#
#
#
# Elastic Compliance Matrix: (Units=1/GPa)
#
#
# Indices 1 2 3 4 5 6 
#
# 1 0.018720 -0.006467 -0.002649 0.002497 0.003031 -0.002956
# 2 -0.006467 0.012849 -0.007121 -0.000053 0.001918 0.000729
# 3 -0.002649 -0.007121 0.029829 0.012985 0.002893 -0.000287
# 4 0.002497 -0.000053 0.012985 0.038291 0.005888 -0.003941
# 5 0.003031 0.001918 0.002893 0.005888 0.070455 0.001341
# 6 -0.002956 0.000729 -0.000287 -0.003941 0.001341 0.036500
#
#
# Mechanical properties :
#
#
# Convention : Reuss Voigt Hill
#
# Bulk Modulus (GPa) = 34.57326 57.38051 45.97688
# Shear Modulus (GPa) = 20.09974 24.75634 22.42804
#
# Velocity S-wave (km/s) = 3.32406 3.68907 3.51131
# Velocity P-wave (km/s) = 5.80847 7.04906 6.45862
#
# Compressibility (1/GPa) = 0.02892409
#
# Stress axis : x y z
#
# Youngs Moduli (GPa) = 53.41797 77.82741 33.52473
#
# Poissons Ratio (x) = 0.50330 0.08882
# Poissons Ratio (y) = 0.34545 0.23872
# Poissons Ratio (z) = 0.14152 0.55419
#
# Static dielectric constant tensor:
#      x y z
#    x 3.149810 -0.056550 0.091720 
#    y -0.056550 3.318400 -0.027860 
#    z 0.091720 -0.027860 3.247060 
# 
# 
# High freq. dielectric constant tensor:
#      x y z
#    x 1.677260 -0.000360 0.019160 
#    y -0.000360 1.717310 0.000010 
#    z 0.019160 0.000010 1.694440 
# 
# From -- ./inp_files/252125.got.cif
#   From: 2010.06.25/outbox.cif.g09.slc.cpg/sg2_127_cif.got.tgz:252125.got - 2010.06.27 13:26:56.
