data_PCOD8041594
_publ_section_title
;
Structure prediction by ZEFSAII (Michael W. Deem and Ramdas Pophale) SiO2 
 PCOD8041594
Probable space group: P -1
;
_chemical_formula_sum "Si O2"
_cell_formula_units_Z 16
_cell_length_a 17.705763
_cell_length_b 13.248140
_cell_length_c 5.267182
_cell_angle_alpha 123.468239
_cell_angle_beta 52.916463
_cell_angle_gamma 123.183453
_cell_volume 778.207840
_symmetry_space_group_name_H-M "P -1"
_symmetry_group_IT_number 2
_symmetry_cell_setting 'triclinic'
loop_
_space_group_symop_operation_xyz
x,y,z
-x,-y,-z
loop_
_atom_site_type_symbol
_atom_site_label
_atom_site_fract_x
_atom_site_fract_y
_atom_site_fract_z
Si Si1 0.064877 0.547419 0.184476
Si Si2 0.216285 0.412897 0.552190
Si Si3 0.103604 0.172044 0.153046
Si Si4 0.426640 0.584798 0.246390
Si Si5 0.111168 0.842042 0.498075
Si Si6 0.726541 0.788305 0.524540
Si Si7 0.507874 0.648060 0.669456
Si Si8 0.830615 0.007965 0.928645
O O1 0.113253 0.699259 0.297734
O O2 0.000000 0.500000 0.500000
O O3 0.157372 0.493328 0.928577
O O4 0.000000 0.500000 0.000000
O O5 0.141576 0.317621 0.374989
O O6 0.310986 0.502557 0.329298
O O7 0.259232 0.338913 0.569054
O O8 0.998362 0.150191 0.197153
O O9 0.092972 0.071443 0.266652
O O10 0.183257 0.145414 0.760705
O O11 0.443816 0.668242 0.586086
O O12 0.500000 0.500000 0.000000
O O13 0.459070 0.679862 0.071493
O O14 0.134219 0.892845 0.235195
O O15 0.184963 0.918410 0.680793
O O16 0.620195 0.744079 0.539118
O O17 0.730084 0.894938 0.882277
O O18 0.500000 0.500000 0.500000
#
# Coordination Sequence:
#
# PCOD8041594 Si02
#       8
#     2   2   2   2   2   2   2   2
#     4  12  26  45  62  88 120 170 212 251 291 348
#     4  11  23  36  62  93 125 162 198 249 309 368
#     4  11  22  36  61  86 124 153 206 247 308 358
#     4  10  19  34  54  87 126 148 187 239 314 375
#     4  12  24  42  58  80 123 161 212 249 284 358
#     4  11  22  36  60  93 128 152 195 250 312 375
#     4  10  19  33  54  84 126 150 179 238 314 372
#     4  11  25  38  58  86 115 166 202 251 302 349
#
# _framework density 20.56006
#
# number of rings (size 3 to 8) (size 9 to 14) (size 15 to 20)
#    0.000    1.000    5.000    3.750    5.250    0.000 
#    0.000    0.000    0.000    0.000    0.000    5.250 
#    0.000    0.000    0.000    0.000    0.000    0.000 
#
# Total GULP energy -198305.069961 kJ/mol
# GULP energy per Si atom -12394.066873 kJ/mol
# Density = 2.051326 g / cm^3
# Si number density = 20.560060 Si / 1000 Ang^3
#
#
#
# Elastic Constant Matrix: (Units=GPa)
#
#
# Indices 1 2 3 4 5 6 
#
# 1 68.9958 33.1008 30.2566 -0.5118 29.5604 6.0741
# 2 33.1008 85.1631 34.7950 3.2906 9.0765 -3.2270
# 3 30.2566 34.7950 84.9329 -7.8991 21.6807 -8.8217
# 4 -0.5118 3.2906 -7.8991 43.9901 1.0607 9.7795
# 5 29.5604 9.0765 21.6807 1.0607 39.8121 -4.8244
# 6 6.0741 -3.2270 -8.8217 9.7795 -4.8244 25.0444
#
#
#
# Elastic Compliance Matrix: (Units=1/GPa)
#
#
# Indices 1 2 3 4 5 6 
#
# 1 0.030590 -0.009200 -0.002958 0.004449 -0.020992 -0.015427
# 2 -0.009200 0.017078 -0.005165 -0.003643 0.006488 0.005285
# 3 -0.002958 -0.005165 0.016999 0.002659 -0.005476 0.003947
# 4 0.004449 -0.003643 0.002659 0.026366 -0.006087 -0.012080
# 5 -0.020992 0.006488 -0.005476 -0.006087 0.044173 0.014885
# 6 -0.015427 0.005285 0.003947 -0.012080 0.014885 0.053326
#
#
# Mechanical properties :
#
#
# Convention : Reuss Voigt Hill
#
# Bulk Modulus (GPa) = 33.31127 48.37741 40.84434
# Shear Modulus (GPa) = 21.44216 31.16526 26.30371
#
# Velocity S-wave (km/s) = 3.23291 3.89757 3.58069
# Velocity P-wave (km/s) = 5.49297 6.62085 6.08310
#
# Compressibility (1/GPa) = 0.03001987
#
# Stress axis : x y z
#
# Youngs Moduli (GPa) = 32.69085 58.55561 58.82765
#
# Poissons Ratio (x) = 0.53871 0.17403
# Poissons Ratio (y) = 0.30075 0.30384
# Poissons Ratio (z) = 0.09671 0.30244
#
# Static dielectric constant tensor:
#      x y z
#    x 3.165350 0.415530 0.024550 
#    y 0.415530 3.609520 0.096170 
#    z 0.024550 0.096170 3.467820 
# 
# 
# High freq. dielectric constant tensor:
#      x y z
#    x 1.797810 0.015470 0.042760 
#    y 0.015470 1.797950 -0.017580 
#    z 0.042760 -0.017580 1.780670 
# 
# From -- ./inp_files/109327.got.cif
#   From: 2010.06.25/outbox.cif.g09.slc.cpg/sg2_55_cif.got.tgz:109327.got - 2010.06.27 13:26:56.
