data_PCOD8041339
_publ_section_title
;
Structure prediction by ZEFSAII (Michael W. Deem and Ramdas Pophale) SiO2 
 PCOD8041339
Probable space group: P -1
;
_chemical_formula_sum "Si O2"
_cell_formula_units_Z 16
_cell_length_a 10.584748
_cell_length_b 14.643270
_cell_length_c 5.332158
_cell_angle_alpha 68.646802
_cell_angle_beta 104.485922
_cell_angle_gamma 91.644871
_cell_volume 743.470660
_symmetry_space_group_name_H-M "P -1"
_symmetry_group_IT_number 2
_symmetry_cell_setting 'triclinic'
loop_
_space_group_symop_operation_xyz
x,y,z
-x,-y,-z
loop_
_atom_site_type_symbol
_atom_site_label
_atom_site_fract_x
_atom_site_fract_y
_atom_site_fract_z
Si Si1 0.498805 0.367730 0.877906
Si Si2 0.642143 0.869518 0.453867
Si Si3 0.104470 0.205528 0.845420
Si Si4 0.655526 0.632838 0.698187
Si Si5 0.936278 0.399232 0.567124
Si Si6 0.924003 0.903030 0.560133
Si Si7 0.418331 0.163694 0.042915
Si Si8 0.785643 0.437250 0.953995
O O1 0.424197 0.398771 0.553933
O O2 0.516547 0.249218 0.006083
O O3 0.636371 0.412213 0.907899
O O4 0.419118 0.398945 0.057298
O O5 0.682588 0.749251 0.593830
O O6 0.768408 0.931816 0.454227
O O7 0.555898 0.898900 0.135764
O O8 0.555813 0.898814 0.627572
O O9 0.043104 0.157108 0.617511
O O10 0.262609 0.200579 0.928919
O O11 0.056843 0.318659 0.709388
O O12 0.043053 0.156700 0.109064
O O13 0.787386 0.557927 0.834342
O O14 0.850113 0.389589 0.783896
O O15 0.000000 0.500000 0.500000
O O16 0.852503 0.389565 0.282394
O O17 0.000000 0.000000 0.500000
#
# Coordination Sequence:
#
# PCOD8041339 Si02
#       8
#     2   2   2   2   2   2   2   2
#     4  10  19  34  53  79 105 139 184 251 290 305
#     4   8  16  26  46  71 106 129 160 204 279 330
#     4  10  21  38  55  77 119 145 184 226 269 336
#     4  10  19  32  54  77 108 143 180 239 295 314
#     4  12  28  39  55  75 113 169 206 214 247 330
#     4  10  19  33  58  84 107 137 177 234 298 334
#     4   8  16  29  52  71  99 139 171 215 294 307
#     4  12  24  37  54  78 110 146 213 226 264 327
#
# _framework density 21.520685
#
# number of rings (size 3 to 8) (size 9 to 14) (size 15 to 20)
#    0.000    2.000    0.000    3.750   10.500    0.000 
#    0.000    0.000    0.000    0.000    0.000    0.000 
#    0.000  180.000    0.000    0.000    0.000    0.000 
#
# Total GULP energy -198218.869924 kJ/mol
# GULP energy per Si atom -12388.679370 kJ/mol
# Density = 2.147170 g / cm^3
# Si number density = 21.520685 Si / 1000 Ang^3
#
#
#
# Elastic Constant Matrix: (Units=GPa)
#
#
# Indices 1 2 3 4 5 6 
#
# 1 33.4766 18.9224 17.1405 2.1648 -3.5601 14.0789
# 2 18.9224 71.1311 32.4256 4.4142 -8.6674 17.7998
# 3 17.1405 32.4256 153.8000 47.3718 -33.5662 -7.2827
# 4 2.1648 4.4142 47.3718 38.6777 -10.1954 -6.5747
# 5 -3.5601 -8.6674 -33.5662 -10.1954 19.0695 -2.7189
# 6 14.0789 17.7998 -7.2827 -6.5747 -2.7189 28.5858
#
#
#
# Elastic Compliance Matrix: (Units=1/GPa)
#
#
# Indices 1 2 3 4 5 6 
#
# 1 0.044038 -0.004120 -0.007349 0.000900 -0.009194 -0.021664
# 2 -0.004120 0.020143 -0.005288 0.002064 -0.001462 -0.011525
# 3 -0.007349 -0.005288 0.017800 -0.013204 0.021995 0.010502
# 4 0.000900 0.002064 -0.013204 0.042990 0.001555 0.004943
# 5 -0.009194 -0.001462 0.021995 0.001555 0.092485 0.020196
# 6 -0.021664 -0.011525 0.010502 0.004943 0.020196 0.058562
#
#
# Mechanical properties :
#
#
# Convention : Reuss Voigt Hill
#
# Bulk Modulus (GPa) = 20.63255 43.93164 32.28210
# Shear Modulus (GPa) = 15.35214 29.92789 22.64001
#
# Velocity S-wave (km/s) = 2.67379 3.73320 3.24699
# Velocity P-wave (km/s) = 4.37497 6.24823 5.39355
#
# Compressibility (1/GPa) = 0.04846710
#
# Stress axis : x y z
#
# Youngs Moduli (GPa) = 22.70764 49.64515 56.17922
#
# Poissons Ratio (x) = 0.20454 0.41286
# Poissons Ratio (y) = 0.09356 0.29708
# Poissons Ratio (z) = 0.16688 0.26252
#
# Static dielectric constant tensor:
#      x y z
#    x 3.915800 -0.115690 -0.386030 
#    y -0.115690 3.877220 0.642040 
#    z -0.386030 0.642040 5.172450 
# 
# 
# High freq. dielectric constant tensor:
#      x y z
#    x 1.815150 0.014510 -0.027030 
#    y 0.014510 1.831210 0.029920 
#    z -0.027030 0.029920 1.874300 
# 
# From -- ./inp_files/37594.got.cif
#   From: 2010.06.25/outbox.cif.g09.slc.cpg/sg2_19_cif.got.tgz:37594.got - 2010.06.27 13:26:56.
