data_PCOD8041707
_publ_section_title
;
Structure prediction by ZEFSAII (Michael W. Deem and Ramdas Pophale) SiO2 
 PCOD8041707
Probable space group: P -1
;
_chemical_formula_sum "Si O2"
_cell_formula_units_Z 16
_cell_length_a 11.414801
_cell_length_b 11.881204
_cell_length_c 14.819999
_cell_angle_alpha 32.927194
_cell_angle_beta 47.215246
_cell_angle_gamma 55.755439
_cell_volume 801.683741
_symmetry_space_group_name_H-M "P -1"
_symmetry_group_IT_number 2
_symmetry_cell_setting 'triclinic'
loop_
_space_group_symop_operation_xyz
x,y,z
-x,-y,-z
loop_
_atom_site_type_symbol
_atom_site_label
_atom_site_fract_x
_atom_site_fract_y
_atom_site_fract_z
Si Si1 0.499407 0.198261 0.661152
Si Si2 0.799842 0.839916 0.026322
Si Si3 0.602772 0.540643 0.240307
Si Si4 0.442755 0.810774 0.837927
Si Si5 0.103235 0.958286 0.887888
Si Si6 0.830519 0.580071 0.507770
Si Si7 0.678617 0.226425 0.724800
Si Si8 0.534114 0.565862 0.794141
O O1 0.324623 0.176562 0.813445
O O2 0.523843 0.413406 0.450446
O O3 0.645130 0.178183 0.669501
O O4 0.515856 0.024472 0.692903
O O5 0.776697 0.634150 0.113583
O O6 0.984348 0.844864 0.955787
O O7 0.775381 0.047709 0.842398
O O8 0.492504 0.747016 0.152969
O O9 0.595899 0.423084 0.227420
O O10 0.249857 0.809539 0.932763
O O11 0.514174 0.770979 0.727319
O O12 0.503491 0.634007 0.991470
O O13 0.174494 0.176979 0.670842
O O14 0.000000 0.000000 0.000000
O O15 0.775124 0.445668 0.540130
O O16 0.711331 0.543930 0.677937
O O17 0.000000 0.500000 0.500000
#
# Coordination Sequence:
#
# PCOD8041707 Si02
#       8
#     2   2   2   2   2   2   2   2
#     4  11  20  34  57  85 115 150 197 240 281 342
#     4  11  20  35  53  86 119 153 187 237 295 336
#     4  10  21  34  56  84 114 152 194 240 286 337
#     4  11  22  41  61  85 114 156 198 236 293 343
#     4  12  24  34  58  89 124 153 188 240 292 348
#     4  11  21  38  58  92 119 148 190 237 296 339
#     4  10  19  33  57  81 116 151 187 240 281 341
#     4  10  23  41  63  82 114 155 198 243 282 350
#
# _framework density 19.957995
#
# number of rings (size 3 to 8) (size 9 to 14) (size 15 to 20)
#    0.000    1.250    2.500    7.500    1.750    2.000 
#    0.000    0.625    0.000    0.750    0.000    0.000 
#    0.000    0.000    0.000    0.000    0.000    0.000 
#
# Total GULP energy -198323.756945 kJ/mol
# GULP energy per Si atom -12395.234809 kJ/mol
# Density = 1.991257 g / cm^3
# Si number density = 19.957995 Si / 1000 Ang^3
#
#
#
# Elastic Constant Matrix: (Units=GPa)
#
#
# Indices 1 2 3 4 5 6 
#
# 1 140.5756 45.0372 30.0849 -1.0755 -17.7716 26.4543
# 2 45.0372 90.4745 11.2991 4.1382 -9.1639 25.3884
# 3 30.0849 11.2991 67.5659 -2.5721 -8.4023 14.0581
# 4 -1.0755 4.1382 -2.5721 18.0761 8.3302 0.9740
# 5 -17.7716 -9.1639 -8.4023 8.3302 37.3010 -6.1510
# 6 26.4543 25.3884 14.0581 0.9740 -6.1510 34.6210
#
#
#
# Elastic Compliance Matrix: (Units=1/GPa)
#
#
# Indices 1 2 3 4 5 6 
#
# 1 0.009731 -0.003256 -0.002741 -0.000112 0.002674 -0.003457
# 2 -0.003256 0.015379 0.000758 -0.003999 0.001864 -0.008654
# 3 -0.002741 0.000758 0.017238 0.001698 0.001520 -0.005239
# 4 -0.000112 -0.003999 0.001698 0.063600 -0.015213 -0.002164
# 5 0.002674 0.001864 0.001520 -0.015213 0.032644 0.002200
# 6 -0.003457 -0.008654 -0.005239 -0.002164 0.002200 0.040451
#
#
# Mechanical properties :
#
#
# Convention : Reuss Voigt Hill
#
# Bulk Modulus (GPa) = 31.37697 52.38426 41.88062
# Shear Modulus (GPa) = 24.98220 32.14594 28.56407
#
# Velocity S-wave (km/s) = 3.54183 4.01768 3.78724
# Velocity P-wave (km/s) = 5.69927 6.91568 6.33673
#
# Compressibility (1/GPa) = 0.03187051
#
# Stress axis : x y z
#
# Youngs Moduli (GPa) = 102.76481 65.02364 58.01233
#
# Poissons Ratio (x) = 0.21170 0.15901
# Poissons Ratio (y) = 0.33457 -0.04397
# Poissons Ratio (z) = 0.28167 -0.04929
#
# Static dielectric constant tensor:
#      x y z
#    x 4.251830 0.383910 -0.228250 
#    y 0.383910 3.473030 -0.231880 
#    z -0.228250 -0.231880 3.629580 
# 
# 
# High freq. dielectric constant tensor:
#      x y z
#    x 1.795730 0.026670 0.003640 
#    y 0.026670 1.740440 -0.022380 
#    z 0.003640 -0.022380 1.778910 
# 
# From -- ./inp_files/424007.got.cif
#   From: 2010.06.25/outbox.cif.g09.slc.cpg/sg2_213_cif.got.tgz:424007.got - 2010.06.27 13:26:56.
