data_PCOD8041814
_publ_section_title
;
Structure prediction by ZEFSAII (Michael W. Deem and Ramdas Pophale) SiO2 
 PCOD8041814
Probable space group: P -1
;
_chemical_formula_sum "Si O2"
_cell_formula_units_Z 14
_cell_length_a 7.865711
_cell_length_b 11.386311
_cell_length_c 14.219468
_cell_angle_alpha 147.923713
_cell_angle_beta 109.634161
_cell_angle_gamma 71.006867
_cell_volume 634.860016
_symmetry_space_group_name_H-M "P -1"
_symmetry_group_IT_number 2
_symmetry_cell_setting 'triclinic'
loop_
_space_group_symop_operation_xyz
x,y,z
-x,-y,-z
loop_
_atom_site_type_symbol
_atom_site_label
_atom_site_fract_x
_atom_site_fract_y
_atom_site_fract_z
Si Si1 0.582753 0.832515 0.978330
Si Si2 0.452023 0.674027 0.416703
Si Si3 0.635689 0.018725 0.777317
Si Si4 0.991777 0.868023 0.130375
Si Si5 0.210738 0.442486 0.930328
Si Si6 0.489155 0.699417 0.235380
Si Si7 0.894368 0.034605 0.407499
O O1 0.540633 0.589352 0.768775
O O2 0.796024 0.876113 0.051222
O O3 0.500000 0.000000 0.000000
O O4 0.480546 0.881407 0.090127
O O5 0.596432 0.758652 0.577036
O O6 0.493671 0.794899 0.406353
O O7 0.250969 0.758697 0.470975
O O8 0.562313 0.129422 0.741405
O O9 0.847909 0.060221 0.860378
O O10 0.010056 0.047960 0.342152
O O11 0.031551 0.609972 0.997445
O O12 0.319107 0.436072 0.846045
O O13 0.188740 0.194491 0.788738
O O14 0.333173 0.527958 0.094990
O O15 0.000000 0.000000 0.500000
#
# Coordination Sequence:
#
# PCOD8041814 Si02
#       7
#     2   2   2   2   2   2   2
#     4  12  28  52  71  90 131 187 239 290 331 377
#     4  12  23  41  70 101 140 178 220 274 344 402
#     4  11  24  45  68 106 137 172 225 278 338 414
#     4  11  23  43  65  97 140 174 227 280 328 404
#     4  10  19  33  59  93 143 180 212 251 328 413
#     4  10  19  36  65 101 142 176 203 265 343 417
#     4  12  22  33  59 103 142 176 212 260 338 419
#
# _framework density 22.052105000000001
#
# number of rings (size 3 to 8) (size 9 to 14) (size 15 to 20)
#    0.000    0.857    2.857    6.857    2.000    1.143 
#    2.571    0.714    0.000    0.000    0.000    0.000 
#    0.000    0.000    0.000    0.000    0.000    0.000 
#
# Total GULP energy -173451.909165 kJ/mol
# GULP energy per Si atom -12389.422083 kJ/mol
# Density = 2.200191 g / cm^3
# Si number density = 22.052105 Si / 1000 Ang^3
#
#
#
# Elastic Constant Matrix: (Units=GPa)
#
#
# Indices 1 2 3 4 5 6 
#
# 1 112.6986 38.3811 56.9511 6.9438 -5.8062 -16.9395
# 2 38.3811 76.2290 33.3609 11.6000 -4.1643 -9.8092
# 3 56.9511 33.3609 148.7876 4.9799 -7.1065 0.7868
# 4 6.9438 11.6000 4.9799 15.4386 -2.7679 3.9076
# 5 -5.8062 -4.1643 -7.1065 -2.7679 36.5162 0.5515
# 6 -16.9395 -9.8092 0.7868 3.9076 0.5515 19.7956
#
#
#
# Elastic Compliance Matrix: (Units=1/GPa)
#
#
# Indices 1 2 3 4 5 6 
#
# 1 0.014452 -0.002641 -0.004783 -0.006043 0.000420 0.012429
# 2 -0.002641 0.019335 -0.002879 -0.015059 -0.000074 0.010410
# 3 -0.004783 -0.002879 0.009174 0.003197 0.001038 -0.006544
# 4 -0.006043 -0.015059 0.003197 0.086232 0.004932 -0.029920
# 5 0.000420 -0.000074 0.001038 0.004932 0.028042 -0.001473
# 6 0.012429 0.010410 -0.006544 -0.029920 -0.001473 0.072518
#
#
# Mechanical properties :
#
#
# Convention : Reuss Voigt Hill
#
# Bulk Modulus (GPa) = 44.73176 66.12239 55.42708
# Shear Modulus (GPa) = 19.39405 28.28488 23.83946
#
# Velocity S-wave (km/s) = 2.96879 3.58528 3.29150
# Velocity P-wave (km/s) = 5.66394 6.86940 6.29559
#
# Compressibility (1/GPa) = 0.02235548
#
# Stress axis : x y z
#
# Youngs Moduli (GPa) = 69.19462 51.71865 108.99908
#
# Poissons Ratio (x) = 0.13661 0.52133
# Poissons Ratio (y) = 0.18277 0.31379
# Poissons Ratio (z) = 0.33095 0.14889
#
# Static dielectric constant tensor:
#      x y z
#    x 4.808570 0.204820 0.093240 
#    y 0.204820 3.698720 -0.223490 
#    z 0.093240 -0.223490 4.923080 
# 
# 
# High freq. dielectric constant tensor:
#      x y z
#    x 1.888500 0.005200 -0.011390 
#    y 0.005200 1.805820 -0.005980 
#    z -0.011390 -0.005980 1.891260 
# 
# From -- ./inp_files/501247.got.cif
#   From: 2010.06.25/outbox.cif.g09.slc.cpg/sg2_251_cif.got.tgz:501247.got - 2010.06.27 13:26:56.
