data_PCOD8041108
_publ_section_title
;
Structure prediction by ZEFSAII (Michael W. Deem and Ramdas Pophale) SiO2 
 PCOD8041108
Probable space group: P -1
;
_chemical_formula_sum "Si O2"
_cell_formula_units_Z 16
_cell_length_a 10.936035
_cell_length_b 12.575770
_cell_length_c 17.525078
_cell_angle_alpha 37.421072
_cell_angle_beta 33.328407
_cell_angle_gamma 50.434610
_cell_volume 802.147804
_symmetry_space_group_name_H-M "P -1"
_symmetry_group_IT_number 2
_symmetry_cell_setting 'triclinic'
loop_
_space_group_symop_operation_xyz
x,y,z
-x,-y,-z
loop_
_atom_site_type_symbol
_atom_site_label
_atom_site_fract_x
_atom_site_fract_y
_atom_site_fract_z
Si Si1 0.812789 0.861731 0.710016
Si Si2 0.496246 0.992334 0.915957
Si Si3 0.893081 0.623602 0.597857
Si Si4 0.103508 0.725594 0.289324
Si Si5 0.214514 0.198669 0.846486
Si Si6 0.924096 0.497740 0.820880
Si Si7 0.201213 0.080410 0.758362
Si Si8 0.508896 0.215867 0.215592
O O1 0.911160 0.671860 0.780284
O O2 0.602386 0.835685 0.778151
O O3 0.729524 0.937535 0.790511
O O4 0.000000 0.000000 0.500000
O O5 0.418657 0.168841 0.815037
O O6 0.500000 0.000000 0.000000
O O7 0.303444 0.844232 0.080215
O O8 0.837969 0.466042 0.657619
O O9 0.978561 0.561537 0.669743
O O10 0.673404 0.727747 0.661949
O O11 0.085725 0.742362 0.382321
O O12 0.864604 0.778982 0.350332
O O13 0.291976 0.189892 0.723079
O O14 0.128163 0.388676 0.803935
O O15 0.015165 0.049566 0.040248
O O16 0.692490 0.377236 0.012635
O O17 0.392057 0.956513 0.702144
#
# Coordination Sequence:
#
# PCOD8041108 Si02
#       8
#     2   2   2   2   2   2   2   2
#     4  11  23  37  58  86 116 153 193 233 278 344
#     4  11  23  38  59  79 116 156 189 224 286 353
#     4  10  19  30  54  86 116 139 178 242 292 324
#     4  10  20  34  54  85 118 141 183 240 293 328
#     4   9  17  34  58  85 104 144 193 238 277 331
#     4  10  19  36  64  83 110 145 199 240 279 332
#     4   9  16  31  57  84 109 138 188 245 281 324
#     4  10  19  34  61  84 110 147 198 235 282 333
#
# _framework density 19.946448
#
# number of rings (size 3 to 8) (size 9 to 14) (size 15 to 20)
#    0.000    2.000    2.500    3.000    3.500    0.500 
#    0.000    1.250    5.500    0.000    0.000    0.000 
#    0.000    0.000    0.000    0.000    0.000    0.000 
#
# Total GULP energy -198265.883587 kJ/mol
# GULP energy per Si atom -12391.617724 kJ/mol
# Density = 1.990105 g / cm^3
# Si number density = 19.946448 Si / 1000 Ang^3
#
#
#
# Elastic Constant Matrix: (Units=GPa)
#
#
# Indices 1 2 3 4 5 6 
#
# 1 70.3495 48.1252 12.7752 13.2666 13.2208 -1.5903
# 2 48.1252 161.0506 39.7644 18.9460 6.1454 -8.8027
# 3 12.7752 39.7644 73.8195 12.6693 11.6634 -0.9223
# 4 13.2666 18.9460 12.6693 27.7950 12.3411 4.0046
# 5 13.2208 6.1454 11.6634 12.3411 18.3882 3.7468
# 6 -1.5903 -8.8027 -0.9223 4.0046 3.7468 25.4104
#
#
#
# Elastic Compliance Matrix: (Units=1/GPa)
#
#
# Indices 1 2 3 4 5 6 
#
# 1 0.020753 -0.005993 0.001991 -0.000727 -0.013993 0.001473
# 2 -0.005993 0.009529 -0.004254 -0.005030 0.006673 0.002580
# 3 0.001991 -0.004254 0.017390 -0.001611 -0.010170 0.001035
# 4 -0.000727 -0.005030 -0.001611 0.056075 -0.033231 -0.005784
# 5 -0.013993 0.006673 -0.010170 -0.033231 0.092459 -0.007330
# 6 0.001473 0.002580 0.001035 -0.005784 -0.007330 0.042370
#
#
# Mechanical properties :
#
#
# Convention : Reuss Voigt Hill
#
# Bulk Modulus (GPa) = 32.09419 56.28326 44.18873
# Shear Modulus (GPa) = 18.83414 27.95572 23.39493
#
# Velocity S-wave (km/s) = 3.07617 3.74777 3.42846
# Velocity P-wave (km/s) = 5.36118 6.85611 6.15420
#
# Compressibility (1/GPa) = 0.03115829
#
# Stress axis : x y z
#
# Youngs Moduli (GPa) = 48.18570 104.94704 57.50455
#
# Poissons Ratio (x) = 0.62895 -0.11448
# Poissons Ratio (y) = 0.28878 0.24465
# Poissons Ratio (z) = -0.09593 0.44649
#
# Static dielectric constant tensor:
#      x y z
#    x 3.480360 -0.219050 0.186350 
#    y -0.219050 3.994580 0.062180 
#    z 0.186350 0.062180 3.711800 
# 
# 
# High freq. dielectric constant tensor:
#      x y z
#    x 1.747590 -0.012200 0.011660 
#    y -0.012200 1.795660 0.003610 
#    z 0.011660 0.003610 1.761390 
# 
# From -- ./inp_files/568551.got.cif
#   From: 2010.06.25/outbox.cif.g09.slc.cpg/sg2_285_cif.got.tgz:568551.got - 2010.06.27 13:26:56.
