data_PCOD8041126
_publ_section_title
;
Structure prediction by ZEFSAII (Michael W. Deem and Ramdas Pophale) SiO2 
 PCOD8041126
Probable space group: P -1
;
_chemical_formula_sum "Si O2"
_cell_formula_units_Z 16
_cell_length_a 21.392766
_cell_length_b 13.237837
_cell_length_c 10.600185
_cell_angle_alpha 145.877102
_cell_angle_beta 135.879369
_cell_angle_gamma 31.577888
_cell_volume 881.014375
_symmetry_space_group_name_H-M "P -1"
_symmetry_group_IT_number 2
_symmetry_cell_setting 'triclinic'
loop_
_space_group_symop_operation_xyz
x,y,z
-x,-y,-z
loop_
_atom_site_type_symbol
_atom_site_label
_atom_site_fract_x
_atom_site_fract_y
_atom_site_fract_z
Si Si1 0.870352 0.675851 0.128291
Si Si2 0.160976 0.886903 0.542162
Si Si3 0.385889 0.022165 0.991314
Si Si4 0.433308 0.575855 0.612792
Si Si5 0.170645 0.283016 0.596741
Si Si6 0.019608 0.159972 0.849354
Si Si7 0.981643 0.821487 0.841269
Si Si8 0.431614 0.927724 0.661516
O O1 0.755845 0.757424 0.965386
O O2 0.844879 0.671980 0.232366
O O3 0.890210 0.861089 0.330834
O O4 0.987620 0.397671 0.983983
O O5 0.300682 0.670588 0.498433
O O6 0.097997 0.807747 0.296553
O O7 0.128287 0.930874 0.689700
O O8 0.421192 0.790602 0.875335
O O9 0.408562 0.971814 0.822977
O O10 0.466557 0.063788 0.218641
O O11 0.500000 0.500000 0.500000
O O12 0.512094 0.340726 0.571505
O O13 0.126194 0.143252 0.345960
O O14 0.100212 0.543038 0.698294
O O15 0.312399 0.113517 0.598002
O O16 0.056046 0.123205 0.009644
O O17 0.000000 0.000000 0.000000
#
# Coordination Sequence:
#
# PCOD8041126 Si02
#       8
#     2   2   2   2   2   2   2   2
#     4   9  16  30  48  70 100 125 151 193 238 287
#     4  10  19  31  47  75 103 126 157 190 238 300
#     4   8  15  24  40  67  94 119 146 180 233 284
#     4   9  17  27  44  69  97 124 151 187 233 283
#     4   9  19  31  48  72  93 122 164 198 237 284
#     4  10  20  31  49  71  98 132 159 193 243 286
#     4  10  20  34  49  68  94 126 164 206 239 272
#     4   9  15  26  42  64  93 118 147 191 230 274
#
# _framework density 18.160883999999999
#
# number of rings (size 3 to 8) (size 9 to 14) (size 15 to 20)
#    0.000    2.750    0.000    2.625    0.000    4.000 
#    0.000    0.000    0.000    0.750    0.000    4.375 
#    0.000    0.000    0.000    0.000    0.000    0.000 
#
# Total GULP energy -198245.547253 kJ/mol
# GULP energy per Si atom -12390.346703 kJ/mol
# Density = 1.811955 g / cm^3
# Si number density = 18.160884 Si / 1000 Ang^3
#
#
#
# Elastic Constant Matrix: (Units=GPa)
#
#
# Indices 1 2 3 4 5 6 
#
# 1 25.2626 18.4315 7.6338 4.8752 9.4920 -4.2310
# 2 18.4315 94.6020 39.6358 3.2604 8.8746 -5.7701
# 3 7.6338 39.6358 68.0122 -0.5907 19.5891 0.8452
# 4 4.8752 3.2604 -0.5907 22.6819 -0.8806 6.5390
# 5 9.4920 8.8746 19.5891 -0.8806 29.6468 8.5229
# 6 -4.2310 -5.7701 0.8452 6.5390 8.5229 23.3466
#
#
#
# Elastic Compliance Matrix: (Units=1/GPa)
#
#
# Indices 1 2 3 4 5 6 
#
# 1 0.064822 -0.010439 0.007041 -0.020872 -0.030326 0.025829
# 2 -0.010439 0.016294 -0.009652 -0.000445 0.004558 0.000946
# 3 0.007041 -0.009652 0.024299 -0.001453 -0.016768 0.004539
# 4 -0.020872 -0.000445 -0.001453 0.056723 0.016906 -0.025899
# 5 -0.030326 0.004558 -0.016768 0.016906 0.062678 -0.031379
# 6 0.025829 0.000946 0.004539 -0.025899 -0.031379 0.066292
#
#
# Mechanical properties :
#
#
# Convention : Reuss Voigt Hill
#
# Bulk Modulus (GPa) = 12.60843 35.47544 24.04194
# Shear Modulus (GPa) = 14.54976 23.28010 18.91493
#
# Velocity S-wave (km/s) = 2.83355 3.58422 3.23076
# Velocity P-wave (km/s) = 4.20274 6.05849 5.21384
#
# Compressibility (1/GPa) = 0.07931198
#
# Stress axis : x y z
#
# Youngs Moduli (GPa) = 15.42696 61.37184 41.15434
#
# Poissons Ratio (x) = 0.64069 -0.28975
# Poissons Ratio (y) = 0.16105 0.39724
# Poissons Ratio (z) = -0.10861 0.59238
#
# Static dielectric constant tensor:
#      x y z
#    x 3.181930 -0.119080 0.295770 
#    y -0.119080 3.679460 0.336060 
#    z 0.295770 0.336060 3.430960 
# 
# 
# High freq. dielectric constant tensor:
#      x y z
#    x 1.675900 -0.014910 0.031360 
#    y -0.014910 1.697920 0.021410 
#    z 0.031360 0.021410 1.696280 
# 
# From -- ./inp_files/424949.got.cif
#   From: 2010.06.25/outbox.cif.g09.slc.cpg/sg2_213_cif.got.tgz:424949.got - 2010.06.27 13:26:56.
