data_PCOD8041574
_publ_section_title
;
Structure prediction by ZEFSAII (Michael W. Deem and Ramdas Pophale) SiO2 
 PCOD8041574
Probable space group: P -1
;
_chemical_formula_sum "Si O2"
_cell_formula_units_Z 12
_cell_length_a 16.000747
_cell_length_b 9.516842
_cell_length_c 10.067266
_cell_angle_alpha 84.049326
_cell_angle_beta 155.703777
_cell_angle_gamma 109.391889
_cell_volume 510.864605
_symmetry_space_group_name_H-M "P -1"
_symmetry_group_IT_number 2
_symmetry_cell_setting 'triclinic'
loop_
_space_group_symop_operation_xyz
x,y,z
-x,-y,-z
loop_
_atom_site_type_symbol
_atom_site_label
_atom_site_fract_x
_atom_site_fract_y
_atom_site_fract_z
Si Si1 0.569171 0.277363 0.752705
Si Si2 0.672153 0.603353 0.979025
Si Si3 0.253855 0.625788 0.279473
Si Si4 0.053118 0.136559 0.877188
Si Si5 0.199341 0.123711 0.667920
Si Si6 0.420925 0.928083 0.672119
O O1 0.651149 0.424871 0.968579
O O2 0.769509 0.369254 0.913970
O O3 0.587996 0.132471 0.861595
O O4 0.287774 0.188071 0.300890
O O5 0.411658 0.550466 0.546730
O O6 0.883853 0.739638 0.169449
O O7 0.714254 0.682810 0.182075
O O8 0.399028 0.824160 0.518546
O O9 0.000000 0.500000 0.000000
O O10 0.856385 0.143907 0.677804
O O11 0.924892 0.939369 0.652418
O O12 0.432305 0.107677 0.004034
O O13 0.000000 0.000000 0.500000
#
# Coordination Sequence:
#
# PCOD8041574 Si02
#       6
#     2   2   2   2   2   2
#     4  11  21  35  57  88 114 136 181 241 277 308
#     4   9  19  36  56  79 109 146 183 223 270 330
#     4  10  19  33  54  81 110 147 185 220 268 333
#     4  10  19  36  59  81 109 150 186 219 270 338
#     4   9  20  38  57  76 110 154 187 215 268 339
#     4  11  21  34  57  87 111 141 184 234 276 316
#
# _framework density 23.489588999999999
#
# number of rings (size 3 to 8) (size 9 to 14) (size 15 to 20)
#    0.000    2.000    0.000    6.500    0.000    0.000 
#    0.000    4.167    0.000    6.000    0.000    3.500 
#    0.000    0.000    0.000    0.000    0.000    0.000 
#
# Total GULP energy -148737.529345 kJ/mol
# GULP energy per Si atom -12394.794112 kJ/mol
# Density = 2.343613 g / cm^3
# Si number density = 23.489589 Si / 1000 Ang^3
#
#
#
# Elastic Constant Matrix: (Units=GPa)
#
#
# Indices 1 2 3 4 5 6 
#
# 1 61.2411 32.5883 33.1249 0.6940 11.5725 -20.4296
# 2 32.5883 146.2703 15.7711 28.2825 -14.7704 -29.0301
# 3 33.1249 15.7711 60.7199 10.4421 6.1336 -3.8831
# 4 0.6940 28.2825 10.4421 22.0874 -11.8462 -3.9270
# 5 11.5725 -14.7704 6.1336 -11.8462 47.6928 15.4718
# 6 -20.4296 -29.0301 -3.8831 -3.9270 15.4718 30.1956
#
#
#
# Elastic Compliance Matrix: (Units=1/GPa)
#
#
# Indices 1 2 3 4 5 6 
#
# 1 0.044796 -0.005142 -0.021209 0.011663 -0.017598 0.033170
# 2 -0.005142 0.012123 0.003177 -0.016581 -0.001931 0.007417
# 3 -0.021209 0.003177 0.029656 -0.018713 0.001061 -0.010458
# 4 0.011663 -0.016581 -0.018713 0.083032 0.017936 -0.008847
# 5 -0.017598 -0.001931 0.001061 0.017936 0.039125 -0.031341
# 6 0.033170 0.007417 -0.010458 -0.008847 -0.031341 0.076254
#
#
# Mechanical properties :
#
#
# Convention : Reuss Voigt Hill
#
# Bulk Modulus (GPa) = 24.85893 47.91110 36.38501
# Shear Modulus (GPa) = 14.50356 32.44498 23.47427
#
# Velocity S-wave (km/s) = 2.48754 3.72055 3.16468
# Velocity P-wave (km/s) = 4.34240 6.23680 5.37374
#
# Compressibility (1/GPa) = 0.04022700
#
# Stress axis : x y z
#
# Youngs Moduli (GPa) = 22.32355 82.48860 33.71996
#
# Poissons Ratio (x) = 0.42419 0.71516
# Poissons Ratio (y) = 0.11480 -0.10714
# Poissons Ratio (z) = 0.47346 -0.26210
#
# Static dielectric constant tensor:
#      x y z
#    x 4.369550 -0.556030 -0.024350 
#    y -0.556030 4.222320 0.318820 
#    z -0.024350 0.318820 4.325110 
# 
# 
# High freq. dielectric constant tensor:
#      x y z
#    x 1.922460 -0.039640 0.011630 
#    y -0.039640 1.915650 0.018960 
#    z 0.011630 0.018960 1.924020 
# 
# From -- ./inp_files/145910.got.cif
#   From: 2010.06.25/outbox.cif.g09.slc.cpg/sg2_73_cif.got.tgz:145910.got - 2010.06.27 13:26:56.
