data_PCOD8041048
_publ_section_title
;
Structure prediction by ZEFSAII (Michael W. Deem and Ramdas Pophale) SiO2 
 PCOD8041048
Probable space group: P -1
;
_chemical_formula_sum "Si O2"
_cell_formula_units_Z 14
_cell_length_a 13.536939
_cell_length_b 13.703315
_cell_length_c 11.329675
_cell_angle_alpha 94.200144
_cell_angle_beta 21.243658
_cell_angle_gamma 94.749972
_cell_volume 758.846109
_symmetry_space_group_name_H-M "P -1"
_symmetry_group_IT_number 2
_symmetry_cell_setting 'triclinic'
loop_
_space_group_symop_operation_xyz
x,y,z
-x,-y,-z
loop_
_atom_site_type_symbol
_atom_site_label
_atom_site_fract_x
_atom_site_fract_y
_atom_site_fract_z
Si Si1 0.610612 0.404662 0.711308
Si Si2 0.801341 0.896691 0.095481
Si Si3 0.945745 0.779441 0.536740
Si Si4 0.503199 0.901002 0.914347
Si Si5 0.849527 0.708356 0.893381
Si Si6 0.169875 0.429518 0.389572
Si Si7 0.659857 0.985029 0.500381
O O1 0.753418 0.514931 0.566751
O O2 0.848733 0.328939 0.428154
O O3 0.385005 0.380822 0.857837
O O4 0.452908 0.396513 0.011552
O O5 0.755520 0.910047 0.286959
O O6 0.585201 0.952274 0.265020
O O7 0.780509 0.780659 0.083046
O O8 0.095714 0.939167 0.730603
O O9 0.722847 0.830074 0.712439
O O10 0.836823 0.768199 0.790798
O O11 0.002869 0.672212 0.406697
O O12 0.212740 0.847370 0.243221
O O13 0.567175 0.921042 0.708724
O O14 0.500000 0.000000 0.000000
O O15 0.000000 0.500000 0.500000
#
# Coordination Sequence:
#
# PCOD8041048 Si02
#       7
#     2   2   2   2   2   2   2
#     4  10  19  29  50  75 111 134 164 225 268 310
#     4  10  20  36  58  75 101 140 184 233 258 304
#     4  11  22  32  54  77 108 146 172 204 274 324
#     4  12  23  36  51  78 114 146 171 211 257 332
#     4  11  19  32  50  82 106 135 177 218 270 313
#     4  10  19  34  51  76 114 141 175 223 263 321
#     4  10  21  37  54  76 104 142 184 222 267 299
#
# _framework density 18.449062999999999
#
# number of rings (size 3 to 8) (size 9 to 14) (size 15 to 20)
#    0.000    1.429    2.857    5.571    2.000    0.000 
#    0.000    0.000    0.000    0.000    0.000    6.000 
#    0.000    0.000    0.000    0.000    0.000    0.000 
#
# Total GULP energy -173528.754329 kJ/mol
# GULP energy per Si atom -12394.911024 kJ/mol
# Density = 1.840707 g / cm^3
# Si number density = 18.449063 Si / 1000 Ang^3
#
#
#
# Elastic Constant Matrix: (Units=GPa)
#
#
# Indices 1 2 3 4 5 6 
#
# 1 83.9458 49.2880 39.6537 -7.0406 -17.3886 15.5773
# 2 49.2880 124.4939 39.5802 0.0899 -8.8244 31.5228
# 3 39.6537 39.5802 65.7948 3.7298 -19.0354 13.5522
# 4 -7.0406 0.0899 3.7298 33.2504 4.7397 -4.4916
# 5 -17.3886 -8.8244 -19.0354 4.7397 38.5373 -2.7913
# 6 15.5773 31.5228 13.5522 -4.4916 -2.7913 46.8879
#
#
#
# Elastic Compliance Matrix: (Units=1/GPa)
#
#
# Indices 1 2 3 4 5 6 
#
# 1 0.019799 -0.004928 -0.008278 0.004656 0.003126 -0.000240
# 2 -0.004928 0.012568 -0.003717 -0.001256 -0.001458 -0.005945
# 3 -0.008278 -0.003717 0.025771 -0.006186 0.008739 -0.002272
# 4 0.004656 -0.001256 -0.006186 0.033006 -0.005016 0.003949
# 5 0.003126 -0.001458 0.008739 -0.005016 0.031875 -0.001168
# 6 -0.000240 -0.005945 -0.002272 0.003949 -0.001168 0.026370
#
#
# Mechanical properties :
#
#
# Convention : Reuss Voigt Hill
#
# Bulk Modulus (GPa) = 41.16475 59.03089 50.09782
# Shear Modulus (GPa) = 26.13276 33.44930 29.79103
#
# Velocity S-wave (km/s) = 3.76770 4.26263 4.02278
# Velocity P-wave (km/s) = 6.42561 7.50285 6.98503
#
# Compressibility (1/GPa) = 0.02429263
#
# Stress axis : x y z
#
# Youngs Moduli (GPa) = 50.50867 79.56729 38.80346
#
# Poissons Ratio (x) = 0.39207 0.32122
# Poissons Ratio (y) = 0.24888 0.14422
# Poissons Ratio (z) = 0.41812 0.29573
#
# Static dielectric constant tensor:
#      x y z
#    x 3.501180 0.438780 -0.323760 
#    y 0.438780 3.694080 0.025330 
#    z -0.323760 0.025330 3.463620 
# 
# 
# High freq. dielectric constant tensor:
#      x y z
#    x 1.704690 0.034310 -0.040430 
#    y 0.034310 1.713440 0.018950 
#    z -0.040430 0.018950 1.711960 
# 
# From -- ./inp_files/76879.got.cif
#   From: 2010.06.25/outbox.cif.g09.slc.cpg/sg2_39_cif.got.tgz:76879.got - 2010.06.27 13:26:56.
