data_PCOD8041097
_publ_section_title
;
Structure prediction by ZEFSAII (Michael W. Deem and Ramdas Pophale) SiO2 
 PCOD8041097
Probable space group: P -1
;
_chemical_formula_sum "Si O2"
_cell_formula_units_Z 16
_cell_length_a 12.609157
_cell_length_b 20.579648
_cell_length_c 9.283846
_cell_angle_alpha 108.209229
_cell_angle_beta 69.719428
_cell_angle_gamma 45.408569
_cell_volume 892.517519
_symmetry_space_group_name_H-M "P -1"
_symmetry_group_IT_number 2
_symmetry_cell_setting 'triclinic'
loop_
_space_group_symop_operation_xyz
x,y,z
-x,-y,-z
loop_
_atom_site_type_symbol
_atom_site_label
_atom_site_fract_x
_atom_site_fract_y
_atom_site_fract_z
Si Si1 0.191773 0.990336 0.497991
Si Si2 0.304654 0.620642 0.543946
Si Si3 0.720483 0.074599 0.259108
Si Si4 0.678035 0.227541 0.751217
Si Si5 0.680684 0.969056 0.057237
Si Si6 0.690629 0.449791 0.801614
Si Si7 0.247087 0.797584 0.622228
Si Si8 0.727070 0.924630 0.674793
O O1 0.285467 0.007493 0.386449
O O2 0.876438 0.147695 0.724600
O O3 0.214119 0.988823 0.656436
O O4 0.374197 0.825201 0.242304
O O5 0.500000 0.500000 0.500000
O O6 0.336356 0.545948 0.354281
O O7 0.409889 0.637267 0.451199
O O8 0.985855 0.795801 0.858907
O O9 0.581794 0.226872 0.436532
O O10 0.541582 0.113917 0.293087
O O11 0.987995 0.936332 0.941622
O O12 0.832940 0.153651 0.474709
O O13 0.396354 0.424687 0.031337
O O14 0.514897 0.993397 0.197104
O O15 0.684053 0.978805 0.891344
O O16 0.993324 0.271695 0.595056
O O17 0.500000 0.500000 0.000000
#
# Coordination Sequence:
#
# PCOD8041097 Si02
#       8
#     2   2   2   2   2   2   2   2
#     4  10  19  30  52  80 104 133 173 220 255 302
#     4  10  20  32  52  80 106 130 169 218 260 302
#     4   9  18  30  51  76 102 130 172 212 260 303
#     4  10  19  32  49  78 109 135 170 213 263 308
#     4   9  20  37  55  73 102 141 175 206 259 315
#     4  11  19  32  54  78 105 136 172 211 263 304
#     4   9  17  32  48  72 108 136 162 210 259 312
#     4  10  20  37  57  73 102 142 178 212 250 314
#
# _framework density 17.926819999999999
#
# number of rings (size 3 to 8) (size 9 to 14) (size 15 to 20)
#    0.000    2.250    2.500    1.500    3.500    1.500 
#    0.000    0.000    2.750    3.750    0.000    0.000 
#    0.000    0.000    0.000    0.000    0.000    0.000 
#
# Total GULP energy -198226.205541 kJ/mol
# GULP energy per Si atom -12389.137846 kJ/mol
# Density = 1.788602 g / cm^3
# Si number density = 17.926820 Si / 1000 Ang^3
#
#
#
# Elastic Constant Matrix: (Units=GPa)
#
#
# Indices 1 2 3 4 5 6 
#
# 1 128.3290 59.8614 45.0858 2.6477 6.0335 14.0521
# 2 59.8614 108.9684 39.8680 -3.3001 -1.2711 17.9726
# 3 45.0858 39.8680 63.1441 -2.4061 5.4365 8.7559
# 4 2.6477 -3.3001 -2.4061 24.1117 1.9032 3.1158
# 5 6.0335 -1.2711 5.4365 1.9032 24.0691 6.0475
# 6 14.0521 17.9726 8.7559 3.1158 6.0475 28.1051
#
#
#
# Elastic Compliance Matrix: (Units=1/GPa)
#
#
# Indices 1 2 3 4 5 6 
#
# 1 0.012093 -0.004554 -0.005597 -0.002279 -0.001630 -0.000787
# 2 -0.004554 0.014976 -0.005564 0.002509 0.004714 -0.006860
# 3 -0.005597 -0.005564 0.023884 0.002639 -0.004385 -0.000434
# 4 -0.002279 0.002509 0.002639 0.043212 -0.001884 -0.005672
# 5 -0.001630 0.004714 -0.004385 -0.001884 0.045987 -0.010520
# 6 -0.000787 -0.006860 -0.000434 -0.005672 -0.010520 0.043388
#
#
# Mechanical properties :
#
#
# Convention : Reuss Voigt Hill
#
# Bulk Modulus (GPa) = 51.21571 65.56355 58.38963
# Shear Modulus (GPa) = 22.57573 25.63228 24.10400
#
# Velocity S-wave (km/s) = 3.55255 3.78541 3.67083
# Velocity P-wave (km/s) = 6.74232 7.46713 7.11396
#
# Compressibility (1/GPa) = 0.01952526
#
# Stress axis : x y z
#
# Youngs Moduli (GPa) = 82.69421 66.77192 41.86929
#
# Poissons Ratio (x) = 0.30406 0.23433
# Poissons Ratio (y) = 0.37656 0.23294
# Poissons Ratio (z) = 0.46281 0.37149
#
# Static dielectric constant tensor:
#      x y z
#    x 3.944490 0.345910 0.359900 
#    y 0.345910 3.379410 -0.017430 
#    z 0.359900 -0.017430 3.306760 
# 
# 
# High freq. dielectric constant tensor:
#      x y z
#    x 1.701360 0.016530 0.030930 
#    y 0.016530 1.686940 -0.019320 
#    z 0.030930 -0.019320 1.665310 
# 
# From -- ./inp_files/251931.got.cif
#   From: 2010.06.25/outbox.cif.g09.slc.cpg/sg2_126_cif.got.tgz:251931.got - 2010.06.27 13:26:56.
