data_PCOD8041954
_publ_section_title
;
Structure prediction by ZEFSAII (Michael W. Deem and Ramdas Pophale) SiO2 
 PCOD8041954
Probable space group: P -1
;
_chemical_formula_sum "Si O2"
_cell_formula_units_Z 10
_cell_length_a 7.340654
_cell_length_b 13.833428
_cell_length_c 11.679255
_cell_angle_alpha 37.415840
_cell_angle_beta 45.079329
_cell_angle_gamma 44.034215
_cell_volume 474.551883
_symmetry_space_group_name_H-M "P -1"
_symmetry_group_IT_number 2
_symmetry_cell_setting 'triclinic'
loop_
_space_group_symop_operation_xyz
x,y,z
-x,-y,-z
loop_
_atom_site_type_symbol
_atom_site_label
_atom_site_fract_x
_atom_site_fract_y
_atom_site_fract_z
Si Si1 0.346849 0.588960 0.242757
Si Si2 0.738518 0.698109 0.123335
Si Si3 0.719312 0.754356 0.336027
Si Si4 0.809909 0.590746 0.891781
Si Si5 0.233893 0.075887 0.306351
O O1 0.492526 0.647871 0.227140
O O2 0.357566 0.399618 0.436254
O O3 0.037269 0.725871 0.243360
O O4 0.505282 0.587242 0.053534
O O5 0.645084 0.780689 0.210104
O O6 0.021471 0.525689 0.179521
O O7 0.805331 0.832377 0.885999
O O8 0.534400 0.926256 0.321605
O O9 0.787899 0.787785 0.710375
O O10 0.000000 0.500000 0.000000
O O11 0.000000 0.000000 0.500000
#
# Coordination Sequence:
#
# PCOD8041954 Si02
#       5
#     2   2   2   2   2
#     4   9  20  35  53  77 109 137 167 213 263 307
#     4  10  20  35  56  78 104 138 173 212 257 308
#     4  11  20  33  57  81 101 135 178 214 253 306
#     4   8  17  34  52  72 105 140 164 206 263 304
#     4  10  19  34  55  77 105 139 173 213 260 305
#
# _framework density 21.072512
#
# number of rings (size 3 to 8) (size 9 to 14) (size 15 to 20)
#    0.000    2.800    0.000    4.800    0.000    4.000 
#    0.000    0.000    0.000   10.800    0.000    0.000 
#    0.000    0.000    0.000    0.000    0.000    0.000 
#
# Total GULP energy -123948.799274 kJ/mol
# GULP energy per Si atom -12394.879927 kJ/mol
# Density = 2.102455 g / cm^3
# Si number density = 21.072512 Si / 1000 Ang^3
#
#
#
# Elastic Constant Matrix: (Units=GPa)
#
#
# Indices 1 2 3 4 5 6 
#
# 1 45.6245 29.4196 20.8014 5.0691 -17.1290 -12.4330
# 2 29.4196 167.5325 50.7197 -3.9419 -19.0944 -17.1860
# 3 20.8014 50.7197 100.9199 -1.2012 -41.4106 -13.5592
# 4 5.0691 -3.9419 -1.2012 30.4448 -5.8772 -5.2770
# 5 -17.1290 -19.0944 -41.4106 -5.8772 23.8596 7.8532
# 6 -12.4330 -17.1860 -13.5592 -5.2770 7.8532 21.5104
#
#
#
# Elastic Compliance Matrix: (Units=1/GPa)
#
#
# Indices 1 2 3 4 5 6 
#
# 1 0.039223 -0.004836 0.017131 0.005552 0.051368 0.012214
# 2 -0.004836 0.008019 -0.006169 0.000451 -0.008634 0.002985
# 3 0.017131 -0.006169 0.050547 0.018181 0.097719 0.005619
# 4 0.005552 0.000451 0.018181 0.042729 0.043224 0.009732
# 5 0.051368 -0.008634 0.097719 0.043224 0.251026 0.003348
# 6 0.012214 0.002985 0.005619 0.009732 0.003348 0.060641
#
#
# Mechanical properties :
#
#
# Convention : Reuss Voigt Hill
#
# Bulk Modulus (GPa) = 9.08764 57.32870 33.20817
# Shear Modulus (GPa) = 10.49070 29.37203 19.93137
#
# Velocity S-wave (km/s) = 2.23365 3.73749 3.07880
# Velocity P-wave (km/s) = 3.31273 6.77419 5.33216
#
# Compressibility (1/GPa) = 0.11003960
#
# Stress axis : x y z
#
# Youngs Moduli (GPa) = 25.49553 124.70695 19.78354
#
# Poissons Ratio (x) = 0.60305 -0.33891
# Poissons Ratio (y) = 0.12329 0.12205
# Poissons Ratio (z) = -0.43676 0.76937
#
# Static dielectric constant tensor:
#      x y z
#    x 3.409350 0.156010 -0.118770 
#    y 0.156010 4.673770 0.252190 
#    z -0.118770 0.252190 3.914480 
# 
# 
# High freq. dielectric constant tensor:
#      x y z
#    x 1.784310 -0.001010 -0.019660 
#    y -0.001010 1.846670 0.006460 
#    z -0.019660 0.006460 1.828410 
# 
# From -- ./inp_files/144135.got.cif
#   From: 2010.06.25/outbox.cif.g09.slc.cpg/sg2_73_cif.got.tgz:144135.got - 2010.06.27 13:26:56.
