data_PCOD8041994
_publ_section_title
;
Structure prediction by ZEFSAII (Michael W. Deem and Ramdas Pophale) SiO2 
 PCOD8041994
Probable space group: P -1
;
_chemical_formula_sum "Si O2"
_cell_formula_units_Z 16
_cell_length_a 11.628864
_cell_length_b 24.498075
_cell_length_c 8.790810
_cell_angle_alpha 134.921705
_cell_angle_beta 65.087970
_cell_angle_gamma 149.251138
_cell_volume 778.354284
_symmetry_space_group_name_H-M "P -1"
_symmetry_group_IT_number 2
_symmetry_cell_setting 'triclinic'
loop_
_space_group_symop_operation_xyz
x,y,z
-x,-y,-z
loop_
_atom_site_type_symbol
_atom_site_label
_atom_site_fract_x
_atom_site_fract_y
_atom_site_fract_z
Si Si1 0.683480 0.743435 0.095657
Si Si2 0.031573 0.409456 0.173029
Si Si3 0.738157 0.921967 0.588616
Si Si4 0.231695 0.682398 0.561060
Si Si5 0.708207 0.040857 0.637806
Si Si6 0.822132 0.566612 0.388683
Si Si7 0.150573 0.789928 0.376606
Si Si8 0.821106 0.649473 0.856449
O O1 0.661867 0.792358 0.343443
O O2 0.440294 0.621939 0.875675
O O3 0.670004 0.648172 0.980694
O O4 0.964030 0.909336 0.182377
O O5 0.184409 0.566468 0.350856
O O6 0.244672 0.458722 0.210417
O O7 0.817922 0.312059 0.232307
O O8 0.877076 0.297934 0.892752
O O9 0.537021 0.854976 0.686409
O O10 0.715350 0.953671 0.499798
O O11 0.043819 0.624215 0.429699
O O12 0.842000 0.128194 0.569258
O O13 0.421104 0.924008 0.578664
O O14 0.868417 0.170371 0.936312
O O15 0.760017 0.595845 0.610845
O O16 0.915509 0.665187 0.383440
#
# Coordination Sequence:
#
# PCOD8041994 Si02
#       8
#     2   2   2   2   2   2   2   2
#     4  10  22  37  58  86 117 156 189 236 277 346
#     4   9  20  36  58  88 119 144 190 246 283 335
#     4  10  20  39  59  84 117 154 192 226 293 346
#     4  10  20  37  61  90 112 151 188 242 292 332
#     4   9  19  36  54  83 119 144 180 238 286 335
#     4  11  21  35  64  90 111 147 198 240 281 337
#     4  10  19  34  55  92 114 144 185 242 292 327
#     4   9  20  40  57  79 119 156 190 229 284 339
#
# _framework density 20.556191999999999
#
# number of rings (size 3 to 8) (size 9 to 14) (size 15 to 20)
#    0.000    2.250    1.250    1.125    1.750    1.500 
#   11.250   11.250    0.000    7.500    0.000    0.000 
#    0.000    0.000    0.000    0.000    0.000    0.000 
#
# Total GULP energy -198270.386752 kJ/mol
# GULP energy per Si atom -12391.899172 kJ/mol
# Density = 2.050941 g / cm^3
# Si number density = 20.556192 Si / 1000 Ang^3
#
#
#
# Elastic Constant Matrix: (Units=GPa)
#
#
# Indices 1 2 3 4 5 6 
#
# 1 73.7105 29.5531 13.5044 4.4926 -17.4535 -5.7653
# 2 29.5531 75.8088 18.3190 8.2658 13.0036 -7.4094
# 3 13.5044 18.3190 71.8595 4.1811 13.0023 -1.4020
# 4 4.4926 8.2658 4.1811 20.0988 3.8770 4.2057
# 5 -17.4535 13.0036 13.0023 3.8770 40.2854 10.2729
# 6 -5.7653 -7.4094 -1.4020 4.2057 10.2729 27.3270
#
#
#
# Elastic Compliance Matrix: (Units=1/GPa)
#
#
# Indices 1 2 3 4 5 6 
#
# 1 0.021946 -0.010340 -0.004236 -0.001929 0.015387 -0.003879
# 2 -0.010340 0.021102 -0.000589 -0.005687 -0.012909 0.009238
# 3 -0.004236 -0.000589 0.016355 -0.001354 -0.007512 0.002818
# 4 -0.001929 -0.005687 -0.001354 0.055155 -0.001318 -0.010011
# 5 0.015387 -0.012909 -0.007512 -0.001318 0.042382 -0.016369
# 6 -0.003879 0.009238 0.002818 -0.010011 -0.016369 0.046119
#
#
# Mechanical properties :
#
#
# Convention : Reuss Voigt Hill
#
# Bulk Modulus (GPa) = 34.39671 38.23688 36.31680
# Shear Modulus (GPa) = 20.56929 28.20905 24.38917
#
# Velocity S-wave (km/s) = 3.16672 3.70846 3.44824
# Velocity P-wave (km/s) = 5.49000 6.08099 5.79304
#
# Compressibility (1/GPa) = 0.02907254
#
# Stress axis : x y z
#
# Youngs Moduli (GPa) = 45.56639 47.38935 61.14226
#
# Poissons Ratio (x) = 0.49001 0.25900
# Poissons Ratio (y) = 0.47116 0.03603
# Poissons Ratio (z) = 0.19302 0.02793
#
# Static dielectric constant tensor:
#      x y z
#    x 4.003790 -0.153350 -0.078700 
#    y -0.153350 3.522810 0.177510 
#    z -0.078700 0.177510 3.740480 
# 
# 
# High freq. dielectric constant tensor:
#      x y z
#    x 1.807700 -0.004400 -0.004290 
#    y -0.004400 1.778750 0.014100 
#    z -0.004290 0.014100 1.801210 
# 
# From -- ./inp_files/254701.got.cif
#   From: 2010.06.25/outbox.cif.g09.slc.cpg/sg2_128_cif.got.tgz:254701.got - 2010.06.27 13:26:56.
