data_PCOD8041280
_publ_section_title
;
Structure prediction by ZEFSAII (Michael W. Deem and Ramdas Pophale) SiO2 
 PCOD8041280
Probable space group: P -1
;
_chemical_formula_sum "Si O2"
_cell_formula_units_Z 16
_cell_length_a 11.295453
_cell_length_b 17.082406
_cell_length_c 8.769997
_cell_angle_alpha 107.521227
_cell_angle_beta 140.956357
_cell_angle_gamma 91.655459
_cell_volume 914.115232
_symmetry_space_group_name_H-M "P -1"
_symmetry_group_IT_number 2
_symmetry_cell_setting 'triclinic'
loop_
_space_group_symop_operation_xyz
x,y,z
-x,-y,-z
loop_
_atom_site_type_symbol
_atom_site_label
_atom_site_fract_x
_atom_site_fract_y
_atom_site_fract_z
Si Si1 0.361682 0.361427 0.578435
Si Si2 0.949545 0.234591 0.935870
Si Si3 0.007836 0.293408 0.690263
Si Si4 0.548255 0.548134 0.738803
Si Si5 0.421603 0.706553 0.738920
Si Si6 0.892485 0.892391 0.832823
Si Si7 0.233552 0.233929 0.647129
Si Si8 0.520012 0.234743 0.506794
O O1 0.470866 0.470738 0.746895
O O2 0.327813 0.327888 0.699248
O O3 0.509020 0.323479 0.618671
O O4 0.138734 0.323265 0.247587
O O5 0.967962 0.237178 0.773704
O O6 0.734237 0.234036 0.775135
O O7 0.957767 0.142848 0.950175
O O8 0.810406 0.310749 0.456621
O O9 0.046114 0.232707 0.563045
O O10 0.205231 0.391210 0.961063
O O11 0.500000 0.500000 0.500000
O O12 0.423090 0.608733 0.667198
O O13 0.493891 0.762626 0.687640
O O14 0.581856 0.767375 0.064497
O O15 0.855043 0.854620 0.600454
O O16 0.671874 0.856952 0.678851
O O17 0.000000 0.000000 0.000000
#
# Coordination Sequence:
#
# PCOD8041280 Si02
#       8
#     2   2   2   2   2   2   2   2
#     4  10  19  32  51  77 105 142 179 218 257 288
#     4   9  18  34  54  75 103 138 175 209 254 312
#     4  10  20  34  53  76 106 144 176 210 257 305
#     4  11  18  32  52  78 108 137 186 226 243 287
#     4  10  20  34  53  76 106 144 176 210 257 305
#     4  10  21  37  59  82 101 127 168 217 265 313
#     4   9  20  36  52  72 107 137 165 212 269 319
#     4   9  18  34  54  75 103 138 175 209 254 312
#
# _framework density 17.503264000000001
#
# number of rings (size 3 to 8) (size 9 to 14) (size 15 to 20)
#    0.000    2.500    2.500    2.250    0.000    8.000 
#    0.000    3.750    0.000    3.000    0.000    0.000 
#    0.000    0.000    0.000    0.000    0.000    0.000 
#
# Total GULP energy -198394.085085 kJ/mol
# GULP energy per Si atom -12399.630318 kJ/mol
# Density = 1.746343 g / cm^3
# Si number density = 17.503264 Si / 1000 Ang^3
#
#
#
# Elastic Constant Matrix: (Units=GPa)
#
#
# Indices 1 2 3 4 5 6 
#
# 1 114.4900 44.5700 80.4162 -9.1788 17.0890 -4.0452
# 2 44.5700 109.3188 67.4728 9.5106 11.1508 -7.5108
# 3 80.4162 67.4728 103.4248 -10.4361 13.4742 -18.5897
# 4 -9.1788 9.5106 -10.4361 35.6581 -5.1750 1.7150
# 5 17.0890 11.1508 13.4742 -5.1750 37.4521 -7.8836
# 6 -4.0452 -7.5108 -18.5897 1.7150 -7.8836 19.5075
#
#
#
# Elastic Compliance Matrix: (Units=1/GPa)
#
#
# Indices 1 2 3 4 5 6 
#
# 1 0.025275 0.005551 -0.026185 -0.002878 -0.008535 -0.020771
# 2 0.005551 0.019318 -0.019185 -0.009539 -0.004989 -0.010871
# 3 -0.026185 -0.019185 0.049174 0.012367 0.009416 0.036762
# 4 -0.002878 -0.009539 0.012367 0.033985 0.005851 0.006892
# 5 -0.008535 -0.004989 0.009416 0.005851 0.033341 0.018242
# 6 -0.020771 -0.010871 0.036762 0.006892 0.018242 0.084568
#
#
# Mechanical properties :
#
#
# Convention : Reuss Voigt Hill
#
# Bulk Modulus (GPa) = 70.78657 79.12794 74.95726
# Shear Modulus (GPa) = 15.15112 27.50851 21.32981
#
# Velocity S-wave (km/s) = 2.94533 3.96867 3.49466
# Velocity P-wave (km/s) = 7.21778 8.14286 7.69423
#
# Compressibility (1/GPa) = 0.01412697
#
# Stress axis : x y z
#
# Youngs Moduli (GPa) = 39.56479 51.76626 20.33602
#
# Poissons Ratio (x) = -0.28735 0.53251
# Poissons Ratio (y) = -0.21962 0.39015
# Poissons Ratio (z) = 1.03602 0.99315
#
# Static dielectric constant tensor:
#      x y z
#    x 3.388670 0.085440 0.069830 
#    y 0.085440 3.147260 -0.218700 
#    z 0.069830 -0.218700 3.236670 
# 
# 
# High freq. dielectric constant tensor:
#      x y z
#    x 1.685830 0.008520 0.002790 
#    y 0.008520 1.661260 -0.019880 
#    z 0.002790 -0.019880 1.671300 
# 
# From -- ./inp_files/276711.got.cif
#   From: 2010.06.25/outbox.cif.g09.slc.cpg/sg2_139_cif.got.tgz:276711.got - 2010.06.27 13:26:56.
