data_PCOD8041753
_publ_section_title
;
Structure prediction by ZEFSAII (Michael W. Deem and Ramdas Pophale) SiO2 
 PCOD8041753
Probable space group: P -1
;
_chemical_formula_sum "Si O2"
_cell_formula_units_Z 16
_cell_length_a 20.576186
_cell_length_b 5.340022
_cell_length_c 9.003511
_cell_angle_alpha 123.581460
_cell_angle_beta 126.059538
_cell_angle_gamma 67.917239
_cell_volume 664.398685
_symmetry_space_group_name_H-M "P -1"
_symmetry_group_IT_number 2
_symmetry_cell_setting 'triclinic'
loop_
_space_group_symop_operation_xyz
x,y,z
-x,-y,-z
loop_
_atom_site_type_symbol
_atom_site_label
_atom_site_fract_x
_atom_site_fract_y
_atom_site_fract_z
Si Si1 0.015940 0.322369 0.308017
Si Si2 0.648319 0.032988 0.932634
Si Si3 0.314096 0.351895 0.672984
Si Si4 0.776956 0.783867 0.234293
Si Si5 0.074010 0.873496 0.454954
Si Si6 0.757929 0.718731 0.743492
Si Si7 0.485580 0.150229 0.870269
Si Si8 0.842279 0.287594 0.963309
O O1 0.000000 0.500000 0.500000
O O2 0.075596 0.510618 0.347891
O O3 0.938984 0.272091 0.086756
O O4 0.059898 0.998159 0.307754
O O5 0.552325 0.987278 0.794840
O O6 0.684541 0.919609 0.787534
O O7 0.663928 0.377584 0.101975
O O8 0.692276 0.830283 0.052135
O O9 0.242662 0.191177 0.608754
O O10 0.281282 0.461835 0.503431
O O11 0.393534 0.116978 0.682996
O O12 0.839335 0.025184 0.342303
O O13 0.816118 0.452845 0.136444
O O14 0.000000 0.000000 0.500000
O O15 0.805736 0.479381 0.836577
O O16 0.816329 0.949400 0.824049
O O17 0.500000 0.500000 0.000000
O O18 0.500000 0.000000 0.000000
#
# Coordination Sequence:
#
# PCOD8041753 Si02
#       8
#     2   2   2   2   2   2   2   2
#     4  10  19  33  57  91 121 160 210 262 312 369
#     4  10  23  41  67  94 129 168 217 259 318 377
#     4  11  24  42  66  94 133 169 211 264 321 377
#     4  11  21  36  67  91 127 166 216 256 319 378
#     4  10  20  30  56  96 118 158 213 254 309 378
#     4  11  26  39  65  98 129 169 213 262 316 378
#     4  10  21  40  65  95 127 166 211 262 314 374
#     4  11  22  40  62  95 129 164 218 263 311 383
#
# _framework density 24.081925999999999
#
# number of rings (size 3 to 8) (size 9 to 14) (size 15 to 20)
#    0.000    1.500    5.000    0.750    8.750    0.500 
#    0.000    0.000    0.000    9.750    0.000    0.000 
#    0.000    0.000    0.000    0.000    0.000    0.000 
#
# Total GULP energy -198278.703713 kJ/mol
# GULP energy per Si atom -12392.418982 kJ/mol
# Density = 2.402711 g / cm^3
# Si number density = 24.081926 Si / 1000 Ang^3
#
#
#
# Elastic Constant Matrix: (Units=GPa)
#
#
# Indices 1 2 3 4 5 6 
#
# 1 78.6032 36.4109 42.6805 0.6624 12.4763 12.9363
# 2 36.4109 124.9421 20.4303 -19.2497 1.7757 29.9531
# 3 42.6805 20.4303 73.8718 -26.5224 -1.5405 8.7640
# 4 0.6624 -19.2497 -26.5224 32.1125 0.6220 0.8733
# 5 12.4763 1.7757 -1.5405 0.6220 24.4377 -5.6544
# 6 12.9363 29.9531 8.7640 0.8733 -5.6544 40.6951
#
#
#
# Elastic Compliance Matrix: (Units=1/GPa)
#
#
# Indices 1 2 3 4 5 6 
#
# 1 0.037905 -0.010857 -0.031083 -0.032600 -0.019549 0.000619
# 2 -0.010857 0.014385 0.009505 0.016898 0.002540 -0.009193
# 3 -0.031083 0.009505 0.045622 0.043872 0.015616 -0.005712
# 4 -0.032600 0.016898 0.043872 0.078222 0.013572 -0.011315
# 5 -0.019549 0.002540 0.015616 0.013572 0.053226 0.008087
# 6 0.000619 -0.009193 -0.005712 -0.011315 0.008087 0.033739
#
#
# Mechanical properties :
#
#
# Convention : Reuss Voigt Hill
#
# Bulk Modulus (GPa) = 30.26542 52.94006 41.60274
# Shear Modulus (GPa) = 14.75003 31.30875 23.02939
#
# Velocity S-wave (km/s) = 2.47755 3.60959 3.09575
# Velocity P-wave (km/s) = 4.55843 6.27720 5.48555
#
# Compressibility (1/GPa) = 0.03304101
#
# Stress axis : x y z
#
# Youngs Moduli (GPa) = 26.38188 69.51823 21.91944
#
# Poissons Ratio (x) = 0.75475 0.68133
# Poissons Ratio (y) = 0.28643 -0.20834
# Poissons Ratio (z) = 0.82003 -0.66077
#
# Static dielectric constant tensor:
#      x y z
#    x 4.850820 0.007740 0.240850 
#    y 0.007740 4.253310 -0.190950 
#    z 0.240850 -0.190950 4.030910 
# 
# 
# High freq. dielectric constant tensor:
#      x y z
#    x 1.967610 0.003260 0.012560 
#    y 0.003260 1.963500 -0.018410 
#    z 0.012560 -0.018410 1.920450 
# 
# From -- ./inp_files/139254.got.cif
#   From: 2010.06.25/outbox.cif.g09.slc.cpg/sg2_70_cif.got.tgz:139254.got - 2010.06.27 13:26:56.
