data_PCOD8041444
_publ_section_title
;
Structure prediction by ZEFSAII (Michael W. Deem and Ramdas Pophale) SiO2 
 PCOD8041444
Probable space group: P -1
;
_chemical_formula_sum "Si O2"
_cell_formula_units_Z 14
_cell_length_a 10.075249
_cell_length_b 9.132956
_cell_length_c 11.348684
_cell_angle_alpha 107.383368
_cell_angle_beta 127.752155
_cell_angle_gamma 61.064873
_cell_volume 722.594320
_symmetry_space_group_name_H-M "P -1"
_symmetry_group_IT_number 2
_symmetry_cell_setting 'triclinic'
loop_
_space_group_symop_operation_xyz
x,y,z
-x,-y,-z
loop_
_atom_site_type_symbol
_atom_site_label
_atom_site_fract_x
_atom_site_fract_y
_atom_site_fract_z
Si Si1 0.538755 0.550529 0.405331
Si Si2 0.677138 0.835620 0.531677
Si Si3 0.193027 0.124929 0.644792
Si Si4 0.803529 0.206510 0.367997
Si Si5 0.312744 0.384760 0.853304
Si Si6 0.650759 0.373348 0.900429
Si Si7 0.933601 0.255826 0.208772
O O1 0.500000 0.500000 0.500000
O O2 0.640651 0.673467 0.504907
O O3 0.654577 0.390811 0.351662
O O4 0.350722 0.636952 0.245877
O O5 0.735866 0.833167 0.428851
O O6 0.846732 0.828655 0.704395
O O7 0.500000 0.000000 0.500000
O O8 0.251026 0.230501 0.799487
O O9 0.974411 0.184676 0.540075
O O10 0.281878 0.927607 0.674899
O O11 0.866147 0.170535 0.257403
O O12 0.481095 0.331245 0.840890
O O13 0.138031 0.546303 0.748840
O O14 0.376936 0.439106 0.025151
O O15 0.839470 0.238774 0.028822
#
# Coordination Sequence:
#
# PCOD8041444 Si02
#       7
#     2   2   2   2   2   2   2
#     4  12  22  37  59  79 115 151 190 235 282 339
#     4  11  22  37  56  83 113 155 194 227 285 334
#     4  10  19  32  58  87 119 139 188 246 271 332
#     4  10  19  33  55  93 111 144 192 231 285 323
#     4   9  15  33  62  81 111 149 183 235 283 335
#     4   9  18  35  58  86 111 145 191 228 287 338
#     4   9  18  36  62  79 114 146 187 235 275 339
#
# _framework density 19.374635000000001
#
# number of rings (size 3 to 8) (size 9 to 14) (size 15 to 20)
#    0.857    1.143    2.857    1.714    0.000    2.286 
#    0.000    4.286    0.000    0.000    0.000    0.000 
#    0.000    0.000    0.000    0.000    0.000    0.000 
#
# Total GULP energy -173473.089434 kJ/mol
# GULP energy per Si atom -12390.934960 kJ/mol
# Density = 1.933054 g / cm^3
# Si number density = 19.374635 Si / 1000 Ang^3
#
#
#
# Elastic Constant Matrix: (Units=GPa)
#
#
# Indices 1 2 3 4 5 6 
#
# 1 81.0855 34.1287 46.9112 -7.7175 6.9659 15.9757
# 2 34.1287 81.0919 22.6889 -3.6406 18.7978 21.0092
# 3 46.9112 22.6889 127.3554 -15.1312 6.0312 10.8213
# 4 -7.7175 -3.6406 -15.1312 27.8516 2.0376 11.4471
# 5 6.9659 18.7978 6.0312 2.0376 30.3194 -6.1507
# 6 15.9757 21.0092 10.8213 11.4471 -6.1507 37.3947
#
#
#
# Elastic Compliance Matrix: (Units=1/GPa)
#
#
# Indices 1 2 3 4 5 6 
#
# 1 0.018827 -0.004269 -0.005029 0.004526 -0.002186 -0.005935
# 2 -0.004269 0.023070 0.001139 0.011079 -0.017906 -0.017804
# 3 -0.005029 0.001139 0.010759 0.006494 -0.002955 -0.004079
# 4 0.004526 0.011079 0.006494 0.055996 -0.019115 -0.030323
# 5 -0.002186 -0.017906 -0.002955 -0.019115 0.051777 0.026217
# 6 -0.005935 -0.017804 -0.004079 -0.030323 0.026217 0.054055
#
#
# Mechanical properties :
#
#
# Convention : Reuss Voigt Hill
#
# Bulk Modulus (GPa) = 27.51790 55.22115 41.36952
# Shear Modulus (GPa) = 20.58346 31.50006 26.04176
#
# Velocity S-wave (km/s) = 3.26297 4.03655 3.67020
# Velocity P-wave (km/s) = 5.33197 7.09144 6.27369
#
# Compressibility (1/GPa) = 0.03633998
#
# Stress axis : x y z
#
# Youngs Moduli (GPa) = 53.11636 43.34592 92.94140
#
# Poissons Ratio (x) = 0.18504 0.46738
# Poissons Ratio (y) = 0.22675 -0.10590
# Poissons Ratio (z) = 0.26711 -0.04939
#
# Static dielectric constant tensor:
#      x y z
#    x 3.292020 0.135130 0.167780 
#    y 0.135130 3.427080 -0.103670 
#    z 0.167780 -0.103670 3.598480 
# 
# 
# High freq. dielectric constant tensor:
#      x y z
#    x 1.725690 0.013580 0.015570 
#    y 0.013580 1.741140 -0.006150 
#    z 0.015570 -0.006150 1.753150 
# 
# From -- ./inp_files/376739.got.cif
#   From: 2010.06.25/outbox.cif.g09.slc.cpg/sg2_189_cif.got.tgz:376739.got - 2010.06.27 13:26:56.
