data_PCOD8041635
_publ_section_title
;
Structure prediction by ZEFSAII (Michael W. Deem and Ramdas Pophale) SiO2 
 PCOD8041635
Probable space group: P -1
;
_chemical_formula_sum "Si O2"
_cell_formula_units_Z 16
_cell_length_a 13.593623
_cell_length_b 13.228410
_cell_length_c 20.181980
_cell_angle_alpha 28.279022
_cell_angle_beta 31.965247
_cell_angle_gamma 50.475700
_cell_volume 816.767608
_symmetry_space_group_name_H-M "P -1"
_symmetry_group_IT_number 2
_symmetry_cell_setting 'triclinic'
loop_
_space_group_symop_operation_xyz
x,y,z
-x,-y,-z
loop_
_atom_site_type_symbol
_atom_site_label
_atom_site_fract_x
_atom_site_fract_y
_atom_site_fract_z
Si Si1 0.261017 0.177529 0.871746
Si Si2 0.495991 0.716721 0.457206
Si Si3 0.231505 0.838993 0.629188
Si Si4 0.763627 0.572132 0.046547
Si Si5 0.158629 0.220953 0.670859
Si Si6 0.969771 0.552468 0.561316
Si Si7 0.636327 0.672856 0.652854
Si Si8 0.692481 0.960340 0.934641
O O1 0.323354 0.448517 0.698541
O O2 0.399005 0.160819 0.742105
O O3 0.292688 0.029373 0.000000
O O4 0.016181 0.052202 0.066134
O O5 0.378964 0.863245 0.468644
O O6 0.670285 0.719783 0.405393
O O7 0.243832 0.655613 0.780664
O O8 0.315606 0.090759 0.470862
O O9 0.996448 0.747428 0.790242
O O10 0.611726 0.482281 0.121527
O O11 0.672269 0.706340 0.069899
O O12 0.263608 0.262383 0.514987
O O13 0.041477 0.386729 0.659552
O O14 0.733354 0.516804 0.726534
O O15 0.000000 0.500000 0.500000
O O16 0.109479 0.832694 0.332741
O O17 0.500000 0.000000 0.000000
#
# Coordination Sequence:
#
# PCOD8041635 Si02
#       8
#     2   2   2   2   2   2   2   2
#     4  11  22  39  58  86 121 153 192 241 290 343
#     4  11  24  38  58  85 120 161 195 229 285 362
#     4  11  22  36  53  84 121 154 194 236 287 350
#     4  11  22  34  57  87 116 153 188 244 297 337
#     4  11  21  38  59  91 116 148 193 243 301 340
#     4  10  19  33  55  89 116 139 183 248 292 337
#     4  11  20  35  57  87 117 147 185 249 294 340
#     4  12  20  36  62  92 116 148 192 248 299 339
#
# _framework density 19.589414999999999
#
# number of rings (size 3 to 8) (size 9 to 14) (size 15 to 20)
#    0.000    1.000    6.250    3.000    1.750    0.000 
#    0.000    0.000    0.000    1.500    0.000    0.000 
#    0.000    0.000    0.000    0.000    0.000    0.000 
#
# Total GULP energy -198353.545765 kJ/mol
# GULP energy per Si atom -12397.096610 kJ/mol
# Density = 1.954483 g / cm^3
# Si number density = 19.589415 Si / 1000 Ang^3
#
#
#
# Elastic Constant Matrix: (Units=GPa)
#
#
# Indices 1 2 3 4 5 6 
#
# 1 79.8416 60.6644 48.7065 6.2265 -25.1861 -11.6300
# 2 60.6644 127.5067 36.3993 -5.8535 -17.2976 -10.2109
# 3 48.7065 36.3993 95.3097 -4.5333 -32.0530 0.0594
# 4 6.2265 -5.8535 -4.5333 27.8081 1.3748 -5.1024
# 5 -25.1861 -17.2976 -32.0530 1.3748 34.2820 4.2166
# 6 -11.6300 -10.2109 0.0594 -5.1024 4.2166 27.6375
#
#
#
# Elastic Compliance Matrix: (Units=1/GPa)
#
#
# Indices 1 2 3 4 5 6 
#
# 1 0.030509 -0.010776 -0.009262 -0.009937 0.008000 0.005822
# 2 -0.010776 0.013068 0.000286 0.005566 -0.001469 0.001545
# 3 -0.009262 0.000286 0.019272 0.003786 0.011815 -0.004937
# 4 -0.009937 0.005566 0.003786 0.041239 -0.003343 0.005990
# 5 0.008000 -0.001469 0.011815 -0.003343 0.046083 -0.004850
# 6 0.005822 0.001545 -0.004937 0.005990 -0.004850 0.041060
#
#
# Mechanical properties :
#
#
# Convention : Reuss Voigt Hill
#
# Bulk Modulus (GPa) = 42.83399 66.02204 54.42802
# Shear Modulus (GPa) = 20.96289 28.40473 24.68381
#
# Velocity S-wave (km/s) = 3.27481 3.81202 3.55358
# Velocity P-wave (km/s) = 6.01768 7.29050 6.68446
#
# Compressibility (1/GPa) = 0.02334594
#
# Stress axis : x y z
#
# Youngs Moduli (GPa) = 32.77703 76.52238 51.88788
#
# Poissons Ratio (x) = 0.82462 0.48056
# Poissons Ratio (y) = 0.35321 -0.01484
# Poissons Ratio (z) = 0.30357 -0.02188
#
# Static dielectric constant tensor:
#      x y z
#    x 3.670820 -0.234320 -0.462380 
#    y -0.234320 3.804420 0.041860 
#    z -0.462380 0.041860 3.475090 
# 
# 
# High freq. dielectric constant tensor:
#      x y z
#    x 1.744160 -0.014390 -0.038200 
#    y -0.014390 1.759110 -0.015150 
#    z -0.038200 -0.015150 1.762040 
# 
# From -- ./inp_files/433084.got.cif
#   From: 2010.06.25/outbox.cif.g09.slc.cpg/sg2_217_cif.got.tgz:433084.got - 2010.06.27 13:26:56.
