data_PCOD8041468
_publ_section_title
;
Structure prediction by ZEFSAII (Michael W. Deem and Ramdas Pophale) SiO2 
 PCOD8041468
Probable space group: P -1
;
_chemical_formula_sum "Si O2"
_cell_formula_units_Z 16
_cell_length_a 8.777686
_cell_length_b 11.325687
_cell_length_c 17.153140
_cell_angle_alpha 42.916427
_cell_angle_beta 76.704913
_cell_angle_gamma 107.363386
_cell_volume 802.013059
_symmetry_space_group_name_H-M "P -1"
_symmetry_group_IT_number 2
_symmetry_cell_setting 'triclinic'
loop_
_space_group_symop_operation_xyz
x,y,z
-x,-y,-z
loop_
_atom_site_type_symbol
_atom_site_label
_atom_site_fract_x
_atom_site_fract_y
_atom_site_fract_z
Si Si1 0.906592 0.245179 0.609959
Si Si2 0.883292 0.150278 0.128991
Si Si3 0.520929 0.738532 0.962065
Si Si4 0.757478 0.672334 0.376944
Si Si5 0.360836 0.535261 0.912927
Si Si6 0.058834 0.522440 0.161994
Si Si7 0.801794 0.365997 0.417841
Si Si8 0.350395 0.884819 0.683743
O O1 0.825545 0.215671 0.545047
O O2 0.000000 0.500000 0.500000
O O3 0.111627 0.269387 0.585205
O O4 0.710614 0.034783 0.795048
O O5 0.690628 0.080485 0.239029
O O6 0.846142 0.925311 0.214128
O O7 0.910944 0.276490 0.985228
O O8 0.104172 0.342670 0.061567
O O9 0.507006 0.680613 0.900890
O O10 0.592424 0.617257 0.056683
O O11 0.294863 0.614208 0.089702
O O12 0.500000 0.500000 0.500000
O O13 0.807022 0.556461 0.366932
O O14 0.405050 0.721916 0.755071
O O15 0.001579 0.520983 0.258521
O O16 0.863234 0.248648 0.281070
O O17 0.568893 0.159519 0.498142
#
# Coordination Sequence:
#
# PCOD8041468 Si02
#       8
#     2   2   2   2   2   2   2   2
#     4  10  22  40  63  84 113 159 207 243 288 358
#     4  11  19  38  63  90 117 154 210 241 291 359
#     4  11  19  36  60  87 118 154 200 245 290 355
#     4  11  23  40  67  88 111 158 212 249 286 359
#     4  10  19  32  62  88 112 148 205 247 282 341
#     4  11  23  36  61  93 127 156 190 250 310 352
#     4  11  23  41  58  89 127 160 193 248 308 350
#     4  11  19  39  61  91 119 165 199 243 291 363
#
# _framework density 19.949798000000001
#
# number of rings (size 3 to 8) (size 9 to 14) (size 15 to 20)
#    0.000    1.250    6.250    1.125    1.750    0.500 
#    0.000    5.625    0.000    0.000    0.000    0.000 
#    0.000    0.000    0.000    0.000    0.000    0.000 
#
# Total GULP energy -198248.715373 kJ/mol
# GULP energy per Si atom -12390.544711 kJ/mol
# Density = 1.990439 g / cm^3
# Si number density = 19.949798 Si / 1000 Ang^3
#
#
#
# Elastic Constant Matrix: (Units=GPa)
#
#
# Indices 1 2 3 4 5 6 
#
# 1 115.0705 24.3254 40.9634 2.3069 -7.7844 -15.0030
# 2 24.3254 53.7488 32.7234 -1.8311 1.4614 -15.2910
# 3 40.9634 32.7234 89.9503 -1.8802 -7.6882 -17.5828
# 4 2.3069 -1.8311 -1.8802 37.3422 -4.0190 -0.9171
# 5 -7.7844 1.4614 -7.6882 -4.0190 29.1479 -9.1706
# 6 -15.0030 -15.2910 -17.5828 -0.9171 -9.1706 25.9853
#
#
#
# Elastic Compliance Matrix: (Units=1/GPa)
#
#
# Indices 1 2 3 4 5 6 
#
# 1 0.011043 -0.001944 -0.003196 -0.000458 0.003489 0.004285
# 2 -0.001944 0.026478 -0.006859 0.001266 -0.000426 0.009712
# 3 -0.003196 -0.006859 0.017325 0.001683 0.006917 0.008342
# 4 -0.000458 0.001266 0.001683 0.027658 0.005499 0.004536
# 5 0.003489 -0.000426 0.006917 0.005499 0.044919 0.022491
# 6 0.004285 0.009712 0.008342 0.004536 0.022491 0.060414
#
#
# Mechanical properties :
#
#
# Convention : Reuss Voigt Hill
#
# Bulk Modulus (GPa) = 32.41556 50.53265 41.47411
# Shear Modulus (GPa) = 22.51074 29.21225 25.86149
#
# Velocity S-wave (km/s) = 3.36277 3.83075 3.60436
# Velocity P-wave (km/s) = 5.60013 6.70456 6.17708
#
# Compressibility (1/GPa) = 0.03084938
#
# Stress axis : x y z
#
# Youngs Moduli (GPa) = 90.55847 37.76675 57.72094
#
# Poissons Ratio (x) = 0.07340 0.18445
# Poissons Ratio (y) = 0.17600 0.39591
# Poissons Ratio (z) = 0.28939 0.25904
#
# Static dielectric constant tensor:
#      x y z
#    x 4.376700 0.146890 0.026700 
#    y 0.146890 3.492970 -0.384710 
#    z 0.026700 -0.384710 3.683680 
# 
# 
# High freq. dielectric constant tensor:
#      x y z
#    x 1.790250 0.001950 -0.006790 
#    y 0.001950 1.744550 -0.035240 
#    z -0.006790 -0.035240 1.774740 
# 
# From -- ./inp_files/177951.got.cif
#   From: 2010.06.25/outbox.cif.g09.slc.cpg/sg2_89_cif.got.tgz:177951.got - 2010.06.27 13:26:56.
