data_PCOD8041529
_publ_section_title
;
Structure prediction by ZEFSAII (Michael W. Deem and Ramdas Pophale) SiO2 
 PCOD8041529
Probable space group: P -1
;
_chemical_formula_sum "Si O2"
_cell_formula_units_Z 14
_cell_length_a 14.587221
_cell_length_b 13.110596
_cell_length_c 11.429731
_cell_angle_alpha 70.975823
_cell_angle_beta 150.221397
_cell_angle_gamma 124.664626
_cell_volume 814.210030
_symmetry_space_group_name_H-M "P -1"
_symmetry_group_IT_number 2
_symmetry_cell_setting 'triclinic'
loop_
_space_group_symop_operation_xyz
x,y,z
-x,-y,-z
loop_
_atom_site_type_symbol
_atom_site_label
_atom_site_fract_x
_atom_site_fract_y
_atom_site_fract_z
Si Si1 0.188021 0.381538 0.973659
Si Si2 0.826607 0.353157 0.424396
Si Si3 0.032085 0.341121 0.277458
Si Si4 0.712264 0.656439 0.661216
Si Si5 0.610937 0.328794 0.830961
Si Si6 0.543418 0.433147 0.177423
Si Si7 0.336676 0.840586 0.894109
O O1 0.943768 0.337849 0.671512
O O2 0.145503 0.296730 0.076889
O O3 0.360009 0.544977 0.121248
O O4 0.310059 0.345556 0.028911
O O5 0.596887 0.334479 0.219836
O O6 0.758901 0.232600 0.308576
O O7 0.000000 0.500000 0.500000
O O8 0.112771 0.311421 0.260920
O O9 0.242884 0.459261 0.543349
O O10 0.879951 0.206406 0.242201
O O11 0.861415 0.380450 0.036540
O O12 0.500000 0.500000 0.500000
O O13 0.590122 0.728626 0.469646
O O14 0.521972 0.209393 0.872022
O O15 0.500000 0.500000 0.000000
O O16 0.500000 0.000000 0.000000
#
# Coordination Sequence:
#
# PCOD8041529 Si02
#       7
#     2   2   2   2   2   2   2
#     4  11  20  32  53  86 113 139 175 225 280 328
#     4  12  19  35  55  80 113 140 174 237 275 312
#     4  10  19  33  53  79 113 143 178 223 271 314
#     4  10  20  31  53  84 115 141 180 221 276 328
#     4   9  18  33  52  77 116 136 177 224 264 312
#     4  12  19  28  53  80 113 139 171 221 286 314
#     4  10  21  38  58  78 109 150 184 219 275 327
#
# _framework density 17.194580999999999
#
# number of rings (size 3 to 8) (size 9 to 14) (size 15 to 20)
#    0.857    0.571    8.571    0.000    0.000    3.429 
#    0.000    0.714    0.000    1.714    0.000    0.000 
#    0.000    0.000    0.000    0.000    0.000    0.000 
#
# Total GULP energy -173448.644462 kJ/mol
# GULP energy per Si atom -12389.188890 kJ/mol
# Density = 1.715544 g / cm^3
# Si number density = 17.194581 Si / 1000 Ang^3
#
#
#
# Elastic Constant Matrix: (Units=GPa)
#
#
# Indices 1 2 3 4 5 6 
#
# 1 128.5841 28.6046 49.9665 -15.7184 3.8626 2.1826
# 2 28.6046 64.7135 40.3740 -8.7972 -10.5462 2.9318
# 3 49.9665 40.3740 94.3674 -38.8984 -12.0108 -0.4994
# 4 -15.7184 -8.7972 -38.8984 40.2661 3.5153 -2.7704
# 5 3.8626 -10.5462 -12.0108 3.5153 35.3062 -10.3579
# 6 2.1826 2.9318 -0.4994 -2.7704 -10.3579 17.3114
#
#
#
# Elastic Compliance Matrix: (Units=1/GPa)
#
#
# Indices 1 2 3 4 5 6 
#
# 1 0.010629 -0.001459 -0.006713 -0.002540 -0.005005 -0.004688
# 2 -0.001459 0.023086 -0.011860 -0.007469 0.002693 -0.003652
# 3 -0.006713 -0.011860 0.030458 0.024324 0.008938 0.012974
# 4 -0.002540 -0.007469 0.024324 0.046119 0.005538 0.012981
# 5 -0.005005 0.002693 0.008938 0.005538 0.039482 0.024942
# 6 -0.004688 -0.003652 0.012974 0.012981 0.024942 0.076351
#
#
# Mechanical properties :
#
#
# Convention : Reuss Voigt Hill
#
# Bulk Modulus (GPa) = 41.47583 58.39505 49.93544
# Shear Modulus (GPa) = 18.23322 29.82473 24.02897
#
# Velocity S-wave (km/s) = 3.25992 4.16930 3.74234
# Velocity P-wave (km/s) = 6.19219 7.56389 6.91215
#
# Compressibility (1/GPa) = 0.02411043
#
# Stress axis : x y z
#
# Youngs Moduli (GPa) = 94.07794 43.31666 32.83218
#
# Poissons Ratio (x) = 0.06320 0.22039
# Poissons Ratio (y) = 0.13726 0.38938
# Poissons Ratio (z) = 0.63151 0.51373
#
# Static dielectric constant tensor:
#      x y z
#    x 3.543600 0.032230 -0.197150 
#    y 0.032230 2.918990 -0.524710 
#    z -0.197150 -0.524710 3.672070 
# 
# 
# High freq. dielectric constant tensor:
#      x y z
#    x 1.670210 0.002900 -0.001260 
#    y 0.002900 1.609790 -0.046060 
#    z -0.001260 -0.046060 1.662170 
# 
# From -- ./inp_files/453062.got.cif
#   From: 2010.06.25/outbox.cif.g09.slc.cpg/sg2_227_cif.got.tgz:453062.got - 2010.06.27 13:26:56.
