data_PCOD8041556
_publ_section_title
;
Structure prediction by ZEFSAII (Michael W. Deem and Ramdas Pophale) SiO2 
 PCOD8041556
Probable space group: P -1
;
_chemical_formula_sum "Si O2"
_cell_formula_units_Z 14
_cell_length_a 6.804399
_cell_length_b 14.542249
_cell_length_c 21.252444
_cell_angle_alpha 150.267924
_cell_angle_beta 66.338025
_cell_angle_gamma 92.556112
_cell_volume 709.988906
_symmetry_space_group_name_H-M "P -1"
_symmetry_group_IT_number 2
_symmetry_cell_setting 'triclinic'
loop_
_space_group_symop_operation_xyz
x,y,z
-x,-y,-z
loop_
_atom_site_type_symbol
_atom_site_label
_atom_site_fract_x
_atom_site_fract_y
_atom_site_fract_z
Si Si1 0.731641 0.209608 0.459678
Si Si2 0.287641 0.041901 0.103142
Si Si3 0.698236 0.496387 0.744433
Si Si4 0.627625 0.540108 0.920416
Si Si5 0.818590 0.528543 0.393895
Si Si6 0.078678 0.654064 0.106658
Si Si7 0.721486 0.898918 0.720947
O O1 0.704618 0.304483 0.590066
O O2 0.426572 0.404640 0.580628
O O3 0.959578 0.199315 0.385381
O O4 0.822487 0.943080 0.294077
O O5 0.323529 0.128373 0.216426
O O6 0.963823 0.263248 0.250381
O O7 0.500000 0.000000 0.000000
O O8 0.377432 0.775092 0.943967
O O9 0.755315 0.415253 0.761612
O O10 0.945388 0.494624 0.689672
O O11 0.882790 0.371979 0.838356
O O12 0.374884 0.541844 0.968920
O O13 0.514462 0.816418 0.102586
O O14 0.679924 0.738582 0.590150
O O15 0.000000 0.500000 0.000000
#
# Coordination Sequence:
#
# PCOD8041556 Si02
#       7
#     2   2   2   2   2   2   2
#     4  10  21  34  52  78 104 133 168 209 257 303
#     4   9  18  34  55  76 102 138 172 205 248 298
#     4   9  20  37  52  74 106 135 169 208 251 303
#     4   9  19  36  55  73 102 138 166 209 258 294
#     4  10  19  33  54  77 104 136 168 208 251 294
#     4  10  20  35  55  77  99 131 175 211 250 306
#     4   9  18  35  54  75 104 134 170 209 248 300
#
# _framework density 19.718616999999998
#
# number of rings (size 3 to 8) (size 9 to 14) (size 15 to 20)
#    0.000    2.571    0.000    1.286    0.000    4.000 
#    0.000   10.000    0.000    0.000    0.000    0.000 
#    0.000    0.000    0.000    0.000    0.000    0.000 
#
# Total GULP energy -173587.408625 kJ/mol
# GULP energy per Si atom -12399.100616 kJ/mol
# Density = 1.967374 g / cm^3
# Si number density = 19.718617 Si / 1000 Ang^3
#
#
#
# Elastic Constant Matrix: (Units=GPa)
#
#
# Indices 1 2 3 4 5 6 
#
# 1 67.8246 24.7372 24.0784 -2.2484 9.0199 -14.7815
# 2 24.7372 106.3415 27.1814 -18.1358 7.3527 -23.2740
# 3 24.0784 27.1814 70.1237 -13.3711 14.2452 -8.7530
# 4 -2.2484 -18.1358 -13.3711 34.9343 -11.4812 4.7591
# 5 9.0199 7.3527 14.2452 -11.4812 27.5957 6.2801
# 6 -14.7815 -23.2740 -8.7530 4.7591 6.2801 22.1090
#
#
#
# Elastic Compliance Matrix: (Units=1/GPa)
#
#
# Indices 1 2 3 4 5 6 
#
# 1 0.021247 -0.000639 -0.003937 -0.006389 -0.011160 0.016519
# 2 -0.000639 0.013969 -0.001946 0.003088 -0.004434 0.014103
# 3 -0.003937 -0.001946 0.019070 0.002831 -0.007885 0.004499
# 4 -0.006389 0.003088 0.002831 0.039086 0.019199 -0.013767
# 5 -0.011160 -0.004434 -0.007885 0.019199 0.061511 -0.036855
# 6 0.016519 0.014103 0.004499 -0.013767 -0.036855 0.086334
#
#
# Mechanical properties :
#
#
# Convention : Reuss Voigt Hill
#
# Bulk Modulus (GPa) = 24.24666 44.03155 34.13911
# Shear Modulus (GPa) = 18.65611 28.14733 23.40172
#
# Velocity S-wave (km/s) = 3.07924 3.78226 3.44871
# Velocity P-wave (km/s) = 4.99653 6.43835 5.76271
#
# Compressibility (1/GPa) = 0.04124279
#
# Stress axis : x y z
#
# Youngs Moduli (GPa) = 47.06521 71.58569 52.43872
#
# Poissons Ratio (x) = 0.04572 0.20647
# Poissons Ratio (y) = 0.03006 0.10203
# Poissons Ratio (z) = 0.18531 0.13928
#
# Static dielectric constant tensor:
#      x y z
#    x 3.206210 -0.164700 0.018810 
#    y -0.164700 3.817730 0.104630 
#    z 0.018810 0.104630 3.882890 
# 
# 
# High freq. dielectric constant tensor:
#      x y z
#    x 1.738760 -0.016630 0.006620 
#    y -0.016630 1.777870 0.001040 
#    z 0.006620 0.001040 1.777030 
# 
# From -- ./inp_files/33167.got.cif
#   From: 2010.06.25/outbox.cif.g09.slc.cpg/sg2_17_cif.got.tgz:33167.got - 2010.06.27 13:26:56.
