data_PCOD8041134
_publ_section_title
;
Structure prediction by ZEFSAII (Michael W. Deem and Ramdas Pophale) SiO2 
 PCOD8041134
Probable space group: P -1
;
_chemical_formula_sum "Si O2"
_cell_formula_units_Z 16
_cell_length_a 27.236876
_cell_length_b 11.416857
_cell_length_c 6.526418
_cell_angle_alpha 110.856510
_cell_angle_beta 61.865517
_cell_angle_gamma 152.386481
_cell_volume 819.978662
_symmetry_space_group_name_H-M "P -1"
_symmetry_group_IT_number 2
_symmetry_cell_setting 'triclinic'
loop_
_space_group_symop_operation_xyz
x,y,z
-x,-y,-z
loop_
_atom_site_type_symbol
_atom_site_label
_atom_site_fract_x
_atom_site_fract_y
_atom_site_fract_z
Si Si1 0.975181 0.200077 0.622676
Si Si2 0.124764 0.802365 0.462586
Si Si3 0.643281 0.377059 0.057978
Si Si4 0.215980 0.728171 0.291583
Si Si5 0.387415 0.917090 0.328087
Si Si6 0.157386 0.060755 0.884575
Si Si7 0.088040 0.121152 0.742851
Si Si8 0.278535 0.660570 0.786027
O O1 0.876811 0.095850 0.650702
O O2 0.102469 0.494287 0.507306
O O3 0.967018 0.041417 0.456130
O O4 0.950917 0.145740 0.878796
O O5 0.218390 0.875948 0.293373
O O6 0.000000 0.500000 0.500000
O O7 0.157066 0.921049 0.699158
O O8 0.730455 0.665835 0.048168
O O9 0.659613 0.325042 0.195689
O O10 0.519189 0.194672 0.191688
O O11 0.655654 0.305908 0.797173
O O12 0.323329 0.904347 0.330309
O O13 0.217448 0.643051 0.037233
O O14 0.368061 0.894758 0.596220
O O15 0.147713 0.125410 0.744443
O O16 0.178517 0.405372 0.684649
O O17 0.000000 0.000000 0.000000
#
# Coordination Sequence:
#
# PCOD8041134 Si02
#       8
#     2   2   2   2   2   2   2   2
#     4  10  20  34  54  78 106 143 171 210 269 320
#     4   9  21  38  52  74 109 139 178 222 255 314
#     4   9  20  38  52  81 107 133 180 216 256 316
#     4  10  21  33  50  80 105 132 182 217 253 312
#     4  10  20  34  58  77 105 141 174 217 261 310
#     4  10  21  35  56  76 104 145 175 214 266 311
#     4  10  19  31  48  79 114 133 164 216 258 319
#     4  10  19  33  53  78 107 142 167 212 268 314
#
# _framework density 19.512702999999998
#
# number of rings (size 3 to 8) (size 9 to 14) (size 15 to 20)
#    0.000    2.250    1.250    1.125    1.750    3.500 
#    0.000    0.625    0.000    1.500    0.000    0.000 
#    0.000    0.000    0.000    0.000    0.000    0.000 
#
# Total GULP energy -198234.233496 kJ/mol
# GULP energy per Si atom -12389.639594 kJ/mol
# Density = 1.946829 g / cm^3
# Si number density = 19.512703 Si / 1000 Ang^3
#
#
#
# Elastic Constant Matrix: (Units=GPa)
#
#
# Indices 1 2 3 4 5 6 
#
# 1 75.4878 18.2950 24.8615 -2.6482 -26.2125 5.8559
# 2 18.2950 74.5614 23.0489 7.3860 -14.7187 4.6736
# 3 24.8615 23.0489 71.3882 -3.8579 -6.1743 -5.1655
# 4 -2.6482 7.3860 -3.8579 28.4598 -1.9268 -5.8659
# 5 -26.2125 -14.7187 -6.1743 -1.9268 26.3288 -4.2584
# 6 5.8559 4.6736 -5.1655 -5.8659 -4.2584 20.1899
#
#
#
# Elastic Compliance Matrix: (Units=1/GPa)
#
#
# Indices 1 2 3 4 5 6 
#
# 1 0.022947 0.000607 -0.006502 0.001823 0.021235 -0.003451
# 2 0.000607 0.017587 -0.005983 -0.006021 0.007636 -0.005917
# 3 -0.006502 -0.005983 0.018801 0.005063 -0.003617 0.008789
# 4 0.001823 -0.006021 0.005063 0.041023 0.005089 0.015153
# 5 0.021235 0.007636 -0.003617 0.005089 0.063903 0.006105
# 6 -0.003451 -0.005917 0.008789 0.015153 0.006105 0.059839
#
#
# Mechanical properties :
#
#
# Convention : Reuss Voigt Hill
#
# Bulk Modulus (GPa) = 28.10640 39.31648 33.71144
# Shear Modulus (GPa) = 19.25193 25.34452 22.29822
#
# Velocity S-wave (km/s) = 3.14448 3.60790 3.38413
# Velocity P-wave (km/s) = 5.25539 6.12771 5.70824
#
# Compressibility (1/GPa) = 0.03557909
#
# Stress axis : x y z
#
# Youngs Moduli (GPa) = 43.57893 56.86070 53.18958
#
# Poissons Ratio (x) = -0.03453 0.34584
# Poissons Ratio (y) = -0.02646 0.31822
# Poissons Ratio (z) = 0.28335 0.34019
#
# Static dielectric constant tensor:
#      x y z
#    x 3.364110 0.076930 -0.263130 
#    y 0.076930 3.564840 0.318460 
#    z -0.263130 0.318460 3.509440 
# 
# 
# High freq. dielectric constant tensor:
#      x y z
#    x 1.750660 0.004510 -0.002780 
#    y 0.004510 1.738560 0.013170 
#    z -0.002780 0.013170 1.759010 
# 
# From -- ./inp_files/67317.got.cif
#   From: 2010.06.25/outbox.cif.g09.slc.cpg/sg2_34_cif.got.tgz:67317.got - 2010.06.27 13:26:56.
