data_PCOD8041490
_publ_section_title
;
Structure prediction by ZEFSAII (Michael W. Deem and Ramdas Pophale) SiO2 
 PCOD8041490
Probable space group: P -1
;
_chemical_formula_sum "Si O2"
_cell_formula_units_Z 14
_cell_length_a 19.103232
_cell_length_b 17.368521
_cell_length_c 11.388057
_cell_angle_alpha 149.153333
_cell_angle_beta 140.982980
_cell_angle_gamma 18.707528
_cell_volume 606.132962
_symmetry_space_group_name_H-M "P -1"
_symmetry_group_IT_number 2
_symmetry_cell_setting 'triclinic'
loop_
_space_group_symop_operation_xyz
x,y,z
-x,-y,-z
loop_
_atom_site_type_symbol
_atom_site_label
_atom_site_fract_x
_atom_site_fract_y
_atom_site_fract_z
Si Si1 0.711586 0.094298 0.769003
Si Si2 0.876603 0.165784 0.391007
Si Si3 0.695133 0.062578 0.975749
Si Si4 0.232211 0.297270 0.684347
Si Si5 0.751512 0.440993 0.820820
Si Si6 0.236947 0.344015 0.492562
Si Si7 0.770014 0.347253 0.226535
O O1 0.501019 0.344042 0.733375
O O2 0.863483 0.765153 0.508765
O O3 0.624532 0.178115 0.900043
O O4 0.847974 0.095661 0.937946
O O5 0.802047 0.081454 0.197734
O O6 0.748478 0.424358 0.654170
O O7 0.842946 0.271279 0.357350
O O8 0.134760 0.841295 0.341897
O O9 0.490152 0.263684 0.053405
O O10 0.849156 0.728065 0.745938
O O11 0.176338 0.443141 0.679154
O O12 0.500326 0.956711 0.586908
O O13 0.145487 0.513976 0.955707
O O14 0.127957 0.618524 0.648230
#
# Coordination Sequence:
#
# PCOD8041490 Si02
#       7
#     2   2   2   2   2   2   2
#     4   8  15  28  51  75  97 122 156 198 243 286
#     4  10  21  32  49  73  96 128 165 197 233 278
#     4   9  17  34  54  71  93 128 162 195 236 284
#     4   8  14  28  48  69  92 128 160 190 235 284
#     4  10  19  33  51  69  96 130 167 197 225 281
#     4   8  14  27  51  72  93 123 156 195 244 285
#     4   9  15  28  47  73 103 122 149 202 245 278
#
# _framework density 23.097242000000001
#
# number of rings (size 3 to 8) (size 9 to 14) (size 15 to 20)
#    0.000    3.143    0.000    3.000    0.000    0.000 
#    0.000   15.714    0.000   13.714    0.000    0.000 
#    0.000    0.000    0.000    0.000    0.000    0.000 
#
# Total GULP energy -173485.371610 kJ/mol
# GULP energy per Si atom -12391.812258 kJ/mol
# Density = 2.304467 g / cm^3
# Si number density = 23.097242 Si / 1000 Ang^3
#
#
#
# Elastic Constant Matrix: (Units=GPa)
#
#
# Indices 1 2 3 4 5 6 
#
# 1 103.2696 40.5295 82.2744 -4.6531 38.5599 14.4701
# 2 40.5295 66.4677 53.8702 3.8722 6.7891 25.9899
# 3 82.2744 53.8702 189.8798 -5.3410 13.5328 17.0149
# 4 -4.6531 3.8722 -5.3410 38.4736 -1.4523 5.4491
# 5 38.5599 6.7891 13.5328 -1.4523 41.8046 -6.0493
# 6 14.4701 25.9899 17.0149 5.4491 -6.0493 36.7681
#
#
#
# Elastic Compliance Matrix: (Units=1/GPa)
#
#
# Indices 1 2 3 4 5 6 
#
# 1 0.028619 -0.005221 -0.008408 0.003060 -0.023888 -0.008065
# 2 -0.005221 0.027956 -0.004281 -0.001861 -0.000655 -0.015558
# 3 -0.008408 -0.004281 0.009472 0.000548 0.005812 0.002827
# 4 0.003060 -0.001861 0.000548 0.027181 -0.002414 -0.004568
# 5 -0.023888 -0.000655 0.005812 -0.002414 0.046288 0.015148
# 6 -0.008065 -0.015558 0.002827 -0.004568 0.015148 0.043230
#
#
# Mechanical properties :
#
#
# Convention : Reuss Voigt Hill
#
# Bulk Modulus (GPa) = 33.08197 79.21837 56.15017
# Shear Modulus (GPa) = 21.86838 35.60546 28.73692
#
# Velocity S-wave (km/s) = 3.08034 3.93051 3.53111
# Velocity P-wave (km/s) = 5.19667 7.41423 6.40219
#
# Compressibility (1/GPa) = 0.03022795
#
# Stress axis : x y z
#
# Youngs Moduli (GPa) = 34.94239 35.77004 105.57488
#
# Poissons Ratio (x) = 0.18675 0.88765
# Poissons Ratio (y) = 0.18243 0.45195
# Poissons Ratio (z) = 0.29379 0.15313
#
# Static dielectric constant tensor:
#      x y z
#    x 3.998250 -0.298590 0.554950 
#    y -0.298590 4.543760 -0.103060 
#    z 0.554950 -0.103060 4.926120 
# 
# 
# High freq. dielectric constant tensor:
#      x y z
#    x 1.884990 -0.032460 0.030890 
#    y -0.032460 1.944230 0.020680 
#    z 0.030890 0.020680 1.938140 
# 
# From -- ./inp_files/429986.got.cif
#   From: 2010.06.25/outbox.cif.g09.slc.cpg/sg2_215_cif.got.tgz:429986.got - 2010.06.27 13:26:56.
