data_PCOD8041963
_publ_section_title
;
Structure prediction by ZEFSAII (Michael W. Deem and Ramdas Pophale) SiO2 
 PCOD8041963
Probable space group: P -1
;
_chemical_formula_sum "Si O2"
_cell_formula_units_Z 16
_cell_length_a 12.237346
_cell_length_b 8.748170
_cell_length_c 9.153625
_cell_angle_alpha 89.743047
_cell_angle_beta 68.046065
_cell_angle_gamma 68.246237
_cell_volume 833.862836
_symmetry_space_group_name_H-M "P -1"
_symmetry_group_IT_number 2
_symmetry_cell_setting 'triclinic'
loop_
_space_group_symop_operation_xyz
x,y,z
-x,-y,-z
loop_
_atom_site_type_symbol
_atom_site_label
_atom_site_fract_x
_atom_site_fract_y
_atom_site_fract_z
Si Si1 0.246106 0.941806 0.541726
Si Si2 0.770180 0.687849 0.783169
Si Si3 0.489326 0.844097 0.582802
Si Si4 0.487133 0.847604 0.926251
Si Si5 0.999483 0.066924 0.838644
Si Si6 0.759647 0.056595 0.792704
Si Si7 0.230860 0.312262 0.541977
Si Si8 0.003873 0.569530 0.153827
O O1 0.374263 0.811158 0.560035
O O2 0.245126 0.889556 0.374107
O O3 0.245910 0.123618 0.550923
O O4 0.122173 0.940169 0.688193
O O5 0.625839 0.695831 0.878495
O O6 0.814863 0.624696 0.598056
O O7 0.862973 0.550486 0.843356
O O8 0.776370 0.866518 0.806244
O O9 0.456363 0.885540 0.769970
O O10 0.627899 0.687500 0.495548
O O11 0.500000 0.000000 0.500000
O O12 0.371054 0.817343 0.063104
O O13 0.500000 0.000000 0.000000
O O14 0.875263 0.082252 0.811969
O O15 0.003443 0.245966 0.848423
O O16 0.000000 0.000000 0.000000
O O17 0.120645 0.434810 0.701035
O O18 0.000000 0.500000 0.000000
#
# Coordination Sequence:
#
# PCOD8041963 Si02
#       8
#     2   2   2   2   2   2   2   2
#     4   9  18  31  51  77 103 133 170 212 258 304
#     4   9  18  34  54  77 104 134 169 209 254 305
#     4   9  15  27  47  74 104 133 167 211 255 299
#     4   9  17  29  51  80 105 134 171 212 254 300
#     4  11  22  36  52  75 106 138 171 214 259 308
#     4  10  19  34  55  80 104 134 172 214 258 306
#     4   8  17  31  50  74 103 133 166 208 255 300
#     4  11  22  34  51  77 103 135 173 212 256 304
#
# _framework density 19.187808
#
# number of rings (size 3 to 8) (size 9 to 14) (size 15 to 20)
#    0.000    2.500    0.000    4.500    0.000    6.000 
#    0.000    1.875    0.000    0.000    0.000    7.875 
#    0.000    0.000    0.000    0.000    0.000    0.000 
#
# Total GULP energy -198294.475852 kJ/mol
# GULP energy per Si atom -12393.404741 kJ/mol
# Density = 1.914414 g / cm^3
# Si number density = 19.187808 Si / 1000 Ang^3
#
#
#
# Elastic Constant Matrix: (Units=GPa)
#
#
# Indices 1 2 3 4 5 6 
#
# 1 169.2538 28.1564 96.2132 3.5494 -0.5051 -26.0763
# 2 28.1564 41.8211 34.4241 -2.0561 1.8586 -16.0831
# 3 96.2132 34.4241 189.9632 2.8146 -5.2096 -23.5297
# 4 3.5494 -2.0561 2.8146 21.7767 -5.9264 2.8302
# 5 -0.5051 1.8586 -5.2096 -5.9264 39.6314 -2.3514
# 6 -26.0763 -16.0831 -23.5297 2.8302 -2.3514 28.4319
#
#
#
# Elastic Compliance Matrix: (Units=1/GPa)
#
#
# Indices 1 2 3 4 5 6 
#
# 1 0.008986 -0.001293 -0.003733 -0.001783 -0.000311 0.004573
# 2 -0.001293 0.033499 -0.003674 0.001707 -0.000956 0.014474
# 3 -0.003733 -0.003674 0.008022 -0.000627 0.001162 0.001296
# 4 -0.001783 0.001707 -0.000627 0.049025 0.006819 -0.005505
# 5 -0.000311 -0.000956 0.001162 0.006819 0.026544 0.001652
# 6 0.004573 0.014474 0.001296 -0.005505 0.001652 0.049310
#
#
# Mechanical properties :
#
#
# Convention : Reuss Voigt Hill
#
# Bulk Modulus (GPa) = 30.20463 79.84726 55.02595
# Shear Modulus (GPa) = 24.53117 34.11763 29.32440
#
# Velocity S-wave (km/s) = 3.57946 4.22131 3.91357
# Velocity P-wave (km/s) = 5.73229 8.09093 7.01150
#
# Compressibility (1/GPa) = 0.03310750
#
# Stress axis : x y z
#
# Youngs Moduli (GPa) = 111.28042 29.85176 124.65251
#
# Poissons Ratio (x) = 0.03859 0.46530
# Poissons Ratio (y) = 0.14385 0.45803
# Poissons Ratio (z) = 0.41539 0.10969
#
# Static dielectric constant tensor:
#      x y z
#    x 3.834150 -0.317750 -0.091470 
#    y -0.317750 3.029050 0.056310 
#    z -0.091470 0.056310 3.679870 
# 
# 
# High freq. dielectric constant tensor:
#      x y z
#    x 1.763400 -0.027600 -0.004970 
#    y -0.027600 1.689590 -0.000450 
#    z -0.004970 -0.000450 1.766600 
# 
# From -- ./inp_files/185902.got.cif
#   From: 2010.06.25/outbox.cif.g09.slc.cpg/sg2_93_cif.got.tgz:185902.got - 2010.06.27 13:26:56.
