data_PCOD8041697
_publ_section_title
;
Structure prediction by ZEFSAII (Michael W. Deem and Ramdas Pophale) SiO2 
 PCOD8041697
Probable space group: P -1
;
_chemical_formula_sum "Si O2"
_cell_formula_units_Z 14
_cell_length_a 12.276473
_cell_length_b 11.684829
_cell_length_c 9.425378
_cell_angle_alpha 54.202947
_cell_angle_beta 39.623211
_cell_angle_gamma 51.652050
_cell_volume 660.566961
_symmetry_space_group_name_H-M "P -1"
_symmetry_group_IT_number 2
_symmetry_cell_setting 'triclinic'
loop_
_space_group_symop_operation_xyz
x,y,z
-x,-y,-z
loop_
_atom_site_type_symbol
_atom_site_label
_atom_site_fract_x
_atom_site_fract_y
_atom_site_fract_z
Si Si1 0.224430 0.825948 0.828783
Si Si2 0.472942 0.456988 0.213829
Si Si3 0.908519 0.842417 0.329654
Si Si4 0.905386 0.704403 0.742459
Si Si5 0.095957 0.436801 0.595216
Si Si6 0.585747 0.635329 0.209382
Si Si7 0.783631 0.320808 0.339637
O O1 0.426930 0.719054 0.733369
O O2 0.145547 0.754061 0.829271
O O3 0.228824 0.989552 0.664877
O O4 0.107943 0.835225 0.082708
O O5 0.262694 0.492013 0.425169
O O6 0.551128 0.560239 0.154747
O O7 0.500000 0.500000 0.000000
O O8 0.910356 0.788957 0.528663
O O9 0.846210 0.741709 0.348825
O O10 0.956725 0.523285 0.795661
O O11 0.045105 0.740819 0.683086
O O12 0.702444 0.746710 0.980746
O O13 0.000000 0.500000 0.500000
O O14 0.703336 0.502426 0.292449
O O15 0.390437 0.729742 0.404049
#
# Coordination Sequence:
#
# PCOD8041697 Si02
#       7
#     2   2   2   2   2   2   2
#     4  10  23  41  59  84 128 161 201 252 305 363
#     4  11  19  34  61  89 119 153 199 253 301 353
#     4  10  22  41  59  86 121 164 207 248 301 364
#     4  11  20  38  67  91 120 157 208 252 302 361
#     4  10  19  33  56  90 115 144 201 250 291 350
#     4  10  21  36  59  95 124 152 196 260 307 352
#     4  10  21  39  60  91 124 159 199 251 310 359
#
# _framework density 21.193915000000001
#
# number of rings (size 3 to 8) (size 9 to 14) (size 15 to 20)
#    0.000    1.714    1.429    5.571    0.000    1.143 
#    0.000    0.714    0.000    0.000    0.000    0.000 
#    0.000    0.000    0.000    0.000    0.000    0.000 
#
# Total GULP energy -173473.103711 kJ/mol
# GULP energy per Si atom -12390.935979 kJ/mol
# Density = 2.114568 g / cm^3
# Si number density = 21.193915 Si / 1000 Ang^3
#
#
#
# Elastic Constant Matrix: (Units=GPa)
#
#
# Indices 1 2 3 4 5 6 
#
# 1 102.3847 19.3623 46.5501 -5.1684 -5.3412 -12.6078
# 2 19.3623 75.2791 7.1359 -8.5201 1.7369 -2.3707
# 3 46.5501 7.1359 114.8223 -0.6956 -9.5042 -9.7002
# 4 -5.1684 -8.5201 -0.6956 26.4264 -1.0558 -0.8578
# 5 -5.3412 1.7369 -9.5042 -1.0558 36.0266 2.9271
# 6 -12.6078 -2.3707 -9.7002 -0.8578 2.9271 16.2522
#
#
#
# Elastic Compliance Matrix: (Units=1/GPa)
#
#
# Indices 1 2 3 4 5 6 
#
# 1 0.013354 -0.002561 -0.004599 0.001915 0.000355 0.007278
# 2 -0.002561 0.014439 0.000136 0.004139 -0.000967 0.000593
# 3 -0.004599 0.000136 0.010946 -0.000404 0.001976 0.002609
# 4 0.001915 0.004139 -0.000404 0.039696 0.000833 0.003794
# 5 0.000355 -0.000967 0.001976 0.000833 0.028712 -0.003814
# 6 0.007278 0.000593 0.002609 0.003794 -0.003814 0.069707
#
#
# Mechanical properties :
#
#
# Convention : Reuss Voigt Hill
#
# Bulk Modulus (GPa) = 40.49889 48.73142 44.61515
# Shear Modulus (GPa) = 25.10903 30.37023 27.73963
#
# Velocity S-wave (km/s) = 3.44572 3.78956 3.62173
# Velocity P-wave (km/s) = 5.91446 6.49544 6.21175
#
# Compressibility (1/GPa) = 0.02469204
#
# Stress axis : x y z
#
# Youngs Moduli (GPa) = 74.88577 69.25643 91.35351
#
# Poissons Ratio (x) = 0.17736 0.42011
# Poissons Ratio (y) = 0.19178 -0.01243
# Poissons Ratio (z) = 0.34438 -0.00942
#
# Static dielectric constant tensor:
#      x y z
#    x 3.974710 0.091510 -0.055650 
#    y 0.091510 3.837910 0.099360 
#    z -0.055650 0.099360 3.988430 
# 
# 
# High freq. dielectric constant tensor:
#      x y z
#    x 1.829280 0.001940 0.006930 
#    y 0.001940 1.797460 0.015430 
#    z 0.006930 0.015430 1.839290 
# 
# From -- ./inp_files/256547.got.cif
#   From: 2010.06.25/outbox.cif.g09.slc.cpg/sg2_129_cif.got.tgz:256547.got - 2010.06.27 13:26:56.
