data_PCOD8041120
_publ_section_title
;
Structure prediction by ZEFSAII (Michael W. Deem and Ramdas Pophale) SiO2 
 PCOD8041120
Probable space group: P -1
;
_chemical_formula_sum "Si O2"
_cell_formula_units_Z 16
_cell_length_a 15.000449
_cell_length_b 13.669545
_cell_length_c 14.091524
_cell_angle_alpha 115.930944
_cell_angle_beta 150.557433
_cell_angle_gamma 45.715689
_cell_volume 889.048819
_symmetry_space_group_name_H-M "P -1"
_symmetry_group_IT_number 2
_symmetry_cell_setting 'triclinic'
loop_
_space_group_symop_operation_xyz
x,y,z
-x,-y,-z
loop_
_atom_site_type_symbol
_atom_site_label
_atom_site_fract_x
_atom_site_fract_y
_atom_site_fract_z
Si Si1 0.074567 0.545520 0.304125
Si Si2 0.011495 0.588379 0.970960
Si Si3 0.829222 0.876613 0.414917
Si Si4 0.424224 0.601272 0.657635
Si Si5 0.716802 0.825740 0.949781
Si Si6 0.342922 0.750521 0.832500
Si Si7 0.900204 0.920624 0.289909
Si Si8 0.162741 0.370663 0.675660
O O1 0.320424 0.521506 0.515093
O O2 0.129453 0.401337 0.249112
O O3 0.998089 0.559143 0.346757
O O4 0.828366 0.695461 0.077858
O O5 0.851816 0.756672 0.942118
O O6 0.305053 0.503819 0.190964
O O7 0.000000 0.500000 0.000000
O O8 0.862675 0.863200 0.325416
O O9 0.777768 0.777776 0.362748
O O10 0.099411 0.799407 0.681338
O O11 0.592843 0.057980 0.302293
O O12 0.468281 0.614346 0.814124
O O13 0.208586 0.778110 0.490091
O O14 0.744786 0.935785 0.063880
O O15 0.209681 0.911503 0.723505
O O16 0.561740 0.686679 0.083550
O O17 0.000000 0.500000 0.500000
#
# Coordination Sequence:
#
# PCOD8041120 Si02
#       8
#     2   2   2   2   2   2   2   2
#     4  10  20  37  52  79 116 147 179 226 267 324
#     4  10  22  31  52  81 118 153 180 209 266 334
#     4  11  20  36  53  83 115 142 175 230 284 330
#     4  10  19  34  53  81 116 146 178 214 274 333
#     4  10  19  33  55  81 119 144 175 215 271 338
#     4  11  21  33  58  84 107 145 177 223 291 334
#     4  10  19  30  59  80 115 146 169 224 282 340
#     4  12  23  37  58  81 108 144 189 236 280 319
#
# _framework density 17.996760999999999
#
# number of rings (size 3 to 8) (size 9 to 14) (size 15 to 20)
#    0.000    1.500    6.250    2.625    5.250    5.000 
#    0.000    0.000    0.000    0.750    0.000    1.750 
#    0.000    0.000    0.000    0.000    0.000    0.000 
#
# Total GULP energy -198271.805083 kJ/mol
# GULP energy per Si atom -12391.987818 kJ/mol
# Density = 1.795580 g / cm^3
# Si number density = 17.996761 Si / 1000 Ang^3
#
#
#
# Elastic Constant Matrix: (Units=GPa)
#
#
# Indices 1 2 3 4 5 6 
#
# 1 81.7469 38.9537 58.9058 -5.8754 18.6383 -11.8209
# 2 38.9537 71.9850 44.8929 7.6807 6.5248 -7.3637
# 3 58.9058 44.8929 140.9095 8.1142 23.2035 3.1590
# 4 -5.8754 7.6807 8.1142 25.2493 2.5170 4.2780
# 5 18.6383 6.5248 23.2035 2.5170 33.6369 -7.8823
# 6 -11.8209 -7.3637 3.1590 4.2780 -7.8823 20.8574
#
#
#
# Elastic Compliance Matrix: (Units=1/GPa)
#
#
# Indices 1 2 3 4 5 6 
#
# 1 0.024898 -0.008533 -0.007479 0.010030 -0.005867 0.007957
# 2 -0.008533 0.022366 -0.004145 -0.009352 0.005774 0.007788
# 3 -0.007479 -0.004145 0.012876 -0.002430 -0.005955 -0.009405
# 4 0.010030 -0.009352 -0.002430 0.048087 -0.008044 -0.010152
# 5 -0.005867 0.005774 -0.005955 -0.008044 0.040449 0.016551
# 6 0.007957 0.007788 -0.009405 -0.010152 0.016551 0.064965
#
#
# Mechanical properties :
#
#
# Convention : Reuss Voigt Hill
#
# Bulk Modulus (GPa) = 50.44529 64.46069 57.45299
# Shear Modulus (GPa) = 19.18920 26.07466 22.63193
#
# Velocity S-wave (km/s) = 3.26890 3.81051 3.55005
# Velocity P-wave (km/s) = 6.50682 7.43342 6.98550
#
# Compressibility (1/GPa) = 0.01982346
#
# Stress axis : x y z
#
# Youngs Moduli (GPa) = 40.16432 44.71139 77.66631
#
# Poissons Ratio (x) = 0.38152 0.58090
# Poissons Ratio (y) = 0.34272 0.32195
# Poissons Ratio (z) = 0.30041 0.18534
#
# Static dielectric constant tensor:
#      x y z
#    x 3.179120 -0.414100 0.231910 
#    y -0.414100 3.733880 0.376640 
#    z 0.231910 0.376640 3.400420 
# 
# 
# High freq. dielectric constant tensor:
#      x y z
#    x 1.653460 -0.019250 0.030470 
#    y -0.019250 1.692530 0.029160 
#    z 0.030470 0.029160 1.692400 
# 
# From -- ./inp_files/426571.got.cif
#   From: 2010.06.25/outbox.cif.g09.slc.cpg/sg2_214_cif.got.tgz:426571.got - 2010.06.27 13:26:56.
