data_PCOD8041898
_publ_section_title
;
Structure prediction by ZEFSAII (Michael W. Deem and Ramdas Pophale) SiO2 
 PCOD8041898
Probable space group: P -1
;
_chemical_formula_sum "Si O2"
_cell_formula_units_Z 10
_cell_length_a 14.724952
_cell_length_b 9.492058
_cell_length_c 12.063865
_cell_angle_alpha 30.206482
_cell_angle_beta 150.159077
_cell_angle_gamma 133.160642
_cell_volume 407.385833
_symmetry_space_group_name_H-M "P -1"
_symmetry_group_IT_number 2
_symmetry_cell_setting 'triclinic'
loop_
_space_group_symop_operation_xyz
x,y,z
-x,-y,-z
loop_
_atom_site_type_symbol
_atom_site_label
_atom_site_fract_x
_atom_site_fract_y
_atom_site_fract_z
Si Si1 0.281804 0.943006 0.975838
Si Si2 0.324294 0.348415 0.172552
Si Si3 0.998951 0.331228 0.227977
Si Si4 0.405039 0.351116 0.643274
Si Si5 0.400761 0.248404 0.080890
O O1 0.326773 0.624028 0.294638
O O2 0.465890 0.922660 0.104151
O O3 0.261184 0.205956 0.862603
O O4 0.078311 0.957123 0.688408
O O5 0.465991 0.558130 0.186965
O O6 0.276187 0.306884 0.021414
O O7 0.428902 0.039138 0.542891
O O8 0.135849 0.465574 0.964147
O O9 0.217213 0.265035 0.552820
O O10 0.000000 0.500000 0.000000
O O11 0.500000 0.500000 0.000000
#
# Coordination Sequence:
#
# PCOD8041898 Si02
#       5
#     2   2   2   2   2
#     4   8  15  28  49  75  98 129 172 203 245 305
#     4   9  19  34  54  78  98 131 176 201 246 312
#     4   9  15  29  56  78  97 131 169 212 254 287
#     4   8  14  29  53  75  97 128 168 214 250 285
#     4  10  19  34  53  73 106 139 162 205 254 295
#
# _framework density 24.546755999999998
#
# number of rings (size 3 to 8) (size 9 to 14) (size 15 to 20)
#    0.000    3.200    0.000    3.600    0.000    0.000 
#    0.000   22.000    0.000   36.000    0.000    0.000 
#    0.000    0.000    0.000    0.000    0.000    0.000 
#
# Total GULP energy -124015.988918 kJ/mol
# GULP energy per Si atom -12401.598892 kJ/mol
# Density = 2.449089 g / cm^3
# Si number density = 24.546756 Si / 1000 Ang^3
#
#
#
# Elastic Constant Matrix: (Units=GPa)
#
#
# Indices 1 2 3 4 5 6 
#
# 1 186.3018 104.6813 73.5822 17.9975 26.7317 -8.3908
# 2 104.6813 212.6649 76.4455 20.0504 12.6950 -12.6355
# 3 73.5822 76.4455 111.2887 20.3387 15.9331 -10.3434
# 4 17.9975 20.0504 20.3387 45.8190 -0.1222 -4.8432
# 5 26.7317 12.6950 15.9331 -0.1222 38.0668 3.3297
# 6 -8.3908 -12.6355 -10.3434 -4.8432 3.3297 60.3038
#
#
#
# Elastic Compliance Matrix: (Units=1/GPa)
#
#
# Indices 1 2 3 4 5 6 
#
# 1 0.008917 -0.002931 -0.003140 -0.000811 -0.003994 0.000243
# 2 -0.002931 0.007267 -0.003013 -0.000636 0.000850 0.000500
# 3 -0.003140 -0.003013 0.014339 -0.003688 -0.002914 0.001256
# 4 -0.000811 -0.000636 -0.003688 0.024164 0.002322 0.000934
# 5 -0.003994 0.000850 -0.002914 0.002322 0.030224 -0.002360
# 6 0.000243 0.000500 0.001256 0.000934 -0.002360 0.017142
#
#
# Mechanical properties :
#
#
# Convention : Reuss Voigt Hill
#
# Bulk Modulus (GPa) = 80.93275 113.29705 97.11490
# Shear Modulus (GPa) = 40.21245 45.87434 43.04339
#
# Velocity S-wave (km/s) = 4.05186 4.32772 4.19206
# Velocity P-wave (km/s) = 7.41165 8.43967 7.94231
#
# Compressibility (1/GPa) = 0.01235594
#
# Stress axis : x y z
#
# Youngs Moduli (GPa) = 112.14252 137.60738 69.74061
#
# Poissons Ratio (x) = 0.40339 0.21896
# Poissons Ratio (y) = 0.32874 0.21010
# Poissons Ratio (z) = 0.35208 0.41455
#
# Static dielectric constant tensor:
#      x y z
#    x 4.971400 0.013530 -0.316100 
#    y 0.013530 5.120110 0.272990 
#    z -0.316100 0.272990 4.907260 
# 
# 
# High freq. dielectric constant tensor:
#      x y z
#    x 2.000540 0.023610 -0.038940 
#    y 0.023610 1.993550 -0.008460 
#    z -0.038940 -0.008460 2.002310 
# 
# From -- ./inp_files/163446.got.cif
#   From: 2010.06.25/outbox.cif.g09.slc.cpg/sg2_82_cif.got.tgz:163446.got - 2010.06.27 13:26:56.
