data_PCOD8041242
_publ_section_title
;
Structure prediction by ZEFSAII (Michael W. Deem and Ramdas Pophale) SiO2 
 PCOD8041242
Probable space group: P -1
;
_chemical_formula_sum "Si O2"
_cell_formula_units_Z 16
_cell_length_a 8.249534
_cell_length_b 12.330447
_cell_length_c 22.498079
_cell_angle_alpha 24.351820
_cell_angle_beta 133.729896
_cell_angle_gamma 131.598993
_cell_volume 677.387714
_symmetry_space_group_name_H-M "P -1"
_symmetry_group_IT_number 2
_symmetry_cell_setting 'triclinic'
loop_
_space_group_symop_operation_xyz
x,y,z
-x,-y,-z
loop_
_atom_site_type_symbol
_atom_site_label
_atom_site_fract_x
_atom_site_fract_y
_atom_site_fract_z
Si Si1 0.455781 0.611334 0.727568
Si Si2 0.703297 0.577284 0.095275
Si Si3 0.180494 0.085886 0.403224
Si Si4 0.670900 0.597700 0.321086
Si Si5 0.209256 0.328500 0.510032
Si Si6 0.481117 0.089658 0.215214
Si Si7 0.184142 0.525236 0.276165
Si Si8 0.155952 0.776795 0.366139
O O1 0.442534 0.460984 0.862087
O O2 0.710657 0.707739 0.722352
O O3 0.336912 0.411214 0.747853
O O4 0.333516 0.871111 0.572561
O O5 0.670831 0.308965 0.180964
O O6 0.968878 0.670728 0.128211
O O7 0.610049 0.816333 0.917235
O O8 0.145111 0.239737 0.378173
O O9 0.954073 0.944405 0.388007
O O10 0.431886 0.677327 0.246164
O O11 0.717166 0.298054 0.503651
O O12 0.887845 0.804539 0.291976
O O13 0.162373 0.488624 0.359204
O O14 0.180003 0.510261 0.467655
O O15 0.450223 0.208934 0.628189
O O16 0.276166 0.044829 0.233689
#
# Coordination Sequence:
#
# PCOD8041242 Si02
#       8
#     2   2   2   2   2   2   2   2
#     4  10  20  35  60  92 118 159 200 255 300 345
#     4  11  23  42  63  88 126 157 204 245 308 360
#     4  10  19  31  62  93 118 145 206 260 291 336
#     4  10  22  37  62  91 121 154 201 261 293 348
#     4  12  20  38  64  94 117 158 207 249 299 353
#     4  11  25  39  62  91 126 162 192 252 308 362
#     4  11  20  36  64  93 117 154 208 256 284 351
#     4  11  23  39  61  91 128 156 200 250 306 358
#
# _framework density 23.620151
#
# number of rings (size 3 to 8) (size 9 to 14) (size 15 to 20)
#    0.000    1.250    5.000    1.500    3.500    0.000 
#    0.000    3.750   11.000    0.000    0.000    0.000 
#    0.000    0.000    0.000    0.000    0.000    0.000 
#
# Total GULP energy -198319.006621 kJ/mol
# GULP energy per Si atom -12394.937914 kJ/mol
# Density = 2.356639 g / cm^3
# Si number density = 23.620151 Si / 1000 Ang^3
#
#
#
# Elastic Constant Matrix: (Units=GPa)
#
#
# Indices 1 2 3 4 5 6 
#
# 1 80.0966 21.7492 24.1995 18.5588 -13.3798 20.5384
# 2 21.7492 38.8712 9.3861 17.1449 6.5987 16.8667
# 3 24.1995 9.3861 90.1027 31.5231 -20.8049 2.0492
# 4 18.5588 17.1449 31.5231 34.6581 -4.5790 1.6122
# 5 -13.3798 6.5987 -20.8049 -4.5790 30.0524 0.3643
# 6 20.5384 16.8667 2.0492 1.6122 0.3643 45.8824
#
#
#
# Elastic Compliance Matrix: (Units=1/GPa)
#
#
# Indices 1 2 3 4 5 6 
#
# 1 0.018581 -0.007526 -0.000487 -0.004342 0.008992 -0.005448
# 2 -0.007526 0.048174 0.001511 -0.022685 -0.016175 -0.013482
# 3 -0.000487 0.001511 0.019278 -0.016632 0.010272 -0.000696
# 4 -0.004342 -0.022685 -0.016632 0.057126 0.000129 0.009017
# 5 0.008992 -0.016175 0.010272 0.000129 0.047948 0.001077
# 6 -0.005448 -0.013482 -0.000696 0.009017 0.001077 0.028895
#
#
# Mechanical properties :
#
#
# Convention : Reuss Voigt Hill
#
# Bulk Modulus (GPa) = 13.69312 35.52665 24.60989
# Shear Modulus (GPa) = 19.42895 32.36764 25.89829
#
# Velocity S-wave (km/s) = 2.87114 3.70583 3.31486
# Velocity P-wave (km/s) = 4.09891 5.77792 5.00926
#
# Compressibility (1/GPa) = 0.07302938
#
# Stress axis : x y z
#
# Youngs Moduli (GPa) = 53.81894 20.75814 51.87219
#
# Poissons Ratio (x) = 0.15623 0.02526
# Poissons Ratio (y) = 0.40505 -0.07840
# Poissons Ratio (z) = 0.02621 -0.03138
#
# Static dielectric constant tensor:
#      x y z
#    x 4.632380 0.308490 -0.172020 
#    y 0.308490 4.362120 0.212980 
#    z -0.172020 0.212980 3.718660 
# 
# 
# High freq. dielectric constant tensor:
#      x y z
#    x 1.949430 0.010570 -0.018760 
#    y 0.010570 1.943240 0.020120 
#    z -0.018760 0.020120 1.882150 
# 
# From -- ./inp_files/589389.got.cif
#   From: 2010.06.25/outbox.cif.g09.slc.cpg/sg2_295_cif.got.tgz:589389.got - 2010.06.27 13:26:56.
