data_PCOD8041347
_publ_section_title
;
Structure prediction by ZEFSAII (Michael W. Deem and Ramdas Pophale) SiO2 
 PCOD8041347
Probable space group: P -1
;
_chemical_formula_sum "Si O2"
_cell_formula_units_Z 16
_cell_length_a 11.069125
_cell_length_b 11.696286
_cell_length_c 8.638024
_cell_angle_alpha 122.323875
_cell_angle_beta 63.371156
_cell_angle_gamma 128.500907
_cell_volume 728.255128
_symmetry_space_group_name_H-M "P -1"
_symmetry_group_IT_number 2
_symmetry_cell_setting 'triclinic'
loop_
_space_group_symop_operation_xyz
x,y,z
-x,-y,-z
loop_
_atom_site_type_symbol
_atom_site_label
_atom_site_fract_x
_atom_site_fract_y
_atom_site_fract_z
Si Si1 0.246086 0.454331 0.940846
Si Si2 0.341250 0.728759 0.578136
Si Si3 0.162166 0.646216 0.344217
Si Si4 0.224154 0.098547 0.401392
Si Si5 0.016562 0.236914 0.657135
Si Si6 0.494643 0.909556 0.244634
Si Si7 0.455482 0.758302 0.855413
Si Si8 0.618100 0.758147 0.279077
O O1 0.110640 0.356147 0.825354
O O2 0.390857 0.605273 0.887776
O O3 0.323659 0.358743 0.897443
O O4 0.165806 0.501453 0.156418
O O5 0.169780 0.636979 0.523554
O O6 0.324593 0.713966 0.762946
O O7 0.447928 0.662781 0.394478
O O8 0.440598 0.913459 0.612006
O O9 0.320884 0.807675 0.334978
O O10 0.020095 0.665998 0.378984
O O11 0.114983 0.169397 0.466119
O O12 0.381322 0.195432 0.284268
O O13 0.255693 0.121394 0.583597
O O14 0.138481 0.911297 0.285391
O O15 0.608622 0.848683 0.198935
O O16 0.484754 0.900452 0.055448
#
# Coordination Sequence:
#
# PCOD8041347 Si02
#       8
#     2   2   2   2   2   2   2   2
#     4  10  22  36  56  83 113 146 178 226 274 323
#     4  10  19  32  54  82 111 142 180 228 273 318
#     4  10  19  33  54  78 110 148 183 217 266 332
#     4   9  19  35  60  82 105 145 187 229 265 317
#     4  10  19  35  57  80 110 148 189 217 262 331
#     4  10  19  33  58  85 109 138 181 237 275 312
#     4  10  21  36  56  85 113 138 178 231 281 317
#     4   9  18  34  55  82 110 141 186 223 267 322
#
# _framework density 21.970321999999999
#
# number of rings (size 3 to 8) (size 9 to 14) (size 15 to 20)
#    0.000    2.250    0.000    4.500    0.000   10.000 
#    0.000    0.625    0.000   19.500    0.000    0.000 
#    0.000    0.000    0.000    0.000    0.000    0.000 
#
# Total GULP energy -198297.872942 kJ/mol
# GULP energy per Si atom -12393.617059 kJ/mol
# Density = 2.192032 g / cm^3
# Si number density = 21.970322 Si / 1000 Ang^3
#
#
#
# Elastic Constant Matrix: (Units=GPa)
#
#
# Indices 1 2 3 4 5 6 
#
# 1 130.3333 -5.4649 35.5971 2.7310 12.5730 -16.4283
# 2 -5.4649 21.2193 -3.9468 3.0421 2.6635 6.3503
# 3 35.5971 -3.9468 92.4006 6.0871 19.7127 -1.1715
# 4 2.7310 3.0421 6.0871 28.2116 -1.1509 8.7114
# 5 12.5730 2.6635 19.7127 -1.1509 26.8014 7.0161
# 6 -16.4283 6.3503 -1.1715 8.7114 7.0161 25.6226
#
#
#
# Elastic Compliance Matrix: (Units=1/GPa)
#
#
# Indices 1 2 3 4 5 6 
#
# 1 0.010067 0.000704 -0.002315 -0.003526 -0.005571 0.008899
# 2 0.000704 0.051985 0.003256 -0.003664 -0.005557 -0.009516
# 3 -0.002315 0.003256 0.014513 -0.004602 -0.010873 0.002914
# 4 -0.003526 -0.003664 -0.004602 0.043825 0.012490 -0.019883
# 5 -0.005571 -0.005557 -0.010873 0.012490 0.054752 -0.021931
# 6 0.008899 -0.009516 0.002914 -0.019883 -0.021931 0.059991
#
#
# Mechanical properties :
#
#
# Convention : Reuss Voigt Hill
#
# Bulk Modulus (GPa) = 12.52279 32.92490 22.72384
# Shear Modulus (GPa) = 19.34530 30.64499 24.99515
#
# Velocity S-wave (km/s) = 2.97057 3.73880 3.37661
# Velocity P-wave (km/s) = 4.18067 5.80145 5.05642
#
# Compressibility (1/GPa) = 0.07985443
#
# Stress axis : x y z
#
# Youngs Moduli (GPa) = 99.33067 19.23649 68.90433
#
# Poissons Ratio (x) = -0.01354 0.15949
# Poissons Ratio (y) = -0.06992 -0.22433
# Poissons Ratio (z) = 0.22992 -0.06263
#
# Static dielectric constant tensor:
#      x y z
#    x 4.361020 -0.144780 0.424420 
#    y -0.144780 3.667120 0.221660 
#    z 0.424420 0.221660 4.199830 
# 
# 
# High freq. dielectric constant tensor:
#      x y z
#    x 1.875130 -0.006920 0.019800 
#    y -0.006920 1.837600 0.025350 
#    z 0.019800 0.025350 1.860570 
# 
# From -- ./inp_files/260017.got.cif
#   From: 2010.06.25/outbox.cif.g09.slc.cpg/sg2_131_cif.got.tgz:260017.got - 2010.06.27 13:26:56.
