data_PCOD8041462
_publ_section_title
;
Structure prediction by ZEFSAII (Michael W. Deem and Ramdas Pophale) SiO2 
 PCOD8041462
Probable space group: P -1
;
_chemical_formula_sum "Si O2"
_cell_formula_units_Z 16
_cell_length_a 15.787407
_cell_length_b 8.145696
_cell_length_c 11.997022
_cell_angle_alpha 69.744874
_cell_angle_beta 130.895443
_cell_angle_gamma 70.229264
_cell_volume 661.409086
_symmetry_space_group_name_H-M "P -1"
_symmetry_group_IT_number 2
_symmetry_cell_setting 'triclinic'
loop_
_space_group_symop_operation_xyz
x,y,z
-x,-y,-z
loop_
_atom_site_type_symbol
_atom_site_label
_atom_site_fract_x
_atom_site_fract_y
_atom_site_fract_z
Si Si1 0.209375 0.819052 0.913998
Si Si2 0.039624 0.206554 0.291272
Si Si3 0.555872 0.410004 0.193403
Si Si4 0.653105 0.668489 0.237789
Si Si5 0.377773 0.800791 0.269501
Si Si6 0.976180 0.352603 0.446584
Si Si7 0.245266 0.555060 0.398746
Si Si8 0.083172 0.144465 0.105936
O O1 0.059525 0.856328 0.798164
O O2 0.404948 0.493317 0.118463
O O3 0.240572 0.893033 0.035088
O O4 0.144422 0.018166 0.705940
O O5 0.031515 0.312778 0.137902
O O6 0.960811 0.402513 0.287467
O O7 0.255496 0.926444 0.564451
O O8 0.560477 0.598805 0.204282
O O9 0.500000 0.500000 0.000000
O O10 0.786696 0.493433 0.287246
O O11 0.774474 0.545535 0.484278
O O12 0.500000 0.000000 0.000000
O O13 0.500000 0.500000 0.500000
O O14 0.534952 0.740336 0.376748
O O15 0.233125 0.059649 0.176453
O O16 0.000000 0.500000 0.500000
O O17 0.180838 0.836862 0.296660
O O18 0.114063 0.634581 0.174490
#
# Coordination Sequence:
#
# PCOD8041462 Si02
#       8
#     2   2   2   2   2   2   2   2
#     4  12  21  38  66  95 131 166 207 264 322 383
#     4  12  23  41  63  97 132 160 217 274 323 381
#     4  12  22  38  63  96 129 170 212 265 321 376
#     4  12  24  42  63  96 135 171 214 262 325 396
#     4  10  19  32  60  97 128 159 207 258 318 376
#     4  12  26  42  61  92 127 173 216 262 330 392
#     4  10  19  37  60  97 131 165 213 264 319 379
#     4  10  19  35  63  94 128 166 211 274 315 371
#
# _framework density 24.190776
#
# number of rings (size 3 to 8) (size 9 to 14) (size 15 to 20)
#    0.000    0.750    5.000    5.625    0.000    0.000 
#    0.000    0.000    0.000    3.750    0.000    0.000 
#    0.000    0.000    0.000    0.000    0.000    0.000 
#
# Total GULP energy -198232.575582 kJ/mol
# GULP energy per Si atom -12389.535974 kJ/mol
# Density = 2.413572 g / cm^3
# Si number density = 24.190776 Si / 1000 Ang^3
#
#
#
# Elastic Constant Matrix: (Units=GPa)
#
#
# Indices 1 2 3 4 5 6 
#
# 1 92.6125 36.9860 37.7253 5.0280 5.4637 -52.8853
# 2 36.9860 77.1397 32.0125 18.1796 0.9122 -47.1395
# 3 37.7253 32.0125 121.6332 12.8890 -0.2165 -27.7970
# 4 5.0280 18.1796 12.8890 29.7518 -13.0302 -8.8132
# 5 5.4637 0.9122 -0.2165 -13.0302 47.8378 -0.9540
# 6 -52.8853 -47.1395 -27.7970 -8.8132 -0.9540 51.9263
#
#
#
# Elastic Compliance Matrix: (Units=1/GPa)
#
#
# Indices 1 2 3 4 5 6 
#
# 1 0.029853 0.010199 -0.003310 0.000134 -0.002828 0.037863
# 2 0.010199 0.036807 -0.002244 -0.013390 -0.004722 0.040241
# 3 -0.003310 -0.002244 0.010005 -0.002675 -0.000273 -0.000511
# 4 0.000134 -0.013390 -0.002675 0.047047 0.012939 -0.005228
# 5 -0.002828 -0.004722 -0.000273 0.012939 0.024747 -0.004661
# 6 0.037863 0.040241 -0.000511 -0.005228 -0.004661 0.093105
#
#
# Mechanical properties :
#
#
# Convention : Reuss Voigt Hill
#
# Bulk Modulus (GPa) = 11.63385 56.09259 33.86322
# Shear Modulus (GPa) = 19.16262 38.21394 28.68828
#
# Velocity S-wave (km/s) = 2.81756 3.97884 3.44745
# Velocity P-wave (km/s) = 3.92486 6.65929 5.46584
#
# Compressibility (1/GPa) = 0.08595610
#
# Stress axis : x y z
#
# Youngs Moduli (GPa) = 33.49706 27.16890 99.95338
#
# Poissons Ratio (x) = -0.27711 0.33085
# Poissons Ratio (y) = -0.34165 0.22427
# Poissons Ratio (z) = 0.11088 0.06096
#
# Static dielectric constant tensor:
#      x y z
#    x 4.926180 -0.598950 0.452080 
#    y -0.598950 3.998050 0.128010 
#    z 0.452080 0.128010 5.236580 
# 
# 
# High freq. dielectric constant tensor:
#      x y z
#    x 1.966190 -0.046250 0.006570 
#    y -0.046250 1.919190 0.011690 
#    z 0.006570 0.011690 1.982860 
# 
# From -- ./inp_files/447210.got.cif
#   From: 2010.06.25/outbox.cif.g09.slc.cpg/sg2_224_cif.got.tgz:447210.got - 2010.06.27 13:26:56.
