data_PCOD8041617
_publ_section_title
;
Structure prediction by ZEFSAII (Michael W. Deem and Ramdas Pophale) SiO2 
 PCOD8041617
Probable space group: P -1
;
_chemical_formula_sum "Si O2"
_cell_formula_units_Z 14
_cell_length_a 8.599954
_cell_length_b 11.974246
_cell_length_c 13.863769
_cell_angle_alpha 41.005609
_cell_angle_beta 65.451511
_cell_angle_gamma 49.868986
_cell_volume 709.007223
_symmetry_space_group_name_H-M "P -1"
_symmetry_group_IT_number 2
_symmetry_cell_setting 'triclinic'
loop_
_space_group_symop_operation_xyz
x,y,z
-x,-y,-z
loop_
_atom_site_type_symbol
_atom_site_label
_atom_site_fract_x
_atom_site_fract_y
_atom_site_fract_z
Si Si1 0.259456 0.350824 0.448260
Si Si2 0.904010 0.298740 0.594944
Si Si3 0.549288 0.279706 0.149304
Si Si4 0.098713 0.702291 0.618342
Si Si5 0.118067 0.511020 0.174396
Si Si6 0.936780 0.070996 0.079176
Si Si7 0.299834 0.858799 0.588315
O O1 0.137014 0.243394 0.565707
O O2 0.172917 0.496835 0.282389
O O3 0.495833 0.170497 0.490047
O O4 0.241199 0.485324 0.456060
O O5 0.810933 0.326237 0.494236
O O6 0.907826 0.118558 0.768340
O O7 0.319805 0.326466 0.185184
O O8 0.700036 0.137249 0.115840
O O9 0.680793 0.181310 0.276985
O O10 0.500000 0.500000 0.000000
O O11 0.255573 0.699411 0.654910
O O12 0.066369 0.521731 0.773013
O O13 0.877140 0.912859 0.541167
O O14 0.043478 0.741957 0.015149
O O15 0.000000 0.000000 0.000000
#
# Coordination Sequence:
#
# PCOD8041617 Si02
#       7
#     2   2   2   2   2   2   2
#     4   9  19  33  55  82 105 137 182 230 262 315
#     4  10  19  33  55  82 108 139 181 222 273 313
#     4   9  19  34  55  81 105 137 177 224 269 311
#     4  10  21  35  56  81 109 144 180 217 270 324
#     4   9  19  34  53  83 107 135 181 222 267 314
#     4  11  19  32  54  81 107 137 173 228 268 311
#     4  10  20  36  57  79 110 143 179 221 269 319
#
# _framework density 19.745919000000001
#
# number of rings (size 3 to 8) (size 9 to 14) (size 15 to 20)
#    0.000    2.286    2.857    0.000    2.000    2.286 
#    0.000    2.857    0.000    0.857    0.000    0.000 
#    0.000    0.000    0.000    0.000    0.000    0.000 
#
# Total GULP energy -173507.859708 kJ/mol
# GULP energy per Si atom -12393.418551 kJ/mol
# Density = 1.970098 g / cm^3
# Si number density = 19.745919 Si / 1000 Ang^3
#
#
#
# Elastic Constant Matrix: (Units=GPa)
#
#
# Indices 1 2 3 4 5 6 
#
# 1 31.0858 16.9467 10.8934 1.7208 -4.8712 5.0564
# 2 16.9467 104.3966 18.0395 25.6913 -1.3883 6.9797
# 3 10.8934 18.0395 91.3277 1.9700 -9.3259 3.8221
# 4 1.7208 25.6913 1.9700 31.5233 0.4347 -6.0773
# 5 -4.8712 -1.3883 -9.3259 0.4347 15.4469 -4.6817
# 6 5.0564 6.9797 3.8221 -6.0773 -4.6817 19.7158
#
#
#
# Elastic Compliance Matrix: (Units=1/GPa)
#
#
# Indices 1 2 3 4 5 6 
#
# 1 0.038173 -0.005792 -0.002371 0.001762 0.008614 -0.004691
# 2 -0.005792 0.014533 -0.001948 -0.012929 -0.003809 -0.008172
# 3 -0.002371 -0.001948 0.012244 0.001019 0.006691 0.000827
# 4 0.001762 -0.012929 0.001019 0.045718 0.004508 0.019091
# 5 0.008614 -0.003809 0.006691 0.004508 0.076282 0.017345
# 6 -0.004691 -0.008172 0.000827 0.019091 0.017345 0.064660
#
#
# Mechanical properties :
#
#
# Convention : Reuss Voigt Hill
#
# Bulk Modulus (GPa) = 22.35756 35.39658 28.87707
# Shear Modulus (GPa) = 17.43724 25.39922 21.41823
#
# Velocity S-wave (km/s) = 2.97489 3.59040 3.29704
# Velocity P-wave (km/s) = 4.81115 5.92899 5.39908
#
# Compressibility (1/GPa) = 0.04472760
#
# Stress axis : x y z
#
# Youngs Moduli (GPa) = 26.19647 68.80775 81.67366
#
# Poissons Ratio (x) = 0.39855 0.19366
# Poissons Ratio (y) = 0.15174 0.15909
# Poissons Ratio (z) = 0.06212 0.13403
#
# Static dielectric constant tensor:
#      x y z
#    x 3.408310 -0.129030 -0.251760 
#    y -0.129030 3.922650 0.168200 
#    z -0.251760 0.168200 3.544620 
# 
# 
# High freq. dielectric constant tensor:
#      x y z
#    x 1.720140 -0.002810 -0.015120 
#    y -0.002810 1.783410 0.006610 
#    z -0.015120 0.006610 1.776030 
# 
# From -- ./inp_files/154015.got.cif
#   From: 2010.06.25/outbox.cif.g09.slc.cpg/sg2_78_cif.got.tgz:154015.got - 2010.06.27 13:26:56.
