data_PCOD8041191
_publ_section_title
;
Structure prediction by ZEFSAII (Michael W. Deem and Ramdas Pophale) SiO2 
 PCOD8041191
Probable space group: P -1
;
_chemical_formula_sum "Si O2"
_cell_formula_units_Z 14
_cell_length_a 12.555798
_cell_length_b 10.003330
_cell_length_c 13.765020
_cell_angle_alpha 33.959841
_cell_angle_beta 64.612891
_cell_angle_gamma 78.300212
_cell_volume 831.547474
_symmetry_space_group_name_H-M "P -1"
_symmetry_group_IT_number 2
_symmetry_cell_setting 'triclinic'
loop_
_space_group_symop_operation_xyz
x,y,z
-x,-y,-z
loop_
_atom_site_type_symbol
_atom_site_label
_atom_site_fract_x
_atom_site_fract_y
_atom_site_fract_z
Si Si1 0.854284 0.404345 0.110116
Si Si2 0.699806 0.895761 0.566244
Si Si3 0.421066 0.387866 0.403650
Si Si4 0.505633 0.010492 0.276199
Si Si5 0.297934 0.495826 0.052507
Si Si6 0.322254 0.314745 0.953145
Si Si7 0.604258 0.134827 0.802710
O O1 0.798474 0.597165 0.076506
O O2 0.807823 0.128796 0.341139
O O3 0.808799 0.402813 0.016046
O O4 0.000000 0.500000 0.000000
O O5 0.635422 0.710972 0.617471
O O6 0.598801 0.997889 0.597755
O O7 0.759575 0.735900 0.711852
O O8 0.565818 0.544866 0.245448
O O9 0.346207 0.569378 0.369074
O O10 0.410495 0.157764 0.618216
O O11 0.448096 0.900319 0.263821
O O12 0.599293 0.289789 0.059539
O O13 0.365961 0.393460 0.000110
O O14 0.291415 0.010767 0.140143
O O15 0.500000 0.000000 0.000000
#
# Coordination Sequence:
#
# PCOD8041191 Si02
#       7
#     2   2   2   2   2   2   2
#     4  10  21  36  53  79 105 134 186 231 256 298
#     4  12  19  33  58  78 110 138 174 219 268 314
#     4  11  19  31  51  84 110 142 168 208 269 324
#     4  12  17  33  52  81 113 139 171 214 261 325
#     4  10  19  31  54  78 104 139 168 214 268 306
#     4   9  17  34  47  76 111 137 168 213 263 307
#     4  10  21  30  47  79 116 144 168 202 263 331
#
# _framework density 16.836079999999999
#
# number of rings (size 3 to 8) (size 9 to 14) (size 15 to 20)
#    0.857    0.571    5.714    3.000    0.000    0.571 
#    0.000    0.000    0.000    0.857    0.000   10.000 
#    0.000    0.000    0.000    0.000    0.000    0.000 
#
# Total GULP energy -173463.576182 kJ/mol
# GULP energy per Si atom -12390.255442 kJ/mol
# Density = 1.679776 g / cm^3
# Si number density = 16.836080 Si / 1000 Ang^3
#
#
#
# Elastic Constant Matrix: (Units=GPa)
#
#
# Indices 1 2 3 4 5 6 
#
# 1 67.3966 22.0456 49.9864 -3.6400 0.8805 -5.7959
# 2 22.0456 100.1808 27.7534 -13.1605 5.5826 -4.1374
# 3 49.9864 27.7534 109.3115 -12.6832 19.6713 -6.0162
# 4 -3.6400 -13.1605 -12.6832 17.8259 0.7690 10.4757
# 5 0.8805 5.5826 19.6713 0.7690 29.7554 0.3419
# 6 -5.7959 -4.1374 -6.0162 10.4757 0.3419 20.0697
#
#
#
# Elastic Compliance Matrix: (Units=1/GPa)
#
#
# Indices 1 2 3 4 5 6 
#
# 1 0.026211 -0.003827 -0.013678 -0.013106 0.009216 0.009364
# 2 -0.003827 0.012181 0.000139 0.010879 -0.002497 -0.004189
# 3 -0.013678 0.000139 0.019013 0.014723 -0.012506 -0.005694
# 4 -0.013106 0.010879 0.014723 0.101964 -0.013446 -0.050121
# 5 0.009216 -0.002497 -0.012506 -0.013446 0.042364 0.004695
# 6 0.009364 -0.004189 -0.005694 -0.050121 0.004695 0.076042
#
#
# Mechanical properties :
#
#
# Convention : Reuss Voigt Hill
#
# Bulk Modulus (GPa) = 44.10729 52.93997 48.52363
# Shear Modulus (GPa) = 15.62175 25.33709 20.47942
#
# Velocity S-wave (km/s) = 3.04941 3.88355 3.49148
# Velocity P-wave (km/s) = 6.21719 7.18484 6.71846
#
# Compressibility (1/GPa) = 0.02267199
#
# Stress axis : x y z
#
# Youngs Moduli (GPa) = 38.15165 82.09407 52.59516
#
# Poissons Ratio (x) = 0.31420 0.71940
# Poissons Ratio (y) = 0.14602 -0.00729
# Poissons Ratio (z) = 0.52184 -0.01137
#
# Static dielectric constant tensor:
#      x y z
#    x 2.873080 -0.094910 0.488740 
#    y -0.094910 2.905860 -0.440210 
#    z 0.488740 -0.440210 3.099790 
# 
# 
# High freq. dielectric constant tensor:
#      x y z
#    x 1.612090 -0.002900 0.045210 
#    y -0.002900 1.645050 -0.010000 
#    z 0.045210 -0.010000 1.646740 
# 
# From -- ./inp_files/167793.got.cif
#   From: 2010.06.25/outbox.cif.g09.slc.cpg/sg2_84_cif.got.tgz:167793.got - 2010.06.27 13:26:56.
