data_PCOD8041977
_publ_section_title
;
Structure prediction by ZEFSAII (Michael W. Deem and Ramdas Pophale) SiO2 
 PCOD8041977
Probable space group: P -1
;
_chemical_formula_sum "Si O2"
_cell_formula_units_Z 14
_cell_length_a 11.723817
_cell_length_b 8.519616
_cell_length_c 16.259415
_cell_angle_alpha 108.786251
_cell_angle_beta 28.861863
_cell_angle_gamma 100.001648
_cell_volume 720.990290
_symmetry_space_group_name_H-M "P -1"
_symmetry_group_IT_number 2
_symmetry_cell_setting 'triclinic'
loop_
_space_group_symop_operation_xyz
x,y,z
-x,-y,-z
loop_
_atom_site_type_symbol
_atom_site_label
_atom_site_fract_x
_atom_site_fract_y
_atom_site_fract_z
Si Si1 0.772958 0.975864 0.351204
Si Si2 0.148133 0.698529 0.978822
Si Si3 0.949060 0.684147 0.603658
Si Si4 0.314806 0.909223 0.397701
Si Si5 0.521129 0.908563 0.818106
Si Si6 0.098746 0.219942 0.168437
Si Si7 0.819234 0.658100 0.035524
O O1 0.500000 0.000000 0.500000
O O2 0.795796 0.975905 0.435367
O O3 0.877326 0.130540 0.274976
O O4 0.927744 0.795030 0.191739
O O5 0.361333 0.796840 0.853439
O O6 0.254428 0.515592 0.922698
O O7 0.051481 0.679824 0.944904
O O8 0.000000 0.500000 0.500000
O O9 0.157737 0.772545 0.454489
O O10 0.951892 0.666886 0.697990
O O11 0.684302 0.796015 0.765239
O O12 0.593642 0.814902 0.224406
O O13 0.301493 0.034568 0.350129
O O14 0.346958 0.073465 0.998132
O O15 0.115607 0.343732 0.102517
#
# Coordination Sequence:
#
# PCOD8041977 Si02
#       7
#     2   2   2   2   2   2   2
#     4  10  19  34  55  84 112 144 181 223 276 327
#     4  10  21  35  58  82 116 149 178 233 270 339
#     4  11  22  39  58  83 114 144 185 239 278 317
#     4  10  21  36  60  83 113 145 187 230 270 333
#     4  10  21  38  59  82 111 149 192 218 278 329
#     4   9  22  37  59  79 111 150 187 226 270 339
#     4  10  20  38  55  85 114 145 189 220 285 326
#
# _framework density 19.417736000000001
#
# number of rings (size 3 to 8) (size 9 to 14) (size 15 to 20)
#    0.000    2.000    1.429    1.714    2.000    2.857 
#    0.000    8.571    0.000    0.000    0.000    0.000 
#    0.000    0.000    0.000    0.000    0.000    0.000 
#
# Total GULP energy -173649.583392 kJ/mol
# GULP energy per Si atom -12403.541671 kJ/mol
# Density = 1.937354 g / cm^3
# Si number density = 19.417736 Si / 1000 Ang^3
#
#
#
# Elastic Constant Matrix: (Units=GPa)
#
#
# Indices 1 2 3 4 5 6 
#
# 1 90.9808 48.9880 36.2789 -3.9392 5.0024 -1.9212
# 2 48.9880 89.6264 35.6673 -3.9652 16.6667 1.2925
# 3 36.2789 35.6673 75.9605 -12.3258 14.1730 -2.8728
# 4 -3.9392 -3.9652 -12.3258 30.2600 4.4160 -3.4671
# 5 5.0024 16.6667 14.1730 4.4160 34.5450 1.0054
# 6 -1.9212 1.2925 -2.8728 -3.4671 1.0054 30.1721
#
#
#
# Elastic Compliance Matrix: (Units=1/GPa)
#
#
# Indices 1 2 3 4 5 6 
#
# 1 0.017200 -0.008044 -0.005353 -0.001471 0.003756 0.000636
# 2 -0.008044 0.018133 -0.003454 0.000676 -0.006214 -0.001333
# 3 -0.005353 -0.003454 0.020117 0.008396 -0.006970 0.002920
# 4 -0.001471 0.000676 0.008396 0.038233 -0.008601 0.005357
# 5 0.003756 -0.006214 -0.006970 -0.008601 0.035429 -0.002327
# 6 0.000636 -0.001333 0.002920 0.005357 -0.002327 0.034212
#
#
# Mechanical properties :
#
#
# Convention : Reuss Voigt Hill
#
# Bulk Modulus (GPa) = 45.98082 55.38179 50.68131
# Shear Modulus (GPa) = 24.47675 28.03766 26.25720
#
# Velocity S-wave (km/s) = 3.55425 3.80402 3.68125
# Velocity P-wave (km/s) = 6.36984 6.91934 6.65027
#
# Compressibility (1/GPa) = 0.02174820
#
# Stress axis : x y z
#
# Youngs Moduli (GPa) = 58.13865 55.14758 49.70990
#
# Poissons Ratio (x) = 0.44358 0.26612
# Poissons Ratio (y) = 0.46764 0.17170
# Poissons Ratio (z) = 0.31124 0.19048
#
# Static dielectric constant tensor:
#      x y z
#    x 3.515720 0.047640 -0.008260 
#    y 0.047640 3.496890 -0.077090 
#    z -0.008260 -0.077090 3.599690 
# 
# 
# High freq. dielectric constant tensor:
#      x y z
#    x 1.757520 0.006200 -0.001210 
#    y 0.006200 1.750320 -0.006090 
#    z -0.001210 -0.006090 1.757970 
# 
# From -- ./inp_files/515823.got.cif
#   From: 2010.06.25/outbox.cif.g09.slc.cpg/sg2_258_cif.got.tgz:515823.got - 2010.06.27 13:26:56.
