data_PCOD8041354
_publ_section_title
;
Structure prediction by ZEFSAII (Michael W. Deem and Ramdas Pophale) SiO2 
 PCOD8041354
Probable space group: P -1
;
_chemical_formula_sum "Si O2"
_cell_formula_units_Z 16
_cell_length_a 22.027338
_cell_length_b 27.687897
_cell_length_c 15.184042
_cell_angle_alpha 13.964173
_cell_angle_beta 156.969548
_cell_angle_gamma 161.662208
_cell_volume 703.039814
_symmetry_space_group_name_H-M "P -1"
_symmetry_group_IT_number 2
_symmetry_cell_setting 'triclinic'
loop_
_space_group_symop_operation_xyz
x,y,z
-x,-y,-z
loop_
_atom_site_type_symbol
_atom_site_label
_atom_site_fract_x
_atom_site_fract_y
_atom_site_fract_z
Si Si1 0.652126 0.714862 0.197952
Si Si2 0.288704 0.252321 0.575878
Si Si3 0.486747 0.580405 0.936463
Si Si4 0.931742 0.767585 0.947607
Si Si5 0.163683 0.291990 0.703281
Si Si6 0.855763 0.391077 0.377822
Si Si7 0.164819 0.744931 0.593928
Si Si8 0.514707 0.007292 0.712128
O O1 0.414639 0.521639 0.218375
O O2 0.703723 0.712932 0.370691
O O3 0.746044 0.612485 0.442931
O O4 0.736515 0.985957 0.795863
O O5 0.380869 0.115780 0.902828
O O6 0.061761 0.067761 0.574826
O O7 0.288279 0.342373 0.133062
O O8 0.492741 0.830271 0.507058
O O9 0.500000 0.500000 0.000000
O O10 0.665972 0.636048 0.131448
O O11 0.953150 0.655585 0.085634
O O12 0.019896 0.711071 0.248480
O O13 0.050369 0.399118 0.397683
O O14 0.000000 0.000000 0.000000
O O15 0.858890 0.431452 0.204950
O O16 0.634591 0.198455 0.454107
O O17 0.304326 0.783354 0.790771
#
# Coordination Sequence:
#
# PCOD8041354 Si02
#       8
#     2   2   2   2   2   2   2   2
#     4  10  20  36  56  80 115 151 185 223 285 330
#     4  10  21  35  56  82 117 150 180 229 281 341
#     4  11  21  32  57  86 112 142 190 235 280 324
#     4   9  18  31  49  80 112 143 176 231 281 327
#     4  10  21  35  54  81 111 146 188 234 272 321
#     4   9  17  29  51  81 112 132 183 234 278 316
#     4  11  18  33  61  81 109 144 189 239 272 319
#     4  10  19  32  54  87 105 141 186 236 271 321
#
# _framework density 22.758313000000001
#
# number of rings (size 3 to 8) (size 9 to 14) (size 15 to 20)
#    0.000    2.000    5.000    1.875    1.750    0.000 
#    0.000    1.250    0.000    3.000    0.000    0.000 
#    0.000    0.000    0.000    0.000    0.000    0.000 
#
# Total GULP energy -198220.671937 kJ/mol
# GULP energy per Si atom -12388.791996 kJ/mol
# Density = 2.270651 g / cm^3
# Si number density = 22.758313 Si / 1000 Ang^3
#
#
#
# Elastic Constant Matrix: (Units=GPa)
#
#
# Indices 1 2 3 4 5 6 
#
# 1 140.5120 52.8169 22.5179 -7.8016 26.2869 -2.1401
# 2 52.8169 162.0076 12.2529 -18.1201 1.4671 10.5411
# 3 22.5179 12.2529 26.5035 -9.0467 -2.5331 1.3652
# 4 -7.8016 -18.1201 -9.0467 29.3053 6.4932 2.6494
# 5 26.2869 1.4671 -2.5331 6.4932 23.3609 -6.5612
# 6 -2.1401 10.5411 1.3652 2.6494 -6.5612 33.8265
#
#
#
# Elastic Compliance Matrix: (Units=1/GPa)
#
#
# Indices 1 2 3 4 5 6 
#
# 1 0.013188 -0.003022 -0.010597 0.002192 -0.016750 -0.001217
# 2 -0.003022 0.007749 0.000664 0.004211 0.001040 -0.002761
# 3 -0.010597 0.000664 0.051386 0.010375 0.014293 -0.000992
# 4 0.002192 0.004211 0.010375 0.044901 -0.016416 -0.008293
# 5 -0.016750 0.001040 0.014293 -0.016416 0.071402 0.013175
# 6 -0.001217 -0.002761 -0.000992 -0.008293 0.013175 0.033591
#
#
# Mechanical properties :
#
#
# Convention : Reuss Voigt Hill
#
# Bulk Modulus (GPa) = 21.54606 56.02206 38.78406
# Shear Modulus (GPa) = 18.96828 33.39422 26.18125
#
# Velocity S-wave (km/s) = 2.89011 3.83475 3.39544
# Velocity P-wave (km/s) = 4.54146 6.65406 5.69655
#
# Compressibility (1/GPa) = 0.04641220
#
# Stress axis : x y z
#
# Youngs Moduli (GPa) = 75.82770 129.05411 19.46046
#
# Poissons Ratio (x) = 0.38998 0.20623
# Poissons Ratio (y) = 0.22914 -0.01292
# Poissons Ratio (z) = 0.80358 -0.08570
#
# Static dielectric constant tensor:
#      x y z
#    x 2.868610 -0.996520 0.190200 
#    y -0.996520 3.812750 -0.314610 
#    z 0.190200 -0.314610 3.759740 
# 
# 
# High freq. dielectric constant tensor:
#      x y z
#    x 1.898160 -0.000240 0.019680 
#    y -0.000240 1.914660 -0.012520 
#    z 0.019680 -0.012520 1.853090 
# 
# From -- ./inp_files/541848.got.cif
#   From: 2010.06.25/outbox.cif.g09.slc.cpg/sg2_271_cif.got.tgz:541848.got - 2010.06.27 13:26:56.
