data_PCOD8041175
_publ_section_title
;
Structure prediction by ZEFSAII (Michael W. Deem and Ramdas Pophale) SiO2 
 PCOD8041175
Probable space group: P -1
;
_chemical_formula_sum "Si O2"
_cell_formula_units_Z 16
_cell_length_a 15.673732
_cell_length_b 20.324765
_cell_length_c 5.269301
_cell_angle_alpha 107.236089
_cell_angle_beta 95.729790
_cell_angle_gamma 30.030289
_cell_volume 758.009521
_symmetry_space_group_name_H-M "P -1"
_symmetry_group_IT_number 2
_symmetry_cell_setting 'triclinic'
loop_
_space_group_symop_operation_xyz
x,y,z
-x,-y,-z
loop_
_atom_site_type_symbol
_atom_site_label
_atom_site_fract_x
_atom_site_fract_y
_atom_site_fract_z
Si Si1 0.452238 0.144779 0.651545
Si Si2 0.224010 0.668464 0.779054
Si Si3 0.103675 0.884018 0.179744
Si Si4 0.919190 0.778782 0.868630
Si Si5 0.792759 0.804904 0.361289
Si Si6 0.578025 0.119295 0.160320
Si Si7 0.719885 0.170037 0.260696
Si Si8 0.607271 0.384145 0.675995
O O1 0.266022 0.233484 0.711056
O O2 0.455114 0.186358 0.441117
O O3 0.617160 0.975929 0.506554
O O4 0.465353 0.184866 0.945871
O O5 0.397207 0.546703 0.898837
O O6 0.330313 0.595713 0.458604
O O7 0.113969 0.676684 0.796121
O O8 0.088061 0.830168 0.915006
O O9 0.231512 0.751890 0.251655
O O10 0.188855 0.888461 0.058284
O O11 0.892044 0.050401 0.386911
O O12 0.903444 0.740030 0.577307
O O13 0.912962 0.737471 0.074008
O O14 0.764250 0.945918 0.016373
O O15 0.613663 0.174829 0.257988
O O16 0.583529 0.329411 0.442659
#
# Coordination Sequence:
#
# PCOD8041175 Si02
#       8
#     2   2   2   2   2   2   2   2
#     4   9  18  31  51  78 112 144 170 228 284 337
#     4  10  21  36  52  81 104 149 194 226 278 323
#     4  10  20  36  54  73 111 144 185 236 274 325
#     4  10  19  32  53  80 109 143 183 229 269 340
#     4   9  18  32  50  79 112 140 177 224 288 329
#     4  10  19  31  53  80 111 142 183 222 277 339
#     4  10  21  34  50  83 106 147 187 227 277 329
#     4  10  22  36  54  73 113 148 188 234 274 327
#
# _framework density 21.107915999999999
#
# number of rings (size 3 to 8) (size 9 to 14) (size 15 to 20)
#    0.000    2.250    1.250    1.500    3.500    4.000 
#    0.000    0.000    0.000    0.000    0.000    5.250 
#    0.000    0.000    0.000    0.000    0.000    0.000 
#
# Total GULP energy -198269.291687 kJ/mol
# GULP energy per Si atom -12391.830730 kJ/mol
# Density = 2.105987 g / cm^3
# Si number density = 21.107916 Si / 1000 Ang^3
#
#
#
# Elastic Constant Matrix: (Units=GPa)
#
#
# Indices 1 2 3 4 5 6 
#
# 1 180.8961 40.6793 57.1994 -10.5933 -23.7584 -18.3038
# 2 40.6793 80.6790 40.4576 -2.5878 -4.7752 -7.9522
# 3 57.1994 40.4576 95.1274 -13.4375 -19.9662 0.4701
# 4 -10.5933 -2.5878 -13.4375 39.7823 5.0484 2.4823
# 5 -23.7584 -4.7752 -19.9662 5.0484 32.6693 0.8204
# 6 -18.3038 -7.9522 0.4701 2.4823 0.8204 24.8055
#
#
#
# Elastic Compliance Matrix: (Units=1/GPa)
#
#
# Indices 1 2 3 4 5 6 
#
# 1 0.007940 -0.001563 -0.003428 0.000105 0.003301 0.005303
# 2 -0.001563 0.017011 -0.007158 -0.001654 -0.002887 0.004697
# 3 -0.003428 -0.007158 0.017641 0.004084 0.006757 -0.005791
# 4 0.000105 -0.001654 0.004084 0.026855 -0.001740 -0.003160
# 5 0.003301 -0.002887 0.006757 -0.001740 0.036979 0.000333
# 6 0.005303 0.004697 -0.005791 -0.003160 0.000333 0.046147
#
#
# Mechanical properties :
#
#
# Convention : Reuss Voigt Hill
#
# Bulk Modulus (GPa) = 54.66004 70.37502 62.51753
# Shear Modulus (GPa) = 27.32708 34.00917 30.66813
#
# Velocity S-wave (km/s) = 3.60201 4.01834 3.81585
# Velocity P-wave (km/s) = 6.57655 7.41231 7.00690
#
# Compressibility (1/GPa) = 0.01829490
#
# Stress axis : x y z
#
# Youngs Moduli (GPa) = 125.94992 58.78444 56.68484
#
# Poissons Ratio (x) = 0.09187 0.19431
# Poissons Ratio (y) = 0.19685 0.40575
# Poissons Ratio (z) = 0.43174 0.42078
#
# Static dielectric constant tensor:
#      x y z
#    x 3.823680 0.018010 0.201960 
#    y 0.018010 3.873180 0.097320 
#    z 0.201960 0.097320 4.739770 
# 
# 
# High freq. dielectric constant tensor:
#      x y z
#    x 1.821640 -0.000560 0.000430 
#    y -0.000560 1.802930 -0.019690 
#    z 0.000430 -0.019690 1.842010 
# 
# From -- ./inp_files/39776.got.cif
#   From: 2010.06.25/outbox.cif.g09.slc.cpg/sg2_20_cif.got.tgz:39776.got - 2010.06.27 13:26:56.
