data_PCOD8041253
_publ_section_title
;
Structure prediction by ZEFSAII (Michael W. Deem and Ramdas Pophale) SiO2 
 PCOD8041253
Probable space group: P -1
;
_chemical_formula_sum "Si O2"
_cell_formula_units_Z 10
_cell_length_a 11.565561
_cell_length_b 10.807288
_cell_length_c 6.354585
_cell_angle_alpha 108.728791
_cell_angle_beta 95.343332
_cell_angle_gamma 130.593402
_cell_volume 518.366382
_symmetry_space_group_name_H-M "P -1"
_symmetry_group_IT_number 2
_symmetry_cell_setting 'triclinic'
loop_
_space_group_symop_operation_xyz
x,y,z
-x,-y,-z
loop_
_atom_site_type_symbol
_atom_site_label
_atom_site_fract_x
_atom_site_fract_y
_atom_site_fract_z
Si Si1 0.747189 0.204092 0.290116
Si Si2 0.030365 0.437154 0.770702
Si Si3 0.679669 0.514921 0.108465
Si Si4 0.450954 0.367720 0.608261
Si Si5 0.456356 0.157264 0.183474
O O1 0.861911 0.392201 0.278495
O O2 0.576033 0.140312 0.286835
O O3 0.850637 0.249382 0.541322
O O4 0.703691 0.036771 0.064343
O O5 0.132700 0.388989 0.817683
O O6 0.000000 0.500000 0.000000
O O7 0.686289 0.667789 0.290531
O O8 0.555286 0.326041 0.124655
O O9 0.612815 0.466080 0.832003
O O10 0.500000 0.500000 0.500000
O O11 0.386466 0.181818 0.386152
#
# Coordination Sequence:
#
# PCOD8041253 Si02
#       5
#     2   2   2   2   2
#     4   9  19  32  49  75  99 123 158 193 236 287
#     4  10  19  32  49  71 101 129 153 192 240 285
#     4   9  18  31  51  74  93 124 165 193 232 286
#     4   9  17  31  51  71  94 124 160 201 236 273
#     4   9  17  32  52  73  97 123 157 200 234 275
#
# _framework density 19.291376
#
# number of rings (size 3 to 8) (size 9 to 14) (size 15 to 20)
#    0.000    2.800    0.000    1.200    0.000    3.200 
#    0.000    7.000    0.000   12.000    0.000    0.000 
#    0.000    0.000    0.000    0.000    0.000    0.000 
#
# Total GULP energy -123940.442543 kJ/mol
# GULP energy per Si atom -12394.044254 kJ/mol
# Density = 1.924747 g / cm^3
# Si number density = 19.291376 Si / 1000 Ang^3
#
#
#
# Elastic Constant Matrix: (Units=GPa)
#
#
# Indices 1 2 3 4 5 6 
#
# 1 148.9597 13.0203 104.8332 11.7823 -3.9012 -8.7014
# 2 13.0203 10.0721 19.7829 7.1478 5.4035 -5.2041
# 3 104.8332 19.7829 196.1755 17.3228 -5.2622 -7.5172
# 4 11.7823 7.1478 17.3228 31.5606 -8.9042 0.2211
# 5 -3.9012 5.4035 -5.2622 -8.9042 45.0898 2.2811
# 6 -8.7014 -5.2041 -7.5172 0.2211 2.2811 18.8206
#
#
#
# Elastic Compliance Matrix: (Units=1/GPa)
#
#
# Indices 1 2 3 4 5 6 
#
# 1 0.010945 -0.001897 -0.005511 -0.000562 0.000304 0.002304
# 2 -0.001897 0.225840 -0.015774 -0.054309 -0.042886 0.061106
# 3 -0.005511 -0.015774 0.009464 0.001292 0.002950 -0.003502
# 4 -0.000562 -0.054309 0.001292 0.048418 0.017052 -0.017396
# 5 0.000304 -0.042886 0.002950 0.017052 0.031794 -0.014593
# 6 0.002304 0.061106 -0.003502 -0.017396 -0.014593 0.071670
#
#
# Mechanical properties :
#
#
# Convention : Reuss Voigt Hill
#
# Bulk Modulus (GPa) = 5.00289 70.05336 37.52812
# Shear Modulus (GPa) = 9.78238 33.59890 21.69064
#
# Velocity S-wave (km/s) = 2.25430 4.17784 3.35680
# Velocity P-wave (km/s) = 3.06183 7.72429 5.87535
#
# Compressibility (1/GPa) = 0.19988451
#
# Stress axis : x y z
#
# Youngs Moduli (GPa) = 91.36800 4.42791 105.66159
#
# Poissons Ratio (x) = 0.00840 0.58234
# Poissons Ratio (y) = 0.17333 1.66669
# Poissons Ratio (z) = 0.50356 0.06985
#
# Static dielectric constant tensor:
#      x y z
#    x 4.054390 -0.150460 -0.104300 
#    y -0.150460 3.256540 -0.075710 
#    z -0.104300 -0.075710 3.941790 
# 
# 
# High freq. dielectric constant tensor:
#      x y z
#    x 1.758560 -0.017040 -0.006550 
#    y -0.017040 1.704530 -0.010300 
#    z -0.006550 -0.010300 1.766910 
# 
# From -- ./inp_files/16388.got.cif
#   From: 2010.06.25/outbox.cif.g09.slc.cpg/sg2_9_cif.got.tgz:16388.got - 2010.06.27 13:26:56.
