data_PCOD8041907
_publ_section_title
;
Structure prediction by ZEFSAII (Michael W. Deem and Ramdas Pophale) SiO2 
 PCOD8041907
Probable space group: P -1
;
_chemical_formula_sum "Si O2"
_cell_formula_units_Z 16
_cell_length_a 11.466693
_cell_length_b 14.277540
_cell_length_c 17.435497
_cell_angle_alpha 21.515166
_cell_angle_beta 126.656620
_cell_angle_gamma 129.682307
_cell_volume 805.623417
_symmetry_space_group_name_H-M "P -1"
_symmetry_group_IT_number 2
_symmetry_cell_setting 'triclinic'
loop_
_space_group_symop_operation_xyz
x,y,z
-x,-y,-z
loop_
_atom_site_type_symbol
_atom_site_label
_atom_site_fract_x
_atom_site_fract_y
_atom_site_fract_z
Si Si1 0.518076 0.717913 0.135756
Si Si2 0.382434 0.055541 0.149816
Si Si3 0.857227 0.686527 0.095512
Si Si4 0.996318 0.994695 0.771394
Si Si5 0.743454 0.208653 0.927275
Si Si6 0.138404 0.593614 0.337645
Si Si7 0.532159 0.166734 0.503744
Si Si8 0.743502 0.097578 0.504010
O O1 0.560269 0.446753 0.344030
O O2 0.650957 0.911961 0.090199
O O3 0.358575 0.656513 0.163908
O O4 0.502693 0.861499 0.939594
O O5 0.265929 0.765993 0.312223
O O6 0.476226 0.053783 0.265485
O O7 0.290543 0.276408 0.948562
O O8 0.903582 0.910080 0.877932
O O9 0.816273 0.385644 0.273838
O O10 0.994988 0.716464 0.186999
O O11 0.874477 0.955185 0.684239
O O12 0.091672 0.302062 0.577230
O O13 0.114201 0.817596 0.945324
O O14 0.800395 0.399485 0.731164
O O15 0.666663 0.157613 0.506577
O O16 0.372705 0.097287 0.449717
#
# Coordination Sequence:
#
# PCOD8041907 Si02
#       8
#     2   2   2   2   2   2   2   2
#     4  10  21  38  57  85 115 142 181 227 273 330
#     4  11  20  33  54  85 113 144 180 220 280 332
#     4  10  19  34  53  82 113 144 177 224 277 329
#     4  10  19  37  58  79 109 152 181 223 277 322
#     4   9  20  38  60  82 112 146 180 224 275 329
#     4   9  20  33  55  84 112 142 180 226 271 332
#     4  11  22  36  55  81 113 148 184 226 273 323
#     4  10  22  37  54  80 113 146 187 229 267 323
#
# _framework density 19.860396999999999
#
# number of rings (size 3 to 8) (size 9 to 14) (size 15 to 20)
#    0.000    2.000    2.500    1.125    0.000    3.000 
#    0.000    4.375    0.000    7.500    0.000    0.000 
#    0.000    0.000    0.000    0.000    0.000    0.000 
#
# Total GULP energy -198363.288076 kJ/mol
# GULP energy per Si atom -12397.705505 kJ/mol
# Density = 1.981519 g / cm^3
# Si number density = 19.860397 Si / 1000 Ang^3
#
#
#
# Elastic Constant Matrix: (Units=GPa)
#
#
# Indices 1 2 3 4 5 6 
#
# 1 77.5368 24.3896 25.1411 8.7831 5.1694 0.6758
# 2 24.3896 59.3899 21.5375 15.2866 4.2682 3.4078
# 3 25.1411 21.5375 79.9030 13.6989 -11.8661 -2.3711
# 4 8.7831 15.2866 13.6989 29.4031 4.7130 2.0474
# 5 5.1694 4.2682 -11.8661 4.7130 22.7843 -0.3592
# 6 0.6758 3.4078 -2.3711 2.0474 -0.3592 21.0110
#
#
#
# Elastic Compliance Matrix: (Units=1/GPa)
#
#
# Indices 1 2 3 4 5 6 
#
# 1 0.016208 -0.004692 -0.004784 0.000732 -0.005449 -0.000465
# 2 -0.004692 0.022633 -0.003948 -0.007706 -0.003689 -0.003278
# 3 -0.004784 -0.003948 0.018407 -0.007446 0.013012 0.003820
# 4 0.000732 -0.007706 -0.007446 0.043415 -0.011644 -0.004044
# 5 -0.005449 -0.003689 0.013012 -0.011644 0.055070 0.004318
# 6 -0.000465 -0.003278 0.003820 -0.004044 0.004318 0.049040
#
#
# Mechanical properties :
#
#
# Convention : Reuss Voigt Hill
#
# Bulk Modulus (GPa) = 32.89390 39.88515 36.38952
# Shear Modulus (GPa) = 20.68213 24.35709 22.51961
#
# Velocity S-wave (km/s) = 3.23054 3.50582 3.37099
# Velocity P-wave (km/s) = 5.52392 6.04269 5.78912
#
# Compressibility (1/GPa) = 0.03040077
#
# Stress axis : x y z
#
# Youngs Moduli (GPa) = 61.69636 44.18270 54.32778
#
# Poissons Ratio (x) = 0.20729 0.25989
# Poissons Ratio (y) = 0.28946 0.21451
# Poissons Ratio (z) = 0.29514 0.17445
#
# Static dielectric constant tensor:
#      x y z
#    x 3.608820 0.182750 -0.122090 
#    y 0.182750 3.379370 0.131680 
#    z -0.122090 0.131680 3.552770 
# 
# 
# High freq. dielectric constant tensor:
#      x y z
#    x 1.762940 0.018270 -0.013110 
#    y 0.018270 1.751330 0.013750 
#    z -0.013110 0.013750 1.780060 
# 
# From -- ./inp_files/66419.got.cif
#   From: 2010.06.25/outbox.cif.g09.slc.cpg/sg2_34_cif.got.tgz:66419.got - 2010.06.27 13:26:56.
