data_PCOD8041311
_publ_section_title
;
Structure prediction by ZEFSAII (Michael W. Deem and Ramdas Pophale) SiO2 
 PCOD8041311
Probable space group: P -1
;
_chemical_formula_sum "Si O2"
_cell_formula_units_Z 14
_cell_length_a 11.492177
_cell_length_b 8.250419
_cell_length_c 6.977110
_cell_angle_alpha 101.583637
_cell_angle_beta 116.010064
_cell_angle_gamma 99.585896
_cell_volume 557.544024
_symmetry_space_group_name_H-M "P -1"
_symmetry_group_IT_number 2
_symmetry_cell_setting 'triclinic'
loop_
_space_group_symop_operation_xyz
x,y,z
-x,-y,-z
loop_
_atom_site_type_symbol
_atom_site_label
_atom_site_fract_x
_atom_site_fract_y
_atom_site_fract_z
Si Si1 0.632124 0.914270 0.784334
Si Si2 0.370641 0.723139 0.044743
Si Si3 0.162993 0.368323 0.814550
Si Si4 0.067099 0.508216 0.256779
Si Si5 0.330055 0.153745 0.759838
Si Si6 0.115383 0.178133 0.129319
Si Si7 0.669006 0.208268 0.408969
O O1 0.738112 0.848238 0.715310
O O2 0.475884 0.813274 0.596099
O O3 0.656918 0.879533 0.014268
O O4 0.660346 0.120641 0.819874
O O5 0.279919 0.538245 0.006427
O O6 0.340464 0.748691 0.808617
O O7 0.526500 0.729363 0.188265
O O8 0.218942 0.258104 0.670297
O O9 0.033469 0.426604 0.655593
O O10 0.117689 0.247613 0.934075
O O11 0.079467 0.318451 0.278957
O O12 0.216601 0.637595 0.378048
O O13 0.000000 0.500000 0.000000
O O14 0.289965 0.969804 0.578847
O O15 0.000000 0.000000 0.000000
#
# Coordination Sequence:
#
# PCOD8041311 Si02
#       7
#     2   2   2   2   2   2   2
#     4   8  16  32  56  79 104 137 169 212 261 306
#     4   9  16  31  56  84 106 127 165 216 268 312
#     4  10  19  32  53  78 107 137 168 213 260 304
#     4  10  22  36  51  72 105 143 181 215 246 302
#     4   8  16  31  54  81 107 132 162 211 268 317
#     4  10  20  36  55  72 100 145 182 209 253 307
#     4   9  18  34  54  80 107 134 171 211 262 315
#
# _framework density 25.110125
#
# number of rings (size 3 to 8) (size 9 to 14) (size 15 to 20)
#    0.000    2.857    0.000    3.000    0.000    1.714 
#    0.000    2.857    0.000   30.857    0.000    0.000 
#    0.000    0.000    0.000    0.000    0.000    0.000 
#
# Total GULP energy -173513.421882 kJ/mol
# GULP energy per Si atom -12393.815849 kJ/mol
# Density = 2.505297 g / cm^3
# Si number density = 25.110125 Si / 1000 Ang^3
#
#
#
# Elastic Constant Matrix: (Units=GPa)
#
#
# Indices 1 2 3 4 5 6 
#
# 1 200.3500 94.3259 44.8046 32.5725 32.2860 -56.3567
# 2 94.3259 154.0099 45.1447 44.8019 28.4728 -18.2286
# 3 44.8046 45.1447 71.1482 30.4048 33.1623 -15.0431
# 4 32.5725 44.8019 30.4048 46.3045 12.6753 5.3129
# 5 32.2860 28.4728 33.1623 12.6753 34.2331 5.3107
# 6 -56.3567 -18.2286 -15.0431 5.3129 5.3107 56.9700
#
#
#
# Elastic Compliance Matrix: (Units=1/GPa)
#
#
# Indices 1 2 3 4 5 6 
#
# 1 0.014598 -0.002572 0.011938 -0.011917 -0.021870 0.019920
# 2 -0.002572 0.011779 0.001483 -0.009313 -0.005829 0.003028
# 3 0.011938 0.001483 0.054868 -0.033883 -0.058589 0.035393
# 4 -0.011917 -0.009313 -0.033883 0.054956 0.036461 -0.032240
# 5 -0.021870 -0.005829 -0.058589 0.036461 0.106049 -0.052256
# 6 0.019920 0.003028 0.035393 -0.032240 -0.052256 0.055451
#
#
# Mechanical properties :
#
#
# Convention : Reuss Voigt Hill
#
# Bulk Modulus (GPa) = 9.71431 88.22872 48.97151
# Shear Modulus (GPa) = 16.11250 43.58370 29.84810
#
# Velocity S-wave (km/s) = 2.53588 4.17070 3.45148
# Velocity P-wave (km/s) = 3.52864 7.64238 5.95219
#
# Compressibility (1/GPa) = 0.10294097
#
# Stress axis : x y z
#
# Youngs Moduli (GPa) = 68.50414 84.89761 18.22549
#
# Poissons Ratio (x) = 0.21836 -0.21757
# Poissons Ratio (y) = 0.17620 -0.02702
# Poissons Ratio (z) = -0.81777 -0.12587
#
# Static dielectric constant tensor:
#      x y z
#    x 6.028400 -0.932080 0.236730 
#    y -0.932080 5.084670 0.242650 
#    z 0.236730 0.242650 4.155640 
# 
# 
# High freq. dielectric constant tensor:
#      x y z
#    x 2.015360 -0.010910 0.004480 
#    y -0.010910 2.007680 -0.000140 
#    z 0.004480 -0.000140 1.977210 
# 
# From -- ./inp_files/240697.got.cif
#   From: 2010.06.25/outbox.cif.g09.slc.cpg/sg2_121_cif.got.tgz:240697.got - 2010.06.27 13:26:56.
