data_PCOD8041948
_publ_section_title
;
Structure prediction by ZEFSAII (Michael W. Deem and Ramdas Pophale) SiO2 
 PCOD8041948
Probable space group: P -1
;
_chemical_formula_sum "Si O2"
_cell_formula_units_Z 14
_cell_length_a 15.237716
_cell_length_b 13.536901
_cell_length_c 16.470478
_cell_angle_alpha 34.756002
_cell_angle_beta 26.554343
_cell_angle_gamma 53.414726
_cell_volume 725.937673
_symmetry_space_group_name_H-M "P -1"
_symmetry_group_IT_number 2
_symmetry_cell_setting 'triclinic'
loop_
_space_group_symop_operation_xyz
x,y,z
-x,-y,-z
loop_
_atom_site_type_symbol
_atom_site_label
_atom_site_fract_x
_atom_site_fract_y
_atom_site_fract_z
Si Si1 0.503608 0.418438 0.966141
Si Si2 0.983949 0.784781 0.256893
Si Si3 0.659539 0.999056 0.797406
Si Si4 0.164563 0.915448 0.850010
Si Si5 0.461357 0.953003 0.820470
Si Si6 0.370941 0.764767 0.660668
Si Si7 0.205822 0.321542 0.132757
O O1 0.747807 0.570891 0.616587
O O2 0.500000 0.500000 0.000000
O O3 0.453667 0.194932 0.175367
O O4 0.290469 0.391061 0.108078
O O5 0.981749 0.992337 0.124109
O O6 0.045893 0.761208 0.128813
O O7 0.180148 0.822869 0.133613
O O8 0.926656 0.187883 0.454473
O O9 0.544722 0.026622 0.793331
O O10 0.668854 0.792538 0.929067
O O11 0.500000 0.000000 0.000000
O O12 0.175200 0.785563 0.854506
O O13 0.408336 0.116204 0.542398
O O14 0.581043 0.144633 0.530566
O O15 0.291642 0.529080 0.870916
#
# Coordination Sequence:
#
# PCOD8041948 Si02
#       7
#     2   2   2   2   2   2   2
#     4  11  22  35  59  92 122 160 195 246 311 365
#     4  10  19  34  54  91 126 155 199 243 296 370
#     4  10  24  47  63  85 118 166 212 256 297 352
#     4   9  19  33  58  89 130 159 184 240 313 374
#     4  10  23  37  59  89 123 153 204 255 290 365
#     4  10  19  38  60  88 122 158 195 245 311 360
#     4  10  23  42  66  86 120 162 207 252 301 366
#
# _framework density 19.285401
#
# number of rings (size 3 to 8) (size 9 to 14) (size 15 to 20)
#    0.000    2.000    1.429    1.286    6.000    2.857 
#    2.571    0.714    0.000    0.000    0.000    0.000 
#    0.000    0.000    0.000    0.000    0.000    0.000 
#
# Total GULP energy -173560.615657 kJ/mol
# GULP energy per Si atom -12397.186833 kJ/mol
# Density = 1.924151 g / cm^3
# Si number density = 19.285401 Si / 1000 Ang^3
#
#
#
# Elastic Constant Matrix: (Units=GPa)
#
#
# Indices 1 2 3 4 5 6 
#
# 1 126.2725 37.4424 35.6420 -5.1822 -4.2374 4.4542
# 2 37.4424 85.0307 32.2977 0.1555 13.9703 13.0248
# 3 35.6420 32.2977 85.7106 -15.9138 6.5897 4.6816
# 4 -5.1822 0.1555 -15.9138 31.3171 -6.7078 4.9891
# 5 -4.2374 13.9703 6.5897 -6.7078 26.6029 -0.5633
# 6 4.4542 13.0248 4.6816 4.9891 -0.5633 30.0517
#
#
#
# Elastic Compliance Matrix: (Units=1/GPa)
#
#
# Indices 1 2 3 4 5 6 
#
# 1 0.010185 -0.004344 -0.002785 0.001235 0.004919 0.000694
# 2 -0.004344 0.018063 -0.004718 -0.004463 -0.010259 -0.005901
# 3 -0.002785 -0.004718 0.016163 0.008001 0.000018 -0.001388
# 4 0.001235 -0.004463 0.008001 0.039373 0.010363 -0.005837
# 5 0.004919 -0.010259 0.000018 0.010363 0.046430 0.002864
# 6 0.000694 -0.005901 -0.001388 -0.005837 0.002864 0.036970
#
#
# Mechanical properties :
#
#
# Convention : Reuss Voigt Hill
#
# Bulk Modulus (GPa) = 48.26913 56.41979 52.34446
# Shear Modulus (GPa) = 25.28024 30.36980 27.82502
#
# Velocity S-wave (km/s) = 3.62449 3.97262 3.80254
# Velocity P-wave (km/s) = 6.52680 7.09655 6.81763
#
# Compressibility (1/GPa) = 0.02071717
#
# Stress axis : x y z
#
# Youngs Moduli (GPa) = 98.18544 55.36256 61.86901
#
# Poissons Ratio (x) = 0.24047 0.17233
# Poissons Ratio (y) = 0.42648 0.29189
# Poissons Ratio (z) = 0.27349 0.26119
#
# Static dielectric constant tensor:
#      x y z
#    x 3.613820 -0.172250 0.094520 
#    y -0.172250 3.558880 0.158960 
#    z 0.094520 0.158960 3.662910 
# 
# 
# High freq. dielectric constant tensor:
#      x y z
#    x 1.752980 -0.016160 0.004720 
#    y -0.016160 1.746250 0.002040 
#    z 0.004720 0.002040 1.747400 
# 
# From -- ./inp_files/253297.got.cif
#   From: 2010.06.25/outbox.cif.g09.slc.cpg/sg2_127_cif.got.tgz:253297.got - 2010.06.27 13:26:56.
