data_PCOD8041559
_publ_section_title
;
Structure prediction by ZEFSAII (Michael W. Deem and Ramdas Pophale) SiO2 
 PCOD8041559
Probable space group: P -1
;
_chemical_formula_sum "Si O2"
_cell_formula_units_Z 16
_cell_length_a 8.533289
_cell_length_b 18.957086
_cell_length_c 8.207692
_cell_angle_alpha 70.290541
_cell_angle_beta 118.745398
_cell_angle_gamma 69.383546
_cell_volume 857.161372
_symmetry_space_group_name_H-M "P -1"
_symmetry_group_IT_number 2
_symmetry_cell_setting 'triclinic'
loop_
_space_group_symop_operation_xyz
x,y,z
-x,-y,-z
loop_
_atom_site_type_symbol
_atom_site_label
_atom_site_fract_x
_atom_site_fract_y
_atom_site_fract_z
Si Si1 0.334784 0.499848 0.031357
Si Si2 0.537094 0.355148 0.530273
Si Si3 0.807131 0.989451 0.096527
Si Si4 0.959048 0.501467 0.785286
Si Si5 0.710529 0.150400 0.698828
Si Si6 0.656544 0.847415 0.660717
Si Si7 0.555026 0.011826 0.267352
Si Si8 0.110246 0.642493 0.096213
O O1 0.481986 0.403407 0.287809
O O2 0.198556 0.595212 0.999385
O O3 0.500000 0.500000 0.000000
O O4 0.161344 0.501145 0.817788
O O5 0.294887 0.403509 0.463366
O O6 0.677835 0.242232 0.676507
O O7 0.680723 0.377896 0.684131
O O8 0.733680 0.002671 0.238229
O O9 0.753608 0.086094 0.926168
O O10 0.671054 0.961255 0.952409
O O11 0.076842 0.905129 0.276604
O O12 0.982241 0.408124 0.818291
O O13 0.000000 0.500000 0.000000
O O14 0.483330 0.183344 0.467289
O O15 0.681340 0.912514 0.504642
O O16 0.525358 0.902672 0.717285
O O17 0.911206 0.754921 0.896949
#
# Coordination Sequence:
#
# PCOD8041559 Si02
#       8
#     2   2   2   2   2   2   2   2
#     4  10  20  35  56  81 106 131 169 218 264 309
#     4  10  19  35  55  75 103 141 176 208 257 315
#     4   9  19  35  53  75 104 137 176 222 265 310
#     4   8  16  33  54  73 100 132 166 204 252 306
#     4  10  19  33  54  77 104 139 176 216 267 314
#     4  10  19  33  54  77 104 140 177 216 266 314
#     4   9  19  35  53  75 104 137 177 221 264 313
#     4  10  19  35  55  75 103 141 176 207 256 317
#
# _framework density 18.666263000000001
#
# number of rings (size 3 to 8) (size 9 to 14) (size 15 to 20)
#    0.000    2.750    0.000    4.500    0.000    2.500 
#    0.000    8.750    0.000    0.000    0.000    0.000 
#    0.000    0.000    0.000    0.000    0.000    0.000 
#
# Total GULP energy -198323.432426 kJ/mol
# GULP energy per Si atom -12395.214527 kJ/mol
# Density = 1.862378 g / cm^3
# Si number density = 18.666263 Si / 1000 Ang^3
#
#
#
# Elastic Constant Matrix: (Units=GPa)
#
#
# Indices 1 2 3 4 5 6 
#
# 1 145.8012 46.4709 46.1511 -1.2523 12.0758 0.2535
# 2 46.4709 105.7820 39.6266 -5.1865 4.2840 13.1911
# 3 46.1511 39.6266 92.2481 -7.3198 23.6972 4.1878
# 4 -1.2523 -5.1865 -7.3198 30.2032 2.6870 6.0304
# 5 12.0758 4.2840 23.6972 2.6870 30.3328 9.2870
# 6 0.2535 13.1911 4.1878 6.0304 9.2870 22.6536
#
#
#
# Elastic Compliance Matrix: (Units=1/GPa)
#
#
# Indices 1 2 3 4 5 6 
#
# 1 0.008944 -0.003278 -0.002879 -0.001420 -0.001779 0.003448
# 2 -0.003278 0.014092 -0.005421 0.002487 0.006549 -0.010514
# 3 -0.002879 -0.005421 0.018331 0.003731 -0.014151 0.004608
# 4 -0.001420 0.002487 0.003731 0.036779 -0.002643 -0.010829
# 5 -0.001779 0.006549 -0.014151 -0.002643 0.050527 -0.021188
# 6 0.003448 -0.010514 0.004608 -0.010829 -0.021188 0.060943
#
#
# Mechanical properties :
#
#
# Convention : Reuss Voigt Hill
#
# Bulk Modulus (GPa) = 54.91099 67.59203 61.25151
# Shear Modulus (GPa) = 22.84746 30.74343 26.79544
#
# Velocity S-wave (km/s) = 3.50236 4.06273 3.79291
# Velocity P-wave (km/s) = 6.77027 7.63526 7.21573
#
# Compressibility (1/GPa) = 0.01821129
#
# Stress axis : x y z
#
# Youngs Moduli (GPa) = 111.80870 70.96160 54.55202
#
# Poissons Ratio (x) = 0.23264 0.15703
# Poissons Ratio (y) = 0.36655 0.29573
# Poissons Ratio (z) = 0.32185 0.38468
#
# Static dielectric constant tensor:
#      x y z
#    x 3.847380 0.268070 0.424840 
#    y 0.268070 3.387600 0.107590 
#    z 0.424840 0.107590 3.527630 
# 
# 
# High freq. dielectric constant tensor:
#      x y z
#    x 1.717410 0.015300 0.023910 
#    y 0.015300 1.722640 -0.001770 
#    z 0.023910 -0.001770 1.722660 
# 
# From -- ./inp_files/217553.got.cif
#   From: 2010.06.25/outbox.cif.g09.slc.cpg/sg2_109_cif.got.tgz:217553.got - 2010.06.27 13:26:56.
