data_PCOD8041209
_publ_section_title
;
Structure prediction by ZEFSAII (Michael W. Deem and Ramdas Pophale) SiO2 
 PCOD8041209
Probable space group: P -1
;
_chemical_formula_sum "Si O2"
_cell_formula_units_Z 14
_cell_length_a 12.233324
_cell_length_b 8.389931
_cell_length_c 13.676443
_cell_angle_alpha 81.233199
_cell_angle_beta 30.338060
_cell_angle_gamma 84.641839
_cell_volume 698.679271
_symmetry_space_group_name_H-M "P -1"
_symmetry_group_IT_number 2
_symmetry_cell_setting 'triclinic'
loop_
_space_group_symop_operation_xyz
x,y,z
-x,-y,-z
loop_
_atom_site_type_symbol
_atom_site_label
_atom_site_fract_x
_atom_site_fract_y
_atom_site_fract_z
Si Si1 0.848553 0.863529 0.742987
Si Si2 0.941247 0.224888 0.606227
Si Si3 0.117983 0.355012 0.656634
Si Si4 0.873726 0.302180 0.314711
Si Si5 0.478503 0.605473 0.102100
Si Si6 0.234943 0.539327 0.955957
Si Si7 0.456150 0.655971 0.580617
O O1 0.633229 0.770246 0.960020
O O2 0.894045 0.791877 0.608105
O O3 0.053614 0.840429 0.658731
O O4 0.815358 0.052834 0.745838
O O5 0.086175 0.290178 0.578519
O O6 0.768022 0.351338 0.699147
O O7 0.192345 0.548351 0.579087
O O8 0.313090 0.262458 0.566197
O O9 0.893558 0.329123 0.894600
O O10 0.674511 0.234002 0.404274
O O11 0.075253 0.375043 0.084344
O O12 0.500000 0.500000 0.000000
O O13 0.546632 0.500669 0.151848
O O14 0.294597 0.611493 0.798612
O O15 0.500000 0.500000 0.500000
#
# Coordination Sequence:
#
# PCOD8041209 Si02
#       7
#     2   2   2   2   2   2   2
#     4  10  23  38  54  82 114 149 181 222 273 329
#     4  11  22  37  56  79 118 149 179 221 273 333
#     4   9  20  33  53  82 106 143 177 227 268 318
#     4   8  18  36  52  79 108 137 184 228 262 319
#     4  11  21  35  58  85 108 143 182 232 272 325
#     4   9  19  32  50  85 107 133 175 231 277 307
#     4  10  19  31  55  82 105 141 175 232 277 311
#
# _framework density 20.037806
#
# number of rings (size 3 to 8) (size 9 to 14) (size 15 to 20)
#    0.857    1.429    1.429    0.857    6.000    1.143 
#    0.000    0.714    0.000    0.857    0.000    0.000 
#    0.000    0.000    0.000    0.000    0.000    0.000 
#
# Total GULP energy -173478.836557 kJ/mol
# GULP energy per Si atom -12391.345468 kJ/mol
# Density = 1.999220 g / cm^3
# Si number density = 20.037806 Si / 1000 Ang^3
#
#
#
# Elastic Constant Matrix: (Units=GPa)
#
#
# Indices 1 2 3 4 5 6 
#
# 1 165.5464 18.1867 37.4344 19.2050 -6.7468 4.4172
# 2 18.1867 28.2065 7.7097 10.3817 0.5277 -1.1508
# 3 37.4344 7.7097 57.0597 10.4964 6.1144 1.4922
# 4 19.2050 10.3817 10.4964 18.5320 -3.5356 -2.8369
# 5 -6.7468 0.5277 6.1144 -3.5356 31.0818 -2.7715
# 6 4.4172 -1.1508 1.4922 -2.8369 -2.7715 13.9508
#
#
#
# Elastic Compliance Matrix: (Units=1/GPa)
#
#
# Indices 1 2 3 4 5 6 
#
# 1 0.007928 -0.002437 -0.004145 -0.004594 0.001802 -0.002844
# 2 -0.002437 0.045944 0.000380 -0.024443 -0.004280 -0.001300
# 3 -0.004145 0.000380 0.023131 -0.011119 -0.007151 -0.004812
# 4 -0.004594 -0.024443 -0.011119 0.084311 0.013011 0.020357
# 5 0.001802 -0.004280 -0.007151 0.013011 0.036390 0.009717
# 6 -0.002844 -0.001300 -0.004812 0.020357 0.009717 0.079058
#
#
# Mechanical properties :
#
#
# Convention : Reuss Voigt Hill
#
# Bulk Modulus (GPa) = 15.48026 41.94158 28.71092
# Shear Modulus (GPa) = 16.09265 25.21173 20.65219
#
# Velocity S-wave (km/s) = 2.83700 3.55097 3.21387
# Velocity P-wave (km/s) = 4.29811 6.14729 5.30391
#
# Compressibility (1/GPa) = 0.06459839
#
# Stress axis : x y z
#
# Youngs Moduli (GPa) = 126.13415 21.76562 43.23151
#
# Poissons Ratio (x) = 0.05305 0.17921
# Poissons Ratio (y) = 0.30745 -0.01645
# Poissons Ratio (z) = 0.52288 -0.00828
#
# Static dielectric constant tensor:
#      x y z
#    x 4.096760 -0.147910 -0.185490 
#    y -0.147910 3.202450 0.143470 
#    z -0.185490 0.143470 3.485190 
# 
# 
# High freq. dielectric constant tensor:
#      x y z
#    x 1.805180 -0.006130 -0.004500 
#    y -0.006130 1.725080 0.013700 
#    z -0.004500 0.013700 1.774660 
# 
# From -- ./inp_files/417272.got.cif
#   From: 2010.06.25/outbox.cif.g09.slc.cpg/sg2_209_cif.got.tgz:417272.got - 2010.06.27 13:26:56.
