data_PCOD8041838
_publ_section_title
;
Structure prediction by ZEFSAII (Michael W. Deem and Ramdas Pophale) SiO2 
 PCOD8041838
Probable space group: P -1
;
_chemical_formula_sum "Si O2"
_cell_formula_units_Z 16
_cell_length_a 23.951759
_cell_length_b 9.147257
_cell_length_c 5.259086
_cell_angle_alpha 70.428772
_cell_angle_beta 55.908241
_cell_angle_gamma 50.510436
_cell_volume 735.984596
_symmetry_space_group_name_H-M "P -1"
_symmetry_group_IT_number 2
_symmetry_cell_setting 'triclinic'
loop_
_space_group_symop_operation_xyz
x,y,z
-x,-y,-z
loop_
_atom_site_type_symbol
_atom_site_label
_atom_site_fract_x
_atom_site_fract_y
_atom_site_fract_z
Si Si1 0.705389 0.061240 0.666404
Si Si2 0.522277 0.290668 0.096065
Si Si3 0.546771 0.600807 0.291053
Si Si4 0.201103 0.279685 0.685169
Si Si5 0.843200 0.934348 0.782189
Si Si6 0.004880 0.890123 0.298393
Si Si7 0.726341 0.318233 0.123052
Si Si8 0.178720 0.503630 0.109164
O O1 0.704392 0.238722 0.464408
O O2 0.714953 0.922377 0.494236
O O3 0.783262 0.934545 0.727365
O O4 0.619720 0.139491 0.979597
O O5 0.473720 0.279190 0.465632
O O6 0.500000 0.500000 0.000000
O O7 0.489754 0.254657 0.939037
O O8 0.500000 0.500000 0.500000
O O9 0.644066 0.446936 0.090244
O O10 0.170445 0.418481 0.441729
O O11 0.139788 0.217359 0.953577
O O12 0.212676 0.367070 0.856699
O O13 0.930504 0.866221 0.484674
O O14 0.799423 0.147115 0.872529
O O15 0.088134 0.684743 0.182214
O O16 0.000000 0.000000 0.500000
O O17 0.000000 0.000000 0.000000
O O18 0.755605 0.446517 0.063821
#
# Coordination Sequence:
#
# PCOD8041838 Si02
#       8
#     2   2   2   2   2   2   2   2
#     4  11  22  42  69 102 132 173 229 277 330 397
#     4  10  19  33  60  96 131 157 214 284 329 370
#     4  10  19  34  55 103 125 161 211 284 331 377
#     4  11  27  46  65  97 139 186 223 263 336 410
#     4  11  24  44  71 102 129 181 230 270 333 394
#     4  12  26  46  71 106 138 166 223 291 336 379
#     4  11  23  37  73  98 134 170 229 282 333 397
#     4  12  26  47  66  99 138 183 215 279 339 403
#
# _framework density 21.739585000000002
#
# number of rings (size 3 to 8) (size 9 to 14) (size 15 to 20)
#    0.000    1.000    5.000    3.000    5.250    1.000 
#    0.000    0.000    0.000    4.500    0.000    0.000 
#    0.000    0.000    0.000    0.000    0.000    0.000 
#
# Total GULP energy -198304.748012 kJ/mol
# GULP energy per Si atom -12394.046751 kJ/mol
# Density = 2.169010 g / cm^3
# Si number density = 21.739585 Si / 1000 Ang^3
#
#
#
# Elastic Constant Matrix: (Units=GPa)
#
#
# Indices 1 2 3 4 5 6 
#
# 1 116.0409 59.2874 55.4531 1.0574 10.1141 -10.9425
# 2 59.2874 90.6734 51.7894 -6.9688 -7.9908 3.9334
# 3 55.4531 51.7894 113.9820 -7.9547 18.4161 -4.5402
# 4 1.0574 -6.9688 -7.9547 32.8734 -8.3358 9.2408
# 5 10.1141 -7.9908 18.4161 -8.3358 49.9773 8.6549
# 6 -10.9425 3.9334 -4.5402 9.2408 8.6549 36.9758
#
#
#
# Elastic Compliance Matrix: (Units=1/GPa)
#
#
# Indices 1 2 3 4 5 6 
#
# 1 0.017444 -0.012131 -0.001874 -0.008473 -0.007960 0.010203
# 2 -0.012131 0.026167 -0.007959 0.011267 0.013770 -0.013390
# 3 -0.001874 -0.007959 0.014538 -0.001039 -0.007117 0.004003
# 4 -0.008473 0.011267 -0.001039 0.041201 0.013776 -0.017355
# 5 -0.007960 0.013770 -0.007117 0.013776 0.031425 -0.015493
# 6 0.010203 -0.013390 0.004003 -0.017355 -0.015493 0.039944
#
#
# Mechanical properties :
#
#
# Convention : Reuss Voigt Hill
#
# Bulk Modulus (GPa) = 70.31755 72.63954 71.47854
# Shear Modulus (GPa) = 22.79081 34.24306 28.51694
#
# Velocity S-wave (km/s) = 3.24134 3.97312 3.62574
# Velocity P-wave (km/s) = 6.81352 7.38469 7.10484
#
# Compressibility (1/GPa) = 0.01422120
#
# Stress axis : x y z
#
# Youngs Moduli (GPa) = 57.32606 38.21631 68.78481
#
# Poissons Ratio (x) = 0.46360 0.12888
# Poissons Ratio (y) = 0.69542 0.54748
# Poissons Ratio (z) = 0.10741 0.30417
#
# Static dielectric constant tensor:
#      x y z
#    x 4.033960 -0.353020 0.248380 
#    y -0.353020 4.434120 -0.148030 
#    z 0.248380 -0.148030 3.889940 
# 
# 
# High freq. dielectric constant tensor:
#      x y z
#    x 1.845660 -0.009090 0.019830 
#    y -0.009090 1.840560 0.011000 
#    z 0.019830 0.011000 1.866930 
# 
# From -- ./inp_files/122862.got.cif
#   From: 2010.06.25/outbox.cif.g09.slc.cpg/sg2_62_cif.got.tgz:122862.got - 2010.06.27 13:26:56.
