data_PCOD8041778
_publ_section_title
;
Structure prediction by ZEFSAII (Michael W. Deem and Ramdas Pophale) SiO2 
 PCOD8041778
Probable space group: P -1
;
_chemical_formula_sum "Si O2"
_cell_formula_units_Z 16
_cell_length_a 24.231413
_cell_length_b 24.679996
_cell_length_c 8.483829
_cell_angle_alpha 45.343246
_cell_angle_beta 135.720176
_cell_angle_gamma 168.438771
_cell_volume 709.871584
_symmetry_space_group_name_H-M "P -1"
_symmetry_group_IT_number 2
_symmetry_cell_setting 'triclinic'
loop_
_space_group_symop_operation_xyz
x,y,z
-x,-y,-z
loop_
_atom_site_type_symbol
_atom_site_label
_atom_site_fract_x
_atom_site_fract_y
_atom_site_fract_z
Si Si1 0.356608 0.542300 0.915518
Si Si2 0.998992 0.356818 0.959405
Si Si3 0.936167 0.020103 0.133345
Si Si4 0.285899 0.871090 0.833688
Si Si5 0.539983 0.127069 0.330840
Si Si6 0.929346 0.019792 0.488363
Si Si7 0.348043 0.537223 0.276758
Si Si8 0.716957 0.361054 0.544335
O O1 0.256403 0.523673 0.655015
O O2 0.359649 0.567944 0.052784
O O3 0.163631 0.292266 0.997629
O O4 0.653283 0.789364 0.948330
O O5 0.832534 0.234397 0.017775
O O6 0.177140 0.447631 0.190723
O O7 0.210551 0.617454 0.798461
O O8 0.761467 0.114422 0.839440
O O9 0.028340 0.022301 0.251753
O O10 0.874365 0.953856 0.327197
O O11 0.024174 0.615612 0.702962
O O12 0.472371 0.117995 0.668873
O O13 0.500000 0.000000 0.000000
O O14 0.620836 0.228635 0.461824
O O15 0.500000 0.000000 0.500000
O O16 0.658326 0.815346 0.416686
O O17 0.204293 0.323784 0.455047
#
# Coordination Sequence:
#
# PCOD8041778 Si02
#       8
#     2   2   2   2   2   2   2   2
#     4  10  19  33  58  89 124 162 207 265 310 372
#     4  12  25  45  66  97 129 172 214 271 327 382
#     4   9  17  29  50  86 130 164 199 250 318 374
#     4  12  28  48  68  92 132 171 218 272 326 393
#     4  12  26  44  70  98 126 162 217 271 332 393
#     4   9  17  29  50  86 128 168 198 248 318 376
#     4  10  19  33  58  87 126 163 208 262 310 372
#     4  12  25  45  70  97 127 172 216 269 330 383
#
# _framework density 22.539290000000001
#
# number of rings (size 3 to 8) (size 9 to 14) (size 15 to 20)
#    0.000    1.250    1.250    5.250    3.500    5.000 
#    0.000    0.000    0.000    0.000    0.000   17.500 
#    0.000    0.000    0.000    0.000    0.000    0.000 
#
# Total GULP energy -198410.352834 kJ/mol
# GULP energy per Si atom -12400.647052 kJ/mol
# Density = 2.248799 g / cm^3
# Si number density = 22.539290 Si / 1000 Ang^3
#
#
#
# Elastic Constant Matrix: (Units=GPa)
#
#
# Indices 1 2 3 4 5 6 
#
# 1 67.9212 52.0727 58.5125 4.2188 21.0873 20.1236
# 2 52.0727 227.9504 101.4680 5.5071 18.2144 32.1489
# 3 58.5125 101.4680 133.0757 -8.3570 27.9281 8.8297
# 4 4.2188 5.5071 -8.3570 46.5761 5.0097 2.9613
# 5 21.0873 18.2144 27.9281 5.0097 24.6473 4.7119
# 6 20.1236 32.1489 8.8297 2.9613 4.7119 35.5412
#
#
#
# Elastic Compliance Matrix: (Units=1/GPa)
#
#
# Indices 1 2 3 4 5 6 
#
# 1 0.032005 0.000803 -0.011474 -0.002894 -0.011669 -0.014209
# 2 0.000803 0.007844 -0.006603 -0.002076 0.002582 -0.006079
# 3 -0.011474 -0.006603 0.019561 0.005897 -0.010288 0.008482
# 4 -0.002894 -0.002076 0.005897 0.023797 -0.007717 0.001092
# 5 -0.011669 0.002582 -0.010288 -0.007717 0.062018 -0.000752
# 6 -0.014209 -0.006079 0.008482 0.001092 -0.000752 0.039581
#
#
# Mechanical properties :
#
#
# Convention : Reuss Voigt Hill
#
# Bulk Modulus (GPa) = 40.22426 94.78377 67.50401
# Shear Modulus (GPa) = 21.96449 35.81253 28.88851
#
# Velocity S-wave (km/s) = 3.12508 3.99042 3.58396
# Velocity P-wave (km/s) = 5.55936 7.96086 6.86592
#
# Compressibility (1/GPa) = 0.02486062
#
# Stress axis : x y z
#
# Youngs Moduli (GPa) = 31.24536 127.49081 51.12250
#
# Poissons Ratio (x) = -0.10234 0.58660
# Poissons Ratio (y) = -0.02508 0.33754
# Poissons Ratio (z) = 0.35852 0.84178
#
# Static dielectric constant tensor:
#      x y z
#    x 3.710620 0.305970 0.249520 
#    y 0.305970 4.374020 -0.067440 
#    z 0.249520 -0.067440 4.144290 
# 
# 
# High freq. dielectric constant tensor:
#      x y z
#    x 1.854970 0.011440 0.030110 
#    y 0.011440 1.914460 -0.005270 
#    z 0.030110 -0.005270 1.885420 
# 
# From -- ./inp_files/357995.got.cif
#   From: 2010.06.25/outbox.cif.g09.slc.cpg/sg2_179_cif.got.tgz:357995.got - 2010.06.27 13:26:56.
