data_PCOD8041668
_publ_section_title
;
Structure prediction by ZEFSAII (Michael W. Deem and Ramdas Pophale) SiO2 
 PCOD8041668
Probable space group: P -1
;
_chemical_formula_sum "Si O2"
_cell_formula_units_Z 14
_cell_length_a 11.397831
_cell_length_b 8.945929
_cell_length_c 8.442685
_cell_angle_alpha 100.596433
_cell_angle_beta 88.941575
_cell_angle_gamma 121.647351
_cell_volume 717.202741
_symmetry_space_group_name_H-M "P -1"
_symmetry_group_IT_number 2
_symmetry_cell_setting 'triclinic'
loop_
_space_group_symop_operation_xyz
x,y,z
-x,-y,-z
loop_
_atom_site_type_symbol
_atom_site_label
_atom_site_fract_x
_atom_site_fract_y
_atom_site_fract_z
Si Si1 0.668647 0.275088 0.499138
Si Si2 0.163599 0.502158 0.185239
Si Si3 0.130732 0.034961 0.601754
Si Si4 0.799965 0.161468 0.910383
Si Si5 0.930578 0.824506 0.076065
Si Si6 0.636274 0.928184 0.596011
Si Si7 0.134686 0.738104 0.732848
O O1 0.731912 0.434903 0.656650
O O2 0.521554 0.239028 0.436257
O O3 0.774142 0.333239 0.360446
O O4 0.650121 0.096381 0.538245
O O5 0.209450 0.667915 0.099916
O O6 0.008490 0.431689 0.235659
O O7 0.171940 0.347504 0.062881
O O8 0.156211 0.163874 0.775370
O O9 0.266797 0.129012 0.505649
O O10 0.100013 0.844639 0.627928
O O11 0.000000 0.000000 0.500000
O O12 0.948897 0.199062 0.859924
O O13 0.682371 0.983289 0.788201
O O14 0.780846 0.132584 0.094716
O O15 0.000000 0.000000 0.000000
#
# Coordination Sequence:
#
# PCOD8041668 Si02
#       7
#     2   2   2   2   2   2   2
#     4   9  19  35  52  77 110 141 178 222 261 311
#     4  10  20  35  55  82 110 137 177 225 267 312
#     4  11  20  33  56  82 105 142 180 216 268 322
#     4  10  19  34  56  83 109 136 179 225 266 310
#     4  11  19  34  54  82 108 140 174 224 269 314
#     4   9  19  34  54  77 107 144 180 215 264 318
#     4  10  19  33  56  85 104 139 179 223 268 311
#
# _framework density 19.520282000000002
#
# number of rings (size 3 to 8) (size 9 to 14) (size 15 to 20)
#    0.000    2.000    4.286    2.143    0.000    0.571 
#    2.571    0.714    0.000    3.429    0.000    0.000 
#    0.000    0.000    0.000    0.000    0.000    0.000 
#
# Total GULP energy -173577.960855 kJ/mol
# GULP energy per Si atom -12398.425775 kJ/mol
# Density = 1.947585 g / cm^3
# Si number density = 19.520282 Si / 1000 Ang^3
#
#
#
# Elastic Constant Matrix: (Units=GPa)
#
#
# Indices 1 2 3 4 5 6 
#
# 1 99.9093 31.0196 67.3831 18.3684 -2.0038 13.5828
# 2 31.0196 49.2982 48.5905 18.1354 -1.6873 2.0913
# 3 67.3831 48.5905 147.3629 28.5826 5.6945 12.5636
# 4 18.3684 18.1354 28.5826 36.7268 -0.6257 5.7172
# 5 -2.0038 -1.6873 5.6945 -0.6257 32.1686 5.7047
# 6 13.5828 2.0913 12.5636 5.7172 5.7047 25.8697
#
#
#
# Elastic Compliance Matrix: (Units=1/GPa)
#
#
# Indices 1 2 3 4 5 6 
#
# 1 0.015896 -0.004060 -0.005383 -0.000801 0.002749 -0.005832
# 2 -0.004060 0.034050 -0.008073 -0.009233 0.001910 0.004919
# 3 -0.005383 -0.008073 0.012732 -0.003059 -0.002823 -0.001406
# 4 -0.000801 -0.009233 -0.003059 0.035462 0.001682 -0.005556
# 5 0.002749 0.001910 -0.002823 0.001682 0.033298 -0.007941
# 6 -0.005832 0.004919 -0.001406 -0.005556 -0.007941 0.044982
#
#
# Mechanical properties :
#
#
# Convention : Reuss Voigt Hill
#
# Bulk Modulus (GPa) = 36.17342 65.61741 50.89541
# Shear Modulus (GPa) = 22.65854 28.92486 25.79170
#
# Velocity S-wave (km/s) = 3.41070 3.85357 3.63888
# Velocity P-wave (km/s) = 5.83797 7.31355 6.61702
#
# Compressibility (1/GPa) = 0.02764461
#
# Stress axis : x y z
#
# Youngs Moduli (GPa) = 62.91028 29.36853 78.54289
#
# Poissons Ratio (x) = 0.11922 0.42283
# Poissons Ratio (y) = 0.25539 0.63411
# Poissons Ratio (z) = 0.33868 0.23711
#
# Static dielectric constant tensor:
#      x y z
#    x 3.635360 0.038240 -0.043550 
#    y 0.038240 3.210580 0.124330 
#    z -0.043550 0.124330 3.926330 
# 
# 
# High freq. dielectric constant tensor:
#      x y z
#    x 1.742810 -0.005760 0.000160 
#    y -0.005760 1.720410 0.007850 
#    z 0.000160 0.007850 1.779780 
# 
# From -- ./inp_files/167616.got.cif
#   From: 2010.06.25/outbox.cif.g09.slc.cpg/sg2_84_cif.got.tgz:167616.got - 2010.06.27 13:26:56.
