data_PCOD8041512
_publ_section_title
;
Structure prediction by ZEFSAII (Michael W. Deem and Ramdas Pophale) SiO2 
 PCOD8041512
Probable space group: P -1
;
_chemical_formula_sum "Si O2"
_cell_formula_units_Z 12
_cell_length_a 9.707733
_cell_length_b 5.330231
_cell_length_c 12.561451
_cell_angle_alpha 92.243827
_cell_angle_beta 52.553387
_cell_angle_gamma 72.191350
_cell_volume 469.016527
_symmetry_space_group_name_H-M "P -1"
_symmetry_group_IT_number 2
_symmetry_cell_setting 'triclinic'
loop_
_space_group_symop_operation_xyz
x,y,z
-x,-y,-z
loop_
_atom_site_type_symbol
_atom_site_label
_atom_site_fract_x
_atom_site_fract_y
_atom_site_fract_z
Si Si1 0.259286 0.302148 0.619090
Si Si2 0.696743 0.213628 0.299267
Si Si3 0.896184 0.547818 0.937564
Si Si4 0.866253 0.062012 0.885548
Si Si5 0.183253 0.879792 0.337315
Si Si6 0.644745 0.716438 0.664065
O O1 0.370558 0.473111 0.621428
O O2 0.241452 0.358735 0.502707
O O3 0.046889 0.422646 0.768555
O O4 0.359665 0.973077 0.592412
O O5 0.579156 0.208096 0.248767
O O6 0.920325 0.080442 0.165848
O O7 0.766183 0.870283 0.976568
O O8 0.766481 0.372838 0.986230
O O9 0.000000 0.500000 0.000000
O O10 0.882760 0.051995 0.751498
O O11 0.279487 0.549873 0.299849
O O12 0.327713 0.023626 0.294696
O O13 0.000000 0.000000 0.500000
#
# Coordination Sequence:
#
# PCOD8041512 Si02
#       6
#     2   2   2   2   2   2
#     4  10  19  33  52  81 110 137 180 229 258 309
#     4  10  20  35  54  78 110 146 179 217 262 318
#     4  10  19  34  56  81 105 139 182 230 272 303
#     4  10  21  37  55  83 113 136 177 230 266 313
#     4  12  23  36  52  80 117 149 173 213 268 326
#     4  12  22  35  56  81 113 151 176 205 267 337
#
# _framework density 25.585450000000002
#
# number of rings (size 3 to 8) (size 9 to 14) (size 15 to 20)
#    0.000    1.333    0.000    9.000    0.000    0.000 
#    0.000    0.000    0.000    0.000    0.000   93.333 
#    0.000    0.000    0.000    0.000    0.000    0.000 
#
# Total GULP energy -148717.798497 kJ/mol
# GULP energy per Si atom -12393.149875 kJ/mol
# Density = 2.552722 g / cm^3
# Si number density = 25.585450 Si / 1000 Ang^3
#
#
#
# Elastic Constant Matrix: (Units=GPa)
#
#
# Indices 1 2 3 4 5 6 
#
# 1 97.5538 48.5693 4.1474 2.8169 15.3945 21.3717
# 2 48.5693 241.4742 16.7031 -28.1990 18.6657 51.6859
# 3 4.1474 16.7031 43.6461 -12.3764 21.4820 4.7503
# 4 2.8169 -28.1990 -12.3764 25.8821 -0.4542 11.8792
# 5 15.3945 18.6657 21.4820 -0.4542 32.0808 7.0302
# 6 21.3717 51.6859 4.7503 11.8792 7.0302 54.6462
#
#
#
# Elastic Compliance Matrix: (Units=1/GPa)
#
#
# Indices 1 2 3 4 5 6 
#
# 1 0.012585 -0.001916 0.002343 -0.001420 -0.006024 -0.002229
# 2 -0.001916 0.009198 0.005847 0.018312 -0.005518 -0.011729
# 3 0.002343 0.005847 0.048308 0.035047 -0.033315 -0.013979
# 4 -0.001420 0.018312 0.035047 0.091920 -0.024099 -0.036693
# 5 -0.006024 -0.005518 -0.033315 -0.024099 0.057416 0.008323
# 6 -0.002229 -0.011729 -0.013979 -0.036693 0.008323 0.038386
#
#
# Mechanical properties :
#
#
# Convention : Reuss Voigt Hill
#
# Bulk Modulus (GPa) = 12.10099 57.94597 35.02348
# Shear Modulus (GPa) = 18.32765 43.40544 30.86655
#
# Velocity S-wave (km/s) = 2.67934 4.12331 3.47711
# Velocity P-wave (km/s) = 3.78308 6.73544 5.46250
#
# Compressibility (1/GPa) = 0.08263785
#
# Stress axis : x y z
#
# Youngs Moduli (GPa) = 79.45734 108.72112 20.70070
#
# Poissons Ratio (x) = 0.20835 -0.04849
# Poissons Ratio (y) = 0.15227 -0.12104
# Poissons Ratio (z) = -0.18614 -0.63572
#
# Static dielectric constant tensor:
#      x y z
#    x 4.788820 1.025880 -0.019280 
#    y 1.025880 6.421890 -0.359600 
#    z -0.019280 -0.359600 4.257660 
# 
# 
# High freq. dielectric constant tensor:
#      x y z
#    x 2.002990 0.034360 0.012820 
#    y 0.034360 2.056320 -0.019300 
#    z 0.012820 -0.019300 2.002180 
# 
# From -- ./inp_files/19889.got.cif
#   From: 2010.06.25/outbox.cif.g09.slc.cpg/sg2_10_cif.got.tgz:19889.got - 2010.06.27 13:26:56.
