data_PCOD8041111
_publ_section_title
;
Structure prediction by ZEFSAII (Michael W. Deem and Ramdas Pophale) SiO2 
 PCOD8041111
Probable space group: P -1
;
_chemical_formula_sum "Si O2"
_cell_formula_units_Z 16
_cell_length_a 5.081480
_cell_length_b 20.815967
_cell_length_c 10.335890
_cell_angle_alpha 124.030097
_cell_angle_beta 80.240026
_cell_angle_gamma 119.771257
_cell_volume 777.496496
_symmetry_space_group_name_H-M "P -1"
_symmetry_group_IT_number 2
_symmetry_cell_setting 'triclinic'
loop_
_space_group_symop_operation_xyz
x,y,z
-x,-y,-z
loop_
_atom_site_type_symbol
_atom_site_label
_atom_site_fract_x
_atom_site_fract_y
_atom_site_fract_z
Si Si1 0.916353 0.842616 0.197441
Si Si2 0.672464 0.594930 0.522901
Si Si3 0.755607 0.399697 0.652756
Si Si4 0.778040 0.674609 0.867131
Si Si5 0.845556 0.970712 0.617879
Si Si6 0.828673 0.132460 0.527173
Si Si7 0.093647 0.595695 0.915403
Si Si8 0.702604 0.277915 0.733983
O O1 0.179770 0.871841 0.319108
O O2 0.590634 0.797787 0.249866
O O3 0.994006 0.933245 0.212724
O O4 0.930265 0.775984 0.017213
O O5 0.500000 0.500000 0.500000
O O6 0.459747 0.608503 0.455510
O O7 0.770854 0.672098 0.709437
O O8 0.958239 0.604032 0.433024
O O9 0.585901 0.318271 0.675752
O O10 0.868139 0.490572 0.826383
O O11 0.439667 0.615868 0.888306
O O12 0.989774 0.633433 0.846418
O O13 0.485980 0.933158 0.592406
O O14 0.925672 0.895601 0.581902
O O15 0.000000 0.000000 0.500000
O O16 0.894690 0.233136 0.606020
O O17 0.068503 0.642476 0.101060
#
# Coordination Sequence:
#
# PCOD8041111 Si02
#       8
#     2   2   2   2   2   2   2   2
#     4  10  21  36  55  87 121 141 180 232 281 342
#     4  12  23  42  61  78 106 151 206 242 269 313
#     4  12  25  39  59  81 113 156 193 230 278 336
#     4  11  22  36  61  81 109 149 190 241 280 306
#     4  10  19  30  55  80 117 147 179 212 282 346
#     4  11  19  34  53  83 120 147 174 221 277 354
#     4  11  21  38  56  82 114 150 184 230 283 338
#     4  11  24  35  56  87 123 149 180 225 291 344
#
# _framework density 20.578872
#
# number of rings (size 3 to 8) (size 9 to 14) (size 15 to 20)
#    0.000    1.000    6.250    3.000    1.750    0.000 
#    0.000    3.125    0.000    0.000    0.000    5.250 
#    0.000    0.000    0.000    0.000    0.000    0.000 
#
# Total GULP energy -198281.097705 kJ/mol
# GULP energy per Si atom -12392.568607 kJ/mol
# Density = 2.053203 g / cm^3
# Si number density = 20.578872 Si / 1000 Ang^3
#
#
#
# Elastic Constant Matrix: (Units=GPa)
#
#
# Indices 1 2 3 4 5 6 
#
# 1 117.7351 33.5303 38.1583 7.2419 15.3862 -22.7516
# 2 33.5303 94.7465 69.9420 26.7438 9.7140 -28.3501
# 3 38.1583 69.9420 100.2045 28.6009 13.8029 -13.2084
# 4 7.2419 26.7438 28.6009 34.5218 -7.9850 -2.8167
# 5 15.3862 9.7140 13.8029 -7.9850 24.8573 -2.2327
# 6 -22.7516 -28.3501 -13.2084 -2.8167 -2.2327 28.4009
#
#
#
# Elastic Compliance Matrix: (Units=1/GPa)
#
#
# Indices 1 2 3 4 5 6 
#
# 1 0.011690 0.002572 -0.003524 -0.002157 -0.006115 0.009599
# 2 0.002572 0.034448 -0.016804 -0.012841 -0.007443 0.026773
# 3 -0.003524 -0.016804 0.026533 -0.011399 -0.010475 -0.009211
# 4 -0.002157 -0.012841 -0.011399 0.054555 0.029117 -0.012148
# 5 -0.006115 -0.007443 -0.010475 0.029117 0.061240 -0.009498
# 6 0.009599 0.026773 -0.009211 -0.012148 -0.009498 0.063389
#
#
# Mechanical properties :
#
#
# Convention : Reuss Voigt Hill
#
# Bulk Modulus (GPa) = 26.91147 66.21636 46.56392
# Shear Modulus (GPa) = 16.68033 28.95971 22.82002
#
# Velocity S-wave (km/s) = 2.85012 3.75541 3.33364
# Velocity P-wave (km/s) = 4.89249 7.14499 6.12321
#
# Compressibility (1/GPa) = 0.03715887
#
# Stress axis : x y z
#
# Youngs Moduli (GPa) = 85.54427 29.02919 37.68881
#
# Poissons Ratio (x) = -0.07466 0.13280
# Poissons Ratio (y) = -0.22002 0.63334
# Poissons Ratio (z) = 0.30143 0.48782
#
# Static dielectric constant tensor:
#      x y z
#    x 3.888440 -0.370700 -0.034130 
#    y -0.370700 4.737290 0.428170 
#    z -0.034130 0.428170 4.282700 
# 
# 
# High freq. dielectric constant tensor:
#      x y z
#    x 1.815980 -0.023030 0.012160 
#    y -0.023030 1.784630 0.046490 
#    z 0.012160 0.046490 1.783550 
# 
# From -- ./inp_files/139245.got.cif
#   From: 2010.06.25/outbox.cif.g09.slc.cpg/sg2_70_cif.got.tgz:139245.got - 2010.06.27 13:26:56.
