data_PCOD8041261
_publ_section_title
;
Structure prediction by ZEFSAII (Michael W. Deem and Ramdas Pophale) SiO2 
 PCOD8041261
Probable space group: P -1
;
_chemical_formula_sum "Si O2"
_cell_formula_units_Z 16
_cell_length_a 10.537002
_cell_length_b 11.654134
_cell_length_c 14.550953
_cell_angle_alpha 49.442892
_cell_angle_beta 109.656758
_cell_angle_gamma 71.299350
_cell_volume 840.058471
_symmetry_space_group_name_H-M "P -1"
_symmetry_group_IT_number 2
_symmetry_cell_setting 'triclinic'
loop_
_space_group_symop_operation_xyz
x,y,z
-x,-y,-z
loop_
_atom_site_type_symbol
_atom_site_label
_atom_site_fract_x
_atom_site_fract_y
_atom_site_fract_z
Si Si1 0.408659 0.582726 0.698624
Si Si2 0.419966 0.720594 0.274222
Si Si3 0.676579 0.321994 0.063978
Si Si4 0.948789 0.917765 0.605841
Si Si5 0.187641 0.177685 0.885447
Si Si6 0.181986 0.680553 0.331915
Si Si7 0.902188 0.416998 0.325184
Si Si8 0.129650 0.137285 0.698579
O O1 0.499321 0.471017 0.679386
O O2 0.278554 0.550743 0.721683
O O3 0.604811 0.444967 0.883847
O O4 0.272074 0.851899 0.524548
O O5 0.227385 0.807300 0.234527
O O6 0.606179 0.590355 0.458681
O O7 0.359027 0.930536 0.104894
O O8 0.884423 0.228018 0.196055
O O9 0.709310 0.113974 0.175229
O O10 0.500000 0.500000 0.000000
O O11 0.955874 0.752125 0.639209
O O12 0.000000 0.000000 0.500000
O O13 0.196777 0.336357 0.848070
O O14 0.233473 0.145958 0.802340
O O15 0.962273 0.293973 0.785756
O O16 0.059327 0.802307 0.335582
O O17 0.041704 0.317552 0.502613
#
# Coordination Sequence:
#
# PCOD8041261 Si02
#       8
#     2   2   2   2   2   2   2   2
#     4  11  19  33  52  79 103 137 179 213 258 303
#     4  11  19  36  57  79 100 138 183 219 256 297
#     4  12  18  30  50  76 103 136 178 212 248 304
#     4  10  19  32  50  71 110 140 172 212 251 309
#     4  10  22  34  51  78 112 141 165 209 271 319
#     4   9  21  36  54  76 105 135 184 218 249 306
#     4  11  19  35  50  77 117 141 161 206 273 326
#     4  10  19  34  51  78 108 140 165 213 264 306
#
# _framework density 19.046292000000001
#
# number of rings (size 3 to 8) (size 9 to 14) (size 15 to 20)
#    0.750    0.750    7.500    0.750    0.000    0.500 
#    2.250    0.000    0.000    0.750    0.000   10.500 
#    0.000    0.000    0.000    0.000    0.000    0.000 
#
# Total GULP energy -198283.247945 kJ/mol
# GULP energy per Si atom -12392.702997 kJ/mol
# Density = 1.900294 g / cm^3
# Si number density = 19.046292 Si / 1000 Ang^3
#
#
#
# Elastic Constant Matrix: (Units=GPa)
#
#
# Indices 1 2 3 4 5 6 
#
# 1 29.5395 15.8624 14.1720 -9.9355 0.8508 -0.3157
# 2 15.8624 92.0135 36.0330 -28.3739 -13.6743 9.4143
# 3 14.1720 36.0330 119.4173 -3.8651 -0.2603 7.2352
# 4 -9.9355 -28.3739 -3.8651 33.7823 5.0668 2.7274
# 5 0.8508 -13.6743 -0.2603 5.0668 18.4466 -2.5058
# 6 -0.3157 9.4143 7.2352 2.7274 -2.5058 19.5100
#
#
#
# Elastic Compliance Matrix: (Units=1/GPa)
#
#
# Indices 1 2 3 4 5 6 
#
# 1 0.041044 -0.004183 -0.003435 0.009121 -0.007311 0.001742
# 2 -0.004183 0.020227 -0.004580 0.014460 0.009945 -0.008874
# 3 -0.003435 -0.004580 0.010143 -0.003217 -0.002409 -0.001467
# 4 0.009121 0.014460 -0.003217 0.045672 -0.003995 -0.012534
# 5 -0.007311 0.009945 -0.002409 -0.003995 0.063623 0.004706
# 6 0.001742 -0.008874 -0.001467 -0.012534 0.004706 0.058467
#
#
# Mechanical properties :
#
#
# Convention : Reuss Voigt Hill
#
# Bulk Modulus (GPa) = 21.26771 41.45612 31.36192
# Shear Modulus (GPa) = 17.90553 26.00797 21.95675
#
# Velocity S-wave (km/s) = 3.06944 3.69929 3.39899
# Velocity P-wave (km/s) = 4.87366 6.32927 5.64855
#
# Compressibility (1/GPa) = 0.04701963
#
# Stress axis : x y z
#
# Youngs Moduli (GPa) = 24.36400 49.43836 98.58943
#
# Poissons Ratio (x) = 0.20678 0.33867
# Poissons Ratio (y) = 0.10190 0.45151
# Poissons Ratio (z) = 0.08370 0.22641
#
# Static dielectric constant tensor:
#      x y z
#    x 2.949190 -0.075980 0.260630 
#    y -0.075980 3.684330 0.017180 
#    z 0.260630 0.017180 3.880130 
# 
# 
# High freq. dielectric constant tensor:
#      x y z
#    x 1.672740 -0.004640 0.020710 
#    y -0.004640 1.737710 0.000120 
#    z 0.020710 0.000120 1.758220 
# 
# From -- ./inp_files/518761.got.cif
#   From: 2010.06.25/outbox.cif.g09.slc.cpg/sg2_260_cif.got.tgz:518761.got - 2010.06.27 13:26:56.
