data_PCOD8041066
_publ_section_title
;
Structure prediction by ZEFSAII (Michael W. Deem and Ramdas Pophale) SiO2 
 PCOD8041066
Probable space group: P -1
;
_chemical_formula_sum "Si O2"
_cell_formula_units_Z 12
_cell_length_a 15.599193
_cell_length_b 5.250365
_cell_length_c 10.438968
_cell_angle_alpha 97.122777
_cell_angle_beta 49.773634
_cell_angle_gamma 98.236560
_cell_volume 645.472101
_symmetry_space_group_name_H-M "P -1"
_symmetry_group_IT_number 2
_symmetry_cell_setting 'triclinic'
loop_
_space_group_symop_operation_xyz
x,y,z
-x,-y,-z
loop_
_atom_site_type_symbol
_atom_site_label
_atom_site_fract_x
_atom_site_fract_y
_atom_site_fract_z
Si Si1 0.767380 0.233737 0.119043
Si Si2 0.868899 0.077195 0.255672
Si Si3 0.483483 0.661146 0.652189
Si Si4 0.670541 0.972396 0.619459
Si Si5 0.112657 0.240325 0.016457
Si Si6 0.427242 0.512272 0.196997
O O1 0.797853 0.256856 0.243099
O O2 0.634238 0.213539 0.227929
O O3 0.825302 0.479359 0.002990
O O4 0.815102 0.974484 0.999336
O O5 0.986601 0.228855 0.195491
O O6 0.797362 0.997880 0.445529
O O7 0.896524 0.822453 0.132053
O O8 0.500000 0.500000 0.500000
O O9 0.583320 0.892642 0.581614
O O10 0.489869 0.474855 0.758360
O O11 0.658835 0.746948 0.724477
O O12 0.643066 0.239441 0.726397
O O13 0.500000 0.500000 0.000000
#
# Coordination Sequence:
#
# PCOD8041066 Si02
#       6
#     2   2   2   2   2   2
#     4  10  19  30  46  72 110 140 168 208 266 316
#     4   9  19  31  49  75 109 139 177 214 264 314
#     4  10  22  33  55  84 113 136 176 223 275 321
#     4  10  22  33  59  77 109 140 184 218 270 315
#     4   9  20  29  48  70 117 141 170 208 271 317
#     4  10  23  39  53  78 111 146 183 216 268 326
#
# _framework density 18.591045999999999
#
# number of rings (size 3 to 8) (size 9 to 14) (size 15 to 20)
#    2.000    0.333    0.000    3.000    4.667    1.333 
#    0.000    0.000    0.000    0.000    0.000    7.000 
#    0.000    0.000    0.000    0.000    0.000    0.000 
#
# Total GULP energy -148685.891407 kJ/mol
# GULP energy per Si atom -12390.490951 kJ/mol
# Density = 1.854873 g / cm^3
# Si number density = 18.591046 Si / 1000 Ang^3
#
#
#
# Elastic Constant Matrix: (Units=GPa)
#
#
# Indices 1 2 3 4 5 6 
#
# 1 35.9083 8.8117 31.3882 -0.7246 -7.5442 -4.9900
# 2 8.8117 121.1704 51.3126 -15.8039 -0.5799 -12.3751
# 3 31.3882 51.3126 158.1881 -8.0133 -12.1655 -0.0685
# 4 -0.7246 -15.8039 -8.0133 23.8312 3.6419 0.5222
# 5 -7.5442 -0.5799 -12.1655 3.6419 32.8542 0.0977
# 6 -4.9900 -12.3751 -0.0685 0.5222 0.0977 14.2388
#
#
#
# Elastic Compliance Matrix: (Units=1/GPa)
#
#
# Indices 1 2 3 4 5 6 
#
# 1 0.037295 0.001852 -0.007613 -0.001420 0.005891 0.014654
# 2 0.001852 0.011715 -0.003955 0.006506 -0.001585 0.010584
# 3 -0.007613 -0.003955 0.009243 0.000141 0.001607 -0.006077
# 4 -0.001420 0.006506 0.000141 0.047027 -0.005382 0.003469
# 5 0.005891 -0.001585 0.001607 -0.005382 0.032952 0.000666
# 6 0.014654 0.010584 -0.006077 0.003469 0.000666 0.084403
#
#
# Mechanical properties :
#
#
# Convention : Reuss Voigt Hill
#
# Bulk Modulus (GPa) = 25.76043 55.36575 40.56309
# Shear Modulus (GPa) = 19.60714 29.10179 24.35446
#
# Velocity S-wave (km/s) = 3.25107 3.96076 3.62333
# Velocity P-wave (km/s) = 5.28952 7.12477 6.27461
#
# Compressibility (1/GPa) = 0.03881923
#
# Stress axis : x y z
#
# Youngs Moduli (GPa) = 26.81338 85.36096 108.18599
#
# Poissons Ratio (x) = -0.15805 0.82365
# Poissons Ratio (y) = -0.04965 0.42790
# Poissons Ratio (z) = 0.20414 0.33762
#
# Static dielectric constant tensor:
#      x y z
#    x 3.072270 -0.226600 -0.296240 
#    y -0.226600 3.407320 -0.005310 
#    z -0.296240 -0.005310 3.333560 
# 
# 
# High freq. dielectric constant tensor:
#      x y z
#    x 1.671900 -0.016430 -0.030780 
#    y -0.016430 1.722580 -0.011310 
#    z -0.030780 -0.011310 1.710530 
# 
# From -- ./inp_files/64895.got.cif
#   From: 2010.06.25/outbox.cif.g09.slc.cpg/sg2_33_cif.got.tgz:64895.got - 2010.06.27 13:26:56.
