data_PCOD8041039
_publ_section_title
;
Structure prediction by ZEFSAII (Michael W. Deem and Ramdas Pophale) SiO2 
 PCOD8041039
Probable space group: P -1
;
_chemical_formula_sum "Si O2"
_cell_formula_units_Z 16
_cell_length_a 5.223986
_cell_length_b 27.095680
_cell_length_c 11.228314
_cell_angle_alpha 32.740076
_cell_angle_beta 76.444461
_cell_angle_gamma 86.023800
_cell_volume 810.549880
_symmetry_space_group_name_H-M "P -1"
_symmetry_group_IT_number 2
_symmetry_cell_setting 'triclinic'
loop_
_space_group_symop_operation_xyz
x,y,z
-x,-y,-z
loop_
_atom_site_type_symbol
_atom_site_label
_atom_site_fract_x
_atom_site_fract_y
_atom_site_fract_z
Si Si1 0.815177 0.440371 0.869584
Si Si2 0.814389 0.638593 0.565350
Si Si3 0.626221 0.585983 0.227720
Si Si4 0.977330 0.161735 0.960588
Si Si5 0.762616 0.119430 0.336500
Si Si6 0.190310 0.603461 0.781975
Si Si7 0.332539 0.207847 0.132777
Si Si8 0.415454 0.091759 0.132419
O O1 0.888183 0.551000 0.668819
O O2 0.538921 0.417508 0.870035
O O3 0.063220 0.416529 0.820523
O O4 0.770619 0.374749 0.125915
O O5 0.890996 0.727740 0.289254
O O6 0.492805 0.613670 0.677117
O O7 0.014448 0.665605 0.604847
O O8 0.500000 0.500000 0.500000
O O9 0.612183 0.680194 0.107556
O O10 0.202456 0.102209 0.030916
O O11 0.843579 0.133698 0.161003
O O12 0.718982 0.122699 0.981204
O O13 0.528990 0.174827 0.274166
O O14 0.023212 0.163450 0.300207
O O15 0.649438 0.010056 0.595723
O O16 0.000000 0.500000 0.000000
O O17 0.375090 0.169868 0.074296
#
# Coordination Sequence:
#
# PCOD8041039 Si02
#       8
#     2   2   2   2   2   2   2   2
#     4  11  23  39  56  72 112 152 192 229 273 313
#     4  11  21  34  60  83 107 141 191 237 292 324
#     4  12  26  36  53  79 116 155 197 216 253 323
#     4  10  19  28  50  80 111 132 173 213 286 332
#     4  10  19  34  54  75 110 148 177 225 281 330
#     4  10  20  39  57  79 101 141 194 246 286 325
#     4  10  20  33  50  71 108 142 193 215 250 317
#     4  10  19  33  53  76 113 146 175 223 284 333
#
# _framework density 19.739687
#
# number of rings (size 3 to 8) (size 9 to 14) (size 15 to 20)
#    0.000    1.500    0.000    9.375    7.000    0.000 
#    0.000    0.000    0.000    0.000    0.000    0.000 
#    0.000  116.000    0.000    0.000    0.000    0.000 
#
# Total GULP energy -198244.377563 kJ/mol
# GULP energy per Si atom -12390.273598 kJ/mol
# Density = 1.969476 g / cm^3
# Si number density = 19.739687 Si / 1000 Ang^3
#
#
#
# Elastic Constant Matrix: (Units=GPa)
#
#
# Indices 1 2 3 4 5 6 
#
# 1 182.0604 18.1990 39.3844 -7.8693 -7.1012 -23.7140
# 2 18.1990 37.9601 26.9474 -11.1296 -0.1093 -6.6747
# 3 39.3844 26.9474 111.9440 -26.2443 -4.2064 -12.4804
# 4 -7.8693 -11.1296 -26.2443 20.3783 -2.8343 3.9794
# 5 -7.1012 -0.1093 -4.2064 -2.8343 28.7602 -1.9769
# 6 -23.7140 -6.6747 -12.4804 3.9794 -1.9769 28.3924
#
#
#
# Elastic Compliance Matrix: (Units=1/GPa)
#
#
# Indices 1 2 3 4 5 6 
#
# 1 0.006628 -0.001493 -0.001633 -0.001057 0.001613 0.004728
# 2 -0.001493 0.034324 -0.004637 0.011639 0.000450 0.003184
# 3 -0.001633 -0.004637 0.014691 0.015839 0.003428 0.002023
# 4 -0.001057 0.011639 0.015839 0.077009 0.009599 -0.001310
# 5 0.001613 0.000450 0.003428 0.009599 0.036905 0.004184
# 6 0.004728 0.003184 0.002023 -0.001310 0.004184 0.041282
#
#
# Mechanical properties :
#
#
# Convention : Reuss Voigt Hill
#
# Bulk Modulus (GPa) = 24.92585 55.66958 40.29772
# Shear Modulus (GPa) = 20.85606 32.00177 26.42891
#
# Velocity S-wave (km/s) = 3.25400 4.03077 3.66303
# Velocity P-wave (km/s) = 5.17423 7.06582 6.19268
#
# Compressibility (1/GPa) = 0.04011900
#
# Stress axis : x y z
#
# Youngs Moduli (GPa) = 150.87217 29.13382 68.06696
#
# Poissons Ratio (x) = 0.04349 0.11114
# Poissons Ratio (y) = 0.22520 0.31563
# Poissons Ratio (z) = 0.24635 0.13509
#
# Static dielectric constant tensor:
#      x y z
#    x 6.023660 -0.132000 0.085550 
#    y -0.132000 3.199920 0.025890 
#    z 0.085550 0.025890 3.609920 
# 
# 
# High freq. dielectric constant tensor:
#      x y z
#    x 1.819430 -0.013260 0.000890 
#    y -0.013260 1.695780 -0.013020 
#    z 0.000890 -0.013020 1.766710 
# 
# From -- ./inp_files/371299.got.cif
#   From: 2010.06.25/outbox.cif.g09.slc.cpg/sg2_186_cif.got.tgz:371299.got - 2010.06.27 13:26:56.
