data_PCOD8041657
_publ_section_title
;
Structure prediction by ZEFSAII (Michael W. Deem and Ramdas Pophale) SiO2 
 PCOD8041657
Probable space group: P -1
;
_chemical_formula_sum "Si O2"
_cell_formula_units_Z 16
_cell_length_a 12.266988
_cell_length_b 11.550388
_cell_length_c 8.777852
_cell_angle_alpha 59.922002
_cell_angle_beta 113.140954
_cell_angle_gamma 64.045744
_cell_volume 597.030084
_symmetry_space_group_name_H-M "P -1"
_symmetry_group_IT_number 2
_symmetry_cell_setting 'triclinic'
loop_
_space_group_symop_operation_xyz
x,y,z
-x,-y,-z
loop_
_atom_site_type_symbol
_atom_site_label
_atom_site_fract_x
_atom_site_fract_y
_atom_site_fract_z
Si Si1 0.523883 0.119877 0.287074
Si Si2 0.102130 0.720812 0.857174
Si Si3 0.552365 0.598642 0.196080
Si Si4 0.110482 0.301746 0.401788
Si Si5 0.384818 0.969982 0.271332
Si Si6 0.180345 0.027482 0.867890
Si Si7 0.241873 0.460127 0.394657
Si Si8 0.815762 0.193273 0.438309
O O1 0.542950 0.158825 0.444401
O O2 0.725590 0.861828 0.530415
O O3 0.352888 0.159170 0.151428
O O4 0.479044 0.284803 0.047755
O O5 0.214990 0.723705 0.806794
O O6 0.084896 0.594669 0.840975
O O7 0.206082 0.605229 0.151305
O O8 0.879526 0.980531 0.595811
O O9 0.360078 0.767461 0.085168
O O10 0.741194 0.484470 0.468820
O O11 0.619280 0.393219 0.299939
O O12 0.075166 0.492694 0.284301
O O13 0.182964 0.163785 0.685781
O O14 0.197894 0.057587 0.036747
O O15 0.550157 0.799762 0.345283
O O16 0.987924 0.116212 0.672141
#
# Coordination Sequence:
#
# PCOD8041657 Si02
#       8
#     2   2   2   2   2   2   2   2
#     4   9  17  31  53  82 112 146 185 225 278 335
#     4  10  21  38  55  79 113 147 187 232 272 322
#     4  10  20  36  58  84 112 147 184 225 279 330
#     4   9  18  34  56  81 113 146 180 230 283 327
#     4   9  17  31  53  81 114 146 182 229 277 331
#     4   9  19  37  57  83 113 145 184 227 277 327
#     4  10  19  33  56  83 112 146 182 229 283 329
#     4  10  22  40  58  79 113 151 188 228 269 325
#
# _framework density 26.799320000000002
#
# number of rings (size 3 to 8) (size 9 to 14) (size 15 to 20)
#    0.000    2.500    0.000    1.875    0.000    4.500 
#    0.000   20.625    0.000    0.000    0.000    0.000 
#    0.000    0.000    0.000    0.000    0.000    0.000 
#
# Total GULP energy -198314.640665 kJ/mol
# GULP energy per Si atom -12394.665042 kJ/mol
# Density = 2.673832 g / cm^3
# Si number density = 26.799320 Si / 1000 Ang^3
#
#
#
# Elastic Constant Matrix: (Units=GPa)
#
#
# Indices 1 2 3 4 5 6 
#
# 1 14.7752 -7.2305 -8.8028 2.0679 -1.2483 6.9810
# 2 -7.2305 120.8653 26.2984 16.0518 -6.5656 1.3617
# 3 -8.8028 26.2984 71.8455 21.9837 -11.8247 3.1924
# 4 2.0679 16.0518 21.9837 50.4098 10.2185 1.9327
# 5 -1.2483 -6.5656 -11.8247 10.2185 20.3301 1.2118
# 6 6.9810 1.3617 3.1924 1.9327 1.2118 24.6118
#
#
#
# Elastic Compliance Matrix: (Units=1/GPa)
#
#
# Indices 1 2 3 4 5 6 
#
# 1 0.110036 0.006589 0.026598 -0.024751 0.038882 -0.034996
# 2 0.006589 0.009642 -0.000437 -0.004177 0.005500 -0.002288
# 3 0.026598 -0.000437 0.027993 -0.018340 0.027652 -0.011073
# 4 -0.024751 -0.004177 -0.018340 0.036416 -0.032338 0.008363
# 5 0.038882 0.005500 0.027652 -0.032338 0.086682 -0.016648
# 6 -0.034996 -0.002288 -0.011073 0.008363 -0.016648 0.052283
#
#
# Mechanical properties :
#
#
# Convention : Reuss Voigt Hill
#
# Bulk Modulus (GPa) = 4.69105 25.33513 15.01309
# Shear Modulus (GPa) = 15.21566 32.21842 23.71704
#
# Velocity S-wave (km/s) = 2.38536 3.47105 2.97810
# Velocity P-wave (km/s) = 3.05628 5.05356 4.17608
#
# Compressibility (1/GPa) = 0.21317169
#
# Stress axis : x y z
#
# Youngs Moduli (GPa) = 9.08791 103.71000 35.72362
#
# Poissons Ratio (x) = -0.68333 -0.95019
# Poissons Ratio (y) = -0.05988 0.01561
# Poissons Ratio (z) = -0.24172 0.04532
#
# Static dielectric constant tensor:
#      x y z
#    x 4.490630 0.238580 0.126650 
#    y 0.238580 5.152250 0.080470 
#    z 0.126650 0.080470 4.606070 
# 
# 
# High freq. dielectric constant tensor:
#      x y z
#    x 2.048600 0.011490 0.009890 
#    y 0.011490 2.092700 0.008810 
#    z 0.009890 0.008810 2.064650 
# 
# From -- ./inp_files/176120.got.cif
#   From: 2010.06.25/outbox.cif.g09.slc.cpg/sg2_89_cif.got.tgz:176120.got - 2010.06.27 13:26:56.
