data_PCOD8041747
_publ_section_title
;
Structure prediction by ZEFSAII (Michael W. Deem and Ramdas Pophale) SiO2 
 PCOD8041747
Probable space group: P -1
;
_chemical_formula_sum "Si O2"
_cell_formula_units_Z 16
_cell_length_a 10.590126
_cell_length_b 11.557868
_cell_length_c 26.148468
_cell_angle_alpha 30.941638
_cell_angle_beta 30.994707
_cell_angle_gamma 51.744754
_cell_volume 761.672358
_symmetry_space_group_name_H-M "P -1"
_symmetry_group_IT_number 2
_symmetry_cell_setting 'triclinic'
loop_
_space_group_symop_operation_xyz
x,y,z
-x,-y,-z
loop_
_atom_site_type_symbol
_atom_site_label
_atom_site_fract_x
_atom_site_fract_y
_atom_site_fract_z
Si Si1 0.327701 0.723261 0.741851
Si Si2 0.225459 0.741109 0.605098
Si Si3 0.625843 0.238352 0.656094
Si Si4 0.618288 0.568843 0.256058
Si Si5 0.925891 0.992426 0.123290
Si Si6 0.206146 0.493127 0.602839
Si Si7 0.258674 0.625080 0.915998
Si Si8 0.669123 0.746903 0.815871
O O1 0.473998 0.626894 0.684783
O O2 0.342612 0.603079 0.837068
O O3 0.483774 0.022485 0.575523
O O4 0.003150 0.629363 0.877657
O O5 0.219378 0.513652 0.727030
O O6 0.185507 0.675868 0.583851
O O7 0.982211 0.805350 0.681668
O O8 0.641070 0.405892 0.637681
O O9 0.841635 0.408823 0.473083
O O10 0.319792 0.155583 0.773939
O O11 0.668247 0.994061 0.748023
O O12 0.815160 0.840929 0.063445
O O13 0.838545 0.154576 0.130977
O O14 0.001325 0.797151 0.203761
O O15 0.500000 0.500000 0.500000
O O16 0.527092 0.693872 0.829939
O O17 0.500000 0.500000 0.000000
#
# Coordination Sequence:
#
# PCOD8041747 Si02
#       8
#     2   2   2   2   2   2   2   2
#     4  10  21  37  59  90 125 162 209 245 297 367
#     4  12  22  36  63  94 124 158 204 255 306 364
#     4  10  20  35  55  87 122 153 199 254 304 353
#     4  11  21  34  60  90 119 159 205 249 294 361
#     4   9  17  32  57  83 115 148 206 254 296 338
#     4  10  19  33  57  89 119 149 201 262 301 338
#     4   9  20  39  61  88 124 162 202 254 302 363
#     4  11  24  39  62  93 127 157 198 260 320 350
#
# _framework density 21.006406999999999
#
# number of rings (size 3 to 8) (size 9 to 14) (size 15 to 20)
#    0.000    1.750    2.500    5.250    1.750    2.000 
#    0.000    0.625    0.000    0.750    0.000    0.000 
#    0.000    0.000    0.000    0.000    0.000    0.000 
#
# Total GULP energy -198323.974399 kJ/mol
# GULP energy per Si atom -12395.248400 kJ/mol
# Density = 2.095860 g / cm^3
# Si number density = 21.006407 Si / 1000 Ang^3
#
#
#
# Elastic Constant Matrix: (Units=GPa)
#
#
# Indices 1 2 3 4 5 6 
#
# 1 43.8160 44.8619 22.5980 3.7282 12.4259 9.6237
# 2 44.8619 137.1771 47.2806 3.1997 25.3801 10.1615
# 3 22.5980 47.2806 126.2022 -16.7963 21.6413 -0.0096
# 4 3.7282 3.1997 -16.7963 31.0478 1.0956 10.1975
# 5 12.4259 25.3801 21.6413 1.0956 36.5239 6.2482
# 6 9.6237 10.1615 -0.0096 10.1975 6.2482 33.8110
#
#
#
# Elastic Compliance Matrix: (Units=1/GPa)
#
#
# Indices 1 2 3 4 5 6 
#
# 1 0.036952 -0.010112 -0.002714 -0.002750 -0.002806 -0.006131
# 2 -0.010112 0.012045 -0.002243 -0.001208 -0.003614 0.000290
# 3 -0.002714 -0.002243 0.010827 0.006474 -0.004174 0.000268
# 4 -0.002750 -0.001208 0.006474 0.039682 -0.001445 -0.010553
# 5 -0.002806 -0.003614 -0.004174 -0.001445 0.034041 -0.003971
# 6 -0.006131 0.000290 0.000268 -0.010553 -0.003971 0.035151
#
#
# Mechanical properties :
#
#
# Convention : Reuss Voigt Hill
#
# Bulk Modulus (GPa) = 33.68448 59.63071 46.65759
# Shear Modulus (GPa) = 23.95411 33.10685 28.53048
#
# Velocity S-wave (km/s) = 3.38053 3.97424 3.68935
# Velocity P-wave (km/s) = 5.59531 7.03619 6.35671
#
# Compressibility (1/GPa) = 0.02968726
#
# Stress axis : x y z
#
# Youngs Moduli (GPa) = 27.06221 83.01990 92.35869
#
# Poissons Ratio (x) = 0.83948 0.25064
# Poissons Ratio (y) = 0.27365 0.20716
# Poissons Ratio (z) = 0.07344 0.18622
#
# Static dielectric constant tensor:
#      x y z
#    x 3.678590 0.190830 0.358880 
#    y 0.190830 3.925370 -0.136720 
#    z 0.358880 -0.136720 4.234450 
# 
# 
# High freq. dielectric constant tensor:
#      x y z
#    x 1.780830 0.026950 0.025380 
#    y 0.026950 1.822910 -0.006670 
#    z 0.025380 -0.006670 1.831660 
# 
# From -- ./inp_files/333134.got.cif
#   From: 2010.06.25/outbox.cif.g09.slc.cpg/sg2_167_cif.got.tgz:333134.got - 2010.06.27 13:26:56.
