data_PCOD8041151
_publ_section_title
;
Structure prediction by ZEFSAII (Michael W. Deem and Ramdas Pophale) SiO2 
 PCOD8041151
Probable space group: P -1
;
_chemical_formula_sum "Si O2"
_cell_formula_units_Z 16
_cell_length_a 11.505108
_cell_length_b 13.787578
_cell_length_c 14.111704
_cell_angle_alpha 53.582239
_cell_angle_beta 129.549302
_cell_angle_gamma 84.649230
_cell_volume 903.535096
_symmetry_space_group_name_H-M "P -1"
_symmetry_group_IT_number 2
_symmetry_cell_setting 'triclinic'
loop_
_space_group_symop_operation_xyz
x,y,z
-x,-y,-z
loop_
_atom_site_type_symbol
_atom_site_label
_atom_site_fract_x
_atom_site_fract_y
_atom_site_fract_z
Si Si1 0.857700 0.417473 0.810844
Si Si2 0.332197 0.881560 0.747480
Si Si3 0.979404 0.068009 0.088210
Si Si4 0.377187 0.814881 0.301402
Si Si5 0.727847 0.685345 0.948183
Si Si6 0.919329 0.390843 0.075570
Si Si7 0.944070 0.098172 0.271634
Si Si8 0.394787 0.081767 0.588987
O O1 0.592603 0.592392 0.540392
O O2 0.021974 0.408797 0.840495
O O3 0.932108 0.235252 0.939872
O O4 0.890141 0.439756 0.922736
O O5 0.269049 0.854256 0.828362
O O6 0.297524 0.048636 0.639287
O O7 0.603590 0.693075 0.968840
O O8 0.170091 0.931529 0.548093
O O9 0.997994 0.031530 0.230250
O O10 0.771613 0.113483 0.912368
O O11 0.221677 0.881516 0.274720
O O12 0.463905 0.899214 0.297924
O O13 0.741030 0.582070 0.929807
O O14 0.558838 0.901810 0.707983
O O15 0.864583 0.284754 0.130150
O O16 0.182984 0.264692 0.313286
#
# Coordination Sequence:
#
# PCOD8041151 Si02
#       8
#     2   2   2   2   2   2   2   2
#     4  11  21  32  52  78 107 127 170 213 251 306
#     4   8  18  33  55  76 102 131 165 210 257 294
#     4  10  22  36  53  74 101 140 170 206 253 294
#     4  11  21  35  54  74 102 139 171 204 253 304
#     4  10  19  31  51  78 104 135 160 208 258 300
#     4  10  20  30  51  82 101 135 165 201 266 305
#     4   9  18  36  53  74 106 131 168 212 246 302
#     4   9  19  33  50  75 105 130 170 205 250 304
#
# _framework density 17.708223
#
# number of rings (size 3 to 8) (size 9 to 14) (size 15 to 20)
#    0.750    1.500    2.500    0.750    1.750    1.000 
#    0.000    0.625    0.000    0.750    0.000    0.000 
#    0.000    0.000    0.000    0.000    0.000    0.000 
#
# Total GULP energy -198263.933542 kJ/mol
# GULP energy per Si atom -12391.495846 kJ/mol
# Density = 1.766792 g / cm^3
# Si number density = 17.708223 Si / 1000 Ang^3
#
#
#
# Elastic Constant Matrix: (Units=GPa)
#
#
# Indices 1 2 3 4 5 6 
#
# 1 114.0575 22.8686 39.1623 13.2174 14.0660 3.0916
# 2 22.8686 60.0524 14.2587 8.0692 1.1430 0.3315
# 3 39.1623 14.2587 57.0194 -2.5325 12.8975 -0.9432
# 4 13.2174 8.0692 -2.5325 28.8829 -1.4786 9.2463
# 5 14.0660 1.1430 12.8975 -1.4786 23.7016 0.4907
# 6 3.0916 0.3315 -0.9432 9.2463 0.4907 22.7146
#
#
#
# Elastic Compliance Matrix: (Units=1/GPa)
#
#
# Indices 1 2 3 4 5 6 
#
# 1 0.013113 -0.002184 -0.007876 -0.006481 -0.003809 0.000641
# 2 -0.002184 0.019067 -0.003957 -0.005177 0.002167 0.001915
# 3 -0.007876 -0.003957 0.026264 0.006644 -0.009007 -0.000290
# 4 -0.006481 -0.005177 0.006644 0.045345 0.003668 -0.017304
# 5 -0.003809 0.002167 -0.009007 0.003668 0.049528 -0.002450
# 6 0.000641 0.001915 -0.000290 -0.017304 -0.002450 0.050994
#
#
# Mechanical properties :
#
#
# Convention : Reuss Voigt Hill
#
# Bulk Modulus (GPa) = 32.88220 42.63427 37.75824
# Shear Modulus (GPa) = 20.62023 25.38246 23.00135
#
# Velocity S-wave (km/s) = 3.41610 3.79010 3.60795
# Velocity P-wave (km/s) = 5.84541 6.57886 6.22295
#
# Compressibility (1/GPa) = 0.03041159
#
# Stress axis : x y z
#
# Youngs Moduli (GPa) = 76.26004 52.44694 38.07448
#
# Poissons Ratio (x) = 0.11453 0.29988
# Poissons Ratio (y) = 0.16653 0.15065
# Poissons Ratio (z) = 0.60063 0.20751
#
# Static dielectric constant tensor:
#      x y z
#    x 3.337150 0.113020 0.255530 
#    y 0.113020 3.248200 -0.092680 
#    z 0.255530 -0.092680 3.100320 
# 
# 
# High freq. dielectric constant tensor:
#      x y z
#    x 1.677220 0.015540 0.026020 
#    y 0.015540 1.681310 -0.013140 
#    z 0.026020 -0.013140 1.662150 
# 
# From -- ./inp_files/431232.got.cif
#   From: 2010.06.25/outbox.cif.g09.slc.cpg/sg2_216_cif.got.tgz:431232.got - 2010.06.27 13:26:56.
