data_PCOD8041776
_publ_section_title
;
Structure prediction by ZEFSAII (Michael W. Deem and Ramdas Pophale) SiO2 
 PCOD8041776
Probable space group: P -1
;
_chemical_formula_sum "Si O2"
_cell_formula_units_Z 16
_cell_length_a 20.797672
_cell_length_b 8.705171
_cell_length_c 14.342164
_cell_angle_alpha 140.062642
_cell_angle_beta 153.472799
_cell_angle_gamma 37.918268
_cell_volume 694.909646
_symmetry_space_group_name_H-M "P -1"
_symmetry_group_IT_number 2
_symmetry_cell_setting 'triclinic'
loop_
_space_group_symop_operation_xyz
x,y,z
-x,-y,-z
loop_
_atom_site_type_symbol
_atom_site_label
_atom_site_fract_x
_atom_site_fract_y
_atom_site_fract_z
Si Si1 0.169653 0.733954 0.034293
Si Si2 0.409139 0.916317 0.984623
Si Si3 0.160911 0.668199 0.589127
Si Si4 0.270957 0.318249 0.133914
Si Si5 0.295623 0.713934 0.483477
Si Si6 0.008818 0.127539 0.717856
Si Si7 0.598206 0.661977 0.960741
Si Si8 0.819593 0.885620 0.632477
O O1 0.191864 0.530255 0.051232
O O2 0.281090 0.618572 0.036714
O O3 0.206905 0.976049 0.235925
O O4 0.999374 0.818841 0.810096
O O5 0.300334 0.755864 0.782035
O O6 0.575651 0.717524 0.069653
O O7 0.409632 0.077799 0.154581
O O8 0.345065 0.124863 0.914467
O O9 0.036794 0.734131 0.376476
O O10 0.227351 0.363340 0.546049
O O11 0.076005 0.819240 0.642592
O O12 0.341271 0.440046 0.362927
O O13 0.145347 0.219589 0.973189
O O14 0.129529 0.788985 0.350565
O O15 0.429328 0.687548 0.716835
O O16 0.287888 0.930568 0.499257
#
# Coordination Sequence:
#
# PCOD8041776 Si02
#       8
#     2   2   2   2   2   2   2   2
#     4   9  19  36  57  81 116 159 185 222 285 353
#     4   9  19  35  58  82 109 153 198 225 269 344
#     4  10  19  35  59  81 113 156 194 225 277 348
#     4   9  18  34  57  84 113 144 193 237 277 324
#     4  11  22  35  59  93 115 141 188 249 286 318
#     4  10  19  33  58  87 112 148 195 235 274 334
#     4  10  20  36  60  86 112 148 199 231 271 346
#     4  10  21  36  57  85 119 146 185 239 291 326
#
# _framework density 23.024576
#
# number of rings (size 3 to 8) (size 9 to 14) (size 15 to 20)
#    0.000    2.250    2.500    0.375    1.750    5.000 
#    0.000    1.250    0.000    3.000    0.000    0.000 
#    0.000    0.000    0.000    0.000    0.000    0.000 
#
# Total GULP energy -198292.133419 kJ/mol
# GULP energy per Si atom -12393.258339 kJ/mol
# Density = 2.297217 g / cm^3
# Si number density = 23.024576 Si / 1000 Ang^3
#
#
#
# Elastic Constant Matrix: (Units=GPa)
#
#
# Indices 1 2 3 4 5 6 
#
# 1 108.6794 52.0380 39.2992 22.3501 8.5011 -46.5335
# 2 52.0380 102.4822 41.2600 41.1102 0.8661 -40.2330
# 3 39.2992 41.2600 72.2854 40.3634 0.5137 -6.2311
# 4 22.3501 41.1102 40.3634 39.0144 -1.5510 -4.6648
# 5 8.5011 0.8661 0.5137 -1.5510 23.2969 2.6986
# 6 -46.5335 -40.2330 -6.2311 -4.6648 2.6986 46.6965
#
#
#
# Elastic Compliance Matrix: (Units=1/GPa)
#
#
# Indices 1 2 3 4 5 6 
#
# 1 0.024534 0.004814 -0.010679 -0.005301 -0.012418 0.027359
# 2 0.004814 0.033173 0.000851 -0.035301 -0.008889 0.030479
# 3 -0.010679 0.000851 0.037949 -0.034981 0.001677 -0.008437
# 4 -0.005301 -0.035301 -0.034981 0.098879 0.014228 -0.031310
# 5 -0.012418 -0.008889 0.001677 0.014228 0.051169 -0.021346
# 6 0.027359 0.030479 -0.008437 -0.031310 -0.021346 0.071918
#
#
# Mechanical properties :
#
#
# Convention : Reuss Voigt Hill
#
# Bulk Modulus (GPa) = 11.67876 60.96018 36.31947
# Shear Modulus (GPa) = 14.03733 31.85820 22.94776
#
# Velocity S-wave (km/s) = 2.47182 3.72379 3.16042
# Velocity P-wave (km/s) = 3.63729 6.70988 5.39687
#
# Compressibility (1/GPa) = 0.08562551
#
# Stress axis : x y z
#
# Youngs Moduli (GPa) = 40.75978 30.14542 26.35139
#
# Poissons Ratio (x) = -0.14512 0.28142
# Poissons Ratio (y) = -0.19622 -0.02241
# Poissons Ratio (z) = 0.43529 -0.02564
#
# Static dielectric constant tensor:
#      x y z
#    x 4.096690 -0.527050 -0.101550 
#    y -0.527050 4.209140 0.393300 
#    z -0.101550 0.393300 3.977170 
# 
# 
# High freq. dielectric constant tensor:
#      x y z
#    x 1.896530 -0.035880 0.002170 
#    y -0.035880 1.894520 0.027380 
#    z 0.002170 0.027380 1.907960 
# 
# From -- ./inp_files/434329.got.cif
#   From: 2010.06.25/outbox.cif.g09.slc.cpg/sg2_218_cif.got.tgz:434329.got - 2010.06.27 13:26:56.
