data_PCOD8041651
_publ_section_title
;
Structure prediction by ZEFSAII (Michael W. Deem and Ramdas Pophale) SiO2 
 PCOD8041651
Probable space group: P -1
;
_chemical_formula_sum "Si O2"
_cell_formula_units_Z 16
_cell_length_a 9.587132
_cell_length_b 12.138208
_cell_length_c 10.148726
_cell_angle_alpha 63.681141
_cell_angle_beta 56.937250
_cell_angle_gamma 62.096715
_cell_volume 846.037407
_symmetry_space_group_name_H-M "P -1"
_symmetry_group_IT_number 2
_symmetry_cell_setting 'triclinic'
loop_
_space_group_symop_operation_xyz
x,y,z
-x,-y,-z
loop_
_atom_site_type_symbol
_atom_site_label
_atom_site_fract_x
_atom_site_fract_y
_atom_site_fract_z
Si Si1 0.850683 0.543165 0.331743
Si Si2 0.575990 0.839590 0.678917
Si Si3 0.666262 0.502679 0.201960
Si Si4 0.959728 0.253842 0.836790
Si Si5 0.242198 0.034631 0.683755
Si Si6 0.715687 0.466017 0.702456
Si Si7 0.726035 0.235667 0.210549
Si Si8 0.214815 0.386272 0.166330
O O1 0.692189 0.549123 0.310581
O O2 0.786250 0.543040 0.514292
O O3 0.915080 0.667907 0.210943
O O4 0.009742 0.414219 0.287349
O O5 0.716310 0.868285 0.493304
O O6 0.483540 0.738430 0.716258
O O7 0.684027 0.767291 0.788695
O O8 0.416742 0.971512 0.719412
O O9 0.465101 0.553146 0.239072
O O10 0.744211 0.346011 0.241548
O O11 0.769237 0.567045 0.014012
O O12 0.854986 0.324142 0.724473
O O13 0.079395 0.110720 0.815309
O O14 0.818163 0.244787 0.020747
O O15 0.197036 0.913418 0.698683
O O16 0.704098 0.534621 0.813770
#
# Coordination Sequence:
#
# PCOD8041651 Si02
#       8
#     2   2   2   2   2   2   2   2
#     4  11  24  34  54  86 120 148 170 232 293 330
#     4   9  18  33  56  84 104 141 184 238 263 313
#     4  12  22  37  55  86 118 145 180 226 291 334
#     4  11  20  34  58  82 113 141 190 228 270 325
#     4   9  19  34  54  87 107 140 189 235 267 311
#     4  11  20  35  55  83 111 147 187 228 270 326
#     4  10  19  33  56  82 107 146 179 233 263 326
#     4  11  19  36  60  82 111 142 194 228 270 327
#
# _framework density 18.911691999999999
#
# number of rings (size 3 to 8) (size 9 to 14) (size 15 to 20)
#    0.750    0.750    3.750    5.250    0.000    0.000 
#    0.000    0.000    0.000    5.250    0.000    0.000 
#    0.000    0.000    0.000    0.000    0.000    0.000 
#
# Total GULP energy -198239.189211 kJ/mol
# GULP energy per Si atom -12389.949326 kJ/mol
# Density = 1.886865 g / cm^3
# Si number density = 18.911692 Si / 1000 Ang^3
#
#
#
# Elastic Constant Matrix: (Units=GPa)
#
#
# Indices 1 2 3 4 5 6 
#
# 1 77.1977 21.9684 3.8020 1.9841 5.4055 1.2025
# 2 21.9684 78.2752 15.1779 -9.2476 4.3617 -11.4238
# 3 3.8020 15.1779 72.2347 -11.0775 -9.0953 11.6921
# 4 1.9841 -9.2476 -11.0775 20.5401 1.4844 -2.7660
# 5 5.4055 4.3617 -9.0953 1.4844 23.2604 -0.9060
# 6 1.2025 -11.4238 11.6921 -2.7660 -0.9060 27.6161
#
#
#
# Elastic Compliance Matrix: (Units=1/GPa)
#
#
# Indices 1 2 3 4 5 6 
#
# 1 0.014663 -0.004857 -0.000166 -0.003928 -0.002430 -0.003050
# 2 -0.004857 0.017567 -0.004377 0.007647 -0.003977 0.009967
# 3 -0.000166 -0.004377 0.017996 0.006077 0.007174 -0.008578
# 4 -0.003928 0.007647 0.006077 0.056756 -0.001518 0.006396
# 5 -0.002430 -0.003977 0.007174 -0.001518 0.047080 -0.003184
# 6 -0.003050 0.009967 -0.008578 0.006396 -0.003184 0.044635
#
#
# Mechanical properties :
#
#
# Convention : Reuss Voigt Hill
#
# Bulk Modulus (GPa) = 31.81993 34.40047 33.11020
# Shear Modulus (GPa) = 21.93270 26.73394 24.33332
#
# Velocity S-wave (km/s) = 3.40919 3.76389 3.59093
# Velocity P-wave (km/s) = 5.68849 6.09251 5.89396
#
# Compressibility (1/GPa) = 0.03142685
#
# Stress axis : x y z
#
# Youngs Moduli (GPa) = 68.20056 56.92547 55.56810
#
# Poissons Ratio (x) = 0.27648 0.00921
# Poissons Ratio (y) = 0.33124 0.24321
# Poissons Ratio (z) = 0.01130 0.24915
#
# Static dielectric constant tensor:
#      x y z
#    x 3.367490 -0.259540 -0.160280 
#    y -0.259540 3.443380 -0.230370 
#    z -0.160280 -0.230370 3.458210 
# 
# 
# High freq. dielectric constant tensor:
#      x y z
#    x 1.718840 -0.025990 -0.026120 
#    y -0.025990 1.716630 -0.018340 
#    z -0.026120 -0.018340 1.733880 
# 
# From -- ./inp_files/176102.got.cif
#   From: 2010.06.25/outbox.cif.g09.slc.cpg/sg2_89_cif.got.tgz:176102.got - 2010.06.27 13:26:56.
