data_PCOD8041149
_publ_section_title
;
Structure prediction by ZEFSAII (Michael W. Deem and Ramdas Pophale) SiO2 
 PCOD8041149
Probable space group: P -1
;
_chemical_formula_sum "Si O2"
_cell_formula_units_Z 16
_cell_length_a 18.541707
_cell_length_b 5.290400
_cell_length_c 10.236640
_cell_angle_alpha 58.881094
_cell_angle_beta 108.935428
_cell_angle_gamma 81.796084
_cell_volume 751.012247
_symmetry_space_group_name_H-M "P -1"
_symmetry_group_IT_number 2
_symmetry_cell_setting 'triclinic'
loop_
_space_group_symop_operation_xyz
x,y,z
-x,-y,-z
loop_
_atom_site_type_symbol
_atom_site_label
_atom_site_fract_x
_atom_site_fract_y
_atom_site_fract_z
Si Si1 0.473536 0.918660 0.344575
Si Si2 0.500259 0.464596 0.285275
Si Si3 0.758630 0.516506 0.104211
Si Si4 0.241613 0.796734 0.082424
Si Si5 0.670715 0.653401 0.511232
Si Si6 0.950664 0.917423 0.107246
Si Si7 0.671631 0.325993 0.338183
Si Si8 0.950685 0.229050 0.295606
O O1 0.441347 0.802476 0.225178
O O2 0.450198 0.774618 0.500283
O O3 0.572263 0.791800 0.422068
O O4 0.441346 0.305839 0.225179
O O5 0.570759 0.487902 0.226713
O O6 0.704475 0.446364 0.201350
O O7 0.854470 0.329617 0.243147
O O8 0.734806 0.397202 0.986661
O O9 0.734810 0.894739 0.986753
O O10 0.293887 0.566965 0.286137
O O11 0.145373 0.897942 0.029359
O O12 0.703253 0.444360 0.455203
O O13 0.703253 0.941953 0.455229
O O14 0.975095 0.536906 0.225544
O O15 0.975097 0.036893 0.225550
O O16 0.000000 0.000000 0.000000
O O17 0.000000 0.000000 0.500000
#
# Coordination Sequence:
#
# PCOD8041149 Si02
#       8
#     2   2   2   2   2   2   2   2
#     4   8  14  25  42  66  94 120 152 199 244 275
#     4   8  14  25  42  66  94 120 152 199 244 275
#     4  10  21  36  51  71 103 135 157 191 250 299
#     4  10  21  36  51  71 103 135 157 191 250 299
#     4  10  19  31  51  76  96 124 169 207 234 279
#     4  10  21  36  54  75  99 129 163 199 242 289
#     4  10  19  31  51  76  96 124 169 207 234 279
#     4  10  21  36  54  75  99 129 163 199 242 289
#
# _framework density 21.304579
#
# number of rings (size 3 to 8) (size 9 to 14) (size 15 to 20)
#    0.000    2.500    0.000    2.250    0.000    2.000 
#    0.000    0.000    0.000    1.500    0.000    0.000 
#    0.000    0.000    0.000    0.000    0.000    0.000 
#
# Total GULP energy -198323.875509 kJ/mol
# GULP energy per Si atom -12395.242219 kJ/mol
# Density = 2.125609 g / cm^3
# Si number density = 21.304579 Si / 1000 Ang^3
#
#
#
# Elastic Constant Matrix: (Units=GPa)
#
#
# Indices 1 2 3 4 5 6 
#
# 1 67.2992 27.9116 40.0620 2.5175 -33.1524 -0.3923
# 2 27.9116 213.0250 44.1588 8.2595 -20.4955 27.5054
# 3 40.0620 44.1588 92.2616 3.0744 -17.7808 0.6878
# 4 2.5175 8.2595 3.0744 24.3796 -3.2337 -8.3163
# 5 -33.1524 -20.4955 -17.7808 -3.2337 41.5465 0.3209
# 6 -0.3923 27.5054 0.6878 -8.3163 0.3209 22.4082
#
#
#
# Elastic Compliance Matrix: (Units=1/GPa)
#
#
# Indices 1 2 3 4 5 6 
#
# 1 0.030411 -0.000378 -0.009178 0.001336 0.020245 0.001484
# 2 -0.000378 0.007023 -0.002610 -0.005391 0.001709 -0.010573
# 3 -0.009178 -0.002610 0.015671 0.000560 -0.001883 0.002797
# 4 0.001336 -0.005391 0.000560 0.051765 0.002476 0.025799
# 5 0.020245 0.001709 -0.001883 0.002476 0.040464 -0.001346
# 6 0.001484 -0.010573 0.002797 0.025799 -0.001346 0.067138
#
#
# Mechanical properties :
#
#
# Convention : Reuss Voigt Hill
#
# Bulk Modulus (GPa) = 34.75407 66.31675 50.53541
# Shear Modulus (GPa) = 20.29262 35.03041 27.66151
#
# Velocity S-wave (km/s) = 3.08961 4.05935 3.60722
# Velocity P-wave (km/s) = 5.39221 7.29155 6.41259
#
# Compressibility (1/GPa) = 0.02877361
#
# Stress axis : x y z
#
# Youngs Moduli (GPa) = 32.88307 142.38332 63.81219
#
# Poissons Ratio (x) = 0.05376 0.58569
# Poissons Ratio (y) = 0.01241 0.16654
# Poissons Ratio (z) = 0.30181 0.37160
#
# Static dielectric constant tensor:
#      x y z
#    x 3.756990 0.292190 -0.100680 
#    y 0.292190 5.373540 0.042910 
#    z -0.100680 0.042910 3.454210 
# 
# 
# High freq. dielectric constant tensor:
#      x y z
#    x 1.823590 0.009760 -0.018620 
#    y 0.009760 1.876410 0.004150 
#    z -0.018620 0.004150 1.808450 
# 
# From -- ./inp_files/11393.got.cif
#   From: 2010.06.25/outbox.cif.g09.slc.cpg/sg2_6_cif.got.tgz:11393.got - 2010.06.27 13:26:56.
