data_PCOD8041117
_publ_section_title
;
Structure prediction by ZEFSAII (Michael W. Deem and Ramdas Pophale) SiO2 
 PCOD8041117
Probable space group: P -1
;
_chemical_formula_sum "Si O2"
_cell_formula_units_Z 16
_cell_length_a 11.352471
_cell_length_b 12.396342
_cell_length_c 18.633409
_cell_angle_alpha 28.352317
_cell_angle_beta 131.942806
_cell_angle_gamma 115.410580
_cell_volume 826.973912
_symmetry_space_group_name_H-M "P -1"
_symmetry_group_IT_number 2
_symmetry_cell_setting 'triclinic'
loop_
_space_group_symop_operation_xyz
x,y,z
-x,-y,-z
loop_
_atom_site_type_symbol
_atom_site_label
_atom_site_fract_x
_atom_site_fract_y
_atom_site_fract_z
Si Si1 0.620923 0.657412 0.115008
Si Si2 0.830487 0.581288 0.103766
Si Si3 0.088164 0.964377 0.159095
Si Si4 0.835206 0.436688 0.461467
Si Si5 0.359559 0.663509 0.904438
Si Si6 0.574385 0.788997 0.257774
Si Si7 0.206233 0.242764 0.505746
Si Si8 0.727674 0.307638 0.746322
O O1 0.683258 0.700929 0.035993
O O2 0.775745 0.435933 0.354415
O O3 0.449883 0.608947 0.053116
O O4 0.558334 0.916318 0.983427
O O5 0.789450 0.436567 0.105360
O O6 0.996647 0.372746 0.336065
O O7 0.859572 0.806889 0.948310
O O8 0.110705 0.837957 0.320548
O O9 0.215895 0.746265 0.283333
O O10 0.881668 0.071866 0.989943
O O11 0.652496 0.644026 0.300994
O O12 0.000000 0.500000 0.500000
O O13 0.286477 0.955856 0.677501
O O14 0.500000 0.500000 0.000000
O O15 0.743227 0.768381 0.383610
O O16 0.465034 0.670681 0.328161
O O17 0.279669 0.422518 0.390388
#
# Coordination Sequence:
#
# PCOD8041117 Si02
#       8
#     2   2   2   2   2   2   2   2
#     4  10  21  36  53  81 114 148 188 229 279 328
#     4  10  19  38  59  79 108 149 193 237 269 322
#     4  10  21  35  58  81 115 149 185 226 281 333
#     4  12  24  35  52  84 119 154 180 221 287 346
#     4   9  20  35  55  79 109 145 193 239 271 314
#     4  11  20  33  54  82 117 150 179 226 278 344
#     4  10  19  30  56  88 109 139 183 236 281 321
#     4  10  19  34  56  85 116 144 184 231 278 331
#
# _framework density 19.347648
#
# number of rings (size 3 to 8) (size 9 to 14) (size 15 to 20)
#    0.000    1.750    2.500    2.625    1.750    0.000 
#    0.000    0.625    0.000    0.000    0.000   16.625 
#    0.000    0.000    0.000    0.000    0.000    0.000 
#
# Total GULP energy -198265.444066 kJ/mol
# GULP energy per Si atom -12391.590254 kJ/mol
# Density = 1.930361 g / cm^3
# Si number density = 19.347648 Si / 1000 Ang^3
#
#
#
# Elastic Constant Matrix: (Units=GPa)
#
#
# Indices 1 2 3 4 5 6 
#
# 1 62.9747 29.5953 27.6121 1.5845 -4.5098 11.4490
# 2 29.5953 96.4567 43.9684 0.1225 -8.0505 23.8879
# 3 27.6121 43.9684 106.2702 0.5897 -13.9684 8.7822
# 4 1.5845 0.1225 0.5897 41.4921 -4.8140 4.0633
# 5 -4.5098 -8.0505 -13.9684 -4.8140 31.7057 3.1001
# 6 11.4490 23.8879 8.7822 4.0633 3.1001 24.8610
#
#
#
# Elastic Compliance Matrix: (Units=1/GPa)
#
#
# Indices 1 2 3 4 5 6 
#
# 1 0.019823 -0.003299 -0.003244 -0.000101 0.001019 -0.004924
# 2 -0.003299 0.017336 -0.004681 0.001950 0.003559 -0.014248
# 3 -0.003244 -0.004681 0.012612 0.000307 0.003854 0.001006
# 4 -0.000101 0.001950 0.000307 0.025347 0.005121 -0.006717
# 5 0.001019 0.003559 0.003854 0.005121 0.036100 -0.010589
# 6 -0.004924 -0.014248 0.001006 -0.006717 -0.010589 0.058244
#
#
# Mechanical properties :
#
#
# Convention : Reuss Voigt Hill
#
# Bulk Modulus (GPa) = 36.60026 52.00590 44.30308
# Shear Modulus (GPa) = 24.87350 30.58014 27.72682
#
# Velocity S-wave (km/s) = 3.58943 3.97994 3.78972
# Velocity P-wave (km/s) = 6.01140 6.93238 6.48825
#
# Compressibility (1/GPa) = 0.02732221
#
# Stress axis : x y z
#
# Youngs Moduli (GPa) = 50.44695 57.68210 79.29247
#
# Poissons Ratio (x) = 0.19027 0.25725
# Poissons Ratio (y) = 0.16641 0.37119
# Poissons Ratio (z) = 0.16367 0.27002
#
# Static dielectric constant tensor:
#      x y z
#    x 3.321410 0.393790 0.178340 
#    y 0.393790 4.108880 0.032990 
#    z 0.178340 0.032990 3.742530 
# 
# 
# High freq. dielectric constant tensor:
#      x y z
#    x 1.721280 0.022850 0.015810 
#    y 0.022850 1.737760 0.005630 
#    z 0.015810 0.005630 1.774850 
# 
# From -- ./inp_files/181481.got.cif
#   From: 2010.06.25/outbox.cif.g09.slc.cpg/sg2_91_cif.got.tgz:181481.got - 2010.06.27 13:26:56.
