data_PCOD8041582
_publ_section_title
;
Structure prediction by ZEFSAII (Michael W. Deem and Ramdas Pophale) SiO2 
 PCOD8041582
Probable space group: P -1
;
_chemical_formula_sum "Si O2"
_cell_formula_units_Z 16
_cell_length_a 9.406035
_cell_length_b 14.236439
_cell_length_c 8.261549
_cell_angle_alpha 106.287779
_cell_angle_beta 130.310856
_cell_angle_gamma 71.038703
_cell_volume 794.027873
_symmetry_space_group_name_H-M "P -1"
_symmetry_group_IT_number 2
_symmetry_cell_setting 'triclinic'
loop_
_space_group_symop_operation_xyz
x,y,z
-x,-y,-z
loop_
_atom_site_type_symbol
_atom_site_label
_atom_site_fract_x
_atom_site_fract_y
_atom_site_fract_z
Si Si1 0.094794 0.374331 0.881414
Si Si2 0.361160 0.230332 0.206951
Si Si3 0.480589 0.896215 0.017731
Si Si4 0.833328 0.885366 0.757150
Si Si5 0.315183 0.526014 0.257485
Si Si6 0.525887 0.301889 0.654744
Si Si7 0.231047 0.246158 0.631493
Si Si8 0.238105 0.898939 0.147085
O O1 0.095910 0.326643 0.680789
O O2 0.880446 0.434537 0.769351
O O3 0.156339 0.283422 0.008548
O O4 0.263551 0.438150 0.063877
O O5 0.323710 0.142549 0.252689
O O6 0.443124 0.310495 0.414624
O O7 0.517392 0.184837 0.164149
O O8 0.660827 0.850465 0.238682
O O9 0.296709 0.905314 0.002714
O O10 0.500000 0.000000 0.000000
O O11 0.882220 0.804920 0.609989
O O12 0.744736 0.999483 0.695452
O O13 0.024360 0.884471 0.994503
O O14 0.500000 0.500000 0.500000
O O15 0.352399 0.611342 0.200168
O O16 0.364514 0.314325 0.678429
O O17 0.643857 0.190781 0.709011
#
# Coordination Sequence:
#
# PCOD8041582 Si02
#       8
#     2   2   2   2   2   2   2   2
#     4  10  22  41  63  90 121 149 196 252 302 351
#     4  10  19  35  61  83 119 156 193 245 291 346
#     4  10  19  33  54  82 113 154 196 237 277 340
#     4  10  20  36  55  81 123 158 199 233 297 344
#     4  11  22  41  67  89 115 154 198 247 305 362
#     4  10  21  37  61  86 117 158 201 239 298 348
#     4   9  22  38  57  85 120 154 193 245 296 350
#     4  10  21  35  54  85 119 161 197 244 282 352
#
# _framework density 20.150427000000001
#
# number of rings (size 3 to 8) (size 9 to 14) (size 15 to 20)
#    0.000    2.000    2.500    0.750    1.750    3.000 
#    2.250    1.250    0.000    0.000    0.000    0.000 
#    0.000    0.000    0.000    0.000    0.000    0.000 
#
# Total GULP energy -198218.223549 kJ/mol
# GULP energy per Si atom -12388.638972 kJ/mol
# Density = 2.010456 g / cm^3
# Si number density = 20.150427 Si / 1000 Ang^3
#
#
#
# Elastic Constant Matrix: (Units=GPa)
#
#
# Indices 1 2 3 4 5 6 
#
# 1 60.2184 35.8564 34.1705 7.8360 -4.7137 -0.2895
# 2 35.8564 87.1144 37.9380 16.2567 -0.7871 0.9494
# 3 34.1705 37.9380 76.4256 11.5273 -3.5454 -0.7062
# 4 7.8360 16.2567 11.5273 29.2157 -4.2248 3.0953
# 5 -4.7137 -0.7871 -3.5454 -4.2248 31.4999 6.8672
# 6 -0.2895 0.9494 -0.7062 3.0953 6.8672 33.9444
#
#
#
# Elastic Compliance Matrix: (Units=1/GPa)
#
#
# Indices 1 2 3 4 5 6 
#
# 1 0.025433 -0.007181 -0.007781 0.000712 0.002934 -0.000403
# 2 -0.007181 0.017640 -0.004677 -0.006385 -0.002094 0.000354
# 3 -0.007781 -0.004677 0.019355 -0.002967 0.000354 0.000666
# 4 0.000712 -0.006385 -0.002967 0.040137 0.006033 -0.004758
# 5 0.002934 -0.002094 0.000354 0.006033 0.034608 -0.007461
# 6 -0.000403 0.000354 0.000666 -0.004758 -0.007461 0.031404
#
#
# Mechanical properties :
#
#
# Convention : Reuss Voigt Hill
#
# Bulk Modulus (GPa) = 43.19717 48.85422 46.02570
# Shear Modulus (GPa) = 23.19398 26.65157 24.92278
#
# Velocity S-wave (km/s) = 3.39638 3.64074 3.52068
# Velocity P-wave (km/s) = 6.07161 6.47848 6.27834
#
# Compressibility (1/GPa) = 0.02314967
#
# Stress axis : x y z
#
# Youngs Moduli (GPa) = 39.31922 56.68802 51.66531
#
# Poissons Ratio (x) = 0.40710 0.40202
# Poissons Ratio (y) = 0.28237 0.24163
# Poissons Ratio (z) = 0.30596 0.26512
#
# Static dielectric constant tensor:
#      x y z
#    x 3.661820 0.009350 -0.076790 
#    y 0.009350 3.809790 0.131170 
#    z -0.076790 0.131170 3.618140 
# 
# 
# High freq. dielectric constant tensor:
#      x y z
#    x 1.775530 0.002390 -0.003910 
#    y 0.002390 1.800250 0.005970 
#    z -0.003910 0.005970 1.772990 
# 
# From -- ./inp_files/201911.got.cif
#   From: 2010.06.25/outbox.cif.g09.slc.cpg/sg2_101_cif.got.tgz:201911.got - 2010.06.27 13:26:56.
