data_PCOD8041521
_publ_section_title
;
Structure prediction by ZEFSAII (Michael W. Deem and Ramdas Pophale) SiO2 
 PCOD8041521
Probable space group: P -1
;
_chemical_formula_sum "Si O2"
_cell_formula_units_Z 16
_cell_length_a 12.850599
_cell_length_b 5.054936
_cell_length_c 15.332193
_cell_angle_alpha 92.295350
_cell_angle_beta 107.839747
_cell_angle_gamma 100.327384
_cell_volume 927.906535
_symmetry_space_group_name_H-M "P -1"
_symmetry_group_IT_number 2
_symmetry_cell_setting 'triclinic'
loop_
_space_group_symop_operation_xyz
x,y,z
-x,-y,-z
loop_
_atom_site_type_symbol
_atom_site_label
_atom_site_fract_x
_atom_site_fract_y
_atom_site_fract_z
Si Si1 0.097857 0.596997 0.093544
Si Si2 0.993726 0.721262 0.577778
Si Si3 0.810034 0.864748 0.429769
Si Si4 0.788730 0.838066 0.830906
Si Si5 0.892938 0.545230 0.723282
Si Si6 0.344250 0.709164 0.398875
Si Si7 0.332763 0.692669 0.594564
Si Si8 0.422840 0.232368 0.325106
O O1 0.194790 0.418826 0.109522
O O2 0.050159 0.575175 0.180801
O O3 0.154101 0.905504 0.094089
O O4 0.000000 0.500000 0.000000
O O5 0.000000 0.500000 0.500000
O O6 0.881490 0.840560 0.535533
O O7 0.983648 0.596447 0.669980
O O8 0.099648 0.970940 0.612614
O O9 0.751860 0.557404 0.383309
O O10 0.715401 0.035865 0.420314
O O11 0.849500 0.812016 0.751668
O O12 0.660166 0.854001 0.779515
O O13 0.785323 0.330317 0.660485
O O14 0.356596 0.620647 0.500396
O O15 0.409459 0.526404 0.356075
O O16 0.399113 0.019901 0.396288
O O17 0.450456 0.748297 0.676396
#
# Coordination Sequence:
#
# PCOD8041521 Si02
#       8
#     2   2   2   2   2   2   2   2
#     4  10  19  33  53  76 106 132 161 206 257 315
#     4  11  21  38  53  70 100 144 182 218 258 292
#     4  11  23  34  48  69  92 137 178 222 242 289
#     4   9  19  33  50  76 104 134 163 200 254 318
#     4   9  20  31  55  72 106 136 171 208 254 299
#     4  11  19  32  47  71  99 137 172 206 240 303
#     4  12  22  33  48  68 102 134 181 213 246 282
#     4  11  20  33  47  72  99 138 170 208 244 302
#
# _framework density 17.243117000000002
#
# number of rings (size 3 to 8) (size 9 to 14) (size 15 to 20)
#    0.750    0.750    3.750    2.625    1.750    2.000 
#    0.000    0.000    0.000    0.000    0.000    0.000 
#    0.000    6.000    0.000    0.000    0.000    0.000 
#
# Total GULP energy -198219.352766 kJ/mol
# GULP energy per Si atom -12388.709548 kJ/mol
# Density = 1.720387 g / cm^3
# Si number density = 17.243117 Si / 1000 Ang^3
#
#
#
# Elastic Constant Matrix: (Units=GPa)
#
#
# Indices 1 2 3 4 5 6 
#
# 1 59.5685 20.7481 28.9987 -0.3193 18.8861 6.6118
# 2 20.7481 92.7671 14.6136 2.6526 6.5841 2.5032
# 3 28.9987 14.6136 73.6525 5.3046 19.1478 3.2120
# 4 -0.3193 2.6526 5.3046 22.0543 2.4129 3.3229
# 5 18.8861 6.5841 19.1478 2.4129 21.0778 -2.3996
# 6 6.6118 2.5032 3.2120 3.3229 -2.3996 29.3790
#
#
#
# Elastic Compliance Matrix: (Units=1/GPa)
#
#
# Indices 1 2 3 4 5 6 
#
# 1 0.028108 -0.003974 -0.004865 0.005533 -0.021045 -0.007800
# 2 -0.003974 0.011783 -0.000916 -0.001386 0.000896 0.000221
# 3 -0.004865 -0.000916 0.019260 -0.002957 -0.012699 -0.001635
# 4 0.005533 -0.001386 -0.002957 0.048236 -0.008149 -0.006925
# 5 -0.021045 0.000896 -0.012699 -0.008149 0.080027 0.013506
# 6 -0.007800 0.000221 -0.001635 -0.006925 0.013506 0.037840
#
#
# Mechanical properties :
#
#
# Convention : Reuss Voigt Hill
#
# Bulk Modulus (GPa) = 25.22678 39.41211 32.31944
# Shear Modulus (GPa) = 19.38151 25.27740 22.32945
#
# Velocity S-wave (km/s) = 3.35627 3.83292 3.60248
# Velocity P-wave (km/s) = 5.44805 6.51879 6.00732
#
# Compressibility (1/GPa) = 0.03964042
#
# Stress axis : x y z
#
# Youngs Moduli (GPa) = 35.57711 84.86876 51.92029
#
# Poissons Ratio (x) = 0.33728 0.25261
# Poissons Ratio (y) = 0.14139 0.04756
# Poissons Ratio (z) = 0.17309 0.07773
#
# Static dielectric constant tensor:
#      x y z
#    x 3.044710 0.014080 0.271010 
#    y 0.014080 3.368860 -0.018760 
#    z 0.271010 -0.018760 2.938270 
# 
# 
# High freq. dielectric constant tensor:
#      x y z
#    x 1.633320 -0.005010 0.036040 
#    y -0.005010 1.687650 -0.000900 
#    z 0.036040 -0.000900 1.621740 
# 
# From -- ./inp_files/563859.got.cif
#   From: 2010.06.25/outbox.cif.g09.slc.cpg/sg2_282_cif.got.tgz:563859.got - 2010.06.27 13:26:56.
