data_PCOD8041200
_publ_section_title
;
Structure prediction by ZEFSAII (Michael W. Deem and Ramdas Pophale) SiO2 
 PCOD8041200
Probable space group: P -1
;
_chemical_formula_sum "Si O2"
_cell_formula_units_Z 16
_cell_length_a 16.574266
_cell_length_b 9.149121
_cell_length_c 9.337776
_cell_angle_alpha 88.311781
_cell_angle_beta 132.443914
_cell_angle_gamma 128.559321
_cell_volume 600.645130
_symmetry_space_group_name_H-M "P -1"
_symmetry_group_IT_number 2
_symmetry_cell_setting 'triclinic'
loop_
_space_group_symop_operation_xyz
x,y,z
-x,-y,-z
loop_
_atom_site_type_symbol
_atom_site_label
_atom_site_fract_x
_atom_site_fract_y
_atom_site_fract_z
Si Si1 0.588802 0.425358 0.478316
Si Si2 0.584658 0.243370 0.913794
Si Si3 0.222771 0.840273 0.890303
Si Si4 0.112440 0.285431 0.948696
Si Si5 0.933214 0.102693 0.102204
Si Si6 0.866460 0.250836 0.530981
Si Si7 0.325677 0.668222 0.659243
Si Si8 0.675260 0.837798 0.557430
O O1 0.525790 0.242303 0.282096
O O2 0.620645 0.618634 0.438264
O O3 0.450176 0.272868 0.449247
O O4 0.794467 0.598060 0.784950
O O5 0.595987 0.076951 0.911148
O O6 0.748687 0.495879 0.010315
O O7 0.618950 0.323967 0.117004
O O8 0.380986 0.096660 0.626855
O O9 0.170833 0.845335 0.671309
O O10 0.054408 0.554187 0.756034
O O11 0.234210 0.991575 0.007985
O O12 0.079465 0.082110 0.870996
O O13 0.909391 0.154198 0.687681
O O14 0.889715 0.075241 0.879112
O O15 0.131341 0.380119 0.386433
O O16 0.695053 0.176539 0.375509
#
# Coordination Sequence:
#
# PCOD8041200 Si02
#       8
#     2   2   2   2   2   2   2   2
#     4   9  19  35  52  73 105 142 169 201 256 319
#     4   9  18  34  53  74 103 142 173 200 250 318
#     4   8  15  28  48  75 105 131 166 210 253 297
#     4   9  17  30  50  74 106 136 167 204 255 307
#     4  10  19  31  54  83 103 127 172 223 253 284
#     4   8  15  29  47  73 106 136 163 204 256 307
#     4  10  20  33  55  80 102 130 174 218 252 292
#     4   9  19  35  53  73 104 139 170 204 255 312
#
# _framework density 26.638024000000001
#
# number of rings (size 3 to 8) (size 9 to 14) (size 15 to 20)
#    0.000    3.000    0.000    3.000    0.000    5.500 
#    0.000    0.000    0.000    9.000    0.000    0.000 
#    0.000    0.000    0.000    0.000    0.000    0.000 
#
# Total GULP energy -198398.672479 kJ/mol
# GULP energy per Si atom -12399.917030 kJ/mol
# Density = 2.657739 g / cm^3
# Si number density = 26.638024 Si / 1000 Ang^3
#
#
#
# Elastic Constant Matrix: (Units=GPa)
#
#
# Indices 1 2 3 4 5 6 
#
# 1 151.2608 67.6944 76.4566 -10.9664 1.4047 -24.2502
# 2 67.6944 162.5524 99.1871 -30.6831 -20.1286 -34.3393
# 3 76.4566 99.1871 162.4660 -18.3764 -7.4237 -26.2671
# 4 -10.9664 -30.6831 -18.3764 47.7546 -3.3243 1.1234
# 5 1.4047 -20.1286 -7.4237 -3.3243 65.9765 13.3483
# 6 -24.2502 -34.3393 -26.2671 1.1234 13.3483 35.0864
#
#
#
# Elastic Compliance Matrix: (Units=1/GPa)
#
#
# Indices 1 2 3 4 5 6 
#
# 1 0.009384 -0.001652 -0.002981 -0.000251 -0.001719 0.003299
# 2 -0.001652 0.012755 -0.005216 0.005823 0.002347 0.006358
# 3 -0.002981 -0.005216 0.010926 0.000102 -0.000539 0.001216
# 4 -0.000251 0.005823 0.000102 0.024726 0.002238 0.003959
# 5 -0.001719 0.002347 -0.000539 0.002238 0.017154 -0.005893
# 6 0.003299 0.006358 0.001216 0.003959 -0.005893 0.040029
#
#
# Mechanical properties :
#
#
# Convention : Reuss Voigt Hill
#
# Bulk Modulus (GPa) = 74.81191 106.99503 90.90347
# Shear Modulus (GPa) = 35.93792 45.29292 40.61542
#
# Velocity S-wave (km/s) = 3.67702 4.12796 3.90900
# Velocity P-wave (km/s) = 6.79507 7.93558 7.38737
#
# Compressibility (1/GPa) = 0.01336686
#
# Stress axis : x y z
#
# Youngs Moduli (GPa) = 106.56413 78.39755 91.52539
#
# Poissons Ratio (x) = 0.12955 0.27283
# Poissons Ratio (y) = 0.17609 0.47740
# Poissons Ratio (z) = 0.31765 0.40892
#
# Static dielectric constant tensor:
#      x y z
#    x 6.310860 0.090640 0.863290 
#    y 0.090640 4.972370 0.120590 
#    z 0.863290 0.120590 5.535050 
# 
# 
# High freq. dielectric constant tensor:
#      x y z
#    x 2.129900 0.031470 0.039780 
#    y 0.031470 2.105830 0.021590 
#    z 0.039780 0.021590 2.098200 
# 
# From -- ./inp_files/329072.got.cif
#   From: 2010.06.25/outbox.cif.g09.slc.cpg/sg2_165_cif.got.tgz:329072.got - 2010.06.27 13:26:56.
