data_PCOD8041525
_publ_section_title
;
Structure prediction by ZEFSAII (Michael W. Deem and Ramdas Pophale) SiO2 
 PCOD8041525
Probable space group: P -1
;
_chemical_formula_sum "Si O2"
_cell_formula_units_Z 16
_cell_length_a 10.729473
_cell_length_b 14.111711
_cell_length_c 7.734577
_cell_angle_alpha 108.403312
_cell_angle_beta 91.355026
_cell_angle_gamma 133.484222
_cell_volume 755.283335
_symmetry_space_group_name_H-M "P -1"
_symmetry_group_IT_number 2
_symmetry_cell_setting 'triclinic'
loop_
_space_group_symop_operation_xyz
x,y,z
-x,-y,-z
loop_
_atom_site_type_symbol
_atom_site_label
_atom_site_fract_x
_atom_site_fract_y
_atom_site_fract_z
Si Si1 0.716538 0.000835 0.576342
Si Si2 0.036524 0.109885 0.840479
Si Si3 0.783348 0.966556 0.074665
Si Si4 0.124946 0.756207 0.729286
Si Si5 0.140614 0.387213 0.045166
Si Si6 0.624624 0.311628 0.657662
Si Si7 0.100448 0.695850 0.324713
Si Si8 0.467813 0.825308 0.766411
O O1 0.571489 0.848242 0.372547
O O2 0.630159 0.975924 0.748784
O O3 0.749345 0.126884 0.563485
O O4 0.910394 0.055630 0.635828
O O5 0.168399 0.090652 0.814238
O O6 0.165029 0.282369 0.979046
O O7 0.896765 0.007480 0.931375
O O8 0.840350 0.106926 0.233318
O O9 0.565654 0.834374 0.943057
O O10 0.029829 0.650590 0.495528
O O11 0.317090 0.816171 0.815959
O O12 0.997022 0.662931 0.835366
O O13 0.336551 0.554892 0.188835
O O14 0.064741 0.382745 0.857342
O O15 0.793480 0.342447 0.745503
O O16 0.618563 0.308674 0.444487
#
# Coordination Sequence:
#
# PCOD8041525 Si02
#       8
#     2   2   2   2   2   2   2   2
#     4   8  16  32  50  74 103 132 166 216 251 289
#     4   8  16  30  53  70 101 134 173 214 243 299
#     4   9  15  30  50  75 103 130 171 215 253 292
#     4  10  20  31  54  80 104 133 169 212 259 304
#     4  10  20  35  51  77 105 141 168 204 259 305
#     4   9  18  31  52  74 107 137 167 205 260 308
#     4  10  19  33  53  77 106 131 172 213 251 308
#     4   8  17  29  48  78 108 126 164 218 249 306
#
# _framework density 21.184100999999998
#
# number of rings (size 3 to 8) (size 9 to 14) (size 15 to 20)
#    0.750    2.250    0.000    1.875    0.000    2.000 
#    0.000    3.125    0.000    0.000    0.000    1.750 
#    0.000    0.000    0.000    0.000    0.000    0.000 
#
# Total GULP energy -198217.488347 kJ/mol
# GULP energy per Si atom -12388.593022 kJ/mol
# Density = 2.113589 g / cm^3
# Si number density = 21.184101 Si / 1000 Ang^3
#
#
#
# Elastic Constant Matrix: (Units=GPa)
#
#
# Indices 1 2 3 4 5 6 
#
# 1 77.4661 12.6981 26.8819 5.2332 6.2061 -20.8818
# 2 12.6981 41.2825 25.1117 23.9516 1.8635 -9.6395
# 3 26.8819 25.1117 84.6674 12.5510 1.4009 -7.8489
# 4 5.2332 23.9516 12.5510 35.5290 -0.5872 -2.7706
# 5 6.2061 1.8635 1.4009 -0.5872 10.1601 -4.2531
# 6 -20.8818 -9.6395 -7.8489 -2.7706 -4.2531 20.3477
#
#
#
# Elastic Compliance Matrix: (Units=1/GPa)
#
#
# Indices 1 2 3 4 5 6 
#
# 1 0.019576 0.002094 -0.004904 -0.001214 -0.004133 0.018161
# 2 0.002094 0.051286 -0.009696 -0.030126 -0.003619 0.017846
# 3 -0.004904 -0.009696 0.015715 0.001491 0.001410 -0.003067
# 4 -0.001214 -0.030126 0.001491 0.047637 0.005780 -0.007248
# 5 -0.004133 -0.003619 0.001410 0.005780 0.109388 0.018239
# 6 0.018161 0.017846 -0.003067 -0.007248 0.018239 0.077880
#
#
# Mechanical properties :
#
#
# Convention : Reuss Voigt Hill
#
# Bulk Modulus (GPa) = 16.24319 36.97770 26.61045
# Shear Modulus (GPa) = 13.62336 22.45566 18.03951
#
# Velocity S-wave (km/s) = 2.53868 3.25933 2.92131
# Velocity P-wave (km/s) = 4.03454 5.62651 4.89567
#
# Compressibility (1/GPa) = 0.06156425
#
# Stress axis : x y z
#
# Youngs Moduli (GPa) = 51.08263 19.49839 63.63330
#
# Poissons Ratio (x) = -0.04082 0.31208
# Poissons Ratio (y) = -0.10694 0.61697
# Poissons Ratio (z) = 0.25053 0.18905
#
# Static dielectric constant tensor:
#      x y z
#    x 3.738860 -0.178660 0.175040 
#    y -0.178660 3.520570 0.028750 
#    z 0.175040 0.028750 3.790540 
# 
# 
# High freq. dielectric constant tensor:
#      x y z
#    x 1.807470 -0.011940 0.005820 
#    y -0.011940 1.797760 -0.002560 
#    z 0.005820 -0.002560 1.832390 
# 
# From -- ./inp_files/270705.got.cif
#   From: 2010.06.25/outbox.cif.g09.slc.cpg/sg2_136_cif.got.tgz:270705.got - 2010.06.27 13:26:56.
