data_PCOD8041211
_publ_section_title
;
Structure prediction by ZEFSAII (Michael W. Deem and Ramdas Pophale) SiO2 
 PCOD8041211
Probable space group: P -1
;
_chemical_formula_sum "Si O2"
_cell_formula_units_Z 16
_cell_length_a 18.129716
_cell_length_b 5.214042
_cell_length_c 31.598978
_cell_angle_alpha 71.118466
_cell_angle_beta 17.627975
_cell_angle_gamma 63.047695
_cell_volume 738.517618
_symmetry_space_group_name_H-M "P -1"
_symmetry_group_IT_number 2
_symmetry_cell_setting 'triclinic'
loop_
_space_group_symop_operation_xyz
x,y,z
-x,-y,-z
loop_
_atom_site_type_symbol
_atom_site_label
_atom_site_fract_x
_atom_site_fract_y
_atom_site_fract_z
Si Si1 0.478705 0.050397 0.836911
Si Si2 0.348169 0.711642 0.611414
Si Si3 0.596983 0.308876 0.172375
Si Si4 0.085588 0.354346 0.687656
Si Si5 0.173258 0.598509 0.799952
Si Si6 0.672799 0.763249 0.954370
Si Si7 0.751809 0.037155 0.189905
Si Si8 0.415168 0.315170 0.123332
O O1 0.561700 0.319672 0.772195
O O2 0.537376 0.866601 0.770219
O O3 0.670692 0.776850 0.780444
O O4 0.155178 0.216354 0.019438
O O5 0.500000 0.500000 0.500000
O O6 0.604977 0.733652 0.492642
O O7 0.218018 0.596752 0.725046
O O8 0.095575 0.037595 0.713876
O O9 0.566664 0.271829 0.240986
O O10 0.921527 0.138752 0.991114
O O11 0.989996 0.564755 0.772355
O O12 0.858309 0.514094 0.766124
O O13 0.313086 0.762192 0.742087
O O14 0.329589 0.231269 0.746073
O O15 0.550446 0.534198 0.044822
O O16 0.500000 0.000000 0.000000
O O17 0.653180 0.972976 0.993731
#
# Coordination Sequence:
#
# PCOD8041211 Si02
#       8
#     2   2   2   2   2   2   2   2
#     4  10  19  31  55  85 116 140 175 231 278 350
#     4  11  26  39  57  77 114 158 201 244 270 321
#     4   9  17  32  52  85 115 140 171 217 296 341
#     4  10  24  39  55  78 110 154 195 242 284 325
#     4  10  21  34  54  80 112 147 189 224 277 326
#     4  10  21  35  58  79 108 146 192 237 281 336
#     4   9  18  33  55  79 113 146 174 224 277 355
#     4  11  22  37  58  86 112 149 191 232 294 342
#
# _framework density 21.665022
#
# number of rings (size 3 to 8) (size 9 to 14) (size 15 to 20)
#    0.000    2.000    0.000    3.750   10.500    4.000 
#    0.000    0.000    0.000    0.000    0.000    5.250 
#    0.000    0.000    0.000    0.000    0.000    0.000 
#
# Total GULP energy -198258.709960 kJ/mol
# GULP energy per Si atom -12391.169373 kJ/mol
# Density = 2.161571 g / cm^3
# Si number density = 21.665022 Si / 1000 Ang^3
#
#
#
# Elastic Constant Matrix: (Units=GPa)
#
#
# Indices 1 2 3 4 5 6 
#
# 1 107.4925 53.3552 15.4267 9.9959 21.3010 -10.2264
# 2 53.3552 170.5053 15.3582 7.6533 10.1613 -6.4721
# 3 15.4267 15.3582 33.8155 8.1429 -1.5539 -3.2594
# 4 9.9959 7.6533 8.1429 22.0036 0.6124 2.7235
# 5 21.3010 10.1613 -1.5539 0.6124 27.3356 3.2404
# 6 -10.2264 -6.4721 -3.2594 2.7235 3.2404 45.6859
#
#
#
# Elastic Compliance Matrix: (Units=1/GPa)
#
#
# Indices 1 2 3 4 5 6 
#
# 1 0.014246 -0.003141 -0.004280 -0.003926 -0.010494 0.003417
# 2 -0.003141 0.007041 -0.001653 -0.000430 -0.000280 0.000222
# 3 -0.004280 -0.001653 0.035330 -0.010915 0.006018 0.001552
# 4 -0.003926 -0.000430 -0.010915 0.051977 0.002023 -0.004961
# 5 -0.010494 -0.000280 0.006018 0.002023 0.045792 -0.005328
# 6 0.003417 0.000222 0.001552 -0.004961 -0.005328 0.023469
#
#
# Mechanical properties :
#
#
# Convention : Reuss Voigt Hill
#
# Bulk Modulus (GPa) = 25.99460 53.34371 39.66916
# Shear Modulus (GPa) = 23.94330 34.18325 29.06328
#
# Velocity S-wave (km/s) = 3.32800 3.97647 3.66660
# Velocity P-wave (km/s) = 5.17609 6.76451 6.02289
#
# Compressibility (1/GPa) = 0.03846952
#
# Stress axis : x y z
#
# Youngs Moduli (GPa) = 70.19531 142.02199 28.30454
#
# Poissons Ratio (x) = 0.44610 0.12114
# Poissons Ratio (y) = 0.22049 0.04678
# Poissons Ratio (z) = 0.30043 0.23474
#
# Static dielectric constant tensor:
#      x y z
#    x 4.139330 -0.012450 0.439570 
#    y -0.012450 4.084240 0.155960 
#    z 0.439570 0.155960 4.321530 
# 
# 
# High freq. dielectric constant tensor:
#      x y z
#    x 1.859150 0.002160 0.008450 
#    y 0.002160 1.870890 0.005000 
#    z 0.008450 0.005000 1.793880 
# 
# From -- ./inp_files/623797.got.cif
#   From: 2010.06.25/outbox.cif.g09.slc.cpg/sg2_312_cif.got.tgz:623797.got - 2010.06.27 13:26:56.
