data_PCOD8041711
_publ_section_title
;
Structure prediction by ZEFSAII (Michael W. Deem and Ramdas Pophale) SiO2 
 PCOD8041711
Probable space group: P -1
;
_chemical_formula_sum "Si O2"
_cell_formula_units_Z 16
_cell_length_a 7.912776
_cell_length_b 11.521489
_cell_length_c 18.992431
_cell_angle_alpha 152.219043
_cell_angle_beta 91.072186
_cell_angle_gamma 89.300272
_cell_volume 806.854734
_symmetry_space_group_name_H-M "P -1"
_symmetry_group_IT_number 2
_symmetry_cell_setting 'triclinic'
loop_
_space_group_symop_operation_xyz
x,y,z
-x,-y,-z
loop_
_atom_site_type_symbol
_atom_site_label
_atom_site_fract_x
_atom_site_fract_y
_atom_site_fract_z
Si Si1 0.891181 0.071516 0.160802
Si Si2 0.177811 0.483799 0.178520
Si Si3 0.196229 0.434503 0.312200
Si Si4 0.511889 0.660382 0.977938
Si Si5 0.921235 0.186891 0.768059
Si Si6 0.737044 0.592190 0.070358
Si Si7 0.056935 0.747237 0.593869
Si Si8 0.482158 0.880070 0.859919
O O1 0.872390 0.077479 0.248720
O O2 0.717071 0.186014 0.188961
O O3 0.055941 0.220359 0.213767
O O4 0.911819 0.779773 0.984463
O O5 0.155224 0.537462 0.289323
O O6 0.374571 0.465151 0.149134
O O7 0.102574 0.720520 0.262574
O O8 0.190476 0.661882 0.489573
O O9 0.390796 0.348837 0.269398
O O10 0.356229 0.477118 0.894666
O O11 0.612402 0.719263 0.082392
O O12 0.448453 0.924837 0.092424
O O13 0.117442 0.218514 0.806537
O O14 0.802342 0.336755 0.899629
O O15 0.903955 0.890368 0.626608
O O16 0.000000 0.500000 0.500000
O O17 0.500000 0.000000 0.000000
#
# Coordination Sequence:
#
# PCOD8041711 Si02
#       8
#     2   2   2   2   2   2   2   2
#     4  10  21  39  59  90 118 147 201 240 276 349
#     4  10  20  36  59  87 112 145 197 240 282 341
#     4  11  23  38  59  86 121 160 186 238 290 339
#     4   9  18  31  50  86 113 140 182 244 286 332
#     4  10  19  33  57  82 109 150 190 233 288 339
#     4   9  18  32  56  84 112 140 189 244 284 327
#     4  10  23  39  57  84 118 152 194 234 288 353
#     4  11  21  34  60  89 118 150 190 240 290 335
#
# _framework density 19.830088
#
# number of rings (size 3 to 8) (size 9 to 14) (size 15 to 20)
#    0.000    2.000    2.500    3.375    5.250    1.000 
#    0.000    0.000    5.500    0.750    0.000    0.000 
#    0.000    0.000    0.000    0.000    0.000    0.000 
#
# Total GULP energy -198219.140307 kJ/mol
# GULP energy per Si atom -12388.696269 kJ/mol
# Density = 1.978495 g / cm^3
# Si number density = 19.830088 Si / 1000 Ang^3
#
#
#
# Elastic Constant Matrix: (Units=GPa)
#
#
# Indices 1 2 3 4 5 6 
#
# 1 65.7558 26.7953 -3.2761 -0.4188 -1.6692 -3.9709
# 2 26.7953 140.5592 30.5390 0.6505 -10.5167 -10.9206
# 3 -3.2761 30.5390 42.6866 -9.1607 -14.8532 -9.0156
# 4 -0.4188 0.6505 -9.1607 35.5600 0.2042 -9.8212
# 5 -1.6692 -10.5167 -14.8532 0.2042 21.2407 3.3023
# 6 -3.9709 -10.9206 -9.0156 -9.8212 3.3023 39.4310
#
#
#
# Elastic Compliance Matrix: (Units=1/GPa)
#
#
# Indices 1 2 3 4 5 6 
#
# 1 0.017599 -0.004394 0.006855 0.002724 0.003586 0.002501
# 2 -0.004394 0.009643 -0.008217 -0.002375 -0.001273 -0.000136
# 3 0.006855 -0.008217 0.043761 0.014064 0.025414 0.009795
# 4 0.002724 -0.002375 0.014064 0.034799 0.006839 0.010927
# 5 0.003586 -0.001273 0.025414 0.006839 0.064101 0.002154
# 6 0.002501 -0.000136 0.009795 0.010927 0.002154 0.030356
#
#
# Mechanical properties :
#
#
# Convention : Reuss Voigt Hill
#
# Bulk Modulus (GPa) = 16.80959 39.67978 28.24469
# Shear Modulus (GPa) = 21.58874 32.24259 26.91566
#
# Velocity S-wave (km/s) = 3.30310 4.03667 3.68817
# Velocity P-wave (km/s) = 4.80026 6.46372 5.69307
#
# Compressibility (1/GPa) = 0.05948984
#
# Stress axis : x y z
#
# Youngs Moduli (GPa) = 56.82007 103.70534 22.85126
#
# Poissons Ratio (x) = 0.45573 -0.15665
# Poissons Ratio (y) = 0.24969 0.18778
# Poissons Ratio (z) = -0.38950 0.85218
#
# Static dielectric constant tensor:
#      x y z
#    x 3.708590 -0.135470 -0.143570 
#    y -0.135470 4.069460 -0.051870 
#    z -0.143570 -0.051870 3.578770 
# 
# 
# High freq. dielectric constant tensor:
#      x y z
#    x 1.760490 -0.002640 -0.014460 
#    y -0.002640 1.802040 -0.004590 
#    z -0.014460 -0.004590 1.734900 
# 
# From -- ./inp_files/558758.got.cif
#   From: 2010.06.25/outbox.cif.g09.slc.cpg/sg2_280_cif.got.tgz:558758.got - 2010.06.27 13:26:56.
