data_PCOD8041909
_publ_section_title
;
Structure prediction by ZEFSAII (Michael W. Deem and Ramdas Pophale) SiO2 
 PCOD8041909
Probable space group: P -1
;
_chemical_formula_sum "Si O2"
_cell_formula_units_Z 16
_cell_length_a 11.507589
_cell_length_b 20.218157
_cell_length_c 9.360095
_cell_angle_alpha 134.150948
_cell_angle_beta 82.475736
_cell_angle_gamma 134.342842
_cell_volume 805.003356
_symmetry_space_group_name_H-M "P -1"
_symmetry_group_IT_number 2
_symmetry_cell_setting 'triclinic'
loop_
_space_group_symop_operation_xyz
x,y,z
-x,-y,-z
loop_
_atom_site_type_symbol
_atom_site_label
_atom_site_fract_x
_atom_site_fract_y
_atom_site_fract_z
Si Si1 0.695563 0.855114 0.725112
Si Si2 0.493959 0.379028 0.175583
Si Si3 0.679072 0.358969 0.324590
Si Si4 0.877215 0.302463 0.103460
Si Si5 0.511986 0.284286 0.759136
Si Si6 0.808661 0.754116 0.735890
Si Si7 0.518015 0.071692 0.462781
Si Si8 0.992116 0.392301 0.889401
O O1 0.489473 0.768365 0.706003
O O2 0.633546 0.801166 0.488403
O O3 0.729987 0.777888 0.671354
O O4 0.921068 0.067783 0.027284
O O5 0.557112 0.328830 0.172069
O O6 0.710410 0.591725 0.449291
O O7 0.289691 0.292555 0.159725
O O8 0.408098 0.284407 0.893378
O O9 0.754839 0.312006 0.186811
O O10 0.897390 0.565983 0.645555
O O11 0.951570 0.359704 0.014859
O O12 0.696562 0.099280 0.857746
O O13 0.509662 0.176141 0.647695
O O14 0.770378 0.495578 0.017445
O O15 0.763884 0.203343 0.559755
O O16 0.500000 0.000000 0.500000
O O17 0.000000 0.500000 0.000000
#
# Coordination Sequence:
#
# PCOD8041909 Si02
#       8
#     2   2   2   2   2   2   2   2
#     4  10  21  40  60  85 112 145 192 239 289 330
#     4  10  21  39  60  84 109 151 186 234 292 340
#     4  10  20  35  58  79 117 154 190 224 279 340
#     4  10  19  34  53  83 114 158 188 223 266 338
#     4  11  21  35  61  85 112 151 190 231 284 337
#     4   9  22  42  62  80 114 145 185 250 289 332
#     4   9  19  33  51  80 120 151 187 226 267 324
#     4   9  17  32  51  77 116 147 178 230 271 316
#
# _framework density 19.875692999999998
#
# number of rings (size 3 to 8) (size 9 to 14) (size 15 to 20)
#    0.000    2.250    1.250    2.250    1.750    2.000 
#    0.000    4.375    0.000    0.000    0.000    0.000 
#    0.000    0.000    0.000    0.000    0.000    0.000 
#
# Total GULP energy -198226.597274 kJ/mol
# GULP energy per Si atom -12389.162330 kJ/mol
# Density = 1.983046 g / cm^3
# Si number density = 19.875693 Si / 1000 Ang^3
#
#
#
# Elastic Constant Matrix: (Units=GPa)
#
#
# Indices 1 2 3 4 5 6 
#
# 1 37.0483 19.8949 17.2350 -0.2273 -5.0213 7.1538
# 2 19.8949 72.8846 41.3208 4.1255 -10.1779 -0.0918
# 3 17.2350 41.3208 95.8353 18.6063 -14.2548 6.1426
# 4 -0.2273 4.1255 18.6063 43.2499 2.8056 4.7136
# 5 -5.0213 -10.1779 -14.2548 2.8056 22.6157 0.3878
# 6 7.1538 -0.0918 6.1426 4.7136 0.3878 23.7569
#
#
#
# Elastic Compliance Matrix: (Units=1/GPa)
#
#
# Indices 1 2 3 4 5 6 
#
# 1 0.034755 -0.008001 -0.002330 0.002934 0.002464 -0.010517
# 2 -0.008001 0.020412 -0.007345 0.000538 0.002641 0.004238
# 3 -0.002330 -0.007345 0.016586 -0.006670 0.007500 -0.002414
# 4 0.002934 0.000538 -0.006670 0.026858 -0.006568 -0.004379
# 5 0.002464 0.002641 0.007500 -0.006568 0.051532 -0.002209
# 6 -0.010517 0.004238 -0.002414 -0.004379 -0.002209 0.046805
#
#
# Mechanical properties :
#
#
# Convention : Reuss Voigt Hill
#
# Bulk Modulus (GPa) = 27.47222 40.29663 33.88443
# Shear Modulus (GPa) = 20.45528 26.41234 23.43381
#
# Velocity S-wave (km/s) = 3.21153 3.64933 3.43741
# Velocity P-wave (km/s) = 5.25395 6.17051 5.73058
#
# Compressibility (1/GPa) = 0.03640041
#
# Stress axis : x y z
#
# Youngs Moduli (GPa) = 28.77299 48.98973 60.29187
#
# Poissons Ratio (x) = 0.39199 0.14045
# Poissons Ratio (y) = 0.23023 0.44287
# Poissons Ratio (z) = 0.06703 0.35985
#
# Static dielectric constant tensor:
#      x y z
#    x 3.414370 0.176080 0.236950 
#    y 0.176080 4.126550 0.579240 
#    z 0.236950 0.579240 4.250650 
# 
# 
# High freq. dielectric constant tensor:
#      x y z
#    x 1.755540 -0.002950 0.011120 
#    y -0.002950 1.778220 0.017700 
#    z 0.011120 0.017700 1.781720 
# 
# From -- ./inp_files/216431.got.cif
#   From: 2010.06.25/outbox.cif.g09.slc.cpg/sg2_109_cif.got.tgz:216431.got - 2010.06.27 13:26:56.
