data_PCOD8041760
_publ_section_title
;
Structure prediction by ZEFSAII (Michael W. Deem and Ramdas Pophale) SiO2 
 PCOD8041760
Probable space group: P -1
;
_chemical_formula_sum "Si O2"
_cell_formula_units_Z 16
_cell_length_a 13.509537
_cell_length_b 10.156874
_cell_length_c 14.099317
_cell_angle_alpha 86.946204
_cell_angle_beta 42.895387
_cell_angle_gamma 121.237035
_cell_volume 751.920900
_symmetry_space_group_name_H-M "P -1"
_symmetry_group_IT_number 2
_symmetry_cell_setting 'triclinic'
loop_
_space_group_symop_operation_xyz
x,y,z
-x,-y,-z
loop_
_atom_site_type_symbol
_atom_site_label
_atom_site_fract_x
_atom_site_fract_y
_atom_site_fract_z
Si Si1 0.254706 0.338902 0.548500
Si Si2 0.301411 0.115851 0.413803
Si Si3 0.979489 0.323397 0.267772
Si Si4 0.481420 0.172348 0.098962
Si Si5 0.878634 0.488879 0.451434
Si Si6 0.114189 0.453532 0.963233
Si Si7 0.588095 0.170093 0.833183
Si Si8 0.833316 0.767367 0.176076
O O1 0.226093 0.206957 0.492793
O O2 0.121047 0.369408 0.602367
O O3 0.545467 0.586939 0.358370
O O4 0.118326 0.190132 0.746611
O O5 0.265897 0.070109 0.325673
O O6 0.593398 0.301470 0.225763
O O7 0.121681 0.883206 0.604826
O O8 0.833859 0.343293 0.409304
O O9 0.276831 0.553607 0.073071
O O10 0.946859 0.289312 0.178825
O O11 0.543011 0.066658 0.093446
O O12 0.411076 0.115523 0.037438
O O13 0.642983 0.301303 0.698499
O O14 0.144864 0.667504 0.310198
O O15 0.087988 0.319145 0.909951
O O16 0.000000 0.500000 0.000000
O O17 0.000000 0.000000 0.000000
#
# Coordination Sequence:
#
# PCOD8041760 Si02
#       8
#     2   2   2   2   2   2   2   2
#     4  10  22  38  57  81 114 145 184 221 272 336
#     4  10  20  36  55  77 111 145 176 226 276 322
#     4  10  19  33  58  78 105 144 181 223 276 317
#     4   9  18  35  57  77 108 141 179 225 271 318
#     4  10  19  35  59  85 107 148 185 222 277 325
#     4  10  21  34  53  82 108 136 184 229 272 323
#     4   9  18  35  59  81 113 140 182 236 272 314
#     4  10  21  40  57  78 113 150 179 224 274 324
#
# _framework density 21.278832999999999
#
# number of rings (size 3 to 8) (size 9 to 14) (size 15 to 20)
#    0.000    2.250    1.250    1.500    0.000    1.500 
#    6.750    1.250    0.000    0.000    0.000    0.000 
#    0.000    0.000    0.000    0.000    0.000    0.000 
#
# Total GULP energy -198337.048862 kJ/mol
# GULP energy per Si atom -12396.065554 kJ/mol
# Density = 2.123040 g / cm^3
# Si number density = 21.278833 Si / 1000 Ang^3
#
#
#
# Elastic Constant Matrix: (Units=GPa)
#
#
# Indices 1 2 3 4 5 6 
#
# 1 48.8160 14.7757 25.6574 7.0551 16.1065 -9.8744
# 2 14.7757 87.6557 28.3082 11.6614 7.9415 3.9278
# 3 25.6574 28.3082 104.0871 0.1644 42.6671 3.5797
# 4 7.0551 11.6614 0.1644 45.4949 1.2028 13.5034
# 5 16.1065 7.9415 42.6671 1.2028 33.3947 7.4625
# 6 -9.8744 3.9278 3.5797 13.5034 7.4625 27.0054
#
#
#
# Elastic Compliance Matrix: (Units=1/GPa)
#
#
# Indices 1 2 3 4 5 6 
#
# 1 0.035377 -0.003727 0.000453 -0.011433 -0.021976 0.025207
# 2 -0.003727 0.013556 -0.005031 -0.002072 0.005798 -0.003234
# 3 0.000453 -0.005031 0.022684 0.000156 -0.029333 0.005918
# 4 -0.011433 -0.002072 0.000156 0.030501 0.009580 -0.021798
# 5 -0.021976 0.005798 -0.029333 0.009580 0.083648 -0.032895
# 6 0.025207 -0.003234 0.005918 -0.021798 -0.032895 0.065922
#
#
# Mechanical properties :
#
#
# Convention : Reuss Voigt Hill
#
# Bulk Modulus (GPa) = 18.17929 42.00461 30.09195
# Shear Modulus (GPa) = 17.44382 32.63350 25.03866
#
# Velocity S-wave (km/s) = 2.86627 3.92039 3.43402
# Velocity P-wave (km/s) = 4.41769 6.34630 5.46770
#
# Compressibility (1/GPa) = 0.05500766
#
# Stress axis : x y z
#
# Youngs Moduli (GPa) = 28.26673 73.76614 44.08381
#
# Poissons Ratio (x) = 0.27493 -0.01995
# Poissons Ratio (y) = 0.10535 0.22176
# Poissons Ratio (z) = -0.01279 0.37108
#
# Static dielectric constant tensor:
#      x y z
#    x 3.402030 0.012430 0.294020 
#    y 0.012430 2.969280 -0.225290 
#    z 0.294020 -0.225290 4.004860 
# 
# 
# High freq. dielectric constant tensor:
#      x y z
#    x 1.792720 0.009180 0.031200 
#    y 0.009180 1.846360 0.005500 
#    z 0.031200 0.005500 1.850370 
# 
# From -- ./inp_files/327114.got.cif
#   From: 2010.06.25/outbox.cif.g09.slc.cpg/sg2_164_cif.got.tgz:327114.got - 2010.06.27 13:26:56.
