data_PCOD8041532
_publ_section_title
;
Structure prediction by ZEFSAII (Michael W. Deem and Ramdas Pophale) SiO2 
 PCOD8041532
Probable space group: P -1
;
_chemical_formula_sum "Si O2"
_cell_formula_units_Z 16
_cell_length_a 8.167909
_cell_length_b 21.460093
_cell_length_c 12.177469
_cell_angle_alpha 28.077593
_cell_angle_beta 53.378380
_cell_angle_gamma 63.682062
_cell_volume 786.631227
_symmetry_space_group_name_H-M "P -1"
_symmetry_group_IT_number 2
_symmetry_cell_setting 'triclinic'
loop_
_space_group_symop_operation_xyz
x,y,z
-x,-y,-z
loop_
_atom_site_type_symbol
_atom_site_label
_atom_site_fract_x
_atom_site_fract_y
_atom_site_fract_z
Si Si1 0.129147 0.775712 0.409303
Si Si2 0.167101 0.627217 0.416351
Si Si3 0.875055 0.733498 0.201182
Si Si4 0.122908 0.657908 0.031916
Si Si5 0.201232 0.444925 0.040623
Si Si6 0.347519 0.722364 0.629036
Si Si7 0.317732 0.061120 0.925859
Si Si8 0.585008 0.448577 0.753117
O O1 0.242763 0.711126 0.366212
O O2 0.234548 0.759483 0.508252
O O3 0.884502 0.694691 0.639706
O O4 0.153198 0.936907 0.126684
O O5 0.370968 0.612127 0.288504
O O6 0.027309 0.707744 0.276957
O O7 0.033118 0.479418 0.732346
O O8 0.802102 0.872960 0.034942
O O9 0.673700 0.609959 0.467856
O O10 0.997458 0.747385 0.015091
O O11 0.307226 0.621840 0.086072
O O12 0.221309 0.747671 0.748790
O O13 0.351410 0.561320 0.873675
O O14 0.336027 0.416136 0.926118
O O15 0.000000 0.500000 0.000000
O O16 0.580398 0.819664 0.387146
O O17 0.500000 0.000000 0.000000
#
# Coordination Sequence:
#
# PCOD8041532 Si02
#       8
#     2   2   2   2   2   2   2   2
#     4  10  21  35  52  80 118 143 177 227 274 322
#     4   9  18  34  56  84 113 139 178 228 279 323
#     4   9  18  35  57  81 109 146 184 220 271 329
#     4   9  18  33  58  85 108 139 183 231 270 320
#     4  10  19  33  53  80 111 136 182 228 268 312
#     4  10  19  35  55  80 110 144 187 221 264 329
#     4  10  21  37  54  76 111 152 186 218 264 333
#     4   9  18  34  57  84 110 140 181 228 275 323
#
# _framework density 20.339898999999999
#
# number of rings (size 3 to 8) (size 9 to 14) (size 15 to 20)
#    0.000    2.500    2.500    1.500    0.000    2.000 
#    0.000   11.250    0.000    3.000    0.000    0.000 
#    0.000    0.000    0.000    0.000    0.000    0.000 
#
# Total GULP energy -198275.829149 kJ/mol
# GULP energy per Si atom -12392.239322 kJ/mol
# Density = 2.029360 g / cm^3
# Si number density = 20.339899 Si / 1000 Ang^3
#
#
#
# Elastic Constant Matrix: (Units=GPa)
#
#
# Indices 1 2 3 4 5 6 
#
# 1 35.0727 40.2949 28.4042 5.4141 -1.1457 -2.5661
# 2 40.2949 193.1150 91.1624 13.4669 -13.6557 -1.7789
# 3 28.4042 91.1624 150.0366 4.0947 -34.0553 11.9447
# 4 5.4141 13.4669 4.0947 41.1497 1.9969 1.6797
# 5 -1.1457 -13.6557 -34.0553 1.9969 26.3704 5.7113
# 6 -2.5661 -1.7789 11.9447 1.6797 5.7113 32.3434
#
#
#
# Elastic Compliance Matrix: (Units=1/GPa)
#
#
# Indices 1 2 3 4 5 6 
#
# 1 0.042209 -0.005608 -0.008225 -0.002602 -0.013352 0.008571
# 2 -0.005608 0.008604 -0.004869 -0.001569 -0.002465 0.002343
# 3 -0.008225 -0.004869 0.016855 0.000414 0.021220 -0.010914
# 4 -0.002602 -0.001569 0.000414 0.025271 -0.002000 -0.001405
# 5 -0.013352 -0.002465 0.021220 -0.002000 0.068161 -0.020964
# 6 0.008571 0.002343 -0.010914 -0.001405 -0.020964 0.039532
#
#
# Mechanical properties :
#
#
# Convention : Reuss Voigt Hill
#
# Bulk Modulus (GPa) = 33.04411 77.54971 55.29691
# Shear Modulus (GPa) = 20.15118 34.53022 27.34070
#
# Velocity S-wave (km/s) = 3.15099 4.12474 3.67030
# Velocity P-wave (km/s) = 5.43319 7.80348 6.72361
#
# Compressibility (1/GPa) = 0.03026258
#
# Stress axis : x y z
#
# Youngs Moduli (GPa) = 23.69140 116.22891 59.33023
#
# Poissons Ratio (x) = 0.65184 0.48801
# Poissons Ratio (y) = 0.13287 0.28889
# Poissons Ratio (z) = 0.19487 0.56593
#
# Static dielectric constant tensor:
#      x y z
#    x 3.426870 0.171410 -0.694640 
#    y 0.171410 3.949310 -0.295630 
#    z -0.694640 -0.295630 5.194010 
# 
# 
# High freq. dielectric constant tensor:
#      x y z
#    x 1.761920 -0.000040 -0.009400 
#    y -0.000040 1.799170 0.015310 
#    z -0.009400 0.015310 1.784940 
# 
# From -- ./inp_files/273498.got.cif
#   From: 2010.06.25/outbox.cif.g09.slc.cpg/sg2_137_cif.got.tgz:273498.got - 2010.06.27 13:26:56.
