data_PCOD8041631
_publ_section_title
;
Structure prediction by ZEFSAII (Michael W. Deem and Ramdas Pophale) SiO2 
 PCOD8041631
Probable space group: P -1
;
_chemical_formula_sum "Si O2"
_cell_formula_units_Z 16
_cell_length_a 14.341199
_cell_length_b 16.139067
_cell_length_c 11.435927
_cell_angle_alpha 66.433758
_cell_angle_beta 161.705675
_cell_angle_gamma 111.444734
_cell_volume 760.657113
_symmetry_space_group_name_H-M "P -1"
_symmetry_group_IT_number 2
_symmetry_cell_setting 'triclinic'
loop_
_space_group_symop_operation_xyz
x,y,z
-x,-y,-z
loop_
_atom_site_type_symbol
_atom_site_label
_atom_site_fract_x
_atom_site_fract_y
_atom_site_fract_z
Si Si1 0.465539 0.045312 0.167030
Si Si2 0.849467 0.741192 0.097684
Si Si3 0.907360 0.105100 0.829591
Si Si4 0.650532 0.369908 0.346813
Si Si5 0.820384 0.285378 0.254659
Si Si6 0.314751 0.538203 0.895531
Si Si7 0.765036 0.811343 0.369160
Si Si8 0.995293 0.081917 0.200550
O O1 0.604257 0.115121 0.386602
O O2 0.705824 0.979483 0.426680
O O3 0.284127 0.102226 0.821966
O O4 0.251961 0.984238 0.018328
O O5 0.841212 0.836987 0.966922
O O6 0.004412 0.664416 0.236870
O O7 0.050981 0.747851 0.448669
O O8 0.520822 0.715272 0.758707
O O9 0.880813 0.134407 0.916870
O O10 0.000000 0.000000 0.000000
O O11 0.536204 0.403084 0.063448
O O12 0.557956 0.457677 0.267769
O O13 0.740816 0.393542 0.100656
O O14 0.054011 0.268307 0.438763
O O15 0.539107 0.226805 0.925191
O O16 0.000000 0.500000 0.500000
O O17 0.955321 0.840818 0.689662
#
# Coordination Sequence:
#
# PCOD8041631 Si02
#       8
#     2   2   2   2   2   2   2   2
#     4  11  22  39  61  82 111 151 206 251 294 336
#     4  11  21  36  55  84 119 151 196 234 293 340
#     4  10  24  40  61  86 118 155 205 251 287 330
#     4  10  20  32  55  83 120 153 180 235 300 355
#     4  11  22  34  57  88 118 152 186 236 296 357
#     4  10  19  33  55  87 126 145 180 237 308 347
#     4  12  23  37  58  83 120 153 194 238 297 354
#     4  11  24  41  56  83 113 159 199 246 293 341
#
# _framework density 21.034445999999999
#
# number of rings (size 3 to 8) (size 9 to 14) (size 15 to 20)
#    0.000    1.250    3.750    4.125    3.500    2.000 
#    0.000    0.000    0.000    0.000    0.000    5.250 
#    0.000    0.000    0.000    0.000    0.000    0.000 
#
# Total GULP energy -198322.262466 kJ/mol
# GULP energy per Si atom -12395.141404 kJ/mol
# Density = 2.098657 g / cm^3
# Si number density = 21.034446 Si / 1000 Ang^3
#
#
#
# Elastic Constant Matrix: (Units=GPa)
#
#
# Indices 1 2 3 4 5 6 
#
# 1 93.1651 37.3905 34.6453 8.8798 6.7393 -5.8930
# 2 37.3905 82.2648 3.3739 0.8201 -4.8169 -1.5599
# 3 34.6453 3.3739 35.9821 8.8764 4.1257 -3.2164
# 4 8.8798 0.8201 8.8764 28.3671 -3.4905 12.9174
# 5 6.7393 -4.8169 4.1257 -3.4905 40.9709 6.4891
# 6 -5.8930 -1.5599 -3.2164 12.9174 6.4891 43.5727
#
#
#
# Elastic Compliance Matrix: (Units=1/GPa)
#
#
# Indices 1 2 3 4 5 6 
#
# 1 0.022441 -0.009529 -0.019587 -0.002124 -0.003398 0.002384
# 2 -0.009529 0.016351 0.006912 0.001176 0.003052 -0.000996
# 3 -0.019587 0.006912 0.049910 -0.012517 -0.002917 0.005428
# 4 -0.002124 0.001176 -0.012517 0.048512 0.008546 -0.016823
# 5 -0.003398 0.003052 -0.002917 0.008546 0.027486 -0.007192
# 6 0.002384 -0.000996 0.005428 -0.016823 -0.007192 0.029696
#
#
# Mechanical properties :
#
#
# Convention : Reuss Voigt Hill
#
# Bulk Modulus (GPa) = 22.57563 40.24793 31.41178
# Shear Modulus (GPa) = 19.71858 31.64896 25.68377
#
# Velocity S-wave (km/s) = 3.06509 3.88316 3.49812
# Velocity P-wave (km/s) = 4.82518 6.26746 5.59301
#
# Compressibility (1/GPa) = 0.04429555
#
# Stress axis : x y z
#
# Youngs Moduli (GPa) = 44.56206 61.15669 20.03602
#
# Poissons Ratio (x) = 0.58275 0.39244
# Poissons Ratio (y) = 0.42462 -0.13850
# Poissons Ratio (z) = 0.87283 -0.42274
#
# Static dielectric constant tensor:
#      x y z
#    x 4.027320 -0.091790 0.147580 
#    y -0.091790 4.012960 -0.062000 
#    z 0.147580 -0.062000 3.653200 
# 
# 
# High freq. dielectric constant tensor:
#      x y z
#    x 1.817200 0.000370 0.042570 
#    y 0.000370 1.832170 -0.003860 
#    z 0.042570 -0.003860 1.791400 
# 
# From -- ./inp_files/455724.got.cif
#   From: 2010.06.25/outbox.cif.g09.slc.cpg/sg2_228_cif.got.tgz:455724.got - 2010.06.27 13:26:56.
