data_PCOD8041600
_publ_section_title
;
Structure prediction by ZEFSAII (Michael W. Deem and Ramdas Pophale) SiO2 
 PCOD8041600
Probable space group: P -1
;
_chemical_formula_sum "Si O2"
_cell_formula_units_Z 14
_cell_length_a 23.762570
_cell_length_b 14.267375
_cell_length_c 13.098760
_cell_angle_alpha 42.015447
_cell_angle_beta 149.435118
_cell_angle_gamma 159.241197
_cell_volume 751.241340
_symmetry_space_group_name_H-M "P -1"
_symmetry_group_IT_number 2
_symmetry_cell_setting 'triclinic'
loop_
_space_group_symop_operation_xyz
x,y,z
-x,-y,-z
loop_
_atom_site_type_symbol
_atom_site_label
_atom_site_fract_x
_atom_site_fract_y
_atom_site_fract_z
Si Si1 0.076905 0.300652 0.542222
Si Si2 0.263036 0.951026 0.523272
Si Si3 0.916137 0.763930 0.610034
Si Si4 0.276713 0.222161 0.937487
Si Si5 0.537006 0.658691 0.656869
Si Si6 0.572346 0.761104 0.246311
Si Si7 0.768377 0.406364 0.256582
O O1 0.141093 0.400120 0.442727
O O2 0.137147 0.210551 0.746293
O O3 0.210151 0.553087 0.619659
O O4 0.814176 0.036269 0.351590
O O5 0.300949 0.827035 0.687908
O O6 0.004782 0.706453 0.332889
O O7 0.337351 0.089251 0.418247
O O8 0.417838 0.189506 0.659079
O O9 0.706343 0.551456 0.527088
O O10 0.000000 0.000000 0.500000
O O11 0.124156 0.943937 0.860147
O O12 0.500000 0.500000 0.000000
O O13 0.324476 0.205746 0.133233
O O14 0.526887 0.502743 0.705643
O O15 0.418152 0.698406 0.995006
#
# Coordination Sequence:
#
# PCOD8041600 Si02
#       7
#     2   2   2   2   2   2   2
#     4  10  19  34  59  88 109 147 193 223 276 347
#     4  10  25  40  55  84 115 151 193 236 278 333
#     4  10  19  33  54  88 120 139 180 235 284 336
#     4  11  18  32  57  88 116 149 178 227 288 333
#     4  12  21  35  60  90 117 142 186 243 280 325
#     4  11  20  37  62  83 111 151 189 235 282 335
#     4  10  22  42  60  76 115 158 191 226 284 341
#
# _framework density 18.635822000000001
#
# number of rings (size 3 to 8) (size 9 to 14) (size 15 to 20)
#    0.000    1.429    7.143    0.857    0.000    1.714 
#    0.000    0.714    0.000    1.714    0.000    0.000 
#    0.000    0.000    0.000    0.000    0.000    0.000 
#
# Total GULP energy -173577.611307 kJ/mol
# GULP energy per Si atom -12398.400808 kJ/mol
# Density = 1.859341 g / cm^3
# Si number density = 18.635822 Si / 1000 Ang^3
#
#
#
# Elastic Constant Matrix: (Units=GPa)
#
#
# Indices 1 2 3 4 5 6 
#
# 1 109.8648 46.2817 49.8179 5.9990 -19.4557 15.9409
# 2 46.2817 70.9596 53.3212 2.8944 -11.8034 14.8268
# 3 49.8179 53.3212 119.0296 25.1799 -8.7334 11.3652
# 4 5.9990 2.8944 25.1799 20.3962 0.1817 -2.1678
# 5 -19.4557 -11.8034 -8.7334 0.1817 41.3912 3.7569
# 6 15.9409 14.8268 11.3652 -2.1678 3.7569 14.7044
#
#
#
# Elastic Compliance Matrix: (Units=1/GPa)
#
#
# Indices 1 2 3 4 5 6 
#
# 1 0.014976 -0.004495 -0.002094 -0.002526 0.006425 -0.012099
# 2 -0.004495 0.029394 -0.011381 0.009462 0.005272 -0.015921
# 3 -0.002094 -0.011381 0.019644 -0.022543 0.000457 -0.004878
# 4 -0.002526 0.009462 -0.022543 0.078830 -0.005743 0.023710
# 5 0.006425 0.005272 0.000457 -0.005743 0.030741 -0.021335
# 6 -0.012099 -0.015921 -0.004878 0.023710 -0.021335 0.109894
#
#
# Mechanical properties :
#
#
# Convention : Reuss Voigt Hill
#
# Bulk Modulus (GPa) = 35.61838 66.52174 51.07006
# Shear Modulus (GPa) = 15.20798 25.32724 20.26761
#
# Velocity S-wave (km/s) = 2.85978 3.69055 3.30140
# Velocity P-wave (km/s) = 5.48259 7.34393 6.48044
#
# Compressibility (1/GPa) = 0.02807539
#
# Stress axis : x y z
#
# Youngs Moduli (GPa) = 66.77273 34.02105 50.90713
#
# Poissons Ratio (x) = 0.15292 0.10658
# Poissons Ratio (y) = 0.30013 0.57935
# Poissons Ratio (z) = 0.13979 0.38718
#
# Static dielectric constant tensor:
#      x y z
#    x 3.962930 -0.155900 -0.286710 
#    y -0.155900 3.144040 0.384810 
#    z -0.286710 0.384810 3.685770 
# 
# 
# High freq. dielectric constant tensor:
#      x y z
#    x 1.742470 -0.000080 -0.011650 
#    y -0.000080 1.686340 0.031030 
#    z -0.011650 0.031030 1.727880 
# 
# From -- ./inp_files/94218.got.cif
#   From: 2010.06.25/outbox.cif.g09.slc.cpg/sg2_48_cif.got.tgz:94218.got - 2010.06.27 13:26:56.
