data_PCOD8041565
_publ_section_title
;
Structure prediction by ZEFSAII (Michael W. Deem and Ramdas Pophale) SiO2 
 PCOD8041565
Probable space group: P -1
;
_chemical_formula_sum "Si O2"
_cell_formula_units_Z 14
_cell_length_a 11.096521
_cell_length_b 23.936982
_cell_length_c 6.070070
_cell_angle_alpha 122.374883
_cell_angle_beta 65.991134
_cell_angle_gamma 148.908384
_cell_volume 698.243838
_symmetry_space_group_name_H-M "P -1"
_symmetry_group_IT_number 2
_symmetry_cell_setting 'triclinic'
loop_
_space_group_symop_operation_xyz
x,y,z
-x,-y,-z
loop_
_atom_site_type_symbol
_atom_site_label
_atom_site_fract_x
_atom_site_fract_y
_atom_site_fract_z
Si Si1 0.699706 0.744544 0.345961
Si Si2 0.666823 0.866364 0.887447
Si Si3 0.366501 0.407607 0.710108
Si Si4 0.091515 0.085261 0.799377
Si Si5 0.193200 0.539578 0.165323
Si Si6 0.200761 0.444728 0.596357
Si Si7 0.172270 0.664963 0.653699
O O1 0.714214 0.815327 0.632359
O O2 0.802233 0.721975 0.345482
O O3 0.821903 0.810037 0.155723
O O4 0.432884 0.607736 0.224435
O O5 0.416171 0.793129 0.847232
O O6 0.692153 0.861245 0.119098
O O7 0.870385 0.003584 0.957547
O O8 0.190588 0.385021 0.668204
O O9 0.550541 0.453802 0.496181
O O10 0.500000 0.500000 0.000000
O O11 0.000000 0.000000 0.500000
O O12 0.227913 0.632806 0.358439
O O13 0.969768 0.424118 0.226172
O O14 0.168588 0.504733 0.857110
O O15 0.984278 0.344101 0.372437
#
# Coordination Sequence:
#
# PCOD8041565 Si02
#       7
#     2   2   2   2   2   2   2
#     4  10  19  33  54  79 112 142 182 225 272 316
#     4   9  20  35  54  81 108 140 181 226 277 328
#     4  11  22  36  51  79 115 152 191 224 257 325
#     4   9  19  35  54  78 105 139 182 228 279 322
#     4  10  20  32  51  83 114 143 181 218 278 332
#     4  11  21  34  53  75 116 153 186 217 267 325
#     4  10  20  34  52  81 115 144 178 224 275 335
#
# _framework density 20.050303
#
# number of rings (size 3 to 8) (size 9 to 14) (size 15 to 20)
#    0.000    2.000    2.857    0.429    2.000    3.429 
#    0.000    0.000    0.000    0.857    0.000   13.000 
#    0.000    0.000    0.000    0.000    0.000    0.000 
#
# Total GULP energy -173451.845017 kJ/mol
# GULP energy per Si atom -12389.417501 kJ/mol
# Density = 2.000467 g / cm^3
# Si number density = 20.050303 Si / 1000 Ang^3
#
#
#
# Elastic Constant Matrix: (Units=GPa)
#
#
# Indices 1 2 3 4 5 6 
#
# 1 99.0667 43.9231 21.1251 6.5532 37.7699 -6.2251
# 2 43.9231 92.9384 14.4842 0.1254 10.7356 -10.6108
# 3 21.1251 14.4842 70.6847 -6.7595 16.5134 5.4225
# 4 6.5532 0.1254 -6.7595 22.2019 5.0893 9.7938
# 5 37.7699 10.7356 16.5134 5.0893 38.4497 1.0977
# 6 -6.2251 -10.6108 5.4225 9.7938 1.0977 36.1014
#
#
#
# Elastic Compliance Matrix: (Units=1/GPa)
#
#
# Indices 1 2 3 4 5 6 
#
# 1 0.020572 -0.007161 -0.001271 -0.003883 -0.017241 0.003211
# 2 -0.007161 0.014415 -0.002105 -0.001051 0.003953 0.003483
# 3 -0.001271 -0.002105 0.018061 0.010205 -0.007097 -0.006103
# 4 -0.003883 -0.001051 0.010205 0.059118 -0.007577 -0.018319
# 5 -0.017241 0.003953 -0.007097 -0.007577 0.045893 -0.000085
# 6 0.003211 0.003483 -0.006103 -0.018319 -0.000085 0.035166
#
#
# Mechanical properties :
#
#
# Convention : Reuss Voigt Hill
#
# Bulk Modulus (GPa) = 31.27552 46.86164 39.06858
# Shear Modulus (GPa) = 22.22666 31.56111 26.89388
#
# Velocity S-wave (km/s) = 3.33309 3.97179 3.66638
# Velocity P-wave (km/s) = 5.51771 6.66755 6.11970
#
# Compressibility (1/GPa) = 0.03197389
#
# Stress axis : x y z
#
# Youngs Moduli (GPa) = 48.61017 69.37434 55.36936
#
# Poissons Ratio (x) = 0.49678 0.07036
# Poissons Ratio (y) = 0.34809 0.11655
# Poissons Ratio (z) = 0.06177 0.14603
#
# Static dielectric constant tensor:
#      x y z
#    x 3.808700 -0.109270 0.302260 
#    y -0.109270 3.935210 -0.185490 
#    z 0.302260 -0.185490 3.707390 
# 
# 
# High freq. dielectric constant tensor:
#      x y z
#    x 1.766320 -0.004810 0.032670 
#    y -0.004810 1.762730 -0.013980 
#    z 0.032670 -0.013980 1.777210 
# 
# From -- ./inp_files/63896.got.cif
#   From: 2010.06.25/outbox.cif.g09.slc.cpg/sg2_32_cif.got.tgz:63896.got - 2010.06.27 13:26:56.
