data_PCOD8041797
_publ_section_title
;
Structure prediction by ZEFSAII (Michael W. Deem and Ramdas Pophale) SiO2 
 PCOD8041797
Probable space group: P -1
;
_chemical_formula_sum "Si O2"
_cell_formula_units_Z 14
_cell_length_a 16.724660
_cell_length_b 8.804931
_cell_length_c 12.540130
_cell_angle_alpha 104.941138
_cell_angle_beta 132.971128
_cell_angle_gamma 114.262543
_cell_volume 728.482763
_symmetry_space_group_name_H-M "P -1"
_symmetry_group_IT_number 2
_symmetry_cell_setting 'triclinic'
loop_
_space_group_symop_operation_xyz
x,y,z
-x,-y,-z
loop_
_atom_site_type_symbol
_atom_site_label
_atom_site_fract_x
_atom_site_fract_y
_atom_site_fract_z
Si Si1 0.622727 0.281301 0.717906
Si Si2 0.966686 0.281458 0.896893
Si Si3 0.491016 0.455575 0.161609
Si Si4 0.392912 0.312443 0.473277
Si Si5 0.826270 0.060172 0.494945
Si Si6 0.752422 0.539786 0.096021
Si Si7 0.464339 0.126644 0.941340
O O1 0.491568 0.274500 0.596178
O O2 0.500000 0.000000 0.500000
O O3 0.674538 0.318643 0.897043
O O4 0.822660 0.550540 0.883448
O O5 0.867707 0.170690 0.670990
O O6 0.834672 0.014242 0.807772
O O7 0.000000 0.500000 0.000000
O O8 0.576228 0.529321 0.372509
O O9 0.657003 0.726217 0.284099
O O10 0.301243 0.345399 0.968229
O O11 0.436904 0.219346 0.028027
O O12 0.500000 0.500000 0.500000
O O13 0.013733 0.204084 0.635382
O O14 0.735343 0.098151 0.351784
O O15 0.657718 0.389941 0.095818
O O16 0.500000 0.000000 0.000000
#
# Coordination Sequence:
#
# PCOD8041797 Si02
#       7
#     2   2   2   2   2   2   2
#     4  10  19  33  59  84 111 150 192 235 276 334
#     4  10  19  35  59  87 112 147 197 231 271 338
#     4   9  20  38  56  80 108 149 191 228 272 340
#     4  10  21  37  56  84 119 149 184 235 289 336
#     4   9  19  37  60  81 108 145 193 229 271 334
#     4   9  19  36  59  79 105 149 195 224 273 336
#     4  11  23  36  54  83 117 143 181 236 287 330
#
# _framework density 19.218025000000001
#
# number of rings (size 3 to 8) (size 9 to 14) (size 15 to 20)
#    0.000    2.286    1.429    2.571    0.000    4.571 
#    0.000    0.000    0.000    0.000    0.000    0.000 
#    0.000    0.000    0.000    0.000    0.000    0.000 
#
# Total GULP energy -173478.178328 kJ/mol
# GULP energy per Si atom -12391.298452 kJ/mol
# Density = 1.917428 g / cm^3
# Si number density = 19.218025 Si / 1000 Ang^3
#
#
#
# Elastic Constant Matrix: (Units=GPa)
#
#
# Indices 1 2 3 4 5 6 
#
# 1 102.3460 34.9103 40.7459 10.2828 5.7108 1.6646
# 2 34.9103 80.0932 32.7783 2.5082 -3.7137 7.4248
# 3 40.7459 32.7783 100.1574 9.2898 15.1823 0.2415
# 4 10.2828 2.5082 9.2898 20.6983 -0.3242 3.8180
# 5 5.7108 -3.7137 15.1823 -0.3242 41.8676 7.8014
# 6 1.6646 7.4248 0.2415 3.8180 7.8014 33.2746
#
#
#
# Elastic Compliance Matrix: (Units=1/GPa)
#
#
# Indices 1 2 3 4 5 6 
#
# 1 0.013095 -0.004392 -0.003263 -0.004747 -0.001250 0.001186
# 2 -0.004392 0.016940 -0.004776 0.003275 0.004795 -0.005025
# 3 -0.003263 -0.004776 0.014181 -0.004811 -0.005721 0.003019
# 4 -0.004747 0.003275 -0.004811 0.053927 0.004537 -0.007710
# 5 -0.001250 0.004795 -0.005721 0.004537 0.028095 -0.008073
# 6 0.001186 -0.005025 0.003019 -0.007710 -0.008073 0.033870
#
#
# Mechanical properties :
#
#
# Convention : Reuss Voigt Hill
#
# Bulk Modulus (GPa) = 51.66656 55.49616 53.58136
# Shear Modulus (GPa) = 26.12038 30.77892 28.44965
#
# Velocity S-wave (km/s) = 3.69068 4.00630 3.85172
# Velocity P-wave (km/s) = 6.71597 7.09510 6.90814
#
# Compressibility (1/GPa) = 0.01935488
#
# Stress axis : x y z
#
# Youngs Moduli (GPa) = 76.36292 59.03261 70.51744
#
# Poissons Ratio (x) = 0.25925 0.23011
# Poissons Ratio (y) = 0.33536 0.33677
# Poissons Ratio (z) = 0.24919 0.28192
#
# Static dielectric constant tensor:
#      x y z
#    x 4.148640 0.292760 -0.133240 
#    y 0.292760 3.145850 -0.155510 
#    z -0.133240 -0.155510 3.979060 
# 
# 
# High freq. dielectric constant tensor:
#      x y z
#    x 1.769610 0.006690 0.004030 
#    y 0.006690 1.699520 0.002610 
#    z 0.004030 0.002610 1.756850 
# 
# From -- ./inp_files/201830.got.cif
#   From: 2010.06.25/outbox.cif.g09.slc.cpg/sg2_101_cif.got.tgz:201830.got - 2010.06.27 13:26:56.
