data_PCOD8041219
_publ_section_title
;
Structure prediction by ZEFSAII (Michael W. Deem and Ramdas Pophale) SiO2 
 PCOD8041219
Probable space group: P -1
;
_chemical_formula_sum "Si O2"
_cell_formula_units_Z 14
_cell_length_a 10.154073
_cell_length_b 14.624992
_cell_length_c 9.923199
_cell_angle_alpha 36.870243
_cell_angle_beta 122.535935
_cell_angle_gamma 100.965069
_cell_volume 656.130819
_symmetry_space_group_name_H-M "P -1"
_symmetry_group_IT_number 2
_symmetry_cell_setting 'triclinic'
loop_
_space_group_symop_operation_xyz
x,y,z
-x,-y,-z
loop_
_atom_site_type_symbol
_atom_site_label
_atom_site_fract_x
_atom_site_fract_y
_atom_site_fract_z
Si Si1 0.570776 0.914249 0.829177
Si Si2 0.768398 0.346840 0.756164
Si Si3 0.461393 0.286826 0.719156
Si Si4 0.772118 0.382210 0.259493
Si Si5 0.835763 0.472907 0.902783
Si Si6 0.490709 0.758309 0.722389
Si Si7 0.978217 0.687366 0.294007
O O1 0.469421 0.846439 0.752658
O O2 0.491051 0.120492 0.525854
O O3 0.541350 0.873001 0.015511
O O4 0.776320 0.829692 0.999282
O O5 0.662767 0.236092 0.846852
O O6 0.617188 0.548463 0.413817
O O7 0.882577 0.337608 0.963735
O O8 0.899863 0.273744 0.788733
O O9 0.332585 0.342990 0.450583
O O10 0.680252 0.264225 0.379081
O O11 0.961559 0.299482 0.536176
O O12 0.787047 0.389740 0.099133
O O13 0.664246 0.573711 0.035771
O O14 0.000000 0.500000 0.000000
O O15 0.000000 0.500000 0.500000
#
# Coordination Sequence:
#
# PCOD8041219 Si02
#       7
#     2   2   2   2   2   2   2
#     4  11  21  41  60  90 119 158 195 248 296 348
#     4   9  19  32  55  87 112 155 195 232 288 360
#     4   9  18  33  57  78 117 154 191 228 291 353
#     4  11  22  38  62  90 115 154 204 242 290 354
#     4  10  19  31  56  88 115 147 194 248 283 344
#     4  10  24  36  63  87 121 149 203 248 292 344
#     4  12  20  35  64  90 117 155 203 242 289 355
#
# _framework density 21.337209999999999
#
# number of rings (size 3 to 8) (size 9 to 14) (size 15 to 20)
#    0.857    0.857    2.857    2.571    4.000    0.571 
#    0.000    0.714    3.143    2.571    0.000    0.000 
#    0.000    0.000    0.000    0.000    0.000    0.000 
#
# Total GULP energy -173567.141978 kJ/mol
# GULP energy per Si atom -12397.652998 kJ/mol
# Density = 2.128865 g / cm^3
# Si number density = 21.337210 Si / 1000 Ang^3
#
#
#
# Elastic Constant Matrix: (Units=GPa)
#
#
# Indices 1 2 3 4 5 6 
#
# 1 104.5250 29.6131 26.0222 5.3581 -25.8695 22.5994
# 2 29.6131 91.5543 57.1157 16.1545 -4.5415 22.0892
# 3 26.0222 57.1157 76.8347 12.0827 -28.2334 12.8206
# 4 5.3581 16.1545 12.0827 38.0066 1.0657 -2.2354
# 5 -25.8695 -4.5415 -28.2334 1.0657 37.5177 8.4992
# 6 22.5994 22.0892 12.8206 -2.2354 8.4992 32.0700
#
#
#
# Elastic Compliance Matrix: (Units=1/GPa)
#
#
# Indices 1 2 3 4 5 6 
#
# 1 0.021045 -0.007387 0.014502 -0.006695 0.030158 -0.023999
# 2 -0.007387 0.029306 -0.027704 -0.001850 -0.022796 0.002008
# 3 0.014502 -0.027704 0.055592 -0.011188 0.055324 -0.028804
# 4 -0.006695 -0.001850 -0.011188 0.033143 -0.018187 0.017595
# 5 0.030158 -0.022796 0.055324 -0.018187 0.099359 -0.055267
# 6 -0.023999 0.002008 -0.028804 0.017595 -0.055267 0.074099
#
#
# Mechanical properties :
#
#
# Convention : Reuss Voigt Hill
#
# Bulk Modulus (GPa) = 15.43997 55.37954 35.40975
# Shear Modulus (GPa) = 13.32234 32.19637 22.75935
#
# Velocity S-wave (km/s) = 2.50145 3.88871 3.26951
# Velocity P-wave (km/s) = 3.94904 6.79511 5.55736
#
# Compressibility (1/GPa) = 0.06476698
#
# Stress axis : x y z
#
# Youngs Moduli (GPa) = 47.51627 34.12303 17.98832
#
# Poissons Ratio (x) = 0.25206 -0.26088
# Poissons Ratio (y) = 0.35100 0.49834
# Poissons Ratio (z) = -0.68910 0.94533
#
# Static dielectric constant tensor:
#      x y z
#    x 3.838250 0.169780 -0.214270 
#    y 0.169780 3.663170 0.168740 
#    z -0.214270 0.168740 3.722120 
# 
# 
# High freq. dielectric constant tensor:
#      x y z
#    x 1.825720 0.022530 -0.020890 
#    y 0.022530 1.827920 0.023220 
#    z -0.020890 0.023220 1.819860 
# 
# From -- ./inp_files/435367.got.cif
#   From: 2010.06.25/outbox.cif.g09.slc.cpg/sg2_218_cif.got.tgz:435367.got - 2010.06.27 13:26:56.
