data_PCOD8041660
_publ_section_title
;
Structure prediction by ZEFSAII (Michael W. Deem and Ramdas Pophale) SiO2 
 PCOD8041660
Probable space group: P -1
;
_chemical_formula_sum "Si O2"
_cell_formula_units_Z 16
_cell_length_a 5.359270
_cell_length_b 18.162159
_cell_length_c 19.564899
_cell_angle_alpha 20.185125
_cell_angle_beta 97.327836
_cell_angle_gamma 102.846194
_cell_volume 621.753315
_symmetry_space_group_name_H-M "P -1"
_symmetry_group_IT_number 2
_symmetry_cell_setting 'triclinic'
loop_
_space_group_symop_operation_xyz
x,y,z
-x,-y,-z
loop_
_atom_site_type_symbol
_atom_site_label
_atom_site_fract_x
_atom_site_fract_y
_atom_site_fract_z
Si Si1 0.498547 0.166893 0.051900
Si Si2 0.684536 0.003992 0.405785
Si Si3 0.906469 0.892680 0.303057
Si Si4 0.366953 0.126788 0.935800
Si Si5 0.110519 0.874059 0.465238
Si Si6 0.898325 0.708122 0.324430
Si Si7 0.140855 0.594607 0.838352
Si Si8 0.409434 0.499793 0.116042
O O1 0.188771 0.061115 0.146074
O O2 0.683558 0.010989 0.210503
O O3 0.542933 0.235083 0.913408
O O4 0.581675 0.387478 0.908659
O O5 0.719909 0.179258 0.314816
O O6 0.424823 0.011050 0.346152
O O7 0.624821 0.762123 0.648997
O O8 0.950970 0.046460 0.333797
O O9 0.972250 0.769454 0.480332
O O10 0.793670 0.715443 0.392063
O O11 0.319686 0.322835 0.715944
O O12 0.500000 0.000000 0.000000
O O13 0.106267 0.948636 0.110473
O O14 0.074648 0.668800 0.695036
O O15 0.000000 0.500000 0.500000
O O16 0.319264 0.424735 0.985035
O O17 0.839317 0.464057 0.969284
#
# Coordination Sequence:
#
# PCOD8041660 Si02
#       8
#     2   2   2   2   2   2   2   2
#     4  11  23  40  63  83 126 169 211 255 321 393
#     4  10  19  35  59  85 115 153 196 267 321 375
#     4  11  23  41  59  86 127 166 201 268 325 379
#     4  10  21  44  66  93 134 181 216 273 337 386
#     4  10  19  33  56  83 115 150 196 241 320 371
#     4  10  23  42  67  99 131 175 228 272 330 405
#     4  10  19  35  60  84 117 149 200 265 322 373
#     4  10  19  33  56  88 108 151 200 246 308 376
#
# _framework density 25.733678000000001
#
# number of rings (size 3 to 8) (size 9 to 14) (size 15 to 20)
#    0.000    1.750    1.250    5.250    0.000    2.500 
#    4.500    0.000    0.000   25.500    0.000    0.000 
#    0.000    0.000    0.000    0.000    0.000    0.000 
#
# Total GULP energy -198257.574122 kJ/mol
# GULP energy per Si atom -12391.098383 kJ/mol
# Density = 2.567511 g / cm^3
# Si number density = 25.733678 Si / 1000 Ang^3
#
#
#
# Elastic Constant Matrix: (Units=GPa)
#
#
# Indices 1 2 3 4 5 6 
#
# 1 175.8547 -11.6453 27.2145 -19.8208 33.1003 -5.3531
# 2 -11.6453 -45.1292 41.8588 -33.4877 -4.6351 -7.8267
# 3 27.2145 41.8588 61.2436 -5.0300 33.2695 0.9565
# 4 -19.8208 -33.4877 -5.0300 36.7186 -4.7102 12.1030
# 5 33.1003 -4.6351 33.2695 -4.7102 37.9901 -3.3713
# 6 -5.3531 -7.8267 0.9565 12.1030 -3.3713 44.3944
#
#
#
# Elastic Compliance Matrix: (Units=1/GPa)
#
#
# Indices 1 2 3 4 5 6 
#
# 1 0.007022 -0.000951 0.001888 0.002398 -0.007644 -0.000596
# 2 -0.000951 -0.006946 0.009754 -0.006564 -0.009417 -0.000475
# 3 0.001888 0.009754 0.017944 0.011328 -0.015002 -0.002667
# 4 0.002398 -0.006564 0.011328 0.025694 -0.010415 -0.008908
# 5 -0.007644 -0.009417 -0.015002 -0.010415 0.044028 0.003924
# 6 -0.000596 -0.000475 -0.002667 -0.008908 0.003924 0.025154
#
#
# Mechanical properties :
#
#
# Convention : Reuss Voigt Hill
#
# Bulk Modulus (GPa) = 25.37958 34.09168 29.73563
# Shear Modulus (GPa) = 47.77920 32.79002 40.28461
#
# Velocity S-wave (km/s) = 4.31360 3.57348 3.96086
# Velocity P-wave (km/s) = 5.89010 5.50481 5.70071
#
# Compressibility (1/GPa) = 0.03940175
#
# Stress axis : x y z
#
# Youngs Moduli (GPa) = 142.40747 -143.96616 55.72929
#
# Poissons Ratio (x) = -0.13695 -0.10523
# Poissons Ratio (y) = 0.13547 -0.54358
# Poissons Ratio (z) = -0.26890 1.40424
#
# Static dielectric constant tensor:
#      x y z
#    x 5.874610 -0.148590 0.198320 
#    y -0.148590 5.234210 0.250400 
#    z 0.198320 0.250400 4.184720 
# 
# 
# High freq. dielectric constant tensor:
#      x y z
#    x 2.055680 -0.002270 0.015580 
#    y -0.002270 2.046130 0.011170 
#    z 0.015580 0.011170 2.002440 
# 
# From -- ./inp_files/120014.got.cif
#   From: 2010.06.25/outbox.cif.g09.slc.cpg/sg2_61_cif.got.tgz:120014.got - 2010.06.27 13:26:56.
