data_PCOD8041027
_publ_section_title
;
Structure prediction by ZEFSAII (Michael W. Deem and Ramdas Pophale) SiO2 
 PCOD8041027
Probable space group: P -1
;
_chemical_formula_sum "Si O2"
_cell_formula_units_Z 14
_cell_length_a 28.107294
_cell_length_b 13.808898
_cell_length_c 27.845279
_cell_angle_alpha 24.788244
_cell_angle_beta 169.702949
_cell_angle_gamma 155.544149
_cell_volume 788.758863
_symmetry_space_group_name_H-M "P -1"
_symmetry_group_IT_number 2
_symmetry_cell_setting 'triclinic'
loop_
_space_group_symop_operation_xyz
x,y,z
-x,-y,-z
loop_
_atom_site_type_symbol
_atom_site_label
_atom_site_fract_x
_atom_site_fract_y
_atom_site_fract_z
Si Si1 0.581075 0.842077 0.518342
Si Si2 0.300344 0.503376 0.737419
Si Si3 0.864266 0.775406 0.211756
Si Si4 0.683043 0.853885 0.717286
Si Si5 0.892574 0.691726 0.085268
Si Si6 0.342837 0.617958 0.626591
Si Si7 0.936713 0.262071 0.014400
O O1 0.522809 0.743972 0.559650
O O2 0.822386 0.741356 0.781333
O O3 0.666071 0.126748 0.475596
O O4 0.323628 0.744509 0.273831
O O5 0.195708 0.266162 0.771956
O O6 0.256947 0.437730 0.667139
O O7 0.145722 0.705040 0.509565
O O8 0.622665 0.606855 0.017864
O O9 0.888266 0.048513 0.100670
O O10 0.500000 0.000000 0.500000
O O11 0.764378 0.646444 0.924390
O O12 0.964675 0.027621 0.899705
O O13 0.124303 0.551814 0.395021
O O14 0.648180 0.622525 0.911416
O O15 0.000000 0.500000 0.000000
#
# Coordination Sequence:
#
# PCOD8041027 Si02
#       7
#     2   2   2   2   2   2   2
#     4  11  21  32  50  69  98 137 165 202 245 290
#     4  10  19  29  51  69  97 123 164 203 256 300
#     4  10  19  33  46  71  92 127 166 214 246 281
#     4  10  19  29  45  70  99 129 157 193 249 307
#     4  10  19  26  42  68 100 127 149 188 236 312
#     4  11  17  29  46  69  97 128 154 190 243 304
#     4  12  23  36  50  69 100 140 180 203 229 282
#
# _framework density 17.749404999999999
#
# number of rings (size 3 to 8) (size 9 to 14) (size 15 to 20)
#    0.000    1.429    5.714    3.000    2.000    0.000 
#    0.000    0.000    0.000    0.000    0.000    0.000 
#    0.000    6.857    0.000    0.000    0.000    0.000 
#
# Total GULP energy -173475.792440 kJ/mol
# GULP energy per Si atom -12391.128031 kJ/mol
# Density = 1.770901 g / cm^3
# Si number density = 17.749405 Si / 1000 Ang^3
#
#
#
# Elastic Constant Matrix: (Units=GPa)
#
#
# Indices 1 2 3 4 5 6 
#
# 1 155.8699 37.9454 59.6738 8.1158 -21.2303 12.7539
# 2 37.9454 47.9402 26.1191 -0.4091 -6.0837 -4.1895
# 3 59.6738 26.1191 141.3471 9.5998 -8.7571 -10.9156
# 4 8.1158 -0.4091 9.5998 7.0087 -3.3391 0.5280
# 5 -21.2303 -6.0837 -8.7571 -3.3391 41.9840 0.0426
# 6 12.7539 -4.1895 -10.9156 0.5280 0.0426 22.2776
#
#
#
# Elastic Compliance Matrix: (Units=1/GPa)
#
#
# Indices 1 2 3 4 5 6 
#
# 1 0.011024 -0.007321 -0.003379 -0.006291 0.003318 -0.009201
# 2 -0.007321 0.028963 -0.002485 0.013457 0.001038 0.008100
# 3 -0.003379 -0.002485 0.010180 -0.011080 -0.000833 0.006719
# 4 -0.006291 0.013457 -0.011080 0.170972 0.010059 -0.003369
# 5 0.003318 0.001038 -0.000833 0.010059 0.026276 -0.002401
# 6 -0.009201 0.008100 0.006719 -0.003369 -0.002401 0.055056
#
#
# Mechanical properties :
#
#
# Convention : Reuss Voigt Hill
#
# Bulk Modulus (GPa) = 42.02378 65.84822 53.93600
# Shear Modulus (GPa) = 14.84680 29.01531 21.93105
#
# Velocity S-wave (km/s) = 2.89531 4.04755 3.51891
# Velocity P-wave (km/s) = 5.90802 7.68264 6.85301
#
# Compressibility (1/GPa) = 0.02379605
#
# Stress axis : x y z
#
# Youngs Moduli (GPa) = 90.71286 34.52720 98.22926
#
# Poissons Ratio (x) = 0.25278 0.33190
# Poissons Ratio (y) = 0.66414 0.24411
# Poissons Ratio (z) = 0.30651 0.08581
#
# Static dielectric constant tensor:
#      x y z
#    x 3.911060 0.168200 -0.331890 
#    y 0.168200 2.574740 0.132170 
#    z -0.331890 0.132170 3.691080 
# 
# 
# High freq. dielectric constant tensor:
#      x y z
#    x 1.715680 0.019450 -0.010490 
#    y 0.019450 1.581290 0.017030 
#    z -0.010490 0.017030 1.717170 
# 
# From -- ./inp_files/563485.got.cif
#   From: 2010.06.25/outbox.cif.g09.slc.cpg/sg2_282_cif.got.tgz:563485.got - 2010.06.27 13:26:56.
