data_PCOD8041670
_publ_section_title
;
Structure prediction by ZEFSAII (Michael W. Deem and Ramdas Pophale) SiO2 
 PCOD8041670
Probable space group: P -1
;
_chemical_formula_sum "Si O2"
_cell_formula_units_Z 14
_cell_length_a 9.009258
_cell_length_b 9.096474
_cell_length_c 21.773108
_cell_angle_alpha 44.510554
_cell_angle_beta 131.294960
_cell_angle_gamma 95.497753
_cell_volume 660.309880
_symmetry_space_group_name_H-M "P -1"
_symmetry_group_IT_number 2
_symmetry_cell_setting 'triclinic'
loop_
_space_group_symop_operation_xyz
x,y,z
-x,-y,-z
loop_
_atom_site_type_symbol
_atom_site_label
_atom_site_fract_x
_atom_site_fract_y
_atom_site_fract_z
Si Si1 0.195889 0.658820 0.589539
Si Si2 0.203047 0.686182 0.446041
Si Si3 0.384005 0.883355 0.344206
Si Si4 0.588652 0.175969 0.310767
Si Si5 0.435191 0.950877 0.062677
Si Si6 0.383064 0.808083 0.899457
Si Si7 0.148964 0.836751 0.951178
O O1 0.321572 0.558800 0.584749
O O2 0.308075 0.791202 0.608948
O O3 0.300299 0.382020 0.740463
O O4 0.856823 0.916860 0.419226
O O5 0.293215 0.843157 0.395389
O O6 0.318988 0.425612 0.507903
O O7 0.865371 0.923858 0.292475
O O8 0.414334 0.102541 0.303724
O O9 0.163885 0.015584 0.188056
O O10 0.375370 0.480786 0.123523
O O11 0.174441 0.982738 0.972499
O O12 0.381657 0.184295 0.027352
O O13 0.500000 0.000000 0.000000
O O14 0.500000 0.500000 0.000000
O O15 0.223152 0.908649 0.889694
#
# Coordination Sequence:
#
# PCOD8041670 Si02
#       7
#     2   2   2   2   2   2   2
#     4  10  21  37  59  87 114 145 192 238 281 335
#     4  10  22  38  55  84 116 149 191 231 283 339
#     4  10  21  38  58  80 118 157 187 229 280 340
#     4  10  20  36  60  86 112 147 189 239 283 328
#     4   9  19  36  56  80 113 148 181 229 286 333
#     4  10  19  33  56  85 112 141 186 239 279 324
#     4   9  19  36  55  79 112 150 187 223 281 340
#
# _framework density 21.202165000000001
#
# number of rings (size 3 to 8) (size 9 to 14) (size 15 to 20)
#    0.000    2.286    0.000    2.143    0.000    6.286 
#    0.000    5.714    0.000    0.000    0.000    0.000 
#    0.000    0.000    0.000    0.000    0.000    0.000 
#
# Total GULP energy -173444.675131 kJ/mol
# GULP energy per Si atom -12388.905367 kJ/mol
# Density = 2.115391 g / cm^3
# Si number density = 21.202165 Si / 1000 Ang^3
#
#
#
# Elastic Constant Matrix: (Units=GPa)
#
#
# Indices 1 2 3 4 5 6 
#
# 1 58.3683 42.4203 33.5482 10.6648 -12.7274 6.8722
# 2 42.4203 143.3883 38.7360 -4.2538 -1.3141 29.0481
# 3 33.5482 38.7360 116.8231 -0.5736 -7.2489 6.9024
# 4 10.6648 -4.2538 -0.5736 22.7877 -3.2400 -3.0903
# 5 -12.7274 -1.3141 -7.2489 -3.2400 31.4553 2.5277
# 6 6.8722 29.0481 6.9024 -3.0903 2.5277 38.4314
#
#
#
# Elastic Compliance Matrix: (Units=1/GPa)
#
#
# Indices 1 2 3 4 5 6 
#
# 1 0.030964 -0.007892 -0.005746 -0.014823 0.009376 -0.000349
# 2 -0.007892 0.010980 -0.001112 0.004589 -0.002021 -0.006186
# 3 -0.005746 -0.001112 0.010604 0.002821 0.000350 0.000167
# 4 -0.014823 0.004589 0.002821 0.052135 -0.000017 0.002869
# 5 0.009376 -0.002021 0.000350 -0.000017 0.035786 -0.002567
# 6 -0.000349 -0.006186 0.000167 0.002869 -0.002567 0.031128
#
#
# Mechanical properties :
#
#
# Convention : Reuss Voigt Hill
#
# Bulk Modulus (GPa) = 43.38321 60.88762 52.13541
# Shear Modulus (GPa) = 23.94871 32.12655 28.03763
#
# Velocity S-wave (km/s) = 3.36451 3.89684 3.64042
# Velocity P-wave (km/s) = 5.96652 7.00194 6.50486
#
# Compressibility (1/GPa) = 0.02305039
#
# Stress axis : x y z
#
# Youngs Moduli (GPa) = 32.29514 91.07514 94.30132
#
# Poissons Ratio (x) = 0.71872 0.54183
# Poissons Ratio (y) = 0.25486 0.10485
# Poissons Ratio (z) = 0.18556 0.10126
#
# Static dielectric constant tensor:
#      x y z
#    x 3.467950 0.332640 -0.054390 
#    y 0.332640 4.206360 0.277310 
#    z -0.054390 0.277310 4.042080 
# 
# 
# High freq. dielectric constant tensor:
#      x y z
#    x 1.794170 0.019850 -0.014430 
#    y 0.019850 1.838360 0.007000 
#    z -0.014430 0.007000 1.841770 
# 
# From -- ./inp_files/158256.got.cif
#   From: 2010.06.25/outbox.cif.g09.slc.cpg/sg2_80_cif.got.tgz:158256.got - 2010.06.27 13:26:56.
