data_PCOD8041045
_publ_section_title
;
Structure prediction by ZEFSAII (Michael W. Deem and Ramdas Pophale) SiO2 
 PCOD8041045
Probable space group: P -1
;
_chemical_formula_sum "Si O2"
_cell_formula_units_Z 12
_cell_length_a 9.936218
_cell_length_b 10.151767
_cell_length_c 13.567251
_cell_angle_alpha 111.297962
_cell_angle_beta 109.554417
_cell_angle_gamma 28.884032
_cell_volume 615.483199
_symmetry_space_group_name_H-M "P -1"
_symmetry_group_IT_number 2
_symmetry_cell_setting 'triclinic'
loop_
_space_group_symop_operation_xyz
x,y,z
-x,-y,-z
loop_
_atom_site_type_symbol
_atom_site_label
_atom_site_fract_x
_atom_site_fract_y
_atom_site_fract_z
Si Si1 0.795391 0.767424 0.959349
Si Si2 0.674902 0.278095 0.571332
Si Si3 0.874601 0.884964 0.387664
Si Si4 0.318122 0.330654 0.261914
Si Si5 0.475535 0.456728 0.207098
Si Si6 0.990703 0.917256 0.072848
O O1 0.787009 0.721865 0.831136
O O2 0.000000 0.500000 0.000000
O O3 0.500000 0.000000 0.000000
O O4 0.888455 0.849064 0.000673
O O5 0.500000 0.500000 0.500000
O O6 0.506285 0.435992 0.675357
O O7 0.970927 0.106241 0.613748
O O8 0.739049 0.056791 0.504288
O O9 0.100644 0.564555 0.359174
O O10 0.626807 0.043632 0.300154
O O11 0.324998 0.447124 0.212977
O O12 0.787086 0.159883 0.168890
O O13 0.298265 0.655829 0.123478
O O14 0.000000 0.000000 0.000000
#
# Coordination Sequence:
#
# PCOD8041045 Si02
#       6
#     2   2   2   2   2   2
#     4  12  22  36  59  85 109 152 198 243 287 334
#     4  10  19  29  52  82 119 143 178 230 307 339
#     4  10  19  29  46  81 119 140 170 230 292 350
#     4  11  19  32  53  80 115 140 185 228 292 329
#     4  11  21  35  58  81 118 151 189 237 290 336
#     4  12  25  41  56  83 120 159 196 234 280 344
#
# _framework density 19.496876
#
# number of rings (size 3 to 8) (size 9 to 14) (size 15 to 20)
#    0.000    1.000    6.667    3.500    2.333    0.000 
#    0.000    0.000    0.000    0.000    0.000    7.000 
#    0.000    0.000    0.000    0.000    0.000    0.000 
#
# Total GULP energy -148725.677934 kJ/mol
# GULP energy per Si atom -12393.806495 kJ/mol
# Density = 1.945250 g / cm^3
# Si number density = 19.496876 Si / 1000 Ang^3
#
#
#
# Elastic Constant Matrix: (Units=GPa)
#
#
# Indices 1 2 3 4 5 6 
#
# 1 54.7474 22.5651 29.2939 2.1404 3.2663 6.9498
# 2 22.5651 101.4421 24.3341 7.3642 8.8741 -15.7858
# 3 29.2939 24.3341 114.6581 23.2909 19.1720 -5.7808
# 4 2.1404 7.3642 23.2909 49.6904 -1.7578 0.9784
# 5 3.2663 8.8741 19.1720 -1.7578 20.3293 -7.3210
# 6 6.9498 -15.7858 -5.7808 0.9784 -7.3210 16.9071
#
#
#
# Elastic Compliance Matrix: (Units=1/GPa)
#
#
# Indices 1 2 3 4 5 6 
#
# 1 0.028321 -0.008257 -0.006999 0.003655 -0.002293 -0.022949
# 2 -0.008257 0.014441 0.000218 -0.002198 0.000921 0.017478
# 3 -0.006999 0.000218 0.013918 -0.006725 -0.011509 0.003246
# 4 0.003655 -0.002198 -0.006725 0.023784 0.007307 -0.004067
# 5 -0.002293 0.000921 -0.011509 0.007307 0.070755 0.028082
# 6 -0.022949 0.017478 0.003246 -0.004067 0.028082 0.098403
#
#
# Mechanical properties :
#
#
# Convention : Reuss Voigt Hill
#
# Bulk Modulus (GPa) = 37.58767 47.02597 42.30682
# Shear Modulus (GPa) = 17.32709 30.36233 23.84471
#
# Velocity S-wave (km/s) = 2.98436 3.95054 3.50094
# Velocity P-wave (km/s) = 5.58533 6.70679 6.17159
#
# Compressibility (1/GPa) = 0.02660447
#
# Stress axis : x y z
#
# Youngs Moduli (GPa) = 35.30929 69.24776 71.85094
#
# Poissons Ratio (x) = 0.57175 0.50292
# Poissons Ratio (y) = 0.29154 -0.01570
# Poissons Ratio (z) = 0.24715 -0.01513
#
# Static dielectric constant tensor:
#      x y z
#    x 2.879780 -0.218120 0.147390 
#    y -0.218120 3.884340 0.377630 
#    z 0.147390 0.377630 3.936480 
# 
# 
# High freq. dielectric constant tensor:
#      x y z
#    x 1.675610 -0.027070 0.027430 
#    y -0.027070 1.784110 0.016830 
#    z 0.027430 0.016830 1.781250 
# 
# From -- ./inp_files/293710.got.cif
#   From: 2010.06.25/outbox.cif.g09.slc.cpg/sg2_147_cif.got.tgz:293710.got - 2010.06.27 13:26:56.
