data_PCOD8041098
_publ_section_title
;
Structure prediction by ZEFSAII (Michael W. Deem and Ramdas Pophale) SiO2 
 PCOD8041098
Probable space group: P -1
;
_chemical_formula_sum "Si O2"
_cell_formula_units_Z 16
_cell_length_a 5.473107
_cell_length_b 15.414408
_cell_length_c 13.185147
_cell_angle_alpha 135.745807
_cell_angle_beta 99.466781
_cell_angle_gamma 103.591580
_cell_volume 657.460090
_symmetry_space_group_name_H-M "P -1"
_symmetry_group_IT_number 2
_symmetry_cell_setting 'triclinic'
loop_
_space_group_symop_operation_xyz
x,y,z
-x,-y,-z
loop_
_atom_site_type_symbol
_atom_site_label
_atom_site_fract_x
_atom_site_fract_y
_atom_site_fract_z
Si Si1 0.766928 0.112149 0.493938
Si Si2 0.743947 0.649484 0.021901
Si Si3 0.986001 0.176183 0.296897
Si Si4 0.653942 0.191269 0.757287
Si Si5 0.369782 0.339399 0.755829
Si Si6 0.476437 0.808438 0.628070
Si Si7 0.346231 0.145107 0.933763
Si Si8 0.860365 0.122497 0.010160
O O1 0.753479 0.113426 0.616039
O O2 0.582587 0.174681 0.479585
O O3 0.104486 0.210704 0.565535
O O4 0.618350 0.940357 0.309584
O O5 0.761654 0.627499 0.125702
O O6 0.081332 0.725699 0.074419
O O7 0.543103 0.487955 0.825710
O O8 0.614873 0.755319 0.080298
O O9 0.832405 0.266734 0.396141
O O10 0.907725 0.121661 0.131983
O O11 0.335782 0.271045 0.418321
O O12 0.838958 0.031388 0.239084
O O13 0.593977 0.296551 0.775638
O O14 0.686613 0.958791 0.824067
O O15 0.668290 0.196719 0.038804
O O16 0.174558 0.198621 0.040968
#
# Coordination Sequence:
#
# PCOD8041098 Si02
#       8
#     2   2   2   2   2   2   2   2
#     4  10  22  34  52  86 110 153 193 234 293 340
#     4  10  22  36  55  85 105 158 199 234 283 335
#     4  10  19  32  54  83 118 143 180 241 302 342
#     4  10  20  37  56  76 115 149 196 244 284 335
#     4  10  22  38  55  75 120 152 194 239 284 338
#     4  10  19  30  52  80 113 147 181 226 284 360
#     4  10  19  31  54  81 112 142 187 233 283 350
#     4  10  19  34  52  86 115 144 179 245 301 339
#
# _framework density 24.336078000000001
#
# number of rings (size 3 to 8) (size 9 to 14) (size 15 to 20)
#    0.000    2.000    0.000    6.000    7.000    0.000 
#    0.000    0.000    0.000    0.000    0.000    9.625 
#    0.000    0.000    0.000    0.000    0.000    0.000 
#
# Total GULP energy -198216.284917 kJ/mol
# GULP energy per Si atom -12388.517807 kJ/mol
# Density = 2.428069 g / cm^3
# Si number density = 24.336078 Si / 1000 Ang^3
#
#
#
# Elastic Constant Matrix: (Units=GPa)
#
#
# Indices 1 2 3 4 5 6 
#
# 1 171.7041 25.4672 30.7961 4.4513 38.1998 -16.6251
# 2 25.4672 50.2933 32.2006 4.1104 23.4459 -11.4624
# 3 30.7961 32.2006 78.8447 25.5151 34.1529 -4.1586
# 4 4.4513 4.1104 25.5151 38.3113 2.2277 -0.1385
# 5 38.1998 23.4459 34.1529 2.2277 28.4360 -13.3534
# 6 -16.6251 -11.4624 -4.1586 -0.1385 -13.3534 38.5158
#
#
#
# Elastic Compliance Matrix: (Units=1/GPa)
#
#
# Indices 1 2 3 4 5 6 
#
# 1 0.009393 0.001164 0.007480 -0.004837 -0.023585 -0.002986
# 2 0.001164 0.033025 -0.003734 0.000180 -0.023485 0.001786
# 3 0.007480 -0.003734 0.056221 -0.033254 -0.081342 -0.020133
# 4 -0.004837 0.000180 -0.033254 0.046046 0.047920 0.011155
# 5 -0.023585 -0.023485 -0.081342 0.047920 0.200729 0.043813
# 6 -0.002986 0.001786 -0.020133 0.011155 0.043813 0.038262
#
#
# Mechanical properties :
#
#
# Convention : Reuss Voigt Hill
#
# Bulk Modulus (GPa) = 9.22003 53.08553 31.15278
# Shear Modulus (GPa) = 12.19489 35.21117 23.70303
#
# Velocity S-wave (km/s) = 2.24096 3.80790 3.12426
# Velocity P-wave (km/s) = 3.23925 6.41828 5.08366
#
# Compressibility (1/GPa) = 0.10845946
#
# Stress axis : x y z
#
# Youngs Moduli (GPa) = 106.46122 30.28036 17.78699
#
# Poissons Ratio (x) = -0.03526 -0.13304
# Poissons Ratio (y) = -0.12397 0.06641
# Poissons Ratio (z) = -0.79628 0.11305
#
# Static dielectric constant tensor:
#      x y z
#    x 5.433460 0.234950 0.351380 
#    y 0.234950 4.266330 -0.163860 
#    z 0.351380 -0.163860 4.177210 
# 
# 
# High freq. dielectric constant tensor:
#      x y z
#    x 2.000160 0.007420 0.012600 
#    y 0.007420 1.936730 -0.032570 
#    z 0.012600 -0.032570 1.919240 
# 
# From -- ./inp_files/39821.got.cif
#   From: 2010.06.25/outbox.cif.g09.slc.cpg/sg2_20_cif.got.tgz:39821.got - 2010.06.27 13:26:56.
