data_PCOD8041046
_publ_section_title
;
Structure prediction by ZEFSAII (Michael W. Deem and Ramdas Pophale) SiO2 
 PCOD8041046
Probable space group: P -1
;
_chemical_formula_sum "Si O2"
_cell_formula_units_Z 16
_cell_length_a 21.940554
_cell_length_b 12.631977
_cell_length_c 22.422985
_cell_angle_alpha 28.463873
_cell_angle_beta 161.191869
_cell_angle_gamma 141.495738
_cell_volume 903.768785
_symmetry_space_group_name_H-M "P -1"
_symmetry_group_IT_number 2
_symmetry_cell_setting 'triclinic'
loop_
_space_group_symop_operation_xyz
x,y,z
-x,-y,-z
loop_
_atom_site_type_symbol
_atom_site_label
_atom_site_fract_x
_atom_site_fract_y
_atom_site_fract_z
Si Si1 0.821892 0.850109 0.557984
Si Si2 0.707034 0.588043 0.089590
Si Si3 0.382868 0.535021 0.435302
Si Si4 0.702784 0.052008 0.149455
Si Si5 0.860926 0.228888 0.312945
Si Si6 0.738516 0.212800 0.398461
Si Si7 0.151448 0.997537 0.939872
Si Si8 0.256729 0.747866 0.036720
O O1 0.708773 0.666496 0.530987
O O2 0.819809 0.019827 0.416561
O O3 0.714480 0.003198 0.439343
O O4 0.048893 0.698442 0.860533
O O5 0.798964 0.475995 0.167380
O O6 0.796679 0.397789 0.318592
O O7 0.760100 0.815895 0.042355
O O8 0.469159 0.655138 0.827327
O O9 0.500000 0.500000 0.500000
O O10 0.562837 0.500632 0.666960
O O11 0.209653 0.785214 0.147535
O O12 0.904666 0.830632 0.456769
O O13 0.727510 0.254863 0.116348
O O14 0.500000 0.000000 0.000000
O O15 0.694862 0.116729 0.041169
O O16 0.911593 0.110829 0.658139
O O17 0.241783 0.913295 0.999569
#
# Coordination Sequence:
#
# PCOD8041046 Si02
#       8
#     2   2   2   2   2   2   2   2
#     4   9  17  32  48  71 106 129 161 205 239 291
#     4  10  19  32  48  70 104 129 158 197 237 302
#     4  10  19  29  47  72 100 135 167 198 238 284
#     4  10  19  33  54  76  98 124 164 210 249 290
#     4   9  20  34  51  77 100 129 161 200 253 289
#     4   9  18  29  47  70  96 136 161 189 246 290
#     4  10  20  31  47  74 104 132 161 193 238 294
#     4   9  19  32  49  73  99 131 164 203 250 283
#
# _framework density 17.703644000000001
#
# number of rings (size 3 to 8) (size 9 to 14) (size 15 to 20)
#    0.000    2.500    0.000    3.375    0.000    8.500 
#    0.000    0.000    0.000    0.750    0.000   13.125 
#    0.000    0.000    0.000    0.000    0.000    0.000 
#
# Total GULP energy -198262.134412 kJ/mol
# GULP energy per Si atom -12391.383401 kJ/mol
# Density = 1.766335 g / cm^3
# Si number density = 17.703644 Si / 1000 Ang^3
#
#
#
# Elastic Constant Matrix: (Units=GPa)
#
#
# Indices 1 2 3 4 5 6 
#
# 1 58.0241 22.5316 19.4894 7.8131 8.7991 -8.3890
# 2 22.5316 63.6008 23.9321 -0.2157 -1.1102 -2.0031
# 3 19.4894 23.9321 113.7118 7.6300 -1.0463 0.5534
# 4 7.8131 -0.2157 7.6300 24.1648 3.8452 -0.2445
# 5 8.7991 -1.1102 -1.0463 3.8452 24.4956 2.6450
# 6 -8.3890 -2.0031 0.5534 -0.2445 2.6450 18.1270
#
#
#
# Elastic Compliance Matrix: (Units=1/GPa)
#
#
# Indices 1 2 3 4 5 6 
#
# 1 0.025111 -0.007789 -0.002431 -0.005723 -0.009896 0.012201
# 2 -0.007789 0.019608 -0.002960 0.003090 0.003268 -0.001783
# 3 -0.002431 -0.002960 0.010043 -0.002722 0.001818 -0.002061
# 4 -0.005723 0.003090 -0.002722 0.044885 -0.004868 -0.000908
# 5 -0.009896 0.003268 0.001818 -0.004868 0.046571 -0.011135
# 6 0.012201 -0.001783 -0.002061 -0.000908 -0.011135 0.062291
#
#
# Mechanical properties :
#
#
# Convention : Reuss Voigt Hill
#
# Bulk Modulus (GPa) = 35.20995 40.80478 38.00736
# Shear Modulus (GPa) = 20.46360 24.64972 22.55666
#
# Velocity S-wave (km/s) = 3.40354 3.73547 3.57336
# Velocity P-wave (km/s) = 5.94787 6.45785 6.20810
#
# Compressibility (1/GPa) = 0.02840107
#
# Stress axis : x y z
#
# Youngs Moduli (GPa) = 39.82389 51.00021 99.56960
#
# Poissons Ratio (x) = 0.39724 0.24205
# Poissons Ratio (y) = 0.31019 0.29476
# Poissons Ratio (z) = 0.09681 0.15098
#
# Static dielectric constant tensor:
#      x y z
#    x 3.288840 -0.038400 -0.182520 
#    y -0.038400 3.057800 0.061180 
#    z -0.182520 0.061180 4.098120 
# 
# 
# High freq. dielectric constant tensor:
#      x y z
#    x 1.657570 0.000970 0.003670 
#    y 0.000970 1.662350 0.019540 
#    z 0.003670 0.019540 1.700060 
# 
# From -- ./inp_files/425655.got.cif
#   From: 2010.06.25/outbox.cif.g09.slc.cpg/sg2_213_cif.got.tgz:425655.got - 2010.06.27 13:26:56.
