data_PCOD8041777
_publ_section_title
;
Structure prediction by ZEFSAII (Michael W. Deem and Ramdas Pophale) SiO2 
 PCOD8041777
Probable space group: P -1
;
_chemical_formula_sum "Si O2"
_cell_formula_units_Z 16
_cell_length_a 9.244397
_cell_length_b 12.806353
_cell_length_c 14.888071
_cell_angle_alpha 123.833497
_cell_angle_beta 140.361158
_cell_angle_gamma 77.609374
_cell_volume 854.307884
_symmetry_space_group_name_H-M "P -1"
_symmetry_group_IT_number 2
_symmetry_cell_setting 'triclinic'
loop_
_space_group_symop_operation_xyz
x,y,z
-x,-y,-z
loop_
_atom_site_type_symbol
_atom_site_label
_atom_site_fract_x
_atom_site_fract_y
_atom_site_fract_z
Si Si1 0.420783 0.114109 0.978439
Si Si2 0.389633 0.745047 0.039917
Si Si3 0.729688 0.473487 0.890335
Si Si4 0.623477 0.413952 0.293996
Si Si5 0.837714 0.663927 0.198338
Si Si6 0.032255 0.483337 0.656846
Si Si7 0.108163 0.911355 0.316629
Si Si8 0.425732 0.828010 0.291157
O O1 0.507349 0.134654 0.926486
O O2 0.125574 0.063752 0.820034
O O3 0.551814 0.254699 0.163429
O O4 0.500000 0.000000 0.000000
O O5 0.593948 0.682381 0.122716
O O6 0.336761 0.808313 0.136005
O O7 0.131876 0.626894 0.826588
O O8 0.618659 0.551338 0.805182
O O9 0.562346 0.310959 0.731737
O O10 0.742655 0.531596 0.024754
O O11 0.000000 0.500000 0.000000
O O12 0.796019 0.508874 0.343032
O O13 0.756253 0.449930 0.471658
O O14 0.974899 0.638230 0.338661
O O15 0.030078 0.796595 0.302023
O O16 0.227537 0.864855 0.268377
O O17 0.300212 0.053606 0.517081
#
# Coordination Sequence:
#
# PCOD8041777 Si02
#       8
#     2   2   2   2   2   2   2   2
#     4  10  21  39  58  79 120 163 193 238 298 351
#     4  10  20  35  59  90 114 152 204 247 287 350
#     4  12  20  37  66  84 115 164 195 237 297 347
#     4  10  21  36  56  91 120 150 198 247 292 348
#     4  11  19  37  61  88 118 152 204 245 283 352
#     4  10  19  33  58  87 119 146 192 256 289 331
#     4  10  23  40  56  89 120 150 202 241 289 366
#     4  11  22  36  63  87 117 152 195 248 298 338
#
# _framework density 18.728611000000001
#
# number of rings (size 3 to 8) (size 9 to 14) (size 15 to 20)
#    0.000    1.500    6.250    1.125    0.000    7.000 
#    0.000    1.250    0.000    0.000    0.000    0.000 
#    0.000    0.000    0.000    0.000    0.000    0.000 
#
# Total GULP energy -198430.012777 kJ/mol
# GULP energy per Si atom -12401.875799 kJ/mol
# Density = 1.868598 g / cm^3
# Si number density = 18.728611 Si / 1000 Ang^3
#
#
#
# Elastic Constant Matrix: (Units=GPa)
#
#
# Indices 1 2 3 4 5 6 
#
# 1 76.7551 50.4449 55.1509 -5.1089 -5.5913 2.4793
# 2 50.4449 148.1351 73.3456 -14.6212 -0.8061 -2.6013
# 3 55.1509 73.3456 140.8439 -8.3927 -5.6539 3.6483
# 4 -5.1089 -14.6212 -8.3927 42.5382 1.4096 -1.7921
# 5 -5.5913 -0.8061 -5.6539 1.4096 29.3311 -1.1413
# 6 2.4793 -2.6013 3.6483 -1.7921 -1.1413 19.9559
#
#
#
# Elastic Compliance Matrix: (Units=1/GPa)
#
#
# Indices 1 2 3 4 5 6 
#
# 1 0.019923 -0.004088 -0.005537 -0.000269 0.002558 -0.001874
# 2 -0.004088 0.010266 -0.003718 0.002458 -0.001228 0.002676
# 3 -0.005537 -0.003718 0.011299 0.000180 0.000942 -0.001792
# 4 -0.000269 0.002458 0.000180 0.024494 -0.001030 0.002462
# 5 0.002558 -0.001228 0.000942 -0.001030 0.034827 0.001249
# 6 -0.001874 0.002676 -0.001792 0.002462 0.001249 0.051312
#
#
# Mechanical properties :
#
#
# Convention : Reuss Voigt Hill
#
# Bulk Modulus (GPa) = 67.55621 80.40187 73.97904
# Shear Modulus (GPa) = 27.21208 30.81790 29.01499
#
# Velocity S-wave (km/s) = 3.81592 4.06087 3.94030
# Velocity P-wave (km/s) = 7.45415 8.06293 7.76451
#
# Compressibility (1/GPa) = 0.01480249
#
# Stress axis : x y z
#
# Youngs Moduli (GPa) = 50.19345 97.40538 88.50254
#
# Poissons Ratio (x) = 0.39823 0.49004
# Poissons Ratio (y) = 0.20521 0.32901
# Poissons Ratio (z) = 0.27792 0.36211
#
# Static dielectric constant tensor:
#      x y z
#    x 3.434520 0.072080 -0.031620 
#    y 0.072080 3.482860 0.032450 
#    z -0.031620 0.032450 3.645240 
# 
# 
# High freq. dielectric constant tensor:
#      x y z
#    x 1.717820 0.007110 0.000260 
#    y 0.007110 1.723910 0.007440 
#    z 0.000260 0.007440 1.729590 
# 
# From -- ./inp_files/223643.got.cif
#   From: 2010.06.25/outbox.cif.g09.slc.cpg/sg2_112_cif.got.tgz:223643.got - 2010.06.27 13:26:56.
