data_PCOD8041962
_publ_section_title
;
Structure prediction by ZEFSAII (Michael W. Deem and Ramdas Pophale) SiO2 
 PCOD8041962
Probable space group: P -1
;
_chemical_formula_sum "Si O2"
_cell_formula_units_Z 16
_cell_length_a 5.409171
_cell_length_b 11.660134
_cell_length_c 13.769109
_cell_angle_alpha 95.089615
_cell_angle_beta 104.496650
_cell_angle_gamma 66.638152
_cell_volume 771.807986
_symmetry_space_group_name_H-M "P -1"
_symmetry_group_IT_number 2
_symmetry_cell_setting 'triclinic'
loop_
_space_group_symop_operation_xyz
x,y,z
-x,-y,-z
loop_
_atom_site_type_symbol
_atom_site_label
_atom_site_fract_x
_atom_site_fract_y
_atom_site_fract_z
Si Si1 0.914128 0.626408 0.125603
Si Si2 0.082912 0.863658 0.451705
Si Si3 0.130933 0.963513 0.907901
Si Si4 0.532526 0.491421 0.116096
Si Si5 0.205250 0.121626 0.773848
Si Si6 0.398320 0.270070 0.091590
Si Si7 0.358318 0.144153 0.466129
Si Si8 0.268231 0.128678 0.233974
O O1 0.794340 0.531904 0.160692
O O2 0.777875 0.746360 0.191703
O O3 0.249089 0.575523 0.153183
O O4 0.828727 0.651527 0.004750
O O5 0.417309 0.792997 0.488271
O O6 0.007816 0.869589 0.332110
O O7 0.916980 0.792847 0.489283
O O8 0.000000 0.000000 0.500000
O O9 0.014950 0.884247 0.821059
O O10 0.444129 0.867038 0.950309
O O11 0.088974 0.091401 0.860601
O O12 0.000000 0.000000 0.000000
O O13 0.591527 0.347874 0.140629
O O14 0.500000 0.500000 0.000000
O O15 0.493781 0.008226 0.771421
O O16 0.280605 0.242786 0.179709
O O17 0.264403 0.164992 0.347746
O O18 0.500000 0.000000 0.500000
#
# Coordination Sequence:
#
# PCOD8041962 Si02
#       8
#     2   2   2   2   2   2   2   2
#     4  11  24  39  61  86 115 159 198 248 287 334
#     4  10  19  35  55  80 116 150 188 237 280 356
#     4  11  23  34  55  82 129 158 187 228 297 363
#     4  10  23  41  62  80 110 159 211 247 278 326
#     4  11  23  35  56  89 122 153 194 238 301 357
#     4  10  23  38  56  84 116 159 200 240 283 346
#     4  10  19  34  55  79 117 145 194 229 283 349
#     4  11  22  34  57  86 121 158 188 237 296 358
#
# _framework density 20.730543999999998
#
# number of rings (size 3 to 8) (size 9 to 14) (size 15 to 20)
#    0.000    1.500    2.500    4.500   12.250    2.000 
#    0.000    0.000    0.000    0.000    0.000    5.250 
#    0.000    0.000    0.000    0.000    0.000    0.000 
#
# Total GULP energy -198210.757211 kJ/mol
# GULP energy per Si atom -12388.172326 kJ/mol
# Density = 2.068336 g / cm^3
# Si number density = 20.730544 Si / 1000 Ang^3
#
#
#
# Elastic Constant Matrix: (Units=GPa)
#
#
# Indices 1 2 3 4 5 6 
#
# 1 113.8387 4.4372 5.0675 2.6326 -10.0766 -0.0385
# 2 4.4372 59.2231 6.0520 5.4364 -3.8959 12.4084
# 3 5.0675 6.0520 71.7670 1.5901 -1.7268 -7.1032
# 4 2.6326 5.4364 1.5901 13.9563 0.8305 0.6295
# 5 -10.0766 -3.8959 -1.7268 0.8305 27.7867 3.1487
# 6 -0.0385 12.4084 -7.1032 0.6295 3.1487 26.4645
#
#
#
# Elastic Compliance Matrix: (Units=1/GPa)
#
#
# Indices 1 2 3 4 5 6 
#
# 1 0.009154 -0.000156 -0.000554 -0.001784 0.003364 -0.000420
# 2 -0.000156 0.020288 -0.002477 -0.007359 0.004042 -0.010483
# 3 -0.000554 -0.002477 0.014705 -0.000827 -0.000193 0.005150
# 4 -0.001784 -0.007359 -0.000827 0.075111 -0.004195 0.001938
# 5 0.003364 0.004042 -0.000193 -0.004195 0.038618 -0.006437
# 6 -0.000420 -0.010483 0.005150 0.001938 -0.006437 0.044803
#
#
# Mechanical properties :
#
#
# Convention : Reuss Voigt Hill
#
# Bulk Modulus (GPa) = 26.47440 30.66025 28.56733
# Shear Modulus (GPa) = 22.55850 28.92633 25.74241
#
# Velocity S-wave (km/s) = 3.30233 3.73949 3.52769
# Velocity P-wave (km/s) = 5.22867 5.78507 5.51389
#
# Compressibility (1/GPa) = 0.03777234
#
# Stress axis : x y z
#
# Youngs Moduli (GPa) = 109.24160 49.29023 68.00211
#
# Poissons Ratio (x) = 0.00769 0.03769
# Poissons Ratio (y) = 0.01705 0.16845
# Poissons Ratio (z) = 0.06055 0.12210
#
# Static dielectric constant tensor:
#      x y z
#    x 5.659380 0.351670 -0.018840 
#    y 0.351670 3.690400 -0.046400 
#    z -0.018840 -0.046400 3.619620 
# 
# 
# High freq. dielectric constant tensor:
#      x y z
#    x 1.832210 0.007680 -0.008510 
#    y 0.007680 1.771890 -0.000670 
#    z -0.008510 -0.000670 1.793000 
# 
# From -- ./inp_files/80698.got.cif
#   From: 2010.06.25/outbox.cif.g09.slc.cpg/sg2_41_cif.got.tgz:80698.got - 2010.06.27 13:26:56.
