data_PCOD8041775
_publ_section_title
;
Structure prediction by ZEFSAII (Michael W. Deem and Ramdas Pophale) SiO2 
 PCOD8041775
Probable space group: P -1
;
_chemical_formula_sum "Si O2"
_cell_formula_units_Z 16
_cell_length_a 13.824380
_cell_length_b 9.634496
_cell_length_c 14.416457
_cell_angle_alpha 54.420089
_cell_angle_beta 48.421192
_cell_angle_gamma 94.912849
_cell_volume 737.599158
_symmetry_space_group_name_H-M "P -1"
_symmetry_group_IT_number 2
_symmetry_cell_setting 'triclinic'
loop_
_space_group_symop_operation_xyz
x,y,z
-x,-y,-z
loop_
_atom_site_type_symbol
_atom_site_label
_atom_site_fract_x
_atom_site_fract_y
_atom_site_fract_z
Si Si1 0.951383 0.844188 0.962350
Si Si2 0.679274 0.251784 0.913443
Si Si3 0.936666 0.475599 0.360321
Si Si4 0.557047 0.248545 0.472232
Si Si5 0.599244 0.327087 0.740125
Si Si6 0.777957 0.962985 0.118081
Si Si7 0.331971 0.213987 0.470844
Si Si8 0.589741 0.947904 0.671069
O O1 0.126496 0.034204 0.854885
O O2 0.798296 0.529567 0.196727
O O3 0.082703 0.964807 0.737007
O O4 0.808204 0.867734 0.048004
O O5 0.608098 0.288678 0.857365
O O6 0.926789 0.498262 0.665632
O O7 0.591707 0.966678 0.072166
O O8 0.591788 0.253340 0.060539
O O9 0.806735 0.481865 0.496880
O O10 0.796848 0.211342 0.490183
O O11 0.103390 0.738195 0.087102
O O12 0.429678 0.172781 0.492863
O O13 0.534694 0.025596 0.594206
O O14 0.462425 0.249043 0.623659
O O15 0.569849 0.499874 0.683747
O O16 0.378660 0.202241 0.340589
#
# Coordination Sequence:
#
# PCOD8041775 Si02
#       8
#     2   2   2   2   2   2   2   2
#     4  10  21  35  54  89 121 156 195 250 293 344
#     4  10  23  42  68  89 116 156 200 256 305 348
#     4  11  20  39  65  87 118 155 198 251 300 351
#     4  11  22  37  58  88 125 163 200 241 293 358
#     4  10  23  43  64  93 117 150 206 255 300 355
#     4  10  19  33  58  86 116 151 203 244 295 345
#     4  11  25  39  59  89 127 163 198 243 297 357
#     4  11  24  40  59  91 124 163 201 239 297 365
#
# _framework density 21.691998999999999
#
# number of rings (size 3 to 8) (size 9 to 14) (size 15 to 20)
#    0.000    1.500    3.750    1.125    1.750    2.000 
#    0.000    0.625    0.000    0.000    0.000    0.000 
#    0.000    0.000    0.000    0.000    0.000    0.000 
#
# Total GULP energy -198359.761978 kJ/mol
# GULP energy per Si atom -12397.485124 kJ/mol
# Density = 2.164263 g / cm^3
# Si number density = 21.691999 Si / 1000 Ang^3
#
#
#
# Elastic Constant Matrix: (Units=GPa)
#
#
# Indices 1 2 3 4 5 6 
#
# 1 53.3331 24.0570 27.7694 5.0710 -9.1831 5.7777
# 2 24.0570 106.8055 43.8171 30.2350 -6.0278 3.8955
# 3 27.7694 43.8171 89.2021 8.7051 -8.8912 1.8045
# 4 5.0710 30.2350 8.7051 26.8739 -0.9723 2.0274
# 5 -9.1831 -6.0278 -8.8912 -0.9723 29.3891 -0.2141
# 6 5.7777 3.8955 1.8045 2.0274 -0.2141 17.1626
#
#
#
# Elastic Compliance Matrix: (Units=1/GPa)
#
#
# Indices 1 2 3 4 5 6 
#
# 1 0.024617 -0.003062 -0.005613 0.001347 0.005359 -0.007094
# 2 -0.003062 0.017266 -0.005846 -0.016924 0.000254 -0.000271
# 3 -0.005613 -0.005846 0.015748 0.002506 0.001904 0.001288
# 4 0.001347 -0.016924 0.002506 0.055427 -0.000483 -0.003429
# 5 0.005359 0.000254 0.001904 -0.000483 0.036301 -0.001552
# 6 -0.007094 -0.000271 0.001288 -0.003429 -0.001552 0.060966
#
#
# Mechanical properties :
#
#
# Convention : Reuss Voigt Hill
#
# Bulk Modulus (GPa) = 34.97764 48.95863 41.96813
# Shear Modulus (GPa) = 20.08857 24.93161 22.51009
#
# Velocity S-wave (km/s) = 3.04646 3.39388 3.22485
# Velocity P-wave (km/s) = 5.34175 6.16253 5.76676
#
# Compressibility (1/GPa) = 0.02858969
#
# Stress axis : x y z
#
# Youngs Moduli (GPa) = 40.62209 57.91757 63.49833
#
# Poissons Ratio (x) = 0.17736 0.35643
# Poissons Ratio (y) = 0.12439 0.37118
# Poissons Ratio (z) = 0.22802 0.33856
#
# Static dielectric constant tensor:
#      x y z
#    x 3.806940 -0.035640 -0.113550 
#    y -0.035640 3.659610 0.259860 
#    z -0.113550 0.259860 4.089350 
# 
# 
# High freq. dielectric constant tensor:
#      x y z
#    x 1.841570 -0.000250 -0.007760 
#    y -0.000250 1.826130 0.013280 
#    z -0.007760 0.013280 1.858700 
# 
# From -- ./inp_files/313313.got.cif
#   From: 2010.06.25/outbox.cif.g09.slc.cpg/sg2_157_cif.got.tgz:313313.got - 2010.06.27 13:26:56.
