data_PCOD8041769
_publ_section_title
;
Structure prediction by ZEFSAII (Michael W. Deem and Ramdas Pophale) SiO2 
 PCOD8041769
Probable space group: P -1
;
_chemical_formula_sum "Si O2"
_cell_formula_units_Z 16
_cell_length_a 8.930723
_cell_length_b 26.116764
_cell_length_c 12.279208
_cell_angle_alpha 33.834718
_cell_angle_beta 125.822765
_cell_angle_gamma 148.453411
_cell_volume 756.827213
_symmetry_space_group_name_H-M "P -1"
_symmetry_group_IT_number 2
_symmetry_cell_setting 'triclinic'
loop_
_space_group_symop_operation_xyz
x,y,z
-x,-y,-z
loop_
_atom_site_type_symbol
_atom_site_label
_atom_site_fract_x
_atom_site_fract_y
_atom_site_fract_z
Si Si1 0.889560 0.396382 0.778458
Si Si2 0.716433 0.954475 0.486887
Si Si3 0.573923 0.776717 0.924341
Si Si4 0.691936 0.907649 0.330492
Si Si5 0.584355 0.569382 0.294252
Si Si6 0.786432 0.743489 0.717715
Si Si7 0.485791 0.469266 0.203559
Si Si8 0.829007 0.303068 0.687389
O O1 0.724576 0.301760 0.761476
O O2 0.211232 0.470956 0.800420
O O3 0.960106 0.533900 0.570770
O O4 0.634723 0.267662 0.988497
O O5 0.481582 0.802122 0.734714
O O6 0.585492 0.925484 0.361274
O O7 0.000000 0.000000 0.500000
O O8 0.862900 0.101360 0.354528
O O9 0.495421 0.638765 0.115192
O O10 0.945294 0.935202 0.829231
O O11 0.622221 0.773526 0.566369
O O12 0.476691 0.850672 0.238819
O O13 0.500000 0.500000 0.500000
O O14 0.404679 0.439633 0.350444
O O15 0.958016 0.702675 0.199289
O O16 0.805956 0.691403 0.705753
O O17 0.562409 0.602841 0.958469
#
# Coordination Sequence:
#
# PCOD8041769 Si02
#       8
#     2   2   2   2   2   2   2   2
#     4  10  20  36  54  81 114 144 181 226 269 321
#     4   8  17  34  56  76 109 142 176 221 273 323
#     4  10  20  36  58  81 110 145 184 223 274 321
#     4  10  19  36  58  80 113 147 180 219 279 333
#     4  11  21  35  55  81 114 142 181 230 268 320
#     4   9  17  33  57  80 101 145 183 217 269 328
#     4  10  19  33  58  83 109 141 184 223 276 322
#     4  10  21  36  55  79 113 149 179 223 274 320
#
# _framework density 21.140888
#
# number of rings (size 3 to 8) (size 9 to 14) (size 15 to 20)
#    0.000    2.500    2.500    2.250    0.000    1.000 
#    0.000    6.875    0.000    0.000    0.000    0.000 
#    0.000    0.000    0.000    0.000    0.000    0.000 
#
# Total GULP energy -198252.774251 kJ/mol
# GULP energy per Si atom -12390.798391 kJ/mol
# Density = 2.109277 g / cm^3
# Si number density = 21.140888 Si / 1000 Ang^3
#
#
#
# Elastic Constant Matrix: (Units=GPa)
#
#
# Indices 1 2 3 4 5 6 
#
# 1 69.9306 32.4888 35.8428 -0.9092 -12.0212 -24.3280
# 2 32.4888 111.2967 18.5429 -1.8196 -8.9558 -40.9351
# 3 35.8428 18.5429 81.0753 1.2071 -15.1129 -28.2460
# 4 -0.9092 -1.8196 1.2071 19.7480 -9.4557 -1.3398
# 5 -12.0212 -8.9558 -15.1129 -9.4557 35.7277 7.7460
# 6 -24.3280 -40.9351 -28.2460 -1.3398 7.7460 33.1901
#
#
#
# Elastic Compliance Matrix: (Units=1/GPa)
#
#
# Indices 1 2 3 4 5 6 
#
# 1 0.021551 -0.002296 -0.005858 0.003305 0.003490 0.007299
# 2 -0.002296 0.018382 0.006129 0.003846 0.001823 0.025935
# 3 -0.005858 0.006129 0.021575 0.002746 0.004956 0.020580
# 4 0.003305 0.003846 0.002746 0.059825 0.017366 0.007864
# 5 0.003490 0.001823 0.004956 0.017366 0.036028 0.001317
# 6 0.007299 0.025935 0.020580 0.007864 0.001317 0.084991
#
#
# Mechanical properties :
#
#
# Convention : Reuss Voigt Hill
#
# Bulk Modulus (GPa) = 17.40396 48.45018 32.92707
# Shear Modulus (GPa) = 18.82842 29.42839 24.12840
#
# Velocity S-wave (km/s) = 2.98756 3.73502 3.38200
# Velocity P-wave (km/s) = 4.48898 6.44732 5.55513
#
# Compressibility (1/GPa) = 0.05745818
#
# Stress axis : x y z
#
# Youngs Moduli (GPa) = 46.40125 54.39959 46.34895
#
# Poissons Ratio (x) = 0.12488 0.27153
# Poissons Ratio (y) = 0.10652 -0.28406
# Poissons Ratio (z) = 0.27184 -0.33340
#
# Static dielectric constant tensor:
#      x y z
#    x 3.678030 -0.527750 0.108090 
#    y -0.527750 4.383650 0.266850 
#    z 0.108090 0.266850 3.817530 
# 
# 
# High freq. dielectric constant tensor:
#      x y z
#    x 1.803050 -0.031040 0.012230 
#    y -0.031040 1.827680 0.018220 
#    z 0.012230 0.018220 1.815920 
# 
# From -- ./inp_files/406615.got.cif
#   From: 2010.06.25/outbox.cif.g09.slc.cpg/sg2_204_cif.got.tgz:406615.got - 2010.06.27 13:26:56.
