data_PCOD8041649
_publ_section_title
;
Structure prediction by ZEFSAII (Michael W. Deem and Ramdas Pophale) SiO2 
 PCOD8041649
Probable space group: P -1
;
_chemical_formula_sum "Si O2"
_cell_formula_units_Z 16
_cell_length_a 14.003123
_cell_length_b 11.338103
_cell_length_c 9.338531
_cell_angle_alpha 55.455932
_cell_angle_beta 117.368398
_cell_angle_gamma 73.677206
_cell_volume 728.803369
_symmetry_space_group_name_H-M "P -1"
_symmetry_group_IT_number 2
_symmetry_cell_setting 'triclinic'
loop_
_space_group_symop_operation_xyz
x,y,z
-x,-y,-z
loop_
_atom_site_type_symbol
_atom_site_label
_atom_site_fract_x
_atom_site_fract_y
_atom_site_fract_z
Si Si1 0.326601 0.533059 0.130556
Si Si2 0.883430 0.542264 0.724295
Si Si3 0.014819 0.694249 0.752429
Si Si4 0.811539 0.098564 0.685206
Si Si5 0.418781 0.017910 0.649440
Si Si6 0.377672 0.969429 0.342394
Si Si7 0.693650 0.165807 0.249229
Si Si8 0.171347 0.695959 0.217019
O O1 0.175931 0.619509 0.875479
O O2 0.374383 0.640680 0.028162
O O3 0.469758 0.285018 0.373401
O O4 0.285483 0.590175 0.230200
O O5 0.710211 0.764789 0.502356
O O6 0.852489 0.447536 0.651096
O O7 0.986775 0.577380 0.716703
O O8 0.980975 0.364014 0.040127
O O9 0.865630 0.947444 0.457126
O O10 0.776418 0.980679 0.825093
O O11 0.708389 0.204585 0.396231
O O12 0.750642 0.289382 0.611576
O O13 0.998708 0.934280 0.894633
O O14 0.587031 0.942250 0.815077
O O15 0.352812 0.075033 0.402439
O O16 0.432313 0.843247 0.841333
#
# Coordination Sequence:
#
# PCOD8041649 Si02
#       8
#     2   2   2   2   2   2   2   2
#     4  11  20  33  55  85 105 135 177 217 264 313
#     4   9  15  29  51  76 100 135 177 215 250 302
#     4   9  16  26  51  80 101 127 174 220 253 296
#     4  10  21  34  51  77 110 142 170 216 259 314
#     4   9  18  32  50  81 107 133 172 225 259 305
#     4  10  20  33  53  81 108 135 175 220 264 302
#     4  10  19  33  56  82 106 136 172 221 267 301
#     4  10  20  35  53  78 105 141 179 210 256 316
#
# _framework density 21.953797999999999
#
# number of rings (size 3 to 8) (size 9 to 14) (size 15 to 20)
#    0.000    2.250    5.000    0.375    1.750    2.500 
#    0.000    0.000    0.000    1.500   19.500    0.000 
#    0.000    0.000    0.000    0.000    0.000    0.000 
#
# Total GULP energy -198222.759201 kJ/mol
# GULP energy per Si atom -12388.922450 kJ/mol
# Density = 2.190383 g / cm^3
# Si number density = 21.953798 Si / 1000 Ang^3
#
#
#
# Elastic Constant Matrix: (Units=GPa)
#
#
# Indices 1 2 3 4 5 6 
#
# 1 100.7244 13.8825 19.9469 -6.2636 -7.7359 23.9825
# 2 13.8825 110.7000 8.2252 -11.1611 -12.5798 22.9946
# 3 19.9469 8.2252 18.1448 -5.7017 -4.5796 1.2243
# 4 -6.2636 -11.1611 -5.7017 13.3268 6.9553 0.3979
# 5 -7.7359 -12.5798 -4.5796 6.9553 21.8846 -10.1449
# 6 23.9825 22.9946 1.2243 0.3979 -10.1449 33.0408
#
#
#
# Elastic Compliance Matrix: (Units=1/GPa)
#
#
# Indices 1 2 3 4 5 6 
#
# 1 0.016533 0.002194 -0.017878 0.004945 -0.004895 -0.014427
# 2 0.002194 0.012132 -0.004282 0.010316 -0.001238 -0.010382
# 3 -0.017878 -0.004282 0.083924 0.018024 0.010386 0.015819
# 4 0.004945 0.010316 0.018024 0.112894 -0.035400 -0.023665
# 5 -0.004895 -0.001238 0.010386 -0.035400 0.068490 0.025485
# 6 -0.014427 -0.010382 0.015819 -0.023665 0.025485 0.055487
#
#
# Mechanical properties :
#
#
# Convention : Reuss Voigt Hill
#
# Bulk Modulus (GPa) = 13.76304 34.85315 24.30809
# Shear Modulus (GPa) = 12.08865 26.15142 19.12003
#
# Velocity S-wave (km/s) = 2.34912 3.45512 2.95434
# Velocity P-wave (km/s) = 3.69331 5.64157 4.76801
#
# Compressibility (1/GPa) = 0.07265837
#
# Stress axis : x y z
#
# Youngs Moduli (GPa) = 60.48599 82.42426 11.91552
#
# Poissons Ratio (x) = -0.18085 0.21302
# Poissons Ratio (y) = -0.13272 0.05102
# Poissons Ratio (z) = 1.08134 0.35295
#
# Static dielectric constant tensor:
#      x y z
#    x 4.455790 0.589770 0.214130 
#    y 0.589770 4.200470 -0.340380 
#    z 0.214130 -0.340380 3.317940 
# 
# 
# High freq. dielectric constant tensor:
#      x y z
#    x 1.868560 0.034920 0.024930 
#    y 0.034920 1.855320 -0.047640 
#    z 0.024930 -0.047640 1.805930 
# 
# From -- ./inp_files/451109.got.cif
#   From: 2010.06.25/outbox.cif.g09.slc.cpg/sg2_226_cif.got.tgz:451109.got - 2010.06.27 13:26:56.
