data_PCOD8041034
_publ_section_title
;
Structure prediction by ZEFSAII (Michael W. Deem and Ramdas Pophale) SiO2 
 PCOD8041034
Probable space group: P -1
;
_chemical_formula_sum "Si O2"
_cell_formula_units_Z 16
_cell_length_a 27.982848
_cell_length_b 14.951414
_cell_length_c 14.585535
_cell_angle_alpha 160.535678
_cell_angle_beta 33.789284
_cell_angle_gamma 148.978807
_cell_volume 1038.419113
_symmetry_space_group_name_H-M "P -1"
_symmetry_group_IT_number 2
_symmetry_cell_setting 'triclinic'
loop_
_space_group_symop_operation_xyz
x,y,z
-x,-y,-z
loop_
_atom_site_type_symbol
_atom_site_label
_atom_site_fract_x
_atom_site_fract_y
_atom_site_fract_z
Si Si1 0.413912 0.302515 0.507879
Si Si2 0.331296 0.103980 0.266146
Si Si3 0.536070 0.189410 0.958441
Si Si4 0.448724 0.706905 0.179391
Si Si5 0.890800 0.818118 0.501086
Si Si6 0.250760 0.546943 0.753339
Si Si7 0.377650 0.109811 0.798737
Si Si8 0.786447 0.207811 0.120485
O O1 0.500000 0.500000 0.500000
O O2 0.329149 0.139216 0.414275
O O3 0.438601 0.076883 0.310184
O O4 0.392922 0.517944 0.820367
O O5 0.315537 0.372879 0.504063
O O6 0.429619 0.115288 0.084040
O O7 0.253896 0.778256 0.051576
O O8 0.549512 0.228909 0.867773
O O9 0.553094 0.767364 0.106382
O O10 0.406672 0.901402 0.488574
O O11 0.379807 0.373758 0.986594
O O12 0.854093 0.694881 0.336858
O O13 0.865433 0.532563 0.331826
O O14 0.000000 0.000000 0.500000
O O15 0.836801 0.010956 0.808960
O O16 0.283488 0.743481 0.797537
O O17 0.272461 0.940607 0.839658
#
# Coordination Sequence:
#
# PCOD8041034 Si02
#       8
#     2   2   2   2   2   2   2   2
#     4  10  20  31  44  62  89 121 161 202 240 268
#     4  11  18  30  45  66  89 119 166 199 217 279
#     4  11  20  32  44  63  89 130 161 199 241 264
#     4  10  21  30  47  61  95 122 163 207 228 255
#     4  10  20  33  48  71  96 126 154 183 237 290
#     4  10  19  28  47  69  88 124 152 186 226 267
#     4  10  20  33  43  69  87 124 163 203 231 252
#     4  10  19  32  49  66  95 125 161 184 228 284
#
# _framework density 15.408037
#
# number of rings (size 3 to 8) (size 9 to 14) (size 15 to 20)
#    0.750    1.000    1.250    6.375    0.000    2.000 
#    0.000    0.000    0.000    0.000    0.000    0.000 
#    0.000    0.000    0.000   78.750    0.000    0.000 
#
# Total GULP energy -198229.198415 kJ/mol
# GULP energy per Si atom -12389.324901 kJ/mol
# Density = 1.537297 g / cm^3
# Si number density = 15.408037 Si / 1000 Ang^3
#
#
#
# Elastic Constant Matrix: (Units=GPa)
#
#
# Indices 1 2 3 4 5 6 
#
# 1 78.0823 39.1943 24.3691 6.6108 9.2731 -12.0747
# 2 39.1943 82.8751 35.4905 13.3464 2.3618 -3.1674
# 3 24.3691 35.4905 91.5983 22.2522 -2.0429 -4.7714
# 4 6.6108 13.3464 22.2522 24.5712 -1.9833 -2.0834
# 5 9.2731 2.3618 -2.0429 -1.9833 26.3828 5.9670
# 6 -12.0747 -3.1674 -4.7714 -2.0834 5.9670 22.9676
#
#
#
# Elastic Compliance Matrix: (Units=1/GPa)
#
#
# Indices 1 2 3 4 5 6 
#
# 1 0.020371 -0.008208 -0.002115 0.001141 -0.009130 0.011614
# 2 -0.008208 0.018161 -0.003969 -0.004236 0.001398 -0.003383
# 3 -0.002115 -0.003969 0.015855 -0.011501 0.001411 0.000225
# 4 0.001141 -0.004236 -0.011501 0.053476 0.002706 0.001774
# 5 -0.009130 0.001398 0.001411 0.002706 0.044856 -0.015722
# 6 0.011614 -0.003383 0.000225 0.001774 -0.015722 0.053471
#
#
# Mechanical properties :
#
#
# Convention : Reuss Voigt Hill
#
# Bulk Modulus (GPa) = 38.75595 50.07374 44.41484
# Shear Modulus (GPa) = 20.54455 25.01777 22.78116
#
# Velocity S-wave (km/s) = 3.65549 4.03387 3.84933
# Velocity P-wave (km/s) = 6.55931 7.36649 6.97458
#
# Compressibility (1/GPa) = 0.02580249
#
# Stress axis : x y z
#
# Youngs Moduli (GPa) = 49.08997 55.06375 63.07250
#
# Poissons Ratio (x) = 0.45196 0.13341
# Poissons Ratio (y) = 0.40293 0.25033
# Poissons Ratio (z) = 0.10383 0.21854
#
# Static dielectric constant tensor:
#      x y z
#    x 3.166920 0.054290 0.187060 
#    y 0.054290 2.728660 0.287270 
#    z 0.187060 0.287270 3.393450 
# 
# 
# High freq. dielectric constant tensor:
#      x y z
#    x 1.579450 -0.006840 0.003280 
#    y -0.006840 1.544430 0.033790 
#    z 0.003280 0.033790 1.614150 
# 
# From -- ./inp_files/544095.got.cif
#   From: 2010.06.25/outbox.cif.g09.slc.cpg/sg2_273_cif.got.tgz:544095.got - 2010.06.27 13:26:56.
