data_PCOD8041546
_publ_section_title
;
Structure prediction by ZEFSAII (Michael W. Deem and Ramdas Pophale) SiO2 
 PCOD8041546
Probable space group: P -1
;
_chemical_formula_sum "Si O2"
_cell_formula_units_Z 16
_cell_length_a 14.258564
_cell_length_b 5.227635
_cell_length_c 13.589702
_cell_angle_alpha 59.427836
_cell_angle_beta 111.050953
_cell_angle_gamma 120.237414
_cell_volume 746.218816
_symmetry_space_group_name_H-M "P -1"
_symmetry_group_IT_number 2
_symmetry_cell_setting 'triclinic'
loop_
_space_group_symop_operation_xyz
x,y,z
-x,-y,-z
loop_
_atom_site_type_symbol
_atom_site_label
_atom_site_fract_x
_atom_site_fract_y
_atom_site_fract_z
Si Si1 0.825040 0.893139 0.605408
Si Si2 0.538918 0.708916 0.073433
Si Si3 0.779385 0.091998 0.055985
Si Si4 0.267522 0.723580 0.208604
Si Si5 0.909082 0.398024 0.689425
Si Si6 0.919574 0.737540 0.096354
Si Si7 0.598499 0.831385 0.500800
Si Si8 0.464654 0.165868 0.306046
O O1 0.776812 0.665903 0.728397
O O2 0.903874 0.752938 0.604555
O O3 0.719809 0.867632 0.504476
O O4 0.895547 0.250532 0.603166
O O5 0.487611 0.498246 0.192446
O O6 0.669572 0.845557 0.115038
O O7 0.500000 0.500000 0.000000
O O8 0.500000 0.000000 0.000000
O O9 0.832285 0.433238 0.065270
O O10 0.863779 0.921562 0.107470
O O11 0.736231 0.153419 0.924159
O O12 0.189513 0.825829 0.231975
O O13 0.391578 0.872600 0.265174
O O14 0.020961 0.417923 0.776427
O O15 0.000000 0.000000 0.000000
O O16 0.500000 0.500000 0.500000
O O17 0.602810 0.863871 0.613688
O O18 0.576756 0.122380 0.382883
#
# Coordination Sequence:
#
# PCOD8041546 Si02
#       8
#     2   2   2   2   2   2   2   2
#     4  10  19  33  53  87 121 153 189 254 328 378
#     4  12  28  45  65  92 133 192 222 248 313 407
#     4  12  25  38  61  89 128 172 221 254 313 392
#     4  10  20  33  57  85 127 158 207 243 317 383
#     4  10  20  32  55  83 123 155 195 257 327 374
#     4  12  22  39  58  91 123 165 215 275 324 373
#     4  11  21  37  62  95 129 162 216 285 320 377
#     4  11  24  40  61  93 132 173 219 263 325 378
#
# _framework density 21.441434000000001
#
# number of rings (size 3 to 8) (size 9 to 14) (size 15 to 20)
#    0.750    0.250    5.000    2.625    5.250    0.000 
#    0.000    0.000    0.000    0.000    0.000    5.250 
#    0.000    0.000    0.000    0.000    0.000    0.000 
#
# Total GULP energy -198272.951559 kJ/mol
# GULP energy per Si atom -12392.059472 kJ/mol
# Density = 2.139263 g / cm^3
# Si number density = 21.441434 Si / 1000 Ang^3
#
#
#
# Elastic Constant Matrix: (Units=GPa)
#
#
# Indices 1 2 3 4 5 6 
#
# 1 72.5119 23.5193 22.3040 -5.5205 26.8753 -7.7601
# 2 23.5193 118.4028 22.7488 16.4789 2.9002 -16.6984
# 3 22.3040 22.7488 92.1491 0.3135 23.5058 -6.7649
# 4 -5.5205 16.4789 0.3135 32.7172 4.2450 8.4044
# 5 26.8753 2.9002 23.5058 4.2450 32.5123 -6.3538
# 6 -7.7601 -16.6984 -6.7649 8.4044 -6.3538 37.8146
#
#
#
# Elastic Compliance Matrix: (Units=1/GPa)
#
#
# Indices 1 2 3 4 5 6 
#
# 1 0.024504 -0.006730 0.001216 0.011538 -0.022848 -0.004129
# 2 -0.006730 0.012790 -0.003431 -0.010797 0.009817 0.007702
# 3 0.001216 -0.003431 0.014295 0.003720 -0.011817 -0.001520
# 4 0.011538 -0.010797 0.003720 0.044346 -0.019975 -0.014947
# 5 -0.022848 0.009817 -0.011817 -0.019975 0.062353 0.012449
# 6 -0.004129 0.007702 -0.001520 -0.014947 0.012449 0.034141
#
#
# Mechanical properties :
#
#
# Convention : Reuss Voigt Hill
#
# Bulk Modulus (GPa) = 29.67309 46.68978 38.18143
# Shear Modulus (GPa) = 22.56831 34.90825 28.73828
#
# Velocity S-wave (km/s) = 3.24783 4.03932 3.66500
# Velocity P-wave (km/s) = 5.28524 6.60133 5.97960
#
# Compressibility (1/GPa) = 0.03370057
#
# Stress axis : x y z
#
# Youngs Moduli (GPa) = 40.80925 78.18516 69.95666
#
# Poissons Ratio (x) = 0.52615 -0.08507
# Poissons Ratio (y) = 0.27463 0.24000
# Poissons Ratio (z) = -0.04963 0.26823
#
# Static dielectric constant tensor:
#      x y z
#    x 3.930760 -0.203440 0.256900 
#    y -0.203440 3.872350 0.081350 
#    z 0.256900 0.081350 3.812900 
# 
# 
# High freq. dielectric constant tensor:
#      x y z
#    x 1.828090 -0.015150 0.035340 
#    y -0.015150 1.843960 0.010390 
#    z 0.035340 0.010390 1.826360 
# 
# From -- ./inp_files/524962.got.cif
#   From: 2010.06.25/outbox.cif.g09.slc.cpg/sg2_263_cif.got.tgz:524962.got - 2010.06.27 13:26:56.
