data_PCOD8041554
_publ_section_title
;
Structure prediction by ZEFSAII (Michael W. Deem and Ramdas Pophale) SiO2 
 PCOD8041554
Probable space group: P -1
;
_chemical_formula_sum "Si O2"
_cell_formula_units_Z 14
_cell_length_a 8.026353
_cell_length_b 15.451569
_cell_length_c 7.010976
_cell_angle_alpha 77.717899
_cell_angle_beta 107.573752
_cell_angle_gamma 63.146117
_cell_volume 674.358303
_symmetry_space_group_name_H-M "P -1"
_symmetry_group_IT_number 2
_symmetry_cell_setting 'triclinic'
loop_
_space_group_symop_operation_xyz
x,y,z
-x,-y,-z
loop_
_atom_site_type_symbol
_atom_site_label
_atom_site_fract_x
_atom_site_fract_y
_atom_site_fract_z
Si Si1 0.935496 0.371703 0.533566
Si Si2 0.272760 0.400674 0.507885
Si Si3 0.282462 0.154058 0.891315
Si Si4 0.454674 0.753412 0.013665
Si Si5 0.336205 0.710741 0.588312
Si Si6 0.546703 0.030223 0.703215
Si Si7 0.185498 0.885054 0.180588
O O1 0.830501 0.473498 0.588643
O O2 0.751551 0.364396 0.377622
O O3 0.089123 0.377012 0.428840
O O4 0.065920 0.267923 0.760127
O O5 0.448591 0.345954 0.432287
O O6 0.368180 0.356810 0.772263
O O7 0.337966 0.094444 0.732544
O O8 0.467650 0.167511 0.019083
O O9 0.270926 0.078493 0.077182
O O10 0.389859 0.731452 0.802781
O O11 0.251083 0.812110 0.050374
O O12 0.153852 0.822034 0.369792
O O13 0.627108 0.107540 0.671356
O O14 0.500000 0.000000 0.500000
O O15 0.000000 0.000000 0.000000
#
# Coordination Sequence:
#
# PCOD8041554 Si02
#       7
#     2   2   2   2   2   2   2
#     4  10  20  38  61  82 111 147 186 231 276 331
#     4   9  21  41  57  81 116 144 182 234 279 327
#     4   9  19  35  52  77 111 143 178 227 275 316
#     4   9  20  37  55  80 116 147 182 233 278 328
#     4  11  21  37  60  82 111 151 185 225 283 331
#     4  10  19  33  54  76 106 147 182 218 271 326
#     4  10  21  35  52  81 115 145 184 231 274 325
#
# _framework density 20.760476000000001
#
# number of rings (size 3 to 8) (size 9 to 14) (size 15 to 20)
#    0.000    2.286    0.000    3.000    0.000    2.286 
#    0.000   13.571    0.000    0.000    0.000    0.000 
#    0.000    0.000    0.000    0.000    0.000    0.000 
#
# Total GULP energy -173514.354244 kJ/mol
# GULP energy per Si atom -12393.882446 kJ/mol
# Density = 2.071322 g / cm^3
# Si number density = 20.760476 Si / 1000 Ang^3
#
#
#
# Elastic Constant Matrix: (Units=GPa)
#
#
# Indices 1 2 3 4 5 6 
#
# 1 102.3766 41.2637 40.5900 18.0755 -0.6891 15.2162
# 2 41.2637 133.4668 64.8965 -2.2427 -2.6604 -0.6192
# 3 40.5900 64.8965 114.0871 27.4134 -7.6908 0.4084
# 4 18.0755 -2.2427 27.4134 39.4238 3.8005 8.0999
# 5 -0.6891 -2.6604 -7.6908 3.8005 14.1817 -3.7537
# 6 15.2162 -0.6192 0.4084 8.0999 -3.7537 33.2527
#
#
#
# Elastic Compliance Matrix: (Units=1/GPa)
#
#
# Indices 1 2 3 4 5 6 
#
# 1 0.013334 -0.003173 -0.002193 -0.003486 -0.001651 -0.005471
# 2 -0.003173 0.012652 -0.008503 0.008752 -0.004976 -0.000902
# 3 -0.002193 -0.008503 0.018995 -0.015284 0.014269 0.005946
# 4 -0.003486 0.008752 -0.015284 0.042318 -0.020998 -0.010733
# 5 -0.001651 -0.004976 0.014269 -0.020998 0.086946 0.015417
# 6 -0.005471 -0.000902 0.005946 -0.010733 0.015417 0.036841
#
#
# Mechanical properties :
#
#
# Convention : Reuss Voigt Hill
#
# Bulk Modulus (GPa) = 57.99569 71.49235 64.74402
# Shear Modulus (GPa) = 20.44386 30.91698 25.68042
#
# Velocity S-wave (km/s) = 3.14148 3.86323 3.52090
# Velocity P-wave (km/s) = 6.41520 7.37638 6.91251
#
# Compressibility (1/GPa) = 0.01724266
#
# Stress axis : x y z
#
# Youngs Moduli (GPa) = 74.99817 79.04133 52.64411
#
# Poissons Ratio (x) = 0.25078 0.11546
# Poissons Ratio (y) = 0.23795 0.44764
# Poissons Ratio (z) = 0.16449 0.67209
#
# Static dielectric constant tensor:
#      x y z
#    x 3.948680 0.200960 -0.018680 
#    y 0.200960 3.950120 -0.222070 
#    z -0.018680 -0.222070 3.429620 
# 
# 
# High freq. dielectric constant tensor:
#      x y z
#    x 1.815730 0.012380 0.001810 
#    y 0.012380 1.826920 -0.013520 
#    z 0.001810 -0.013520 1.780440 
# 
# From -- ./inp_files/38945.got.cif
#   From: 2010.06.25/outbox.cif.g09.slc.cpg/sg2_20_cif.got.tgz:38945.got - 2010.06.27 13:26:56.
