data_PCOD8041072
_publ_section_title
;
Structure prediction by ZEFSAII (Michael W. Deem and Ramdas Pophale) SiO2 
 PCOD8041072
Probable space group: P -1
;
_chemical_formula_sum "Si O2"
_cell_formula_units_Z 16
_cell_length_a 14.396663
_cell_length_b 14.636978
_cell_length_c 12.912749
_cell_angle_alpha 87.931341
_cell_angle_beta 103.098346
_cell_angle_gamma 159.257962
_cell_volume 807.503782
_symmetry_space_group_name_H-M "P -1"
_symmetry_group_IT_number 2
_symmetry_cell_setting 'triclinic'
loop_
_space_group_symop_operation_xyz
x,y,z
-x,-y,-z
loop_
_atom_site_type_symbol
_atom_site_label
_atom_site_fract_x
_atom_site_fract_y
_atom_site_fract_z
Si Si1 0.470087 0.162343 0.234929
Si Si2 0.542988 0.044474 0.839419
Si Si3 0.961767 0.172365 0.045574
Si Si4 0.858613 0.833981 0.786575
Si Si5 0.116873 0.142697 0.632078
Si Si6 0.966559 0.750332 0.295293
Si Si7 0.971005 0.373798 0.123496
Si Si8 0.755692 0.658744 0.066203
O O1 0.814909 0.522029 0.318598
O O2 0.509650 0.089264 0.244186
O O3 0.272593 0.006331 0.294051
O O4 0.326908 0.066950 0.093525
O O5 0.706523 0.274932 0.806504
O O6 0.210566 0.776422 0.808636
O O7 0.762647 0.217012 0.982354
O O8 0.923741 0.047930 0.113126
O O9 0.049857 0.338754 0.132660
O O10 0.249172 0.411485 0.031492
O O11 0.492377 0.478770 0.717195
O O12 0.970352 0.944709 0.691731
O O13 0.918931 0.985823 0.854492
O O14 0.981057 0.122547 0.611251
O O15 0.000000 0.000000 0.500000
O O16 0.703758 0.551051 0.159191
O O17 0.500000 0.500000 0.000000
#
# Coordination Sequence:
#
# PCOD8041072 Si02
#       8
#     2   2   2   2   2   2   2   2
#     4  10  19  30  49  72 103 131 162 200 235 287
#     4   9  17  30  42  63  95 134 164 192 230 274
#     4  10  19  30  47  73 103 134 164 199 237 286
#     4  11  22  35  52  74  99 133 175 204 245 299
#     4  11  23  39  54  70  99 131 166 216 259 291
#     4  10  19  31  48  72  93 126 167 199 240 292
#     4   9  18  28  43  63  95 134 167 190 227 281
#     4  10  19  31  48  72 107 139 166 198 239 288
#
# _framework density 19.814147999999999
#
# number of rings (size 3 to 8) (size 9 to 14) (size 15 to 20)
#    0.000    2.000    0.000    6.000    0.000    9.000 
#    0.000    0.000    0.000    0.000    0.000    0.000 
#    0.000   20.000    0.000    0.000    0.000    0.000 
#
# Total GULP energy -198258.873056 kJ/mol
# GULP energy per Si atom -12391.179566 kJ/mol
# Density = 1.976905 g / cm^3
# Si number density = 19.814148 Si / 1000 Ang^3
#
#
#
# Elastic Constant Matrix: (Units=GPa)
#
#
# Indices 1 2 3 4 5 6 
#
# 1 125.2768 46.7073 27.5986 -3.9032 -43.0338 4.9006
# 2 46.7073 133.8327 26.0205 1.0092 -23.8969 3.7564
# 3 27.5986 26.0205 45.7233 -8.5400 -25.0711 10.5029
# 4 -3.9032 1.0092 -8.5400 16.5972 3.5329 -4.7311
# 5 -43.0338 -23.8969 -25.0711 3.5329 30.7608 -0.0972
# 6 4.9006 3.7564 10.5029 -4.7311 -0.0972 32.6368
#
#
#
# Elastic Compliance Matrix: (Units=1/GPa)
#
#
# Indices 1 2 3 4 5 6 
#
# 1 0.017037 -0.002278 0.007686 0.000789 0.028224 -0.004571
# 2 -0.002278 0.009263 -0.003828 -0.003331 0.001272 0.000029
# 3 0.007686 -0.003828 0.052308 0.014209 0.048732 -0.015342
# 4 0.000789 -0.003331 0.014209 0.069117 0.002177 0.005718
# 5 0.028224 0.001272 0.048732 0.002177 0.112388 -0.019417
# 6 -0.004571 0.000029 -0.015342 0.005718 -0.019417 0.037032
#
#
# Mechanical properties :
#
#
# Convention : Reuss Voigt Hill
#
# Bulk Modulus (GPa) = 12.22963 56.16507 34.19735
# Shear Modulus (GPa) = 15.56467 29.63273 22.59870
#
# Velocity S-wave (km/s) = 2.80578 3.87141 3.38084
# Velocity P-wave (km/s) = 4.08437 6.95638 5.70409
#
# Compressibility (1/GPa) = 0.08176862
#
# Stress axis : x y z
#
# Youngs Moduli (GPa) = 58.69544 107.96007 19.11743
#
# Poissons Ratio (x) = 0.24597 -0.14694
# Poissons Ratio (y) = 0.13373 0.07317
# Poissons Ratio (z) = -0.45115 0.41323
#
# Static dielectric constant tensor:
#      x y z
#    x 3.787280 -0.190620 -0.406760 
#    y -0.190620 4.033110 0.211260 
#    z -0.406760 0.211260 3.209260 
# 
# 
# High freq. dielectric constant tensor:
#      x y z
#    x 1.774250 0.000900 -0.034310 
#    y 0.000900 1.789300 0.000970 
#    z -0.034310 0.000970 1.703900 
# 
# From -- ./inp_files/100175.got.cif
#   From: 2010.06.25/outbox.cif.g09.slc.cpg/sg2_51_cif.got.tgz:100175.got - 2010.06.27 13:26:56.
