data_PCOD8041541
_publ_section_title
;
Structure prediction by ZEFSAII (Michael W. Deem and Ramdas Pophale) SiO2 
 PCOD8041541
Probable space group: P -1
;
_chemical_formula_sum "Si O2"
_cell_formula_units_Z 16
_cell_length_a 11.993686
_cell_length_b 8.901940
_cell_length_c 8.790641
_cell_angle_alpha 77.162805
_cell_angle_beta 92.498092
_cell_angle_gamma 59.529374
_cell_volume 774.954036
_symmetry_space_group_name_H-M "P -1"
_symmetry_group_IT_number 2
_symmetry_cell_setting 'triclinic'
loop_
_space_group_symop_operation_xyz
x,y,z
-x,-y,-z
loop_
_atom_site_type_symbol
_atom_site_label
_atom_site_fract_x
_atom_site_fract_y
_atom_site_fract_z
Si Si1 0.276366 0.549718 0.984606
Si Si2 0.793727 0.827707 0.205282
Si Si3 0.914500 0.421208 0.793805
Si Si4 0.686842 0.170187 0.905856
Si Si5 0.568313 0.795231 0.098479
Si Si6 0.118746 0.862900 0.319471
Si Si7 0.082233 0.313545 0.455063
Si Si8 0.886489 0.205764 0.337350
O O1 0.386732 0.337806 0.016288
O O2 0.237235 0.636535 0.794728
O O3 0.146218 0.572964 0.047978
O O4 0.333650 0.644671 0.068901
O O5 0.696319 0.750141 0.213326
O O6 0.818270 0.840943 0.384340
O O7 0.927380 0.682969 0.157033
O O8 0.733353 0.022593 0.077208
O O9 0.878717 0.314708 0.694315
O O10 0.850629 0.630664 0.685723
O O11 0.545026 0.220736 0.818178
O O12 0.791259 0.094955 0.791173
O O13 0.500000 0.000000 0.000000
O O14 0.168262 0.837563 0.503556
O O15 0.966361 0.032017 0.267938
O O16 0.000000 0.500000 0.500000
O O17 0.991664 0.255040 0.384320
#
# Coordination Sequence:
#
# PCOD8041541 Si02
#       8
#     2   2   2   2   2   2   2   2
#     4  11  22  36  64  89 112 153 192 241 293 343
#     4  10  19  36  60  85 117 155 186 234 293 336
#     4  10  20  36  59  92 120 144 186 238 301 348
#     4  10  22  40  60  81 119 155 200 232 278 342
#     4  10  23  40  60  80 114 156 204 240 275 334
#     4  10  21  36  57  91 125 146 180 243 290 344
#     4  10  19  33  53  84 125 147 179 231 291 346
#     4  11  21  34  59  95 121 146 186 233 305 345
#
# _framework density 20.646384999999999
#
# number of rings (size 3 to 8) (size 9 to 14) (size 15 to 20)
#    0.000    1.750    2.500    3.375    1.750    6.000 
#    0.000    0.625    2.750    2.250    0.000    0.000 
#    0.000    0.000    0.000    0.000    0.000    0.000 
#
# Total GULP energy -198281.684290 kJ/mol
# GULP energy per Si atom -12392.605268 kJ/mol
# Density = 2.059939 g / cm^3
# Si number density = 20.646385 Si / 1000 Ang^3
#
#
#
# Elastic Constant Matrix: (Units=GPa)
#
#
# Indices 1 2 3 4 5 6 
#
# 1 123.0313 22.0838 36.7448 -4.2385 0.9721 3.9358
# 2 22.0838 87.4782 27.1077 -0.8613 -12.3242 -5.0151
# 3 36.7448 27.1077 74.7301 -4.2595 -11.3873 0.6340
# 4 -4.2385 -0.8613 -4.2595 22.9762 5.5654 -2.3511
# 5 0.9721 -12.3242 -11.3873 5.5654 16.6140 -1.5604
# 6 3.9358 -5.0151 0.6340 -2.3511 -1.5604 28.5600
#
#
#
# Elastic Compliance Matrix: (Units=1/GPa)
#
#
# Indices 1 2 3 4 5 6 
#
# 1 0.010209 -0.001981 -0.005151 0.002248 -0.006521 -0.001812
# 2 -0.001981 0.014387 -0.002899 -0.002438 0.009919 0.003205
# 3 -0.005151 -0.002899 0.018631 -0.000240 0.011036 0.000370
# 4 0.002248 -0.002438 -0.000240 0.048421 -0.018113 0.002264
# 5 -0.006521 0.009919 0.011036 -0.018113 0.082067 0.005388
# 6 -0.001812 0.003205 0.000370 0.002264 0.005388 0.036299
#
#
# Mechanical properties :
#
#
# Convention : Reuss Voigt Hill
#
# Bulk Modulus (GPa) = 43.17195 50.79025 46.98110
# Shear Modulus (GPa) = 21.02613 26.91694 23.97154
#
# Velocity S-wave (km/s) = 3.19469 3.61461 3.41112
# Velocity P-wave (km/s) = 5.87908 6.48645 6.19022
#
# Compressibility (1/GPa) = 0.02316319
#
# Stress axis : x y z
#
# Youngs Moduli (GPa) = 97.95199 69.50612 53.67458
#
# Poissons Ratio (x) = 0.13772 0.27649
# Poissons Ratio (y) = 0.19409 0.15562
# Poissons Ratio (z) = 0.50457 0.20152
#
# Static dielectric constant tensor:
#      x y z
#    x 4.155050 0.247220 -0.226590 
#    y 0.247220 3.978590 -0.158800 
#    z -0.226590 -0.158800 4.075570 
# 
# 
# High freq. dielectric constant tensor:
#      x y z
#    x 1.799040 0.025600 -0.008840 
#    y 0.025600 1.811980 -0.002800 
#    z -0.008840 -0.002800 1.790760 
# 
# From -- ./inp_files/243565.got.cif
#   From: 2010.06.25/outbox.cif.g09.slc.cpg/sg2_122_cif.got.tgz:243565.got - 2010.06.27 13:26:56.
