data_PCOD8041497
_publ_section_title
;
Structure prediction by ZEFSAII (Michael W. Deem and Ramdas Pophale) SiO2 
 PCOD8041497
Probable space group: P -1
;
_chemical_formula_sum "Si O2"
_cell_formula_units_Z 14
_cell_length_a 11.453324
_cell_length_b 9.475787
_cell_length_c 16.351787
_cell_angle_alpha 31.255333
_cell_angle_beta 49.358431
_cell_angle_gamma 62.261301
_cell_volume 679.618254
_symmetry_space_group_name_H-M "P -1"
_symmetry_group_IT_number 2
_symmetry_cell_setting 'triclinic'
loop_
_space_group_symop_operation_xyz
x,y,z
-x,-y,-z
loop_
_atom_site_type_symbol
_atom_site_label
_atom_site_fract_x
_atom_site_fract_y
_atom_site_fract_z
Si Si1 0.202886 0.805829 0.307175
Si Si2 0.835688 0.666235 0.562578
Si Si3 0.265942 0.820820 0.588816
Si Si4 0.385479 0.055514 0.254732
Si Si5 0.945117 0.448936 0.924525
Si Si6 0.199663 0.332002 0.968865
Si Si7 0.274074 0.594560 0.091895
O O1 0.219072 0.515441 0.403873
O O2 0.020886 0.810668 0.403817
O O3 0.299994 0.849934 0.324830
O O4 0.270315 0.060470 0.085577
O O5 0.803532 0.459949 0.757103
O O6 0.729225 0.895057 0.502986
O O7 0.082728 0.707817 0.700318
O O8 0.377630 0.879576 0.429528
O O9 0.317334 0.584100 0.739915
O O10 0.301195 0.309288 0.181369
O O11 0.566975 0.166464 0.091993
O O12 0.823812 0.553857 0.987022
O O13 0.847388 0.296768 0.966842
O O14 0.031186 0.245022 0.039277
#
# Coordination Sequence:
#
# PCOD8041497 Si02
#       7
#     2   2   2   2   2   2   2
#     4  11  19  34  55  82 108 129 174 220 267 302
#     4  10  20  31  55  82 105 133 174 222 257 305
#     4   9  17  34  56  80 101 133 181 211 259 301
#     4  10  20  32  55  76 106 140 178 213 251 312
#     4   9  15  30  57  74 103 132 175 217 252 301
#     4   9  17  31  57  78 104 134 171 218 262 301
#     4  10  19  33  51  81 104 138 179 212 254 307
#
# _framework density 20.599800999999999
#
# number of rings (size 3 to 8) (size 9 to 14) (size 15 to 20)
#    0.857    1.429    2.857    0.857    0.000    2.857 
#    0.000    1.429    6.286    0.857    0.000    0.000 
#    0.000    0.000    0.000    0.000    0.000    0.000 
#
# Total GULP energy -173494.144733 kJ/mol
# GULP energy per Si atom -12392.438910 kJ/mol
# Density = 2.055291 g / cm^3
# Si number density = 20.599801 Si / 1000 Ang^3
#
#
#
# Elastic Constant Matrix: (Units=GPa)
#
#
# Indices 1 2 3 4 5 6 
#
# 1 19.7547 23.1154 21.3825 -0.1259 -0.9879 12.0504
# 2 23.1154 69.3824 32.6630 -3.7457 -4.1538 22.0371
# 3 21.3825 32.6630 120.6454 10.0902 14.5030 11.6051
# 4 -0.1259 -3.7457 10.0902 23.3536 6.9013 2.4276
# 5 -0.9879 -4.1538 14.5030 6.9013 18.8857 -6.9293
# 6 12.0504 22.0371 11.6051 2.4276 -6.9293 21.1118
#
#
#
# Elastic Compliance Matrix: (Units=1/GPa)
#
#
# Indices 1 2 3 4 5 6 
#
# 1 0.106809 -0.018157 -0.009756 0.008767 -0.009021 -0.040619
# 2 -0.018157 0.028341 -0.002975 0.008551 -0.002693 -0.019451
# 3 -0.009756 -0.002975 0.012371 -0.002790 -0.010050 -0.001104
# 4 0.008767 0.008551 -0.002790 0.055978 -0.026017 -0.027373
# 5 -0.009021 -0.002693 -0.010050 -0.026017 0.085447 0.044522
# 6 -0.040619 -0.019451 -0.001104 -0.027373 0.044522 0.109223
#
#
# Mechanical properties :
#
#
# Convention : Reuss Voigt Hill
#
# Bulk Modulus (GPa) = 11.66256 40.45605 26.05930
# Shear Modulus (GPa) = 10.23485 21.51166 15.87325
#
# Velocity S-wave (km/s) = 2.23141 3.23502 2.77890
# Velocity P-wave (km/s) = 3.50895 5.79961 4.79313
#
# Compressibility (1/GPa) = 0.08574445
#
# Stress axis : x y z
#
# Youngs Moduli (GPa) = 9.36252 35.28424 80.83368
#
# Poissons Ratio (x) = 0.64066 0.78861
# Poissons Ratio (y) = 0.17000 0.24051
# Poissons Ratio (z) = 0.09134 0.10498
#
# Static dielectric constant tensor:
#      x y z
#    x 3.278930 0.179560 0.069130 
#    y 0.179560 3.398100 0.082620 
#    z 0.069130 0.082620 3.823790 
# 
# 
# High freq. dielectric constant tensor:
#      x y z
#    x 1.770980 0.023580 0.006970 
#    y 0.023580 1.777760 0.011530 
#    z 0.006970 0.011530 1.809810 
# 
# From -- ./inp_files/250800.got.cif
#   From: 2010.06.25/outbox.cif.g09.slc.cpg/sg2_126_cif.got.tgz:250800.got - 2010.06.27 13:26:56.
