data_PCOD8041849
_publ_section_title
;
Structure prediction by ZEFSAII (Michael W. Deem and Ramdas Pophale) SiO2 
 PCOD8041849
Probable space group: P -1
;
_chemical_formula_sum "Si O2"
_cell_formula_units_Z 16
_cell_length_a 19.174008
_cell_length_b 9.752339
_cell_length_c 12.333016
_cell_angle_alpha 81.507198
_cell_angle_beta 48.438483
_cell_angle_gamma 41.467298
_cell_volume 810.095715
_symmetry_space_group_name_H-M "P -1"
_symmetry_group_IT_number 2
_symmetry_cell_setting 'triclinic'
loop_
_space_group_symop_operation_xyz
x,y,z
-x,-y,-z
loop_
_atom_site_type_symbol
_atom_site_label
_atom_site_fract_x
_atom_site_fract_y
_atom_site_fract_z
Si Si1 0.233504 0.836859 0.000119
Si Si2 0.908457 0.471087 0.213129
Si Si3 0.346335 0.655834 0.370387
Si Si4 0.222560 0.842813 0.247054
Si Si5 0.389275 0.275122 0.347234
Si Si6 0.928553 0.260447 0.812152
Si Si7 0.179584 0.367984 0.956711
Si Si8 0.795901 0.441143 0.701917
O O1 0.264766 0.862999 0.086385
O O2 0.155793 0.782936 0.082766
O O3 0.451048 0.563589 0.754218
O O4 0.078423 0.133948 0.061539
O O5 0.742869 0.648528 0.449427
O O6 0.800854 0.629221 0.191073
O O7 0.006027 0.487477 0.148144
O O8 0.338560 0.738500 0.247966
O O9 0.324009 0.519505 0.401439
O O10 0.164576 0.947500 0.595273
O O11 0.289905 0.597916 0.182266
O O12 0.992971 0.162008 0.462939
O O13 0.349765 0.283263 0.260234
O O14 0.616405 0.960766 0.174267
O O15 0.837335 0.454904 0.775421
O O16 0.868493 0.425306 0.959208
#
# Coordination Sequence:
#
# PCOD8041849 Si02
#       8
#     2   2   2   2   2   2   2   2
#     4  11  18  35  63  87 111 152 199 231 280 343
#     4  11  23  42  62  82 111 156 206 236 271 343
#     4  10  19  33  61  91 116 148 190 233 288 343
#     4   8  14  28  53  90 116 143 184 237 274 336
#     4  11  19  39  64  86 111 156 197 231 282 347
#     4  10  22  40  56  90 126 143 179 248 294 332
#     4  11  26  41  59  82 118 156 195 239 287 332
#     4   8  15  30  58  85 118 145 179 233 292 340
#
# _framework density 19.750754000000001
#
# number of rings (size 3 to 8) (size 9 to 14) (size 15 to 20)
#    0.000    2.000    3.750    2.250    0.000    2.000 
#    0.000    1.250    0.000    0.000    0.000    0.000 
#    0.000    0.000    0.000    0.000    0.000    0.000 
#
# Total GULP energy -198271.160928 kJ/mol
# GULP energy per Si atom -12391.947558 kJ/mol
# Density = 1.970580 g / cm^3
# Si number density = 19.750754 Si / 1000 Ang^3
#
#
#
# Elastic Constant Matrix: (Units=GPa)
#
#
# Indices 1 2 3 4 5 6 
#
# 1 56.4468 18.0635 18.6433 3.4760 -5.4384 2.6954
# 2 18.0635 73.6598 7.9865 2.8122 -3.9972 -8.3946
# 3 18.6433 7.9865 48.3033 1.0493 -14.1242 -4.3238
# 4 3.4760 2.8122 1.0493 29.7934 0.6413 -9.0337
# 5 -5.4384 -3.9972 -14.1242 0.6413 19.5657 9.8174
# 6 2.6954 -8.3946 -4.3238 -9.0337 9.8174 14.7537
#
#
#
# Elastic Compliance Matrix: (Units=1/GPa)
#
#
# Indices 1 2 3 4 5 6 
#
# 1 0.025670 -0.007488 -0.006502 -0.010683 0.014999 -0.027378
# 2 -0.007488 0.017184 -0.001193 0.005986 -0.010335 0.021339
# 3 -0.006502 -0.001193 0.029675 -0.003323 0.023842 -0.008694
# 4 -0.010683 0.005986 -0.003323 0.053999 -0.037089 0.062127
# 5 0.014999 -0.010335 0.023842 -0.037089 0.125819 -0.108065
# 6 -0.027378 0.021339 -0.008694 0.062127 -0.108065 0.192324
#
#
# Mechanical properties :
#
#
# Convention : Reuss Voigt Hill
#
# Bulk Modulus (GPa) = 23.71826 29.75517 26.73671
# Shear Modulus (GPa) = 10.22303 21.73701 15.98002
#
# Velocity S-wave (km/s) = 2.27755 3.32108 2.84753
# Velocity P-wave (km/s) = 4.35330 5.45931 4.93737
#
# Compressibility (1/GPa) = 0.04216161
#
# Stress axis : x y z
#
# Youngs Moduli (GPa) = 38.95586 58.19334 33.69826
#
# Poissons Ratio (x) = 0.43577 0.21912
# Poissons Ratio (y) = 0.29172 0.04020
# Poissons Ratio (z) = 0.25331 0.06943
#
# Static dielectric constant tensor:
#      x y z
#    x 3.383510 -0.310940 -0.175940 
#    y -0.310940 3.696340 -0.049500 
#    z -0.175940 -0.049500 3.511490 
# 
# 
# High freq. dielectric constant tensor:
#      x y z
#    x 1.742200 -0.024450 -0.021500 
#    y -0.024450 1.767450 -0.001000 
#    z -0.021500 -0.001000 1.768000 
# 
# From -- ./inp_files/439276.got.cif
#   From: 2010.06.25/outbox.cif.g09.slc.cpg/sg2_220_cif.got.tgz:439276.got - 2010.06.27 13:26:56.
