data_PCOD8041557
_publ_section_title
;
Structure prediction by ZEFSAII (Michael W. Deem and Ramdas Pophale) SiO2 
 PCOD8041557
Probable space group: P -1
;
_chemical_formula_sum "Si O2"
_cell_formula_units_Z 16
_cell_length_a 14.314358
_cell_length_b 14.392246
_cell_length_c 21.669026
_cell_angle_alpha 147.232507
_cell_angle_beta 17.173640
_cell_angle_gamma 144.116592
_cell_volume 712.759483
_symmetry_space_group_name_H-M "P -1"
_symmetry_group_IT_number 2
_symmetry_cell_setting 'triclinic'
loop_
_space_group_symop_operation_xyz
x,y,z
-x,-y,-z
loop_
_atom_site_type_symbol
_atom_site_label
_atom_site_fract_x
_atom_site_fract_y
_atom_site_fract_z
Si Si1 0.841680 0.791038 0.174517
Si Si2 0.726726 0.589550 0.820627
Si Si3 0.873047 0.811157 0.458478
Si Si4 0.769349 0.146606 0.919871
Si Si5 0.310992 0.582986 0.972573
Si Si6 0.167959 0.677064 0.304287
Si Si7 0.777544 0.111072 0.310707
Si Si8 0.599009 0.953055 0.602991
O O1 0.873382 0.600072 0.021399
O O2 0.509071 0.799539 0.424692
O O3 0.142257 0.830405 0.051115
O O4 0.848156 0.925617 0.189836
O O5 0.649217 0.555209 0.777796
O O6 0.930450 0.438087 0.638031
O O7 0.906922 0.772201 0.816050
O O8 0.393382 0.577075 0.059988
O O9 0.845177 0.716647 0.490527
O O10 0.564125 0.838934 0.625420
O O11 0.123236 0.711398 0.205093
O O12 0.000000 0.000000 0.500000
O O13 0.080637 0.094054 0.658933
O O14 0.641415 0.324605 0.072373
O O15 0.500000 0.000000 0.000000
O O16 0.372470 0.845261 0.289800
O O17 0.703361 0.089817 0.272889
#
# Coordination Sequence:
#
# PCOD8041557 Si02
#       8
#     2   2   2   2   2   2   2   2
#     4  10  21  36  53  77 110 142 178 222 264 313
#     4  10  20  33  53  79 104 138 178 218 265 317
#     4   8  16  33  55  74  98 134 172 212 264 313
#     4  10  20  34  54  79 105 139 180 218 266 320
#     4  10  19  33  54  77 104 138 175 220 265 311
#     4   9  18  34  54  76 102 134 178 222 263 315
#     4  10  21  35  51  76 109 143 178 217 266 316
#     4   9  18  34  53  73 104 140 171 217 266 311
#
# _framework density 22.447963999999999
#
# number of rings (size 3 to 8) (size 9 to 14) (size 15 to 20)
#    0.000    2.500    0.000    1.875    0.000    2.000 
#    0.000    0.625    0.000    0.000    0.000    0.000 
#    0.000    0.000    0.000    0.000    0.000    0.000 
#
# Total GULP energy -198225.052115 kJ/mol
# GULP energy per Si atom -12389.065757 kJ/mol
# Density = 2.239687 g / cm^3
# Si number density = 22.447964 Si / 1000 Ang^3
#
#
#
# Elastic Constant Matrix: (Units=GPa)
#
#
# Indices 1 2 3 4 5 6 
#
# 1 191.3266 61.6605 27.5908 15.3551 -58.1423 2.7064
# 2 61.6605 121.6671 25.8567 17.5414 -27.0220 4.9827
# 3 27.5908 25.8567 34.0247 11.9260 -8.6161 -1.2101
# 4 15.3551 17.5414 11.9260 31.5625 -0.0685 -7.7906
# 5 -58.1423 -27.0220 -8.6161 -0.0685 27.2200 10.3546
# 6 2.7064 4.9827 -1.2101 -7.7906 10.3546 42.9647
#
#
#
# Elastic Compliance Matrix: (Units=1/GPa)
#
#
# Indices 1 2 3 4 5 6 
#
# 1 0.030667 0.008227 -0.002080 -0.025351 0.083471 -0.027658
# 2 0.008227 0.016026 -0.004830 -0.014490 0.037290 -0.014127
# 3 -0.002080 -0.004830 0.039725 -0.011602 0.003764 -0.001201
# 4 -0.025351 -0.014490 -0.011602 0.064991 -0.085487 0.035338
# 5 0.083471 0.037290 0.003764 -0.085487 0.289027 -0.094634
# 6 -0.027658 -0.014127 -0.001201 0.035338 -0.094634 0.055836
#
#
# Mechanical properties :
#
#
# Convention : Reuss Voigt Hill
#
# Bulk Modulus (GPa) = 11.22956 64.13717 37.68337
# Shear Modulus (GPa) = 9.55431 35.81015 22.68223
#
# Velocity S-wave (km/s) = 2.06530 3.99839 3.18218
# Velocity P-wave (km/s) = 3.27118 7.06751 5.50683
#
# Compressibility (1/GPa) = 0.08905065
#
# Stress axis : x y z
#
# Youngs Moduli (GPa) = 32.60796 62.39753 25.17314
#
# Poissons Ratio (x) = -0.51331 0.05236
# Poissons Ratio (y) = -0.26825 0.12160
# Poissons Ratio (z) = 0.06783 0.30140
#
# Static dielectric constant tensor:
#      x y z
#    x 5.196610 -0.229490 -0.516720 
#    y -0.229490 3.793460 0.393520 
#    z -0.516720 0.393520 3.856050 
# 
# 
# High freq. dielectric constant tensor:
#      x y z
#    x 1.916910 -0.002770 -0.021640 
#    y -0.002770 1.864450 0.032560 
#    z -0.021640 0.032560 1.857010 
# 
# From -- ./inp_files/404228.got.cif
#   From: 2010.06.25/outbox.cif.g09.slc.cpg/sg2_203_cif.got.tgz:404228.got - 2010.06.27 13:26:56.
