data_PCOD8041992
_publ_section_title
;
Structure prediction by ZEFSAII (Michael W. Deem and Ramdas Pophale) SiO2 
 PCOD8041992
Probable space group: P -1
;
_chemical_formula_sum "Si O2"
_cell_formula_units_Z 16
_cell_length_a 8.442547
_cell_length_b 13.928870
_cell_length_c 24.206154
_cell_angle_alpha 25.930414
_cell_angle_beta 128.609247
_cell_angle_gamma 140.966867
_cell_volume 754.601602
_symmetry_space_group_name_H-M "P -1"
_symmetry_group_IT_number 2
_symmetry_cell_setting 'triclinic'
loop_
_space_group_symop_operation_xyz
x,y,z
-x,-y,-z
loop_
_atom_site_type_symbol
_atom_site_label
_atom_site_fract_x
_atom_site_fract_y
_atom_site_fract_z
Si Si1 0.551028 0.294905 0.096874
Si Si2 0.100052 0.627761 0.015642
Si Si3 0.067208 0.706016 0.317578
Si Si4 0.116280 0.265765 0.426260
Si Si5 0.952723 0.637646 0.200898
Si Si6 0.804570 0.697878 0.453778
Si Si7 0.589694 0.750095 0.036504
Si Si8 0.270336 0.218929 0.720570
O O1 0.852745 0.433364 0.103863
O O2 0.500000 0.500000 0.000000
O O3 0.503359 0.257093 0.041113
O O4 0.358203 0.999538 0.239583
O O5 0.340263 0.631859 0.083012
O O6 0.000000 0.500000 0.000000
O O7 0.209330 0.950782 0.876288
O O8 0.980701 0.699825 0.239804
O O9 0.859403 0.668865 0.333026
O O10 0.087728 0.463493 0.458679
O O11 0.061904 0.147696 0.538722
O O12 0.421124 0.521444 0.349740
O O13 0.959148 0.384464 0.319257
O O14 0.000000 0.000000 0.500000
O O15 0.676311 0.556089 0.164145
O O16 0.175465 0.920805 0.068586
O O17 0.500000 0.500000 0.500000
O O18 0.856277 0.889581 0.312897
#
# Coordination Sequence:
#
# PCOD8041992 Si02
#       8
#     2   2   2   2   2   2   2   2
#     4  10  19  34  55  89 120 147 192 251 300 343
#     4  10  20  34  58  89 121 154 195 248 299 355
#     4  10  20  37  62  85 119 155 197 249 300 353
#     4  10  21  41  62  88 121 160 199 248 303 358
#     4   9  18  37  61  80 119 161 195 239 299 357
#     4   9  21  38  63  86 114 159 200 249 300 352
#     4   9  18  35  56  83 116 162 194 234 301 359
#     4  11  20  39  62  89 120 157 202 250 300 359
#
# _framework density 21.203240000000001
#
# number of rings (size 3 to 8) (size 9 to 14) (size 15 to 20)
#    0.000    2.250    2.500    0.375    5.250    0.000 
#    4.500    8.125    0.000    0.000    0.000    0.000 
#    0.000    0.000    0.000    0.000    0.000    0.000 
#
# Total GULP energy -198270.454937 kJ/mol
# GULP energy per Si atom -12391.903434 kJ/mol
# Density = 2.115498 g / cm^3
# Si number density = 21.203240 Si / 1000 Ang^3
#
#
#
# Elastic Constant Matrix: (Units=GPa)
#
#
# Indices 1 2 3 4 5 6 
#
# 1 131.2112 41.3713 29.7489 3.0091 23.2744 25.3760
# 2 41.3713 71.5903 39.8759 -1.4668 14.7464 15.3189
# 3 29.7489 39.8759 63.4209 -0.1978 13.1384 4.1986
# 4 3.0091 -1.4668 -0.1978 29.6653 0.9429 11.6546
# 5 23.2744 14.7464 13.1384 0.9429 34.9901 0.5047
# 6 25.3760 15.3189 4.1986 11.6546 0.5047 40.7855
#
#
#
# Elastic Compliance Matrix: (Units=1/GPa)
#
#
# Indices 1 2 3 4 5 6 
#
# 1 0.011018 -0.003006 -0.001783 0.001175 -0.005340 -0.005812
# 2 -0.003006 0.025718 -0.013450 0.004625 -0.003803 -0.007679
# 3 -0.001783 -0.013450 0.025335 -0.001847 -0.002668 0.004114
# 4 0.001175 0.004625 -0.001847 0.039178 -0.002899 -0.013437
# 5 -0.005340 -0.003803 -0.002668 -0.002899 0.034736 0.005424
# 6 -0.005812 -0.007679 0.004114 -0.013437 0.005424 0.034368
#
#
# Mechanical properties :
#
#
# Convention : Reuss Voigt Hill
#
# Bulk Modulus (GPa) = 39.07290 54.24608 46.65949
# Shear Modulus (GPa) = 23.21664 31.43660 27.32662
#
# Velocity S-wave (km/s) = 3.31260 3.85467 3.59387
# Velocity P-wave (km/s) = 5.75317 6.74172 6.26696
#
# Compressibility (1/GPa) = 0.02559318
#
# Stress axis : x y z
#
# Youngs Moduli (GPa) = 90.76250 38.88277 39.47051
#
# Poissons Ratio (x) = 0.11688 0.07039
# Poissons Ratio (y) = 0.27283 0.53087
# Poissons Ratio (z) = 0.16187 0.52296
#
# Static dielectric constant tensor:
#      x y z
#    x 4.242860 0.306220 -0.024990 
#    y 0.306220 3.803610 0.056420 
#    z -0.024990 0.056420 3.781030 
# 
# 
# High freq. dielectric constant tensor:
#      x y z
#    x 1.847560 0.015490 0.015330 
#    y 0.015490 1.809720 0.002750 
#    z 0.015330 0.002750 1.813090 
# 
# From -- ./inp_files/337869.got.cif
#   From: 2010.06.25/outbox.cif.g09.slc.cpg/sg2_169_cif.got.tgz:337869.got - 2010.06.27 13:26:56.
