data_PCOD8041868
_publ_section_title
;
Structure prediction by ZEFSAII (Michael W. Deem and Ramdas Pophale) SiO2 
 PCOD8041868
Probable space group: P -1
;
_chemical_formula_sum "Si O2"
_cell_formula_units_Z 16
_cell_length_a 12.404539
_cell_length_b 10.496409
_cell_length_c 15.769986
_cell_angle_alpha 80.548420
_cell_angle_beta 73.916864
_cell_angle_gamma 144.507855
_cell_volume 819.506019
_symmetry_space_group_name_H-M "P -1"
_symmetry_group_IT_number 2
_symmetry_cell_setting 'triclinic'
loop_
_space_group_symop_operation_xyz
x,y,z
-x,-y,-z
loop_
_atom_site_type_symbol
_atom_site_label
_atom_site_fract_x
_atom_site_fract_y
_atom_site_fract_z
Si Si1 0.491354 0.120196 0.723620
Si Si2 0.719921 0.347195 0.135912
Si Si3 0.266684 0.342815 0.868587
Si Si4 0.581944 0.786437 0.420189
Si Si5 0.906525 0.457687 0.913329
Si Si6 0.746492 0.690511 0.322133
Si Si7 0.818053 0.524363 0.774215
Si Si8 0.661107 0.626188 0.867169
O O1 0.572278 0.270673 0.600183
O O2 0.659545 0.352572 0.739659
O O3 0.511155 0.982103 0.731352
O O4 0.174459 0.824554 0.833434
O O5 0.687327 0.464468 0.130202
O O6 0.005317 0.601489 0.088686
O O7 0.697125 0.276181 0.051095
O O8 0.285796 0.370062 0.762153
O O9 0.508117 0.509161 0.829659
O O10 0.000000 0.000000 0.000000
O O11 0.608303 0.681845 0.373518
O O12 0.395839 0.572266 0.565959
O O13 0.870626 0.132681 0.353099
O O14 0.786792 0.362270 0.856542
O O15 0.057771 0.009126 0.239098
O O16 0.705869 0.519564 0.861065
O O17 0.500000 0.500000 0.000000
#
# Coordination Sequence:
#
# PCOD8041868 Si02
#       8
#     2   2   2   2   2   2   2   2
#     4   9  18  34  56  81 110 147 190 249 275 322
#     4   9  20  37  52  83 119 152 193 234 289 342
#     4  12  24  37  59  83 122 157 182 230 300 357
#     4   9  20  39  61  84 117 146 201 242 279 337
#     4   8  18  34  53  80 118 146 194 240 277 334
#     4  10  22  39  59  86 117 157 186 242 290 337
#     4  10  19  33  63  87 110 151 198 235 291 336
#     4  11  22  35  55  92 119 150 189 231 294 358
#
# _framework density 19.523958
#
# number of rings (size 3 to 8) (size 9 to 14) (size 15 to 20)
#    0.750    1.500    1.250    1.500    5.250    1.500 
#    2.250    4.375    0.000    1.500    0.000    0.000 
#    0.000    0.000    0.000    0.000    0.000    0.000 
#
# Total GULP energy -198209.124561 kJ/mol
# GULP energy per Si atom -12388.070285 kJ/mol
# Density = 1.947952 g / cm^3
# Si number density = 19.523958 Si / 1000 Ang^3
#
#
#
# Elastic Constant Matrix: (Units=GPa)
#
#
# Indices 1 2 3 4 5 6 
#
# 1 65.9982 20.7723 29.6682 -9.1443 20.3014 12.2025
# 2 20.7723 70.0919 20.0362 -0.1784 7.7289 18.8332
# 3 29.6682 20.0362 99.4728 -2.8904 23.0327 6.3690
# 4 -9.1443 -0.1784 -2.8904 19.3398 1.7126 7.2455
# 5 20.3014 7.7289 23.0327 1.7126 34.2561 2.4393
# 6 12.2025 18.8332 6.3690 7.2455 2.4393 36.4852
#
#
#
# Elastic Compliance Matrix: (Units=1/GPa)
#
#
# Indices 1 2 3 4 5 6 
#
# 1 0.024937 -0.002809 -0.003020 0.015641 -0.012280 -0.008648
# 2 -0.002809 0.017978 -0.002095 0.001666 -0.000477 -0.008274
# 3 -0.003020 -0.002095 0.012898 0.001027 -0.006466 0.000068
# 4 0.015641 0.001666 0.001027 0.067422 -0.012366 -0.018833
# 5 -0.012280 -0.000477 -0.006466 -0.012366 0.041174 0.005185
# 6 -0.008648 -0.008274 0.000068 -0.018833 0.005185 0.037953
#
#
# Mechanical properties :
#
#
# Convention : Reuss Voigt Hill
#
# Bulk Modulus (GPa) = 25.02152 41.83512 33.42832
# Shear Modulus (GPa) = 21.59518 29.02197 25.30858
#
# Velocity S-wave (km/s) = 3.32940 3.85967 3.60430
# Velocity P-wave (km/s) = 5.25580 6.42937 5.87198
#
# Compressibility (1/GPa) = 0.03996560
#
# Stress axis : x y z
#
# Youngs Moduli (GPa) = 40.10050 55.62237 77.52883
#
# Poissons Ratio (x) = 0.15627 0.23415
# Poissons Ratio (y) = 0.11266 0.16240
# Poissons Ratio (z) = 0.12111 0.11651
#
# Static dielectric constant tensor:
#      x y z
#    x 3.729770 0.101110 0.264660 
#    y 0.101110 3.348170 -0.111390 
#    z 0.264660 -0.111390 3.491430 
# 
# 
# High freq. dielectric constant tensor:
#      x y z
#    x 1.759390 0.013160 0.029050 
#    y 0.013160 1.749100 -0.004120 
#    z 0.029050 -0.004120 1.743710 
# 
# From -- ./inp_files/531157.got.cif
#   From: 2010.06.25/outbox.cif.g09.slc.cpg/sg2_266_cif.got.tgz:531157.got - 2010.06.27 13:26:56.
