data_PCOD8041979
_publ_section_title
;
Structure prediction by ZEFSAII (Michael W. Deem and Ramdas Pophale) SiO2 
 PCOD8041979
Probable space group: P -1
;
_chemical_formula_sum "Si O2"
_cell_formula_units_Z 16
_cell_length_a 15.599452
_cell_length_b 10.450828
_cell_length_c 14.334469
_cell_angle_alpha 137.216737
_cell_angle_beta 36.025123
_cell_angle_gamma 116.391726
_cell_volume 866.120590
_symmetry_space_group_name_H-M "P -1"
_symmetry_group_IT_number 2
_symmetry_cell_setting 'triclinic'
loop_
_space_group_symop_operation_xyz
x,y,z
-x,-y,-z
loop_
_atom_site_type_symbol
_atom_site_label
_atom_site_fract_x
_atom_site_fract_y
_atom_site_fract_z
Si Si1 0.961591 0.271498 0.081971
Si Si2 0.054767 0.815996 0.739583
Si Si3 0.581434 0.557603 0.082947
Si Si4 0.231008 0.412822 0.882513
Si Si5 0.681268 0.365823 0.242033
Si Si6 0.461406 0.998072 0.425832
Si Si7 0.312218 0.451106 0.216209
Si Si8 0.279379 0.063252 0.983282
O O1 0.912172 0.265400 0.228432
O O2 0.795481 0.367756 0.227171
O O3 0.055131 0.424267 0.066255
O O4 0.067521 0.037765 0.833924
O O5 0.172974 0.643203 0.480072
O O6 0.883195 0.835234 0.872002
O O7 0.685466 0.551618 0.078397
O O8 0.446466 0.782842 0.304497
O O9 0.477901 0.418324 0.104711
O O10 0.691503 0.500738 0.865150
O O11 0.247042 0.571862 0.879616
O O12 0.307159 0.194091 0.648301
O O13 0.500000 0.500000 0.500000
O O14 0.700842 0.134536 0.078813
O O15 0.596892 0.015451 0.251106
O O16 0.500000 0.000000 0.500000
O O17 0.296315 0.234096 0.128468
#
# Coordination Sequence:
#
# PCOD8041979 Si02
#       8
#     2   2   2   2   2   2   2   2
#     4  10  22  36  59  92 110 140 192 233 287 340
#     4  10  20  35  61  85 119 137 181 241 297 326
#     4   9  20  32  55  85 112 142 191 226 280 340
#     4  11  20  36  58  78 116 152 184 236 279 321
#     4  11  23  38  57  80 115 155 189 230 275 332
#     4   9  16  29  54  80 108 136 182 228 288 317
#     4  10  19  34  55  84 113 148 180 234 285 334
#     4  10  20  35  52  84 111 149 190 225 273 342
#
# _framework density 18.473178000000001
#
# number of rings (size 3 to 8) (size 9 to 14) (size 15 to 20)
#    0.000    2.000    1.250    3.750    1.750    2.000 
#    0.000    0.625    0.000    3.750    0.000    0.000 
#    0.000    0.000    0.000    0.000    0.000    0.000 
#
# Total GULP energy -198238.116716 kJ/mol
# GULP energy per Si atom -12389.882295 kJ/mol
# Density = 1.843113 g / cm^3
# Si number density = 18.473178 Si / 1000 Ang^3
#
#
#
# Elastic Constant Matrix: (Units=GPa)
#
#
# Indices 1 2 3 4 5 6 
#
# 1 118.2016 62.6907 45.6660 3.7324 -4.1995 9.9402
# 2 62.6907 95.8113 -3.2889 1.2708 3.7591 -6.3766
# 3 45.6660 -3.2889 56.4580 7.2536 12.0779 -19.8871
# 4 3.7324 1.2708 7.2536 21.2906 1.7248 1.5108
# 5 -4.1995 3.7591 12.0779 1.7248 25.8044 1.3058
# 6 9.9402 -6.3766 -19.8871 1.5108 1.3058 25.0633
#
#
#
# Elastic Compliance Matrix: (Units=1/GPa)
#
#
# Indices 1 2 3 4 5 6 
#
# 1 -0.015774 0.014942 0.032851 -0.010276 -0.021349 0.037856
# 2 0.014942 -0.002996 -0.027214 0.007587 0.016597 -0.029604
# 3 0.032851 -0.027214 -0.035047 0.009098 0.027624 -0.049749
# 4 -0.010276 0.007587 0.009098 0.045295 -0.010622 0.011048
# 5 -0.021349 0.016597 0.027624 -0.010622 0.018907 0.034264
# 6 0.037856 -0.029604 -0.049749 0.011048 0.034264 -0.024573
#
#
# Mechanical properties :
#
#
# Convention : Reuss Voigt Hill
#
# Bulk Modulus (GPa) = -79.00556 53.40073 -12.80242
# Shear Modulus (GPa) = -83.93969 25.45854 -29.24057
#
# Velocity S-wave (km/s) = -6.74813 3.71635 -3.98284
# Velocity P-wave (km/s) = 10.17728 6.88367 5.30057
#
# Compressibility (1/GPa) = -0.01265734
#
# Stress axis : x y z
#
# Youngs Moduli (GPa) = -63.39511 -333.78372 -28.53304
#
# Poissons Ratio (x) = 4.98749 0.93734
# Poissons Ratio (y) = 0.94727 -0.77649
# Poissons Ratio (z) = 2.08261 -9.08345
#
# Static dielectric constant tensor:
#      x y z
#    x 3.356940 0.259690 0.098520 
#    y 0.259690 3.714020 0.232220 
#    z 0.098520 0.232220 3.620890 
# 
# 
# High freq. dielectric constant tensor:
#      x y z
#    x 1.708350 0.019170 0.002200 
#    y 0.019170 1.719460 -0.006430 
#    z 0.002200 -0.006430 1.713340 
# 
# From -- ./inp_files/200834.got.cif
#   From: 2010.06.25/outbox.cif.g09.slc.cpg/sg2_101_cif.got.tgz:200834.got - 2010.06.27 13:26:56.
