data_PCOD8041983
_publ_section_title
;
Structure prediction by ZEFSAII (Michael W. Deem and Ramdas Pophale) SiO2 
 PCOD8041983
Probable space group: P -1
;
_chemical_formula_sum "Si O2"
_cell_formula_units_Z 16
_cell_length_a 20.444388
_cell_length_b 11.964317
_cell_length_c 6.697021
_cell_angle_alpha 77.239814
_cell_angle_beta 101.666090
_cell_angle_gamma 152.596818
_cell_volume 735.251362
_symmetry_space_group_name_H-M "P -1"
_symmetry_group_IT_number 2
_symmetry_cell_setting 'triclinic'
loop_
_space_group_symop_operation_xyz
x,y,z
-x,-y,-z
loop_
_atom_site_type_symbol
_atom_site_label
_atom_site_fract_x
_atom_site_fract_y
_atom_site_fract_z
Si Si1 0.541320 0.068225 0.774453
Si Si2 0.193527 0.971194 0.732138
Si Si3 0.934231 0.563481 0.495819
Si Si4 0.628085 0.024330 0.559331
Si Si5 0.956631 0.173324 0.926304
Si Si6 0.150741 0.368286 0.304055
Si Si7 0.212787 0.212614 0.355881
Si Si8 0.524247 0.666600 0.392061
O O1 0.561346 0.967551 0.748999
O O2 0.684190 0.354266 0.715910
O O3 0.412397 0.938822 0.639733
O O4 0.500000 0.000000 0.000000
O O5 0.070907 0.715809 0.634777
O O6 0.213322 0.123305 0.572945
O O7 0.341642 0.124167 0.760476
O O8 0.149793 0.919417 0.955979
O O9 0.799680 0.279790 0.571347
O O10 0.917145 0.666610 0.537114
O O11 0.963747 0.617844 0.256086
O O12 0.566780 0.806500 0.557266
O O13 0.864303 0.946260 0.828318
O O14 0.074656 0.286423 0.082630
O O15 0.135855 0.209923 0.391603
O O16 0.376284 0.489141 0.281180
O O17 0.500000 0.500000 0.500000
#
# Coordination Sequence:
#
# PCOD8041983 Si02
#       8
#     2   2   2   2   2   2   2   2
#     4  10  20  36  58  90 118 147 190 237 294 352
#     4   9  21  38  56  79 115 150 200 237 274 338
#     4   9  20  36  58  82 114 146 189 240 291 342
#     4  10  20  38  61  84 117 155 186 239 296 337
#     4  10  20  35  55  82 114 154 189 237 287 336
#     4  10  19  34  55  85 116 144 187 240 292 348
#     4  10  20  36  55  82 116 151 192 235 287 341
#     4  10  21  41  60  82 118 159 197 236 280 342
#
# _framework density 21.761265000000002
#
# number of rings (size 3 to 8) (size 9 to 14) (size 15 to 20)
#    0.000    2.250    1.250    1.125    0.000    6.500 
#    4.500    4.375    0.000    0.000    0.000    0.000 
#    0.000    0.000    0.000    0.000    0.000    0.000 
#
# Total GULP energy -198328.443203 kJ/mol
# GULP energy per Si atom -12395.527700 kJ/mol
# Density = 2.171173 g / cm^3
# Si number density = 21.761265 Si / 1000 Ang^3
#
#
#
# Elastic Constant Matrix: (Units=GPa)
#
#
# Indices 1 2 3 4 5 6 
#
# 1 71.9806 26.5638 22.0731 0.7896 -20.0790 -5.3939
# 2 26.5638 99.0558 18.0293 18.0528 -9.6803 4.7156
# 3 22.0731 18.0293 119.8471 -2.0591 -28.5413 0.1321
# 4 0.7896 18.0528 -2.0591 27.3976 5.0887 -7.6750
# 5 -20.0790 -9.6803 -28.5413 5.0887 23.1949 3.6628
# 6 -5.3939 4.7156 0.1321 -7.6750 3.6628 38.7260
#
#
#
# Elastic Compliance Matrix: (Units=1/GPa)
#
#
# Indices 1 2 3 4 5 6 
#
# 1 0.019743 -0.003800 0.000835 -0.000624 0.016428 0.001532
# 2 -0.003800 0.014078 -0.000278 -0.011652 0.005602 -0.005082
# 3 0.000835 -0.000278 0.012079 -0.002506 0.016325 -0.001932
# 4 -0.000624 -0.011652 -0.002506 0.051946 -0.022049 0.013721
# 5 0.016428 0.005602 0.016325 -0.022049 0.086331 -0.010985
# 6 0.001532 -0.005082 -0.001932 0.013721 -0.010985 0.030420
#
#
# Mechanical properties :
#
#
# Convention : Reuss Voigt Hill
#
# Bulk Modulus (GPa) = 25.37252 47.13509 36.25381
# Shear Modulus (GPa) = 21.34738 32.81153 27.07946
#
# Velocity S-wave (km/s) = 3.13546 3.88725 3.53142
# Velocity P-wave (km/s) = 4.97925 6.46952 5.77268
#
# Compressibility (1/GPa) = 0.03941271
#
# Stress axis : x y z
#
# Youngs Moduli (GPa) = 50.65054 71.03299 82.78991
#
# Poissons Ratio (x) = 0.26995 -0.06915
# Poissons Ratio (y) = 0.19249 0.02305
# Poissons Ratio (z) = -0.04231 0.01978
#
# Static dielectric constant tensor:
#      x y z
#    x 4.025800 0.252990 -0.246500 
#    y 0.252990 3.886670 0.293280 
#    z -0.246500 0.293280 3.665960 
# 
# 
# High freq. dielectric constant tensor:
#      x y z
#    x 1.856050 0.020280 -0.022960 
#    y 0.020280 1.872000 0.014160 
#    z -0.022960 0.014160 1.828800 
# 
# From -- ./inp_files/83304.got.cif
#   From: 2010.06.25/outbox.cif.g09.slc.cpg/sg2_42_cif.got.tgz:83304.got - 2010.06.27 13:26:56.
