data_PCOD8041079
_publ_section_title
;
Structure prediction by ZEFSAII (Michael W. Deem and Ramdas Pophale) SiO2 
 PCOD8041079
Probable space group: P -1
;
_chemical_formula_sum "Si O2"
_cell_formula_units_Z 16
_cell_length_a 19.593526
_cell_length_b 14.507849
_cell_length_c 14.791098
_cell_angle_alpha 160.495745
_cell_angle_beta 38.670705
_cell_angle_gamma 132.030013
_cell_volume 831.494899
_symmetry_space_group_name_H-M "P -1"
_symmetry_group_IT_number 2
_symmetry_cell_setting 'triclinic'
loop_
_space_group_symop_operation_xyz
x,y,z
-x,-y,-z
loop_
_atom_site_type_symbol
_atom_site_label
_atom_site_fract_x
_atom_site_fract_y
_atom_site_fract_z
Si Si1 0.490835 0.771869 0.875362
Si Si2 0.749663 0.078800 0.801916
Si Si3 0.622987 0.094221 0.122801
Si Si4 0.828240 0.183276 0.289929
Si Si5 0.086387 0.013674 0.796425
Si Si6 0.781267 0.796374 0.841173
Si Si7 0.897398 0.494280 0.035048
Si Si8 0.961558 0.378302 0.656300
O O1 0.575664 0.440999 0.473899
O O2 0.362948 0.743755 0.976788
O O3 0.500000 0.000000 0.000000
O O4 0.525527 0.928183 0.071547
O O5 0.810016 0.817624 0.429960
O O6 0.713130 0.960713 0.824546
O O7 0.830933 0.268068 0.921832
O O8 0.685629 0.016304 0.081326
O O9 0.822420 0.169780 0.392799
O O10 0.756684 0.498484 0.615568
O O11 0.774979 0.952860 0.088619
O O12 0.959870 0.089940 0.038017
O O13 0.096654 0.843017 0.533172
O O14 0.109210 0.314133 0.030340
O O15 0.903327 0.724767 0.599108
O O16 0.948236 0.396099 0.793381
O O17 0.000000 0.500000 0.000000
#
# Coordination Sequence:
#
# PCOD8041079 Si02
#       8
#     2   2   2   2   2   2   2   2
#     4  10  20  36  55  75  97 132 176 217 262 306
#     4  11  22  37  53  71 102 139 176 213 247 292
#     4  11  20  34  55  78 104 134 169 212 268 311
#     4   9  17  29  47  72 100 134 164 202 256 305
#     4   9  17  31  49  67  98 137 173 205 242 298
#     4  10  19  30  48  76 108 132 161 204 257 312
#     4  12  24  36  51  74 106 141 178 209 242 287
#     4  10  20  33  48  71 103 141 175 203 239 293
#
# _framework density 19.242450999999999
#
# number of rings (size 3 to 8) (size 9 to 14) (size 15 to 20)
#    0.000    1.750    0.000    7.125    0.000    6.000 
#    0.000    0.000    0.000    0.000    0.000    0.000 
#    0.000   70.000    0.000    0.000    0.000    0.000 
#
# Total GULP energy -198246.876632 kJ/mol
# GULP energy per Si atom -12390.429790 kJ/mol
# Density = 1.919865 g / cm^3
# Si number density = 19.242451 Si / 1000 Ang^3
#
#
#
# Elastic Constant Matrix: (Units=GPa)
#
#
# Indices 1 2 3 4 5 6 
#
# 1 126.5048 39.6935 45.1062 2.8449 7.2595 -10.7563
# 2 39.6935 36.4382 15.3503 9.4251 2.6216 8.2640
# 3 45.1062 15.3503 97.2084 20.1152 8.6019 -4.7530
# 4 2.8449 9.4251 20.1152 23.9890 -0.0507 4.8980
# 5 7.2595 2.6216 8.6019 -0.0507 34.1706 8.1789
# 6 -10.7563 8.2640 -4.7530 4.8980 8.1789 29.9577
#
#
#
# Elastic Compliance Matrix: (Units=1/GPa)
#
#
# Indices 1 2 3 4 5 6 
#
# 1 0.017463 -0.021041 -0.005835 0.008929 -0.003138 0.010545
# 2 -0.021041 0.058459 0.002948 -0.018575 0.004327 -0.021358
# 3 -0.005835 0.002948 0.016016 -0.014524 -0.003767 0.003036
# 4 0.008929 -0.018575 -0.014524 0.061177 0.004522 -0.005211
# 5 -0.003138 0.004327 -0.003767 0.004522 0.033627 -0.012838
# 6 0.010545 -0.021358 0.003036 -0.005211 -0.012838 0.047897
#
#
# Mechanical properties :
#
#
# Convention : Reuss Voigt Hill
#
# Bulk Modulus (GPa) = 22.68382 51.16126 36.92254
# Shear Modulus (GPa) = 16.82431 28.29023 22.55727
#
# Velocity S-wave (km/s) = 2.96012 3.83848 3.42755
# Velocity P-wave (km/s) = 4.84738 6.80372 5.90710
#
# Compressibility (1/GPa) = 0.04408429
#
# Stress axis : x y z
#
# Youngs Moduli (GPa) = 57.26343 17.10597 62.43652
#
# Poissons Ratio (x) = 0.35992 0.36431
# Poissons Ratio (y) = 1.20486 -0.18409
# Poissons Ratio (z) = 0.33413 -0.05044
#
# Static dielectric constant tensor:
#      x y z
#    x 3.872390 0.243370 0.099120 
#    y 0.243370 3.422090 0.209090 
#    z 0.099120 0.209090 3.592770 
# 
# 
# High freq. dielectric constant tensor:
#      x y z
#    x 1.760640 0.005980 0.011990 
#    y 0.005980 1.707910 0.034880 
#    z 0.011990 0.034880 1.744250 
# 
# From -- ./inp_files/456755.got.cif
#   From: 2010.06.25/outbox.cif.g09.slc.cpg/sg2_229_cif.got.tgz:456755.got - 2010.06.27 13:26:56.
