data_PCOD8041004
_publ_section_title
;
Structure prediction by ZEFSAII (Michael W. Deem and Ramdas Pophale) SiO2 
 PCOD8041004
Probable space group: P -1
;
_chemical_formula_sum "Si O2"
_cell_formula_units_Z 16
_cell_length_a 9.745384
_cell_length_b 8.516957
_cell_length_c 20.682823
_cell_angle_alpha 150.412087
_cell_angle_beta 64.969781
_cell_angle_gamma 111.874258
_cell_volume 767.985727
_symmetry_space_group_name_H-M "P -1"
_symmetry_group_IT_number 2
_symmetry_cell_setting 'triclinic'
loop_
_space_group_symop_operation_xyz
x,y,z
-x,-y,-z
loop_
_atom_site_type_symbol
_atom_site_label
_atom_site_fract_x
_atom_site_fract_y
_atom_site_fract_z
Si Si1 0.097839 0.442899 0.811494
Si Si2 0.477397 0.622442 0.209162
Si Si3 0.761282 0.643252 0.917503
Si Si4 0.264948 0.866868 0.018244
Si Si5 0.363357 0.729642 0.618723
Si Si6 0.652564 0.610149 0.720198
Si Si7 0.850464 0.299693 0.461591
Si Si8 0.330764 0.781814 0.790134
O O1 0.134967 0.600154 0.931569
O O2 0.217540 0.576417 0.783475
O O3 0.928648 0.519617 0.851002
O O4 0.112838 0.069462 0.676668
O O5 0.356882 0.639352 0.179322
O O6 0.571254 0.295861 0.072051
O O7 0.391249 0.623281 0.295314
O O8 0.590362 0.916093 0.285010
O O9 0.750223 0.878331 0.943680
O O10 0.704089 0.841110 0.061612
O O11 0.253859 0.069936 0.159998
O O12 0.500000 0.500000 0.500000
O O13 0.233091 0.608136 0.554275
O O14 0.299371 0.700676 0.693181
O O15 0.755778 0.397710 0.578185
O O16 0.503830 0.715000 0.749091
O O17 0.000000 0.500000 0.500000
#
# Coordination Sequence:
#
# PCOD8041004 Si02
#       8
#     2   2   2   2   2   2   2   2
#     4  11  24  43  71  95 137 177 215 267 334 399
#     4  11  21  41  71 101 128 170 225 273 325 385
#     4  10  21  39  70 104 131 162 222 280 322 389
#     4  10  18  41  70 103 124 163 228 272 318 390
#     4  12  27  42  64  99 137 171 223 280 316 390
#     4  11  21  42  75  95 126 177 222 271 324 394
#     4  12  29  48  62  97 138 176 217 272 334 391
#     4  11  21  41  71 101 125 171 225 270 328 385
#
# _framework density 20.833721000000001
#
# number of rings (size 3 to 8) (size 9 to 14) (size 15 to 20)
#    0.000    1.000    6.250    2.250    3.500    4.500 
#    2.250    4.375    0.000    0.000    0.000    0.000 
#    0.000    0.000    0.000    0.000    0.000    0.000 
#
# Total GULP energy -198325.484385 kJ/mol
# GULP energy per Si atom -12395.342774 kJ/mol
# Density = 2.078630 g / cm^3
# Si number density = 20.833721 Si / 1000 Ang^3
#
#
#
# Elastic Constant Matrix: (Units=GPa)
#
#
# Indices 1 2 3 4 5 6 
#
# 1 169.4489 26.0488 48.9386 2.9811 8.0573 6.1930
# 2 26.0488 49.8078 18.4817 5.6610 11.1975 -2.8760
# 3 48.9386 18.4817 85.9212 6.8289 9.4251 -7.5049
# 4 2.9811 5.6610 6.8289 27.0205 -1.4458 7.5446
# 5 8.0573 11.1975 9.4251 -1.4458 43.9501 1.0323
# 6 6.1930 -2.8760 -7.5049 7.5446 1.0323 25.7710
#
#
#
# Elastic Compliance Matrix: (Units=1/GPa)
#
#
# Indices 1 2 3 4 5 6 
#
# 1 0.007695 -0.002989 -0.004301 0.002016 0.000434 -0.004043
# 2 -0.002989 0.024625 -0.002088 -0.005948 -0.005587 0.004823
# 3 -0.004301 -0.002088 0.015826 -0.005177 -0.002409 0.007022
# 4 0.002016 -0.005948 -0.005177 0.043937 0.004070 -0.015682
# 5 0.000434 -0.005587 -0.002409 0.004070 0.024832 -0.003615
# 6 -0.004043 0.004823 0.007022 -0.015682 -0.003615 0.047094
#
#
# Mechanical properties :
#
#
# Convention : Reuss Voigt Hill
#
# Bulk Modulus (GPa) = 34.02289 54.67956 44.35123
# Shear Modulus (GPa) = 25.96568 33.46224 29.71396
#
# Velocity S-wave (km/s) = 3.53417 4.01204 3.78066
# Velocity P-wave (km/s) = 5.74630 6.91119 6.35549
#
# Compressibility (1/GPa) = 0.02939198
#
# Stress axis : x y z
#
# Youngs Moduli (GPa) = 129.95998 40.60838 63.18570
#
# Poissons Ratio (x) = 0.12136 0.27175
# Poissons Ratio (y) = 0.38840 0.13192
# Poissons Ratio (z) = 0.55894 0.08478
#
# Static dielectric constant tensor:
#      x y z
#    x 3.181250 0.895310 0.216210 
#    y 0.895310 3.017140 0.371130 
#    z 0.216210 0.371130 4.262630 
# 
# 
# High freq. dielectric constant tensor:
#      x y z
#    x 1.835210 -0.003360 0.010250 
#    y -0.003360 1.786990 0.005080 
#    z 0.010250 0.005080 1.829040 
# 
# From -- ./inp_files/262062.got.cif
#   From: 2010.06.25/outbox.cif.g09.slc.cpg/sg2_132_cif.got.tgz:262062.got - 2010.06.27 13:26:56.
