data_PCOD8041890
_publ_section_title
;
Structure prediction by ZEFSAII (Michael W. Deem and Ramdas Pophale) SiO2 
 PCOD8041890
Probable space group: P -1
;
_chemical_formula_sum "Si O2"
_cell_formula_units_Z 14
_cell_length_a 8.814239
_cell_length_b 21.946955
_cell_length_c 6.527134
_cell_angle_alpha 97.185061
_cell_angle_beta 83.426518
_cell_angle_gamma 143.123782
_cell_volume 751.528396
_symmetry_space_group_name_H-M "P -1"
_symmetry_group_IT_number 2
_symmetry_cell_setting 'triclinic'
loop_
_space_group_symop_operation_xyz
x,y,z
-x,-y,-z
loop_
_atom_site_type_symbol
_atom_site_label
_atom_site_fract_x
_atom_site_fract_y
_atom_site_fract_z
Si Si1 0.775140 0.348752 0.364023
Si Si2 0.862239 0.130226 0.066811
Si Si3 0.434273 0.313653 0.126697
Si Si4 0.725632 0.432743 0.736346
Si Si5 0.625846 0.605600 0.508266
Si Si6 0.539973 0.057397 0.706679
Si Si7 0.193981 0.778991 0.563976
O O1 0.525871 0.289791 0.255762
O O2 0.797195 0.393304 0.590575
O O3 0.741508 0.266301 0.374094
O O4 0.032205 0.444570 0.238015
O O5 0.798948 0.170197 0.228939
O O6 0.156740 0.207307 0.043385
O O7 0.714193 0.024631 0.149159
O O8 0.771358 0.110412 0.839442
O O9 0.426385 0.376843 0.263682
O O10 0.646122 0.386465 0.952685
O O11 0.489347 0.392942 0.659681
O O12 0.500000 0.500000 0.500000
O O13 0.922178 0.692803 0.460385
O O14 0.608505 0.143615 0.619969
O O15 0.500000 0.000000 0.500000
#
# Coordination Sequence:
#
# PCOD8041890 Si02
#       7
#     2   2   2   2   2   2   2
#     4  10  21  35  51  76 113 145 184 214 254 320
#     4   9  19  36  57  83 103 131 179 225 264 324
#     4  10  21  35  53  77 109 147 178 214 266 314
#     4  10  20  36  52  72 110 156 180 214 259 305
#     4  10  19  34  52  79 111 138 182 224 253 309
#     4   9  18  35  60  80 103 132 171 224 280 314
#     4  10  19  34  55  82 108 140 176 223 265 305
#
# _framework density 18.628705
#
# number of rings (size 3 to 8) (size 9 to 14) (size 15 to 20)
#    0.000    2.286    1.429    1.286    0.000    2.857 
#    2.571    0.714    0.000    8.571    0.000    0.000 
#    0.000    0.000    0.000    0.000    0.000    0.000 
#
# Total GULP energy -173551.997280 kJ/mol
# GULP energy per Si atom -12396.571234 kJ/mol
# Density = 1.858630 g / cm^3
# Si number density = 18.628705 Si / 1000 Ang^3
#
#
#
# Elastic Constant Matrix: (Units=GPa)
#
#
# Indices 1 2 3 4 5 6 
#
# 1 86.7269 54.0020 26.0680 -6.2891 9.6793 -0.7158
# 2 54.0020 129.1294 47.7812 -16.5018 8.8411 2.3185
# 3 26.0680 47.7812 81.3068 -11.8989 11.3066 3.9173
# 4 -6.2891 -16.5018 -11.8989 36.2703 8.1363 7.7098
# 5 9.6793 8.8411 11.3066 8.1363 17.8137 3.2912
# 6 -0.7158 2.3185 3.9173 7.7098 3.2912 24.1814
#
#
#
# Elastic Compliance Matrix: (Units=1/GPa)
#
#
# Indices 1 2 3 4 5 6 
#
# 1 0.016267 -0.006022 -0.000807 0.000794 -0.006025 0.001756
# 2 -0.006022 0.012598 -0.004617 0.003865 -0.001508 -0.001665
# 3 -0.000807 -0.004617 0.017988 0.006850 -0.011233 -0.003150
# 4 0.000794 0.003865 0.006850 0.039077 -0.022541 -0.010848
# 5 -0.006025 -0.001508 -0.011233 -0.022541 0.077885 -0.001627
# 6 0.001756 -0.001665 -0.003150 -0.010848 -0.001627 0.045756
#
#
# Mechanical properties :
#
#
# Convention : Reuss Voigt Hill
#
# Bulk Modulus (GPa) = 41.73549 61.42949 51.58249
# Shear Modulus (GPa) = 20.79439 26.94054 23.86746
#
# Velocity S-wave (km/s) = 3.34466 3.80700 3.58330
# Velocity P-wave (km/s) = 6.11295 7.23682 6.69850
#
# Compressibility (1/GPa) = 0.02396042
#
# Stress axis : x y z
#
# Youngs Moduli (GPa) = 61.47347 79.37763 55.59369
#
# Poissons Ratio (x) = 0.47799 0.04487
# Poissons Ratio (y) = 0.37018 0.25669
# Poissons Ratio (z) = 0.04962 0.36651
#
# Static dielectric constant tensor:
#      x y z
#    x 3.262800 0.181110 0.109490 
#    y 0.181110 3.790950 -0.068950 
#    z 0.109490 -0.068950 3.474910 
# 
# 
# High freq. dielectric constant tensor:
#      x y z
#    x 1.700220 0.012540 0.014080 
#    y 0.012540 1.732210 -0.002400 
#    z 0.014080 -0.002400 1.726510 
# 
# From -- ./inp_files/27673.got.cif
#   From: 2010.06.25/outbox.cif.g09.slc.cpg/sg2_14_cif.got.tgz:27673.got - 2010.06.27 13:26:56.
