data_PCOD8041370
_publ_section_title
;
Structure prediction by ZEFSAII (Michael W. Deem and Ramdas Pophale) SiO2 
 PCOD8041370
Probable space group: P -1
;
_chemical_formula_sum "Si O2"
_cell_formula_units_Z 16
_cell_length_a 10.796740
_cell_length_b 20.386044
_cell_length_c 19.989107
_cell_angle_alpha 157.980121
_cell_angle_beta 32.599401
_cell_angle_gamma 148.748050
_cell_volume 827.124758
_symmetry_space_group_name_H-M "P -1"
_symmetry_group_IT_number 2
_symmetry_cell_setting 'triclinic'
loop_
_space_group_symop_operation_xyz
x,y,z
-x,-y,-z
loop_
_atom_site_type_symbol
_atom_site_label
_atom_site_fract_x
_atom_site_fract_y
_atom_site_fract_z
Si Si1 0.807974 0.920452 0.317343
Si Si2 0.423315 0.366601 0.311522
Si Si3 0.686875 0.291994 0.722885
Si Si4 0.671584 0.538968 0.227198
Si Si5 0.241581 0.085921 0.514311
Si Si6 0.840199 0.426919 0.288436
Si Si7 0.247741 0.699212 0.149492
Si Si8 0.231096 0.967516 0.067483
O O1 0.585055 0.752123 0.225001
O O2 0.832196 0.872025 0.337771
O O3 0.062198 0.947054 0.190197
O O4 0.763354 0.112697 0.514694
O O5 0.495151 0.427909 0.261378
O O6 0.668176 0.404957 0.280543
O O7 0.265176 0.486564 0.522101
O O8 0.243193 0.146214 0.186066
O O9 0.691213 0.362081 0.863357
O O10 0.879765 0.449820 0.739446
O O11 0.592392 0.712336 0.402479
O O12 0.953414 0.623076 0.202780
O O13 0.629429 0.389283 0.045349
O O14 0.368912 0.929176 0.307512
O O15 0.000000 0.000000 0.500000
O O16 0.853050 0.228562 0.120158
O O17 0.500000 0.000000 0.000000
#
# Coordination Sequence:
#
# PCOD8041370 Si02
#       8
#     2   2   2   2   2   2   2   2
#     4  10  21  37  58  89 115 144 189 238 287 331
#     4  10  20  35  53  82 119 144 192 228 279 337
#     4  10  19  37  61  83 118 148 184 239 287 337
#     4  10  19  32  55  80 113 147 184 228 278 334
#     4   9  20  33  53  81 113 142 181 236 279 329
#     4  10  20  33  56  83 110 154 182 233 289 324
#     4   9  19  33  52  84 109 144 187 230 282 324
#     4  10  22  34  54  85 115 144 187 239 278 330
#
# _framework density 19.344121000000001
#
# number of rings (size 3 to 8) (size 9 to 14) (size 15 to 20)
#    0.000    2.250    2.500    0.000    1.750    4.500 
#    0.000    0.000    0.000    1.500    3.250    0.000 
#    0.000    0.000    0.000    0.000    0.000    0.000 
#
# Total GULP energy -198329.909951 kJ/mol
# GULP energy per Si atom -12395.619372 kJ/mol
# Density = 1.930009 g / cm^3
# Si number density = 19.344121 Si / 1000 Ang^3
#
#
#
# Elastic Constant Matrix: (Units=GPa)
#
#
# Indices 1 2 3 4 5 6 
#
# 1 77.0585 47.8689 39.4313 -9.7942 20.7815 -6.0015
# 2 47.8689 138.4221 66.8211 2.5643 17.1108 -19.3037
# 3 39.4313 66.8211 111.6219 2.7661 25.5192 -20.8542
# 4 -9.7942 2.5643 2.7661 31.4482 -1.6312 -2.1014
# 5 20.7815 17.1108 25.5192 -1.6312 20.7939 -4.2044
# 6 -6.0015 -19.3037 -20.8542 -2.1014 -4.2044 27.4329
#
#
#
# Elastic Compliance Matrix: (Units=1/GPa)
#
#
# Indices 1 2 3 4 5 6 
#
# 1 0.021925 -0.005314 -0.001545 0.006457 -0.015541 -0.002005
# 2 -0.005314 0.011687 -0.004952 -0.001816 0.002340 0.003516
# 3 -0.001545 -0.004952 0.016986 -0.001843 -0.013995 0.006803
# 4 0.006457 -0.001816 -0.001843 0.034227 0.000270 0.001397
# 5 -0.015541 0.002340 -0.013995 0.000270 0.078835 -0.000289
# 6 -0.002005 0.003516 0.006803 0.001397 -0.000289 0.043723
#
#
# Mechanical properties :
#
#
# Convention : Reuss Voigt Hill
#
# Bulk Modulus (GPa) = 37.07236 70.59392 53.83314
# Shear Modulus (GPa) = 20.83350 27.46708 24.15029
#
# Velocity S-wave (km/s) = 3.28532 3.77227 3.53718
# Velocity P-wave (km/s) = 5.79632 7.45294 6.67621
#
# Compressibility (1/GPa) = 0.02697427
#
# Stress axis : x y z
#
# Youngs Moduli (GPa) = 45.61020 85.56221 58.87334
#
# Poissons Ratio (x) = 0.45469 0.09099
# Poissons Ratio (y) = 0.24238 0.29156
# Poissons Ratio (z) = 0.07049 0.42372
#
# Static dielectric constant tensor:
#      x y z
#    x 3.369940 -0.086930 0.093880 
#    y -0.086930 3.736480 0.524090 
#    z 0.093880 0.524090 4.134950 
# 
# 
# High freq. dielectric constant tensor:
#      x y z
#    x 1.718460 -0.012220 0.008790 
#    y -0.012220 1.745610 0.018710 
#    z 0.008790 0.018710 1.768270 
# 
# From -- ./inp_files/257424.got.cif
#   From: 2010.06.25/outbox.cif.g09.slc.cpg/sg2_129_cif.got.tgz:257424.got - 2010.06.27 13:26:56.
