data_PCOD8041884
_publ_section_title
;
Structure prediction by ZEFSAII (Michael W. Deem and Ramdas Pophale) SiO2 
 PCOD8041884
Probable space group: P -1
;
_chemical_formula_sum "Si O2"
_cell_formula_units_Z 16
_cell_length_a 12.822644
_cell_length_b 10.272542
_cell_length_c 28.486410
_cell_angle_alpha 28.918929
_cell_angle_beta 26.813431
_cell_angle_gamma 37.130202
_cell_volume 816.266159
_symmetry_space_group_name_H-M "P -1"
_symmetry_group_IT_number 2
_symmetry_cell_setting 'triclinic'
loop_
_space_group_symop_operation_xyz
x,y,z
-x,-y,-z
loop_
_atom_site_type_symbol
_atom_site_label
_atom_site_fract_x
_atom_site_fract_y
_atom_site_fract_z
Si Si1 0.352955 0.799080 0.093557
Si Si2 0.364934 0.345888 0.064263
Si Si3 0.481205 0.451728 0.378275
Si Si4 0.844699 0.179521 0.660086
Si Si5 0.936676 0.718927 0.093500
Si Si6 0.626945 0.955027 0.526938
Si Si7 0.854372 0.717565 0.020118
Si Si8 0.642483 0.491157 0.726193
O O1 0.274503 0.574721 0.233007
O O2 0.499237 0.647726 0.041442
O O3 0.500000 0.000000 0.000000
O O4 0.135178 0.982403 0.101624
O O5 0.110289 0.482163 0.117603
O O6 0.340172 0.042804 0.187383
O O7 0.500000 0.500000 0.000000
O O8 0.241401 0.640223 0.408124
O O9 0.683336 0.654367 0.232482
O O10 0.503285 0.260826 0.476677
O O11 0.510280 0.238984 0.390860
O O12 0.837268 0.377086 0.646301
O O13 0.101294 0.039808 0.596409
O O14 0.962313 0.729585 0.024036
O O15 0.000000 0.000000 0.000000
O O16 0.606940 0.818350 0.629878
O O17 0.589785 0.646913 0.150363
O O18 0.000000 0.500000 0.000000
#
# Coordination Sequence:
#
# PCOD8041884 Si02
#       8
#     2   2   2   2   2   2   2   2
#     4  10  19  37  55  79 118 154 188 245 297 348
#     4  12  23  37  59  86 117 159 196 243 304 357
#     4  10  19  34  51  84 117 148 191 245 286 347
#     4  11  19  36  56  85 120 151 200 240 300 344
#     4  12  22  36  57  86 120 151 191 249 297 353
#     4  10  20  34  56  84 120 155 197 244 297 336
#     4  11  21  34  53  85 117 152 195 242 301 345
#     4  10  19  35  54  80 119 151 194 244 287 357
#
# _framework density 19.601448999999999
#
# number of rings (size 3 to 8) (size 9 to 14) (size 15 to 20)
#    0.000    1.250    6.250    4.500    0.000    0.000 
#    2.250    0.000    0.000    0.750    0.000    4.375 
#    0.000    0.000    0.000    0.000    0.000    0.000 
#
# Total GULP energy -198278.571992 kJ/mol
# GULP energy per Si atom -12392.410749 kJ/mol
# Density = 1.955683 g / cm^3
# Si number density = 19.601449 Si / 1000 Ang^3
#
#
#
# Elastic Constant Matrix: (Units=GPa)
#
#
# Indices 1 2 3 4 5 6 
#
# 1 105.0688 31.2017 45.9611 -9.4439 18.3243 -11.4133
# 2 31.2017 69.2764 15.9487 -6.8937 6.8336 -11.9949
# 3 45.9611 15.9487 84.9426 -21.2423 17.6800 -8.9602
# 4 -9.4439 -6.8937 -21.2423 28.4917 -10.0640 4.1995
# 5 18.3243 6.8336 17.6800 -10.0640 42.6409 -10.9631
# 6 -11.4133 -11.9949 -8.9602 4.1995 -10.9631 39.9337
#
#
#
# Elastic Compliance Matrix: (Units=1/GPa)
#
#
# Indices 1 2 3 4 5 6 
#
# 1 0.014241 -0.004715 -0.006789 -0.002635 -0.003022 0.000578
# 2 -0.004715 0.017359 0.000155 0.002449 0.000748 0.003849
# 3 -0.006789 0.000155 0.018631 0.010843 -0.002129 0.000562
# 4 -0.002635 0.002449 0.010843 0.045385 0.006832 -0.000482
# 5 -0.003022 0.000748 -0.002129 0.006832 0.028678 0.006038
# 6 0.000578 0.003849 0.000562 -0.000482 0.006038 0.028197
#
#
# Mechanical properties :
#
#
# Convention : Reuss Voigt Hill
#
# Bulk Modulus (GPa) = 36.32071 49.50121 42.91096
# Shear Modulus (GPa) = 27.11984 33.29170 30.20577
#
# Velocity S-wave (km/s) = 3.72366 4.12567 3.92981
# Velocity P-wave (km/s) = 6.08748 6.92846 6.52154
#
# Compressibility (1/GPa) = 0.02753250
#
# Stress axis : x y z
#
# Youngs Moduli (GPa) = 70.22212 57.60601 53.67438
#
# Poissons Ratio (x) = 0.27161 0.36439
# Poissons Ratio (y) = 0.33109 -0.00831
# Poissons Ratio (z) = 0.47673 -0.00891
#
# Static dielectric constant tensor:
#      x y z
#    x 4.203120 -0.631670 0.543270 
#    y -0.631670 3.564960 -0.303860 
#    z 0.543270 -0.303860 3.798990 
# 
# 
# High freq. dielectric constant tensor:
#      x y z
#    x 1.756680 -0.043130 0.018000 
#    y -0.043130 1.740600 -0.013290 
#    z 0.018000 -0.013290 1.758380 
# 
# From -- ./inp_files/438751.got.cif
#   From: 2010.06.25/outbox.cif.g09.slc.cpg/sg2_220_cif.got.tgz:438751.got - 2010.06.27 13:26:56.
