data_PCOD8041248
_publ_section_title
;
Structure prediction by ZEFSAII (Michael W. Deem and Ramdas Pophale) SiO2 
 PCOD8041248
Probable space group: P -1
;
_chemical_formula_sum "Si O2"
_cell_formula_units_Z 16
_cell_length_a 5.705862
_cell_length_b 19.822101
_cell_length_c 7.170555
_cell_angle_alpha 59.080384
_cell_angle_beta 93.855529
_cell_angle_gamma 112.393932
_cell_volume 634.783581
_symmetry_space_group_name_H-M "P -1"
_symmetry_group_IT_number 2
_symmetry_cell_setting 'triclinic'
loop_
_space_group_symop_operation_xyz
x,y,z
-x,-y,-z
loop_
_atom_site_type_symbol
_atom_site_label
_atom_site_fract_x
_atom_site_fract_y
_atom_site_fract_z
Si Si1 0.470038 0.079806 0.762099
Si Si2 0.753141 0.879597 0.655131
Si Si3 0.525962 0.696622 0.825286
Si Si4 0.354831 0.577640 0.492630
Si Si5 0.133093 0.535894 0.165825
Si Si6 0.310547 0.735164 0.416094
Si Si7 0.107110 0.983505 0.229062
Si Si8 0.809141 0.621816 0.727009
O O1 0.459962 0.103956 0.507905
O O2 0.609913 0.165092 0.779417
O O3 0.644929 0.023390 0.855969
O O4 0.164199 0.034287 0.881166
O O5 0.657721 0.778422 0.851242
O O6 0.795130 0.924400 0.794738
O O7 0.014727 0.913685 0.494306
O O8 0.536902 0.737571 0.563670
O O9 0.689966 0.638365 0.890593
O O10 0.229314 0.632352 0.946644
O O11 0.352789 0.549797 0.317457
O O12 0.285984 0.663250 0.361573
O O13 0.625308 0.599505 0.569368
O O14 0.142243 0.497933 0.704633
O O15 0.132881 0.464171 0.114724
O O16 0.049970 0.706690 0.560487
#
# Coordination Sequence:
#
# PCOD8041248 Si02
#       8
#     2   2   2   2   2   2   2   2
#     4   9  16  27  46  72 102 133 170 205 253 305
#     4   8  17  26  43  67 103 134 162 206 255 313
#     4  10  19  32  47  76 103 126 165 209 265 302
#     4   9  20  35  49  69  96 133 176 205 250 307
#     4  10  20  34  51  69  98 134 167 213 253 309
#     4   9  19  31  49  74  99 133 160 220 248 311
#     4   9  16  27  46  70 105 137 166 202 258 311
#     4  10  19  32  51  70  99 129 171 208 258 303
#
# _framework density 25.205439999999999
#
# number of rings (size 3 to 8) (size 9 to 14) (size 15 to 20)
#    0.750    2.000    0.000    1.875    1.750    5.500 
#    0.000    0.000    0.000    0.000    0.000    1.750 
#    0.000    0.000    0.000    0.000    0.000    0.000 
#
# Total GULP energy -198229.900010 kJ/mol
# GULP energy per Si atom -12389.368751 kJ/mol
# Density = 2.514807 g / cm^3
# Si number density = 25.205440 Si / 1000 Ang^3
#
#
#
# Elastic Constant Matrix: (Units=GPa)
#
#
# Indices 1 2 3 4 5 6 
#
# 1 97.2846 56.4832 46.8872 -14.9329 -13.7527 -13.6427
# 2 56.4832 188.4349 60.7448 -40.5750 -22.2721 -5.6410
# 3 46.8872 60.7448 82.2720 -18.1449 -19.2636 -7.2954
# 4 -14.9329 -40.5750 -18.1449 32.7087 7.8671 -2.5965
# 5 -13.7527 -22.2721 -19.2636 7.8671 34.0281 2.9619
# 6 -13.6427 -5.6410 -7.2954 -2.5965 2.9619 34.6308
#
#
#
# Elastic Compliance Matrix: (Units=1/GPa)
#
#
# Indices 1 2 3 4 5 6 
#
# 1 0.015515 -0.002125 -0.006518 0.001047 0.000563 0.004423
# 2 -0.002125 0.008864 -0.003255 0.007958 0.001224 0.000413
# 3 -0.006518 -0.003255 0.020412 0.002930 0.006034 0.000906
# 4 0.001047 0.007958 0.002930 0.043823 -0.003354 0.005899
# 5 0.000563 0.001224 0.006034 -0.003354 0.034741 -0.001531
# 6 0.004423 0.000413 0.000906 0.005899 -0.001531 0.031450
#
#
# Mechanical properties :
#
#
# Convention : Reuss Voigt Hill
#
# Bulk Modulus (GPa) = 47.63126 77.35798 62.49462
# Shear Modulus (GPa) = 26.93964 33.86527 30.40246
#
# Velocity S-wave (km/s) = 3.27280 3.66945 3.47679
# Velocity P-wave (km/s) = 5.76367 6.97931 6.40042
#
# Compressibility (1/GPa) = 0.02099461
#
# Stress axis : x y z
#
# Youngs Moduli (GPa) = 64.45412 112.81880 48.98969
#
# Poissons Ratio (x) = 0.23974 0.31932
# Poissons Ratio (y) = 0.13696 0.15947
# Poissons Ratio (z) = 0.42012 0.36723
#
# Static dielectric constant tensor:
#      x y z
#    x 4.448290 0.062060 0.075030 
#    y 0.062060 4.811610 -0.165680 
#    z 0.075030 -0.165680 4.374330 
# 
# 
# High freq. dielectric constant tensor:
#      x y z
#    x 2.001380 0.013270 -0.005640 
#    y 0.013270 2.013210 -0.012030 
#    z -0.005640 -0.012030 2.001220 
# 
# From -- ./inp_files/136755.got.cif
#   From: 2010.06.25/outbox.cif.g09.slc.cpg/sg2_69_cif.got.tgz:136755.got - 2010.06.27 13:26:56.
