data_PCOD8041787
_publ_section_title
;
Structure prediction by ZEFSAII (Michael W. Deem and Ramdas Pophale) SiO2 
 PCOD8041787
Probable space group: P -1
;
_chemical_formula_sum "Si O2"
_cell_formula_units_Z 16
_cell_length_a 10.933625
_cell_length_b 22.194222
_cell_length_c 10.068039
_cell_angle_alpha 134.761916
_cell_angle_beta 27.022274
_cell_angle_gamma 137.646172
_cell_volume 739.387910
_symmetry_space_group_name_H-M "P -1"
_symmetry_group_IT_number 2
_symmetry_cell_setting 'triclinic'
loop_
_space_group_symop_operation_xyz
x,y,z
-x,-y,-z
loop_
_atom_site_type_symbol
_atom_site_label
_atom_site_fract_x
_atom_site_fract_y
_atom_site_fract_z
Si Si1 0.250174 0.515727 0.602858
Si Si2 0.052057 0.094459 0.659944
Si Si3 0.370824 0.593833 0.892875
Si Si4 0.125560 0.242259 0.635649
Si Si5 0.275391 0.205977 0.142394
Si Si6 0.359619 0.891182 0.477347
Si Si7 0.744383 0.318589 0.269276
Si Si8 0.335910 0.834391 0.702624
O O1 0.379094 0.584281 0.709453
O O2 0.490211 0.472041 0.269488
O O3 0.191900 0.572720 0.622350
O O4 0.960363 0.433366 0.788511
O O5 0.949872 0.146997 0.724831
O O6 0.384229 0.128641 0.423230
O O7 0.000000 0.000000 0.500000
O O8 0.865990 0.104643 0.983279
O O9 0.546296 0.694642 0.933232
O O10 0.174338 0.224524 0.411182
O O11 0.411094 0.279480 0.501820
O O12 0.932896 0.305039 0.940600
O O13 0.985779 0.146406 0.254355
O O14 0.489730 0.148579 0.845563
O O15 0.427280 0.848265 0.482065
O O16 0.500000 0.000000 0.500000
O O17 0.811543 0.271787 0.268072
#
# Coordination Sequence:
#
# PCOD8041787 Si02
#       8
#     2   2   2   2   2   2   2   2
#     4  10  19  33  58  92 126 151 188 235 312 366
#     4  10  21  36  62  84 115 145 188 264 305 362
#     4  10  21  33  57  91 126 154 187 244 298 372
#     4  10  21  33  57  91 115 156 191 237 312 348
#     4  12  24  42  62  86 127 159 204 250 298 359
#     4  12  28  43  64  83 117 173 210 252 286 347
#     4  10  19  37  59  87 125 153 187 241 299 361
#     4  10  23  41  57  85 116 155 207 235 300 357
#
# _framework density 21.639520000000001
#
# number of rings (size 3 to 8) (size 9 to 14) (size 15 to 20)
#    0.000    1.500    1.250    3.750    7.000    0.000 
#    0.000    0.000    0.000    4.500    0.000    0.000 
#    0.000    0.000    0.000    0.000    0.000    0.000 
#
# Total GULP energy -198219.076269 kJ/mol
# GULP energy per Si atom -12388.692267 kJ/mol
# Density = 2.159027 g / cm^3
# Si number density = 21.639520 Si / 1000 Ang^3
#
#
#
# Elastic Constant Matrix: (Units=GPa)
#
#
# Indices 1 2 3 4 5 6 
#
# 1 250.9667 -165.8040 143.0108 -11.9877 -11.2192 74.2350
# 2 -165.8040 324.2308 -107.9153 12.6436 1.7865 -89.2157
# 3 143.0108 -107.9153 213.0741 -1.6467 -21.4300 63.8626
# 4 -11.9877 12.6436 -1.6467 31.1368 -0.5697 -12.9860
# 5 -11.2192 1.7865 -21.4300 -0.5697 25.4227 -11.7980
# 6 74.2350 -89.2157 63.8626 -12.9860 -11.7980 70.9292
#
#
#
# Elastic Compliance Matrix: (Units=1/GPa)
#
#
# Indices 1 2 3 4 5 6 
#
# 1 0.008437 0.002357 -0.003835 0.001102 -0.000733 -0.002332
# 2 0.002357 0.005738 0.000027 0.000899 0.003196 0.005422
# 3 -0.003835 0.000027 0.008743 -0.002463 0.003941 -0.003619
# 4 0.001102 0.000899 -0.002463 0.036018 0.003504 0.009371
# 5 -0.000733 0.003196 0.003941 0.003504 0.046662 0.009642
# 6 -0.002332 0.005422 -0.003619 0.009371 0.009642 0.029937
#
#
# Mechanical properties :
#
#
# Convention : Reuss Voigt Hill
#
# Bulk Modulus (GPa) = 49.95557 58.53941 54.24749
# Shear Modulus (GPa) = 34.45690 86.76309 60.61000
#
# Velocity S-wave (km/s) = 3.99471 6.33891 5.29809
# Velocity P-wave (km/s) = 6.66426 8.98257 7.90882
#
# Compressibility (1/GPa) = 0.02001779
#
# Stress axis : x y z
#
# Youngs Moduli (GPa) = 118.52271 174.27596 114.37587
#
# Poissons Ratio (x) = -0.41085 0.43863
# Poissons Ratio (y) = -0.27941 -0.00312
# Poissons Ratio (z) = 0.45454 -0.00476
#
# Static dielectric constant tensor:
#      x y z
#    x 3.769340 -0.601500 -0.151330 
#    y -0.601500 5.132620 -0.288940 
#    z -0.151330 -0.288940 4.071540 
# 
# 
# High freq. dielectric constant tensor:
#      x y z
#    x 1.805990 -0.020880 -0.017800 
#    y -0.020880 1.854900 -0.005490 
#    z -0.017800 -0.005490 1.870840 
# 
# From -- ./inp_files/439267.got.cif
#   From: 2010.06.25/outbox.cif.g09.slc.cpg/sg2_220_cif.got.tgz:439267.got - 2010.06.27 13:26:56.
