data_PCOD8041972
_publ_section_title
;
Structure prediction by ZEFSAII (Michael W. Deem and Ramdas Pophale) SiO2 
 PCOD8041972
Probable space group: P -1
;
_chemical_formula_sum "Si O2"
_cell_formula_units_Z 14
_cell_length_a 11.892307
_cell_length_b 15.137662
_cell_length_c 11.592828
_cell_angle_alpha 148.824040
_cell_angle_beta 45.975769
_cell_angle_gamma 142.636852
_cell_volume 654.886174
_symmetry_space_group_name_H-M "P -1"
_symmetry_group_IT_number 2
_symmetry_cell_setting 'triclinic'
loop_
_space_group_symop_operation_xyz
x,y,z
-x,-y,-z
loop_
_atom_site_type_symbol
_atom_site_label
_atom_site_fract_x
_atom_site_fract_y
_atom_site_fract_z
Si Si1 0.113384 0.603832 0.921777
Si Si2 0.754981 0.677288 0.576102
Si Si3 0.467143 0.134343 0.757486
Si Si4 0.846960 0.959856 0.274048
Si Si5 0.784370 0.586338 0.030309
Si Si6 0.634350 0.020654 0.696517
Si Si7 0.416989 0.346061 0.557717
O O1 0.214904 0.497644 0.683524
O O2 0.262591 0.834919 0.107036
O O3 0.000000 0.500000 0.000000
O O4 0.973633 0.590209 0.908477
O O5 0.601096 0.572939 0.671062
O O6 0.670417 0.740397 0.602604
O O7 0.937042 0.874512 0.716018
O O8 0.258463 0.074550 0.811286
O O9 0.493662 0.079539 0.808185
O O10 0.500000 0.000000 0.500000
O O11 0.611926 0.365246 0.875036
O O12 0.813415 0.743254 0.086466
O O13 0.776942 0.043751 0.520495
O O14 0.742794 0.651176 0.254686
O O15 0.526296 0.795490 0.575377
#
# Coordination Sequence:
#
# PCOD8041972 Si02
#       7
#     2   2   2   2   2   2   2
#     4  12  18  32  59  84 108 139 180 225 266 314
#     4  11  21  37  54  83 113 142 178 224 270 318
#     4  10  19  34  56  83 108 137 181 231 264 312
#     4  10  20  34  56  80 107 143 186 222 261 320
#     4  11  20  36  58  82 107 143 181 222 271 320
#     4  10  19  34  55  82 110 144 180 221 273 315
#     4  10  22  36  56  80 113 144 176 222 275 324
#
# _framework density 21.377759999999999
#
# number of rings (size 3 to 8) (size 9 to 14) (size 15 to 20)
#    0.000    1.429    4.286    2.143    0.000    2.857 
#    0.000    2.857    0.000    0.000    0.000    0.000 
#    0.000    0.000    0.000    0.000    0.000    0.000 
#
# Total GULP energy -173578.660629 kJ/mol
# GULP energy per Si atom -12398.475759 kJ/mol
# Density = 2.132910 g / cm^3
# Si number density = 21.377760 Si / 1000 Ang^3
#
#
#
# Elastic Constant Matrix: (Units=GPa)
#
#
# Indices 1 2 3 4 5 6 
#
# 1 155.6695 58.3830 18.2346 29.1252 -7.8677 16.7981
# 2 58.3830 95.1781 8.9766 30.8210 -1.8771 4.1502
# 3 18.2346 8.9766 48.6573 28.7023 -3.0212 -2.0622
# 4 29.1252 30.8210 28.7023 37.0470 5.8893 3.7624
# 5 -7.8677 -1.8771 -3.0212 5.8893 31.4784 13.5375
# 6 16.7981 4.1502 -2.0622 3.7624 13.5375 25.6915
#
#
#
# Elastic Compliance Matrix: (Units=1/GPa)
#
#
# Indices 1 2 3 4 5 6 
#
# 1 0.010224 -0.004312 -0.000468 -0.004273 0.006950 -0.009063
# 2 -0.004312 0.019532 0.011996 -0.023083 0.004957 0.001395
# 3 -0.000468 0.011996 0.048897 -0.049902 0.013575 0.002448
# 4 -0.004273 -0.023083 -0.049902 0.092022 -0.025520 0.002488
# 5 0.006950 0.004957 0.013575 -0.025520 0.051851 -0.027840
# 6 -0.009063 0.001395 0.002448 0.002488 -0.027840 0.059125
#
#
# Mechanical properties :
#
#
# Convention : Reuss Voigt Hill
#
# Bulk Modulus (GPa) = 10.74278 52.29924 31.52101
# Shear Modulus (GPa) = 16.76456 33.10409 24.93433
#
# Velocity S-wave (km/s) = 2.80341 3.93941 3.41892
# Velocity P-wave (km/s) = 3.93890 6.72379 5.51018
#
# Compressibility (1/GPa) = 0.09308575
#
# Stress axis : x y z
#
# Youngs Moduli (GPa) = 97.80476 51.19801 20.45095
#
# Poissons Ratio (x) = 0.22075 0.00958
# Poissons Ratio (y) = 0.42171 -0.24533
# Poissons Ratio (z) = 0.04581 -0.61417
#
# Static dielectric constant tensor:
#      x y z
#    x 4.806490 0.016770 -0.076850 
#    y 0.016770 3.622560 0.115400 
#    z -0.076850 0.115400 3.840580 
# 
# 
# High freq. dielectric constant tensor:
#      x y z
#    x 1.847840 0.002780 -0.013210 
#    y 0.002780 1.813790 0.026430 
#    z -0.013210 0.026430 1.828350 
# 
# From -- ./inp_files/153961.got.cif
#   From: 2010.06.25/outbox.cif.g09.slc.cpg/sg2_77_cif.got.tgz:153961.got - 2010.06.27 13:26:56.
