data_PCOD8041384
_publ_section_title
;
Structure prediction by ZEFSAII (Michael W. Deem and Ramdas Pophale) SiO2 
 PCOD8041384
Probable space group: P -1
;
_chemical_formula_sum "Si O2"
_cell_formula_units_Z 16
_cell_length_a 29.131089
_cell_length_b 14.889470
_cell_length_c 11.440423
_cell_angle_alpha 152.192206
_cell_angle_beta 28.445805
_cell_angle_gamma 157.382042
_cell_volume 834.000207
_symmetry_space_group_name_H-M "P -1"
_symmetry_group_IT_number 2
_symmetry_cell_setting 'triclinic'
loop_
_space_group_symop_operation_xyz
x,y,z
-x,-y,-z
loop_
_atom_site_type_symbol
_atom_site_label
_atom_site_fract_x
_atom_site_fract_y
_atom_site_fract_z
Si Si1 0.687431 0.884215 0.696491
Si Si2 0.375427 0.889960 0.079364
Si Si3 0.621306 0.418567 0.693754
Si Si4 0.945966 0.143413 0.295654
Si Si5 0.426265 0.610352 0.494266
Si Si6 0.860092 0.289416 0.450382
Si Si7 0.705844 0.921293 0.168346
Si Si8 0.671568 0.054962 0.162442
O O1 0.590855 0.594156 0.619708
O O2 0.609618 0.897211 0.785807
O O3 0.814448 0.956106 0.443771
O O4 0.730585 0.072837 0.926439
O O5 0.256140 0.756282 0.277475
O O6 0.350518 0.688887 0.810378
O O7 0.500000 0.000000 0.000000
O O8 0.630662 0.506286 0.640536
O O9 0.692668 0.310354 0.425686
O O10 0.475608 0.201284 0.807186
O O11 0.686789 0.665010 0.912508
O O12 0.925021 0.208580 0.289841
O O13 0.041585 0.412161 0.459349
O O14 0.000000 0.000000 0.000000
O O15 0.576327 0.853639 0.426632
O O16 0.818756 0.126477 0.237880
O O17 0.742305 0.045567 0.101136
#
# Coordination Sequence:
#
# PCOD8041384 Si02
#       8
#     2   2   2   2   2   2   2   2
#     4  11  21  37  62  86 116 155 203 239 286 354
#     4  11  22  36  56  91 122 150 191 246 297 347
#     4  10  19  32  55  85 127 163 185 225 296 359
#     4  10  23  45  64  80 110 163 207 242 290 342
#     4  11  19  34  56  87 126 154 188 234 293 356
#     4  10  23  42  61  86 118 154 197 247 296 349
#     4  11  20  35  57  88 125 149 186 243 295 351
#     4  10  19  33  56  88 117 163 191 227 295 357
#
# _framework density 19.184647999999999
#
# number of rings (size 3 to 8) (size 9 to 14) (size 15 to 20)
#    0.000    1.500    5.000    1.500    0.000    1.500 
#    2.250    0.625    0.000    1.500    0.000    0.000 
#    0.000    0.000    0.000    0.000    0.000    0.000 
#
# Total GULP energy -198403.265030 kJ/mol
# GULP energy per Si atom -12400.204064 kJ/mol
# Density = 1.914098 g / cm^3
# Si number density = 19.184648 Si / 1000 Ang^3
#
#
#
# Elastic Constant Matrix: (Units=GPa)
#
#
# Indices 1 2 3 4 5 6 
#
# 1 96.3872 46.9044 45.5704 6.4633 -3.8302 1.6084
# 2 46.9044 57.6344 22.7540 14.9891 -5.2024 0.9910
# 3 45.5704 22.7540 115.3562 11.3008 -9.7872 3.4762
# 4 6.4633 14.9891 11.3008 29.2448 -0.6781 5.8643
# 5 -3.8302 -5.2024 -9.7872 -0.6781 30.9382 7.2085
# 6 1.6084 0.9910 3.4762 5.8643 7.2085 31.3387
#
#
#
# Elastic Compliance Matrix: (Units=1/GPa)
#
#
# Indices 1 2 3 4 5 6 
#
# 1 0.020386 -0.016080 -0.005590 0.005989 -0.001664 -0.000656
# 2 -0.016080 0.034001 0.001325 -0.014614 0.003467 0.001540
# 3 -0.005590 0.001325 0.011270 -0.003501 0.003276 -0.001104
# 4 0.005989 -0.014614 -0.003501 0.043218 -0.000125 -0.007515
# 5 -0.001664 0.003467 0.003276 -0.000125 0.035733 -0.008583
# 6 -0.000656 0.001540 -0.001104 -0.007515 -0.008583 0.035397
#
#
# Mechanical properties :
#
#
# Convention : Reuss Voigt Hill
#
# Bulk Modulus (GPa) = 40.05286 55.53726 47.79506
# Shear Modulus (GPa) = 21.83243 28.58093 25.20668
#
# Velocity S-wave (km/s) = 3.37711 3.86396 3.62871
# Velocity P-wave (km/s) = 6.01077 6.99418 6.52104
#
# Compressibility (1/GPa) = 0.02496700
#
# Stress axis : x y z
#
# Youngs Moduli (GPa) = 49.05382 29.41063 88.73274
#
# Poissons Ratio (x) = 0.47293 0.49598
# Poissons Ratio (y) = 0.78880 -0.11757
# Poissons Ratio (z) = 0.27419 -0.03897
#
# Static dielectric constant tensor:
#      x y z
#    x 3.522230 -0.181400 0.037080 
#    y -0.181400 3.274760 0.063090 
#    z 0.037080 0.063090 3.700930 
# 
# 
# High freq. dielectric constant tensor:
#      x y z
#    x 1.742490 -0.021240 0.003890 
#    y -0.021240 1.718440 0.012430 
#    z 0.003890 0.012430 1.759000 
# 
# From -- ./inp_files/466856.got.cif
#   From: 2010.06.25/outbox.cif.g09.slc.cpg/sg2_234_cif.got.tgz:466856.got - 2010.06.27 13:26:56.
