data_PCOD8041938
_publ_section_title
;
Structure prediction by ZEFSAII (Michael W. Deem and Ramdas Pophale) SiO2 
 PCOD8041938
Probable space group: P -1
;
_chemical_formula_sum "Si O2"
_cell_formula_units_Z 16
_cell_length_a 11.860123
_cell_length_b 11.300161
_cell_length_c 14.643480
_cell_angle_alpha 69.467507
_cell_angle_beta 87.530654
_cell_angle_gamma 31.133314
_cell_volume 805.160511
_symmetry_space_group_name_H-M "P -1"
_symmetry_group_IT_number 2
_symmetry_cell_setting 'triclinic'
loop_
_space_group_symop_operation_xyz
x,y,z
-x,-y,-z
loop_
_atom_site_type_symbol
_atom_site_label
_atom_site_fract_x
_atom_site_fract_y
_atom_site_fract_z
Si Si1 0.159553 0.523848 0.224260
Si Si2 0.119856 0.800185 0.679305
Si Si3 0.858265 0.709531 0.028841
Si Si4 0.617144 0.316148 0.457626
Si Si5 0.256814 0.091727 0.614796
Si Si6 0.982291 0.475351 0.363952
Si Si7 0.916062 0.235298 0.678592
Si Si8 0.326648 0.331707 0.828165
O O1 0.022378 0.777874 0.216206
O O2 0.031589 0.635745 0.099005
O O3 0.123389 0.429901 0.304599
O O4 0.463065 0.244004 0.279469
O O5 0.328643 0.651492 0.642709
O O6 0.239187 0.561698 0.794704
O O7 0.884899 0.987415 0.572509
O O8 0.023927 0.988803 0.714072
O O9 0.770312 0.681477 0.100371
O O10 0.000000 0.500000 0.000000
O O11 0.633994 0.018288 0.907518
O O12 0.500000 0.500000 0.500000
O O13 0.396406 0.438548 0.404028
O O14 0.205414 0.267966 0.627459
O O15 0.213962 0.166864 0.489224
O O16 0.043167 0.201037 0.611518
O O17 0.786288 0.578420 0.292624
#
# Coordination Sequence:
#
# PCOD8041938 Si02
#       8
#     2   2   2   2   2   2   2   2
#     4  10  20  36  58  80 113 154 193 238 290 344
#     4  10  21  37  57  85 120 157 189 236 284 347
#     4  10  22  42  61  85 110 150 197 250 292 335
#     4   9  20  35  54  85 121 157 192 224 283 343
#     4  10  19  34  54  83 119 151 183 235 290 347
#     4   9  20  33  52  86 112 148 189 233 290 351
#     4  10  21  35  55  85 119 156 190 230 286 351
#     4  10  22  38  61  83 116 147 196 241 289 340
#
# _framework density 19.871815000000002
#
# number of rings (size 3 to 8) (size 9 to 14) (size 15 to 20)
#    0.000    2.250    0.000    1.875    7.000    3.000 
#    4.500    0.625    0.000    3.750    0.000    0.000 
#    0.000    0.000    0.000    0.000    0.000    0.000 
#
# Total GULP energy -198238.657248 kJ/mol
# GULP energy per Si atom -12389.916078 kJ/mol
# Density = 1.982659 g / cm^3
# Si number density = 19.871815 Si / 1000 Ang^3
#
#
#
# Elastic Constant Matrix: (Units=GPa)
#
#
# Indices 1 2 3 4 5 6 
#
# 1 97.2055 45.3267 50.8665 -13.1616 20.5220 9.0937
# 2 45.3267 93.2178 42.8652 -9.5329 15.8147 9.3686
# 3 50.8665 42.8652 96.9780 -18.4102 17.4103 8.9043
# 4 -13.1616 -9.5329 -18.4102 29.3830 7.9113 5.3466
# 5 20.5220 15.8147 17.4103 7.9113 30.5578 -2.8060
# 6 9.0937 9.3686 8.9043 5.3466 -2.8060 41.6669
#
#
#
# Elastic Compliance Matrix: (Units=1/GPa)
#
#
# Indices 1 2 3 4 5 6 
#
# 1 0.017641 -0.003943 -0.003999 0.007431 -0.009793 -0.003722
# 2 -0.003943 0.015426 -0.003118 0.002997 -0.004577 -0.002634
# 3 -0.003999 -0.003118 0.018201 0.012003 -0.009592 -0.004502
# 4 0.007431 0.002997 0.012003 0.056285 -0.029242 -0.014052
# 5 -0.009793 -0.004577 -0.009592 -0.029242 0.055875 0.012731
# 6 -0.003722 -0.002634 -0.004502 -0.014052 0.012731 0.029027
#
#
# Mechanical properties :
#
#
# Convention : Reuss Voigt Hill
#
# Bulk Modulus (GPa) = 34.30802 62.83535 48.57169
# Shear Modulus (GPa) = 22.29224 30.21105 26.25165
#
# Velocity S-wave (km/s) = 3.35296 3.90333 3.63857
# Velocity P-wave (km/s) = 5.68260 7.21135 6.49213
#
# Compressibility (1/GPa) = 0.02914770
#
# Stress axis : x y z
#
# Youngs Moduli (GPa) = 56.68615 64.82407 54.94061
#
# Poissons Ratio (x) = 0.25562 0.21973
# Poissons Ratio (y) = 0.22353 0.17130
# Poissons Ratio (z) = 0.22671 0.20211
#
# Static dielectric constant tensor:
#      x y z
#    x 3.787340 0.024200 0.392500 
#    y 0.024200 3.500820 -0.013300 
#    z 0.392500 -0.013300 3.670360 
# 
# 
# High freq. dielectric constant tensor:
#      x y z
#    x 1.775320 0.004780 0.021130 
#    y 0.004780 1.784010 0.000080 
#    z 0.021130 0.000080 1.748210 
# 
# From -- ./inp_files/66430.got.cif
#   From: 2010.06.25/outbox.cif.g09.slc.cpg/sg2_34_cif.got.tgz:66430.got - 2010.06.27 13:26:56.
