data_PCOD8041591
_publ_section_title
;
Structure prediction by ZEFSAII (Michael W. Deem and Ramdas Pophale) SiO2 
 PCOD8041591
Probable space group: P -1
;
_chemical_formula_sum "Si O2"
_cell_formula_units_Z 16
_cell_length_a 9.118475
_cell_length_b 14.843603
_cell_length_c 15.961392
_cell_angle_alpha 37.822590
_cell_angle_beta 36.390647
_cell_angle_gamma 48.614317
_cell_volume 784.086814
_symmetry_space_group_name_H-M "P -1"
_symmetry_group_IT_number 2
_symmetry_cell_setting 'triclinic'
loop_
_space_group_symop_operation_xyz
x,y,z
-x,-y,-z
loop_
_atom_site_type_symbol
_atom_site_label
_atom_site_fract_x
_atom_site_fract_y
_atom_site_fract_z
Si Si1 0.290127 0.432389 0.093152
Si Si2 0.577987 0.711872 0.034929
Si Si3 0.055857 0.863431 0.171176
Si Si4 0.709792 0.835740 0.206857
Si Si5 0.140848 0.319392 0.910392
Si Si6 0.850901 0.043556 0.279465
Si Si7 0.265686 0.015350 0.323710
Si Si8 0.350861 0.130568 0.364257
O O1 0.384078 0.396814 0.981846
O O2 0.220606 0.290178 0.283331
O O3 0.056476 0.546344 0.110888
O O4 0.500000 0.500000 0.000000
O O5 0.730792 0.857065 0.841376
O O6 0.287534 0.745270 0.161320
O O7 0.678523 0.635352 0.131195
O O8 0.862061 0.785031 0.257413
O O9 0.914541 0.903134 0.293631
O O10 0.164477 0.014180 0.981408
O O11 0.731458 0.712778 0.214685
O O12 0.410799 0.864921 0.334784
O O13 0.043771 0.165843 0.097998
O O14 0.851500 0.970295 0.425804
O O15 0.586635 0.131324 0.316166
O O16 0.445584 0.061217 0.283493
O O17 0.000000 0.000000 0.500000
#
# Coordination Sequence:
#
# PCOD8041591 Si02
#       8
#     2   2   2   2   2   2   2   2
#     4  11  21  38  58  79 112 153 190 225 278 338
#     4  10  22  34  55  85 113 146 189 235 276 328
#     4   9  17  33  55  81 113 144 186 235 275 326
#     4   9  18  31  55  82 111 147 188 228 278 330
#     4  11  21  35  57  84 113 147 189 233 275 329
#     4  10  19  33  59  83 113 140 188 233 279 326
#     4  10  19  33  54  83 120 146 182 229 291 329
#     4  10  20  34  54  85 112 147 183 232 277 333
#
# _framework density 20.405904
#
# number of rings (size 3 to 8) (size 9 to 14) (size 15 to 20)
#    0.000    2.000    2.500    1.875    3.500    5.500 
#    0.000    0.000    0.000   12.750    0.000    0.000 
#    0.000    0.000    0.000    0.000    0.000    0.000 
#
# Total GULP energy -198243.752023 kJ/mol
# GULP energy per Si atom -12390.234501 kJ/mol
# Density = 2.035946 g / cm^3
# Si number density = 20.405904 Si / 1000 Ang^3
#
#
#
# Elastic Constant Matrix: (Units=GPa)
#
#
# Indices 1 2 3 4 5 6 
#
# 1 105.5970 70.2482 10.7973 2.2264 22.3103 -7.4030
# 2 70.2482 166.6547 31.8833 20.1188 15.1456 -10.1698
# 3 10.7973 31.8833 40.8983 8.4298 12.2007 -3.1625
# 4 2.2264 20.1188 8.4298 25.1141 -3.3208 -3.8460
# 5 22.3103 15.1456 12.2007 -3.3208 29.3787 3.4692
# 6 -7.4030 -10.1698 -3.1625 -3.8460 3.4692 31.5594
#
#
#
# Elastic Compliance Matrix: (Units=1/GPa)
#
#
# Indices 1 2 3 4 5 6 
#
# 1 0.015766 -0.006423 0.003920 0.001558 -0.010511 0.003367
# 2 -0.006423 0.010375 -0.005524 -0.005667 0.001127 0.000469
# 3 0.003920 -0.005524 0.034607 -0.009146 -0.015917 0.003242
# 4 0.001558 -0.005667 -0.009146 0.049088 0.010800 0.002418
# 5 -0.010511 0.001127 -0.015917 0.010800 0.050203 -0.007900
# 6 0.003367 0.000469 0.003242 0.002418 -0.007900 0.034115
#
#
# Mechanical properties :
#
#
# Convention : Reuss Voigt Hill
#
# Bulk Modulus (GPa) = 22.37512 59.88975 41.13243
# Shear Modulus (GPa) = 22.21170 30.55853 26.38512
#
# Velocity S-wave (km/s) = 3.30281 3.87400 3.59975
# Velocity P-wave (km/s) = 5.05308 7.03018 6.12197
#
# Compressibility (1/GPa) = 0.04469249
#
# Stress axis : x y z
#
# Youngs Moduli (GPa) = 63.42828 96.38607 28.89581
#
# Poissons Ratio (x) = 0.61908 -0.11326
# Poissons Ratio (y) = 0.40739 0.15963
# Poissons Ratio (z) = -0.24862 0.53248
#
# Static dielectric constant tensor:
#      x y z
#    x 3.806500 0.168090 0.174760 
#    y 0.168090 3.709300 0.211980 
#    z 0.174760 0.211980 3.428340 
# 
# 
# High freq. dielectric constant tensor:
#      x y z
#    x 1.816070 -0.000800 0.014950 
#    y -0.000800 1.792770 0.024280 
#    z 0.014950 0.024280 1.756440 
# 
# From -- ./inp_files/239558.got.cif
#   From: 2010.06.25/outbox.cif.g09.slc.cpg/sg2_120_cif.got.tgz:239558.got - 2010.06.27 13:26:56.
