data_PCOD8041561
_publ_section_title
;
Structure prediction by ZEFSAII (Michael W. Deem and Ramdas Pophale) SiO2 
 PCOD8041561
Probable space group: P -1
;
_chemical_formula_sum "Si O2"
_cell_formula_units_Z 14
_cell_length_a 12.996867
_cell_length_b 19.566821
_cell_length_c 9.989395
_cell_angle_alpha 142.511824
_cell_angle_beta 145.292072
_cell_angle_gamma 36.954805
_cell_volume 797.404669
_symmetry_space_group_name_H-M "P -1"
_symmetry_group_IT_number 2
_symmetry_cell_setting 'triclinic'
loop_
_space_group_symop_operation_xyz
x,y,z
-x,-y,-z
loop_
_atom_site_type_symbol
_atom_site_label
_atom_site_fract_x
_atom_site_fract_y
_atom_site_fract_z
Si Si1 0.712548 0.151862 0.360859
Si Si2 0.546432 0.928587 0.231631
Si Si3 0.550123 0.633467 0.144524
Si Si4 0.125996 0.793284 0.988934
Si Si5 0.706665 0.820208 0.516935
Si Si6 0.370044 0.631247 0.214290
Si Si7 0.864072 0.982676 0.509698
O O1 0.613360 0.296083 0.523357
O O2 0.732666 0.065093 0.375247
O O3 0.568188 0.134878 0.072749
O O4 0.927503 0.121374 0.480065
O O5 0.602921 0.857363 0.321021
O O6 0.404974 0.073773 0.327974
O O7 0.744194 0.912807 0.339942
O O8 0.323142 0.726944 0.003197
O O9 0.700281 0.693357 0.361392
O O10 0.551589 0.610816 0.272295
O O11 0.621508 0.501517 0.940327
O O12 0.160897 0.716261 0.046549
O O13 0.093939 0.932898 0.203394
O O14 0.936359 0.795792 0.712059
#
# Coordination Sequence:
#
# PCOD8041561 Si02
#       7
#     2   2   2   2   2   2   2
#     4  10  19  35  53  77 104 135 171 215 260 305
#     4  11  22  33  49  81 108 141 168 208 257 314
#     4   9  18  37  54  81 101 132 174 220 253 302
#     4   9  17  33  52  80 102 130 169 216 254 301
#     4  11  21  32  53  77 109 139 172 205 260 306
#     4   8  18  37  57  77 102 132 175 216 263 291
#     4  10  19  33  54  77 106 132 172 215 263 301
#
# _framework density 17.556958000000002
#
# number of rings (size 3 to 8) (size 9 to 14) (size 15 to 20)
#    0.857    1.429    2.857    0.429    0.000    2.286 
#    0.000    0.714    0.000    1.714    0.000    0.000 
#    0.000    0.000    0.000    0.000    0.000    0.000 
#
# Total GULP energy -173565.116767 kJ/mol
# GULP energy per Si atom -12397.508340 kJ/mol
# Density = 1.751700 g / cm^3
# Si number density = 17.556958 Si / 1000 Ang^3
#
#
#
# Elastic Constant Matrix: (Units=GPa)
#
#
# Indices 1 2 3 4 5 6 
#
# 1 50.0112 11.7054 28.4248 5.2245 -1.9078 -10.9622
# 2 11.7054 41.1395 40.4613 13.1447 -11.6354 -6.5002
# 3 28.4248 40.4613 124.8990 3.5429 -13.2324 -8.1092
# 4 5.2245 13.1447 3.5429 27.4331 -12.0836 -2.6175
# 5 -1.9078 -11.6354 -13.2324 -12.0836 17.3940 0.1821
# 6 -10.9622 -6.5002 -8.1092 -2.6175 0.1821 18.1102
#
#
#
# Elastic Compliance Matrix: (Units=1/GPa)
#
#
# Indices 1 2 3 4 5 6 
#
# 1 0.026309 0.000447 -0.005686 -0.005520 -0.005110 0.012793
# 2 0.000447 0.046016 -0.012904 -0.015012 0.010494 0.008734
# 3 -0.005686 -0.012904 0.013978 0.008660 0.007400 -0.000638
# 4 -0.005520 -0.015012 0.008660 0.060678 0.038056 0.003535
# 5 -0.005110 0.010494 0.007400 0.038056 0.095929 0.008523
# 6 0.012793 0.008734 -0.000638 0.003535 0.008523 0.066235
#
#
# Mechanical properties :
#
#
# Convention : Reuss Voigt Hill
#
# Bulk Modulus (GPa) = 19.99381 41.91476 30.95429
# Shear Modulus (GPa) = 13.80817 21.61801 17.71309
#
# Velocity S-wave (km/s) = 2.80747 3.51281 3.17975
# Velocity P-wave (km/s) = 4.68208 6.35441 5.58123
#
# Compressibility (1/GPa) = 0.05001548
#
# Stress axis : x y z
#
# Youngs Moduli (GPa) = 38.01016 21.73151 71.54144
#
# Poissons Ratio (x) = -0.00971 0.40681
# Poissons Ratio (y) = -0.01698 0.92318
# Poissons Ratio (z) = 0.21614 0.28043
#
# Static dielectric constant tensor:
#      x y z
#    x 3.077290 -0.129660 -0.037900 
#    y -0.129660 3.077060 0.100900 
#    z -0.037900 0.100900 3.110460 
# 
# 
# High freq. dielectric constant tensor:
#      x y z
#    x 1.662700 -0.009800 0.004560 
#    y -0.009800 1.657980 0.009280 
#    z 0.004560 0.009280 1.671020 
# 
# From -- ./inp_files/280179.got.cif
#   From: 2010.06.25/outbox.cif.g09.slc.cpg/sg2_141_cif.got.tgz:280179.got - 2010.06.27 13:26:56.
