data_PCOD8041812
_publ_section_title
;
Structure prediction by ZEFSAII (Michael W. Deem and Ramdas Pophale) SiO2 
 PCOD8041812
Probable space group: P -1
;
_chemical_formula_sum "Si O2"
_cell_formula_units_Z 16
_cell_length_a 12.151909
_cell_length_b 9.695138
_cell_length_c 18.245854
_cell_angle_alpha 114.343167
_cell_angle_beta 28.461445
_cell_angle_gamma 126.735234
_cell_volume 783.818764
_symmetry_space_group_name_H-M "P -1"
_symmetry_group_IT_number 2
_symmetry_cell_setting 'triclinic'
loop_
_space_group_symop_operation_xyz
x,y,z
-x,-y,-z
loop_
_atom_site_type_symbol
_atom_site_label
_atom_site_fract_x
_atom_site_fract_y
_atom_site_fract_z
Si Si1 0.929216 0.617678 0.193986
Si Si2 0.482969 0.501080 0.096416
Si Si3 0.393331 0.386782 0.375906
Si Si4 0.084090 0.125261 0.626189
Si Si5 0.921012 0.420464 0.397227
Si Si6 0.533866 0.772113 0.847395
Si Si7 0.411464 0.967337 0.461315
Si Si8 0.927013 0.303218 0.201698
O O1 0.688419 0.563746 0.264327
O O2 0.893104 0.716284 0.304569
O O3 0.874405 0.427409 0.208643
O O4 0.234803 0.745835 0.009182
O O5 0.447698 0.318247 0.108384
O O6 0.230059 0.518774 0.271536
O O7 0.500000 0.500000 0.000000
O O8 0.780996 0.669918 0.985102
O O9 0.275352 0.218931 0.463861
O O10 0.170433 0.440445 0.513310
O O11 0.420420 0.324099 0.267311
O O12 0.190330 0.020009 0.586898
O O13 0.767174 0.984574 0.758097
O O14 0.920215 0.358394 0.301441
O O15 0.724071 0.243112 0.523557
O O16 0.687929 0.095632 0.280293
O O17 0.500000 0.000000 0.500000
#
# Coordination Sequence:
#
# PCOD8041812 Si02
#       8
#     2   2   2   2   2   2   2   2
#     4  11  21  40  65  90 122 163 213 253 304 372
#     4   9  19  37  60  84 120 162 204 249 305 366
#     4  12  24  40  64  93 130 165 204 257 320 368
#     4  12  22  41  65  94 123 166 215 256 301 372
#     4  10  19  36  58  88 118 157 205 253 301 365
#     4  11  25  41  61  95 130 164 203 261 320 365
#     4  10  19  33  59  92 119 150 208 262 297 347
#     4   9  17  33  59  89 112 155 206 256 294 354
#
# _framework density 20.412880999999999
#
# number of rings (size 3 to 8) (size 9 to 14) (size 15 to 20)
#    0.000    1.500    3.750    3.000    0.000    0.500 
#    0.000    0.000    0.000    3.000    0.000    0.000 
#    0.000    0.000    0.000    0.000    0.000    0.000 
#
# Total GULP energy -198334.651267 kJ/mol
# GULP energy per Si atom -12395.915704 kJ/mol
# Density = 2.036642 g / cm^3
# Si number density = 20.412881 Si / 1000 Ang^3
#
#
#
# Elastic Constant Matrix: (Units=GPa)
#
#
# Indices 1 2 3 4 5 6 
#
# 1 58.7703 31.9141 35.3224 -1.4309 -9.4212 -1.8347
# 2 31.9141 67.2248 37.9183 -20.4951 -4.0722 3.6762
# 3 35.3224 37.9183 85.5350 -26.1557 -23.1706 2.3609
# 4 -1.4309 -20.4951 -26.1557 35.0640 6.2732 -7.0717
# 5 -9.4212 -4.0722 -23.1706 6.2732 39.9869 0.2700
# 6 -1.8347 3.6762 2.3609 -7.0717 0.2700 25.5328
#
#
#
# Elastic Compliance Matrix: (Units=1/GPa)
#
#
# Indices 1 2 3 4 5 6 
#
# 1 0.030377 -0.012607 -0.010887 -0.014372 0.001812 0.001005
# 2 -0.012607 0.026767 -0.003939 0.012845 -0.004537 -0.000790
# 3 -0.010887 -0.003939 0.024759 0.014369 0.009117 0.001379
# 4 -0.014372 0.012845 0.014369 0.048256 -0.001384 0.009169
# 5 0.001812 -0.004537 0.009117 -0.001384 0.030478 -0.000765
# 6 0.001005 -0.000790 0.001379 0.009169 -0.000765 0.041771
#
#
# Mechanical properties :
#
#
# Convention : Reuss Voigt Hill
#
# Bulk Modulus (GPa) = 36.98779 46.87107 41.92943
# Shear Modulus (GPa) = 18.77677 27.20841 22.99259
#
# Velocity S-wave (km/s) = 3.03619 3.65486 3.35979
# Velocity P-wave (km/s) = 5.51819 6.38921 5.96961
#
# Compressibility (1/GPa) = 0.02703595
#
# Stress axis : x y z
#
# Youngs Moduli (GPa) = 32.91989 37.35982 40.38967
#
# Poissons Ratio (x) = 0.47099 0.43973
# Poissons Ratio (y) = 0.41502 0.15910
# Poissons Ratio (z) = 0.35841 0.14717
#
# Static dielectric constant tensor:
#      x y z
#    x 3.853850 -0.097010 -0.298880 
#    y -0.097010 3.680230 -0.596830 
#    z -0.298880 -0.596830 4.315270 
# 
# 
# High freq. dielectric constant tensor:
#      x y z
#    x 1.796230 -0.012960 -0.022760 
#    y -0.012960 1.774320 -0.031630 
#    z -0.022760 -0.031630 1.804850 
# 
# From -- ./inp_files/243121.got.cif
#   From: 2010.06.25/outbox.cif.g09.slc.cpg/sg2_122_cif.got.tgz:243121.got - 2010.06.27 13:26:56.
