data_PCOD8041154
_publ_section_title
;
Structure prediction by ZEFSAII (Michael W. Deem and Ramdas Pophale) SiO2 
 PCOD8041154
Probable space group: P -1
;
_chemical_formula_sum "Si O2"
_cell_formula_units_Z 16
_cell_length_a 14.639746
_cell_length_b 16.811502
_cell_length_c 13.663821
_cell_angle_alpha 156.847433
_cell_angle_beta 125.929029
_cell_angle_gamma 42.569620
_cell_volume 841.266783
_symmetry_space_group_name_H-M "P -1"
_symmetry_group_IT_number 2
_symmetry_cell_setting 'triclinic'
loop_
_space_group_symop_operation_xyz
x,y,z
-x,-y,-z
loop_
_atom_site_type_symbol
_atom_site_label
_atom_site_fract_x
_atom_site_fract_y
_atom_site_fract_z
Si Si1 0.656890 0.914502 0.514845
Si Si2 0.814428 0.334495 0.992265
Si Si3 0.331418 0.678386 0.938912
Si Si4 0.314510 0.023755 0.788412
Si Si5 0.667499 0.526819 0.698729
Si Si6 0.369013 0.795072 0.353718
Si Si7 0.566416 0.480229 0.388764
Si Si8 0.921712 0.016537 0.370261
O O1 0.500000 0.000000 0.500000
O O2 0.695451 0.980853 0.512853
O O3 0.772363 0.616994 0.279244
O O4 0.665307 0.080979 0.790499
O O5 0.715036 0.322621 0.839858
O O6 0.802887 0.264955 0.019511
O O7 0.975195 0.124079 0.817305
O O8 0.462979 0.444849 0.822586
O O9 0.340509 0.600855 0.743872
O O10 0.345723 0.933537 0.595557
O O11 0.440006 0.787337 0.665510
O O12 0.157092 0.112386 0.814741
O O13 0.319877 0.253901 0.070151
O O14 0.671928 0.397375 0.452701
O O15 0.518735 0.640362 0.792256
O O16 0.803497 0.317816 0.613639
O O17 0.000000 0.000000 0.500000
#
# Coordination Sequence:
#
# PCOD8041154 Si02
#       8
#     2   2   2   2   2   2   2   2
#     4  11  19  29  53  79 112 150 183 225 283 341
#     4  11  21  36  50  79 122 147 184 231 274 340
#     4  10  20  34  54  84 111 143 189 236 288 331
#     4  10  21  35  62  87 112 150 193 233 285 344
#     4  10  22  40  62  83 115 151 192 239 287 336
#     4  10  19  31  51  84 114 144 182 232 284 332
#     4   9  21  40  62  88 111 143 193 250 289 325
#     4  11  24  39  55  82 123 158 187 228 282 345
#
# _framework density 19.018937000000001
#
# number of rings (size 3 to 8) (size 9 to 14) (size 15 to 20)
#    0.000    1.750    3.750    1.125    3.500    2.500 
#    0.000    0.625    0.000    1.500    0.000    0.000 
#    0.000    0.000    0.000    0.000    0.000    0.000 
#
# Total GULP energy -198325.905976 kJ/mol
# GULP energy per Si atom -12395.369124 kJ/mol
# Density = 1.897565 g / cm^3
# Si number density = 19.018937 Si / 1000 Ang^3
#
#
#
# Elastic Constant Matrix: (Units=GPa)
#
#
# Indices 1 2 3 4 5 6 
#
# 1 104.8509 25.8776 47.2104 -2.4668 4.1723 -6.6832
# 2 25.8776 75.5895 18.0726 -8.8346 -1.8286 7.3962
# 3 47.2104 18.0726 79.7393 -5.8091 13.3087 -4.0064
# 4 -2.4668 -8.8346 -5.8091 11.9969 2.0501 -1.9468
# 5 4.1723 -1.8286 13.3087 2.0501 34.9823 0.4638
# 6 -6.6832 7.3962 -4.0064 -1.9468 0.4638 24.1610
#
#
#
# Elastic Compliance Matrix: (Units=1/GPa)
#
#
# Indices 1 2 3 4 5 6 
#
# 1 0.014010 -0.003624 -0.007739 -0.003189 0.001225 0.003421
# 2 -0.003624 0.016500 -0.001396 0.009603 0.001336 -0.005537
# 3 -0.007739 -0.001396 0.019332 0.008315 -0.007022 0.002297
# 4 -0.003189 0.009603 0.008315 0.096045 -0.007982 0.005449
# 5 0.001225 0.001336 -0.007022 -0.007982 0.031682 -0.002486
# 6 0.003421 -0.005537 0.002297 0.005449 -0.002486 0.044898
#
#
# Mechanical properties :
#
#
# Convention : Reuss Voigt Hill
#
# Bulk Modulus (GPa) = 41.10815 49.16676 45.13745
# Shear Modulus (GPa) = 19.52415 25.49600 22.51008
#
# Velocity S-wave (km/s) = 3.20748 3.66534 3.44402
# Velocity P-wave (km/s) = 5.94798 6.61971 6.29281
#
# Compressibility (1/GPa) = 0.02432608
#
# Stress axis : x y z
#
# Youngs Moduli (GPa) = 71.37534 60.60555 51.72745
#
# Poissons Ratio (x) = 0.21964 0.40030
# Poissons Ratio (y) = 0.25867 0.07220
# Poissons Ratio (z) = 0.55234 0.08459
#
# Static dielectric constant tensor:
#      x y z
#    x 3.660190 0.060880 0.139240 
#    y 0.060880 3.295630 0.075080 
#    z 0.139240 0.075080 3.583860 
# 
# 
# High freq. dielectric constant tensor:
#      x y z
#    x 1.748900 0.013570 0.007230 
#    y 0.013570 1.713460 -0.004590 
#    z 0.007230 -0.004590 1.732700 
# 
# From -- ./inp_files/70781.got.cif
#   From: 2010.06.25/outbox.cif.g09.slc.cpg/sg2_36_cif.got.tgz:70781.got - 2010.06.27 13:26:56.
