data_PCOD8041587
_publ_section_title
;
Structure prediction by ZEFSAII (Michael W. Deem and Ramdas Pophale) SiO2 
 PCOD8041587
Probable space group: P -1
;
_chemical_formula_sum "Si O2"
_cell_formula_units_Z 16
_cell_length_a 8.590568
_cell_length_b 11.713693
_cell_length_c 8.313885
_cell_angle_alpha 109.930023
_cell_angle_beta 109.105338
_cell_angle_gamma 70.863129
_cell_volume 720.819271
_symmetry_space_group_name_H-M "P -1"
_symmetry_group_IT_number 2
_symmetry_cell_setting 'triclinic'
loop_
_space_group_symop_operation_xyz
x,y,z
-x,-y,-z
loop_
_atom_site_type_symbol
_atom_site_label
_atom_site_fract_x
_atom_site_fract_y
_atom_site_fract_z
Si Si1 0.117719 0.076871 0.742583
Si Si2 0.850015 0.168472 0.191671
Si Si3 0.581841 0.690374 0.276503
Si Si4 0.193295 0.319963 0.946258
Si Si5 0.792040 0.871347 0.560712
Si Si6 0.761810 0.123027 0.783945
Si Si7 0.932261 0.501533 0.736347
Si Si8 0.770880 0.439216 0.338814
O O1 0.188110 0.177977 0.918535
O O2 0.163833 0.088092 0.580410
O O3 0.913842 0.107439 0.700418
O O4 0.203187 0.936965 0.767876
O O5 0.722669 0.305496 0.239725
O O6 0.036909 0.185477 0.308386
O O7 0.845247 0.125821 0.986757
O O8 0.640941 0.682844 0.106996
O O9 0.685437 0.766525 0.460908
O O10 0.382588 0.753325 0.243817
O O11 0.609488 0.551041 0.290630
O O12 0.023613 0.382804 0.817693
O O13 0.194226 0.394766 0.147825
O O14 0.688707 0.997961 0.678932
O O15 0.818171 0.453384 0.545832
O O16 0.074132 0.559328 0.728450
#
# Coordination Sequence:
#
# PCOD8041587 Si02
#       8
#     2   2   2   2   2   2   2   2
#     4  10  20  36  60  83 109 145 188 229 270 326
#     4  11  21  34  57  84 112 144 187 227 266 327
#     4  10  22  38  57  82 116 146 179 229 283 328
#     4   9  18  35  57  83 110 145 186 229 274 322
#     4  10  20  39  62  81 107 146 191 229 268 326
#     4  11  22  36  56  86 115 144 180 229 284 327
#     4   9  17  32  57  81 107 143 194 232 258 318
#     4  10  19  33  54  83 111 145 185 227 272 324
#
# _framework density 22.196964000000001
#
# number of rings (size 3 to 8) (size 9 to 14) (size 15 to 20)
#    0.000    2.000    0.000    7.125    0.000    1.500 
#    0.000    5.000    0.000    4.500    0.000    0.875 
#    0.000    0.000    0.000    0.000    0.000    0.000 
#
# Total GULP energy -198376.078495 kJ/mol
# GULP energy per Si atom -12398.504906 kJ/mol
# Density = 2.214644 g / cm^3
# Si number density = 22.196964 Si / 1000 Ang^3
#
#
#
# Elastic Constant Matrix: (Units=GPa)
#
#
# Indices 1 2 3 4 5 6 
#
# 1 21.2862 34.3616 5.0526 3.6037 2.9802 -3.3304
# 2 34.3616 182.7005 35.3649 18.2758 -2.9459 -4.3286
# 3 5.0526 35.3649 93.7017 17.5927 -7.1887 2.9312
# 4 3.6037 18.2758 17.5927 32.5080 -9.2003 -0.5384
# 5 2.9802 -2.9459 -7.1887 -9.2003 12.9306 2.6687
# 6 -3.3304 -4.3286 2.9312 -0.5384 2.6687 25.7678
#
#
#
# Elastic Compliance Matrix: (Units=1/GPa)
#
#
# Indices 1 2 3 4 5 6 
#
# 1 0.076269 -0.013712 0.000179 -0.008899 -0.029072 0.010359
# 2 -0.013712 0.008616 -0.002002 -0.001360 0.003135 -0.000450
# 3 0.000179 -0.002002 0.012659 -0.004759 0.003614 -0.002227
# 4 -0.008899 -0.001360 -0.004759 0.043779 0.030889 -0.003122
# 5 -0.029072 0.003135 0.003614 0.030889 0.111744 -0.014570
# 6 0.010359 -0.000450 -0.002227 -0.003122 -0.014570 0.041768
#
#
# Mechanical properties :
#
#
# Convention : Reuss Voigt Hill
#
# Bulk Modulus (GPa) = 15.04382 49.69405 32.36894
# Shear Modulus (GPa) = 14.36519 29.10190 21.73354
#
# Velocity S-wave (km/s) = 2.54671 3.62481 3.13249
# Velocity P-wave (km/s) = 3.92935 6.32102 5.26285
#
# Compressibility (1/GPa) = 0.06647247
#
# Stress axis : x y z
#
# Youngs Moduli (GPa) = 13.11149 116.06401 78.99730
#
# Poissons Ratio (x) = 1.59149 -0.01415
# Poissons Ratio (y) = 0.17979 0.15819
# Poissons Ratio (z) = -0.00235 0.23241
#
# Static dielectric constant tensor:
#      x y z
#    x 3.442440 0.023280 -0.111720 
#    y 0.023280 4.378170 0.328390 
#    z -0.111720 0.328390 4.139860 
# 
# 
# High freq. dielectric constant tensor:
#      x y z
#    x 1.818200 -0.000990 -0.011700 
#    y -0.000990 1.891190 0.016760 
#    z -0.011700 0.016760 1.884350 
# 
# From -- ./inp_files/181809.got.cif
#   From: 2010.06.25/outbox.cif.g09.slc.cpg/sg2_91_cif.got.tgz:181809.got - 2010.06.27 13:26:56.
