data_PCOD8041491
_publ_section_title
;
Structure prediction by ZEFSAII (Michael W. Deem and Ramdas Pophale) SiO2 
 PCOD8041491
Probable space group: P -1
;
_chemical_formula_sum "Si O2"
_cell_formula_units_Z 16
_cell_length_a 17.633343
_cell_length_b 17.037183
_cell_length_c 9.220249
_cell_angle_alpha 54.507064
_cell_angle_beta 57.049567
_cell_angle_gamma 21.378530
_cell_volume 822.060621
_symmetry_space_group_name_H-M "P -1"
_symmetry_group_IT_number 2
_symmetry_cell_setting 'triclinic'
loop_
_space_group_symop_operation_xyz
x,y,z
-x,-y,-z
loop_
_atom_site_type_symbol
_atom_site_label
_atom_site_fract_x
_atom_site_fract_y
_atom_site_fract_z
Si Si1 0.816275 0.183502 0.608831
Si Si2 0.157920 0.135825 0.670856
Si Si3 0.580455 0.815425 0.614971
Si Si4 0.899135 0.524623 0.348858
Si Si5 0.830192 0.454849 0.246177
Si Si6 0.906745 0.948690 0.408540
Si Si7 0.462469 0.678469 0.393399
Si Si8 0.936382 0.424153 0.861196
O O1 0.645076 0.425657 0.483027
O O2 0.689426 0.203013 0.714674
O O3 0.945034 0.096828 0.710453
O O4 0.000000 0.000000 0.500000
O O5 0.114389 0.075424 0.703495
O O6 0.105049 0.275588 0.467183
O O7 0.029246 0.263085 0.817083
O O8 0.399439 0.910570 0.699333
O O9 0.715112 0.666925 0.491670
O O10 0.708031 0.676687 0.778866
O O11 0.500000 0.000000 0.500000
O O12 0.845792 0.540409 0.225562
O O13 0.918780 0.620729 0.225865
O O14 0.584238 0.662715 0.265209
O O15 0.969569 0.241905 0.409304
O O16 0.926879 0.376323 0.071858
O O17 0.677998 0.187606 0.457831
#
# Coordination Sequence:
#
# PCOD8041491 Si02
#       8
#     2   2   2   2   2   2   2   2
#     4   8  15  29  54  79 102 127 156 198 244 295
#     4  10  19  33  51  70  96 131 174 212 243 291
#     4  11  18  33  52  66  89 131 178 212 244 286
#     4  10  19  34  50  68  95 133 176 215 247 287
#     4  10  21  32  47  74 106 130 163 209 256 299
#     4   9  18  32  52  77 100 128 164 206 247 290
#     4   9  16  31  50  78 105 126 158 198 249 299
#     4  11  21  33  48  70 100 138 170 208 256 293
#
# _framework density 19.463284999999999
#
# number of rings (size 3 to 8) (size 9 to 14) (size 15 to 20)
#    0.000    2.250    2.500    1.875    0.000    2.000 
#    0.000    0.625    0.000    0.750    0.000   30.625 
#    0.000    0.000    0.000    0.000    0.000    0.000 
#
# Total GULP energy -198210.873231 kJ/mol
# GULP energy per Si atom -12388.179577 kJ/mol
# Density = 1.941899 g / cm^3
# Si number density = 19.463285 Si / 1000 Ang^3
#
#
#
# Elastic Constant Matrix: (Units=GPa)
#
#
# Indices 1 2 3 4 5 6 
#
# 1 154.9849 42.8859 28.4433 15.4120 25.7671 -12.3233
# 2 42.8859 91.5349 11.2670 9.9877 8.7058 -7.0379
# 3 28.4433 11.2670 54.1659 11.9445 20.1586 -6.1680
# 4 15.4120 9.9877 11.9445 16.5357 3.3318 -0.7380
# 5 25.7671 8.7058 20.1586 3.3318 18.7459 4.6500
# 6 -12.3233 -7.0379 -6.1680 -0.7380 4.6500 34.1044
#
#
#
# Elastic Compliance Matrix: (Units=1/GPa)
#
#
# Indices 1 2 3 4 5 6 
#
# 1 0.010642 -0.002466 0.003993 -0.007395 -0.018039 0.006358
# 2 -0.002466 0.013100 0.001679 -0.005890 -0.004084 0.002545
# 3 0.003993 0.001679 0.042300 -0.024223 -0.051400 0.015924
# 4 -0.007395 -0.005890 -0.024223 0.082573 0.026787 -0.010134
# 5 -0.018039 -0.004084 -0.051400 0.026787 0.139248 -0.035064
# 6 0.006358 0.002545 0.015924 -0.010134 -0.035064 0.039586
#
#
# Mechanical properties :
#
#
# Convention : Reuss Voigt Hill
#
# Bulk Modulus (GPa) = 13.80194 51.76426 32.78310
# Shear Modulus (GPa) = 14.48480 28.41652 21.45066
#
# Velocity S-wave (km/s) = 2.73098 3.82515 3.32340
# Velocity P-wave (km/s) = 4.12929 6.79431 5.62199
#
# Compressibility (1/GPa) = 0.07245358
#
# Stress axis : x y z
#
# Youngs Moduli (GPa) = 93.96879 76.33371 23.64057
#
# Poissons Ratio (x) = 0.18824 -0.09440
# Poissons Ratio (y) = 0.23172 -0.03968
# Poissons Ratio (z) = -0.37522 -0.12813
#
# Static dielectric constant tensor:
#      x y z
#    x 4.360260 -0.296740 0.058910 
#    y -0.296740 3.938320 0.106890 
#    z 0.058910 0.106890 2.943110 
# 
# 
# High freq. dielectric constant tensor:
#      x y z
#    x 1.786370 -0.008580 0.011640 
#    y -0.008580 1.771040 0.012880 
#    z 0.011640 0.012880 1.686970 
# 
# From -- ./inp_files/43282.got.cif
#   From: 2010.06.25/outbox.cif.g09.slc.cpg/sg2_22_cif.got.tgz:43282.got - 2010.06.27 13:26:56.
