data_PCOD8041068
_publ_section_title
;
Structure prediction by ZEFSAII (Michael W. Deem and Ramdas Pophale) SiO2 
 PCOD8041068
Probable space group: P -1
;
_chemical_formula_sum "Si O2"
_cell_formula_units_Z 16
_cell_length_a 12.337535
_cell_length_b 14.823173
_cell_length_c 7.788327
_cell_angle_alpha 52.869936
_cell_angle_beta 66.790112
_cell_angle_gamma 47.081263
_cell_volume 831.257859
_symmetry_space_group_name_H-M "P -1"
_symmetry_group_IT_number 2
_symmetry_cell_setting 'triclinic'
loop_
_space_group_symop_operation_xyz
x,y,z
-x,-y,-z
loop_
_atom_site_type_symbol
_atom_site_label
_atom_site_fract_x
_atom_site_fract_y
_atom_site_fract_z
Si Si1 0.345884 0.719892 0.418471
Si Si2 0.489158 0.843189 0.353751
Si Si3 0.616220 0.543235 0.207513
Si Si4 0.822859 0.870671 0.749797
Si Si5 0.079158 0.032168 0.126453
Si Si6 0.317207 0.263783 0.963575
Si Si7 0.836238 0.999922 0.262886
Si Si8 0.488208 0.223180 0.219589
O O1 0.426700 0.752977 0.466378
O O2 0.454299 0.631956 0.294219
O O3 0.304611 0.624362 0.646543
O O4 0.197437 0.863793 0.277302
O O5 0.606124 0.815356 0.171997
O O6 0.570362 0.793923 0.544749
O O7 0.351029 0.007643 0.248171
O O8 0.719986 0.579107 0.195725
O O9 0.581071 0.610179 0.959860
O O10 0.919792 0.874193 0.832962
O O11 0.874455 0.882094 0.516668
O O12 0.829395 0.729267 0.924242
O O13 0.110991 0.071911 0.876033
O O14 0.918011 0.068822 0.185176
O O15 0.434220 0.175102 0.150095
O O16 0.664342 0.126566 0.225430
#
# Coordination Sequence:
#
# PCOD8041068 Si02
#       8
#     2   2   2   2   2   2   2   2
#     4   9  15  30  48  66  96 122 155 187 231 270
#     4   9  17  26  45  68  93 125 146 186 235 273
#     4   8  16  29  47  68  95 123 149 190 229 273
#     4  10  19  30  47  68  97 125 151 189 229 280
#     4  10  19  32  49  69  95 121 156 192 226 277
#     4   9  18  31  44  69 100 123 150 183 235 279
#     4  10  19  31  47  71  96 121 153 190 235 270
#     4   9  17  30  44  72  97 117 150 188 231 279
#
# _framework density 19.247938000000001
#
# number of rings (size 3 to 8) (size 9 to 14) (size 15 to 20)
#    0.750    2.000    1.250    1.500    0.000    3.500 
#    0.000    0.000    0.000    0.750    0.000    3.500 
#    0.000    0.000    0.000    0.000    0.000    0.000 
#
# Total GULP energy -198210.997982 kJ/mol
# GULP energy per Si atom -12388.187374 kJ/mol
# Density = 1.920413 g / cm^3
# Si number density = 19.247938 Si / 1000 Ang^3
#
#
#
# Elastic Constant Matrix: (Units=GPa)
#
#
# Indices 1 2 3 4 5 6 
#
# 1 88.3663 14.7696 48.6796 3.9547 -1.3480 5.0378
# 2 14.7696 18.2575 10.8768 3.1107 -2.3296 4.6029
# 3 48.6796 10.8768 116.7026 23.1024 1.5495 13.1619
# 4 3.9547 3.1107 23.1024 22.8195 8.8239 -3.0174
# 5 -1.3480 -2.3296 1.5495 8.8239 31.3949 -1.6944
# 6 5.0378 4.6029 13.1619 -3.0174 -1.6944 12.0673
#
#
#
# Elastic Compliance Matrix: (Units=1/GPa)
#
#
# Indices 1 2 3 4 5 6 
#
# 1 0.017544 -0.013249 -0.009215 0.010239 -0.002111 0.010044
# 2 -0.013249 0.075417 0.006985 -0.023344 0.009334 -0.035381
# 3 -0.009215 0.006985 0.019292 -0.023980 0.004549 -0.025217
# 4 0.010239 -0.023344 -0.023980 0.084134 -0.021119 0.048858
# 5 -0.002111 0.009334 0.004549 -0.021119 0.037754 -0.007621
# 6 0.010044 -0.035381 -0.025217 0.048858 -0.007621 0.130823
#
#
# Mechanical properties :
#
#
# Convention : Reuss Voigt Hill
#
# Bulk Modulus (GPa) = 12.30077 41.33095 26.81586
# Shear Modulus (GPa) = 11.81971 23.18969 17.50470
#
# Velocity S-wave (km/s) = 2.48075 3.47477 3.01895
# Velocity P-wave (km/s) = 3.82231 6.13337 5.11020
#
# Compressibility (1/GPa) = 0.08129574
#
# Stress axis : x y z
#
# Youngs Moduli (GPa) = 56.99818 13.25958 51.83380
#
# Poissons Ratio (x) = 0.17568 0.47766
# Poissons Ratio (y) = 0.75518 -0.36207
# Poissons Ratio (z) = 0.52525 -0.09262
#
# Static dielectric constant tensor:
#      x y z
#    x 3.435460 0.215740 0.032800 
#    y 0.215740 3.053740 0.066240 
#    z 0.032800 0.066240 3.817630 
# 
# 
# High freq. dielectric constant tensor:
#      x y z
#    x 1.740030 0.015640 -0.004390 
#    y 0.015640 1.689890 0.012380 
#    z -0.004390 0.012380 1.762650 
# 
# From -- ./inp_files/276220.got.cif
#   From: 2010.06.25/outbox.cif.g09.slc.cpg/sg2_139_cif.got.tgz:276220.got - 2010.06.27 13:26:56.
