data_PCOD8041891
_publ_section_title
;
Structure prediction by ZEFSAII (Michael W. Deem and Ramdas Pophale) SiO2 
 PCOD8041891
Probable space group: P -1
;
_chemical_formula_sum "Si O2"
_cell_formula_units_Z 16
_cell_length_a 18.808866
_cell_length_b 10.064648
_cell_length_c 11.365777
_cell_angle_alpha 67.464357
_cell_angle_beta 77.775455
_cell_angle_gamma 27.352733
_cell_volume 870.123168
_symmetry_space_group_name_H-M "P -1"
_symmetry_group_IT_number 2
_symmetry_cell_setting 'triclinic'
loop_
_space_group_symop_operation_xyz
x,y,z
-x,-y,-z
loop_
_atom_site_type_symbol
_atom_site_label
_atom_site_fract_x
_atom_site_fract_y
_atom_site_fract_z
Si Si1 0.149699 0.815382 0.369617
Si Si2 0.358879 0.472855 0.207483
Si Si3 0.122002 0.003116 0.759924
Si Si4 0.863351 0.354393 0.893750
Si Si5 0.689002 0.185210 0.047085
Si Si6 0.986185 0.245179 0.486478
Si Si7 0.275531 0.180725 0.781193
Si Si8 0.836555 0.399637 0.141915
O O1 0.323483 0.531250 0.341031
O O2 0.120404 0.702659 0.453183
O O3 0.130870 0.945218 0.448162
O O4 0.022571 0.089604 0.220934
O O5 0.289248 0.449996 0.182235
O O6 0.550867 0.138191 0.234564
O O7 0.265291 0.776632 0.079815
O O8 0.953491 0.305794 0.791718
O O9 0.075403 0.156723 0.598266
O O10 0.258678 0.853748 0.828071
O O11 0.200098 0.706499 0.812219
O O12 0.805892 0.524475 0.981046
O O13 0.000000 0.000000 0.000000
O O14 0.763920 0.892781 0.102402
O O15 0.500000 0.500000 0.000000
O O16 0.861707 0.572290 0.355609
O O17 0.275405 0.320774 0.818257
#
# Coordination Sequence:
#
# PCOD8041891 Si02
#       8
#     2   2   2   2   2   2   2   2
#     4   9  16  31  56  78 104 135 177 218 257 309
#     4  11  18  34  55  77 107 142 173 214 267 309
#     4  10  17  34  61  73 101 142 182 209 255 320
#     4  10  15  29  56  80  94 134 183 219 248 308
#     4  10  21  36  52  77 109 145 169 208 272 322
#     4   9  18  33  52  81 104 136 178 215 257 304
#     4  10  23  33  49  82 117 135 167 217 266 309
#     4   9  16  32  53  80 102 130 179 224 252 296
#
# _framework density 18.388200999999999
#
# number of rings (size 3 to 8) (size 9 to 14) (size 15 to 20)
#    0.000    2.250    6.250    0.750    0.000    1.500 
#    0.000    5.625    0.000    3.000    0.000    0.000 
#    0.000    0.000    0.000    0.000    0.000    0.000 
#
# Total GULP energy -198227.664089 kJ/mol
# GULP energy per Si atom -12389.229006 kJ/mol
# Density = 1.834635 g / cm^3
# Si number density = 18.388201 Si / 1000 Ang^3
#
#
#
# Elastic Constant Matrix: (Units=GPa)
#
#
# Indices 1 2 3 4 5 6 
#
# 1 67.0952 22.0001 24.5563 0.1147 9.4404 -1.4152
# 2 22.0001 79.7024 36.8548 10.0805 -7.0409 1.8727
# 3 24.5563 36.8548 98.2376 12.4717 8.4057 3.8182
# 4 0.1147 10.0805 12.4717 28.4113 1.1954 -2.7102
# 5 9.4404 -7.0409 8.4057 1.1954 25.5804 -2.8190
# 6 -1.4152 1.8727 3.8182 -2.7102 -2.8190 16.5031
#
#
#
# Elastic Compliance Matrix: (Units=1/GPa)
#
#
# Indices 1 2 3 4 5 6 
#
# 1 0.018587 -0.005029 -0.002644 0.003376 -0.007303 0.002083
# 2 -0.005029 0.017867 -0.005645 -0.004244 0.008789 -0.000348
# 3 -0.002644 -0.005645 0.014167 -0.004405 -0.005527 -0.004531
# 4 0.003376 -0.004244 -0.004405 0.039462 -0.001936 0.007940
# 5 -0.007303 0.008789 -0.005527 -0.001936 0.046923 0.007353
# 6 0.002083 -0.000348 -0.004531 0.007940 0.007353 0.064421
#
#
# Mechanical properties :
#
#
# Convention : Reuss Voigt Hill
#
# Bulk Modulus (GPa) = 41.69664 45.76196 43.72930
# Shear Modulus (GPa) = 21.18137 24.87390 23.02764
#
# Velocity S-wave (km/s) = 3.39765 3.68191 3.54263
# Velocity P-wave (km/s) = 6.17390 6.55865 6.36918
#
# Compressibility (1/GPa) = 0.02398275
#
# Stress axis : x y z
#
# Youngs Moduli (GPa) = 53.80247 55.97059 70.58906
#
# Poissons Ratio (x) = 0.28146 0.18665
# Poissons Ratio (y) = 0.27056 0.39851
# Poissons Ratio (z) = 0.14226 0.31598
#
# Static dielectric constant tensor:
#      x y z
#    x 3.323110 0.154470 -0.046680 
#    y 0.154470 3.445810 0.319400 
#    z -0.046680 0.319400 3.898270 
# 
# 
# High freq. dielectric constant tensor:
#      x y z
#    x 1.685290 0.001170 0.007530 
#    y 0.001170 1.686170 0.014670 
#    z 0.007530 0.014670 1.717710 
# 
# From -- ./inp_files/252495.got.cif
#   From: 2010.06.25/outbox.cif.g09.slc.cpg/sg2_127_cif.got.tgz:252495.got - 2010.06.27 13:26:56.
