data_PCOD8041394
_publ_section_title
;
Structure prediction by ZEFSAII (Michael W. Deem and Ramdas Pophale) SiO2 
 PCOD8041394
Probable space group: P -1
;
_chemical_formula_sum "Si O2"
_cell_formula_units_Z 16
_cell_length_a 13.534987
_cell_length_b 19.421599
_cell_length_c 9.347312
_cell_angle_alpha 69.930176
_cell_angle_beta 106.122287
_cell_angle_gamma 157.301122
_cell_volume 885.458705
_symmetry_space_group_name_H-M "P -1"
_symmetry_group_IT_number 2
_symmetry_cell_setting 'triclinic'
loop_
_space_group_symop_operation_xyz
x,y,z
-x,-y,-z
loop_
_atom_site_type_symbol
_atom_site_label
_atom_site_fract_x
_atom_site_fract_y
_atom_site_fract_z
Si Si1 0.770727 0.793676 0.076729
Si Si2 0.728078 0.237661 0.514328
Si Si3 0.483807 0.272697 0.775818
Si Si4 0.231829 0.009242 0.087068
Si Si5 0.473276 0.933268 0.752210
Si Si6 0.681049 0.372934 0.485956
Si Si7 0.034751 0.436248 0.056842
Si Si8 0.559522 0.336172 0.157379
O O1 0.636106 0.727163 0.221467
O O2 0.564769 0.669728 0.952407
O O3 0.917757 0.811222 0.121467
O O4 0.000000 0.000000 0.000000
O O5 0.626166 0.167382 0.362747
O O6 0.667516 0.277659 0.523001
O O7 0.029064 0.414700 0.511232
O O8 0.579195 0.083701 0.665937
O O9 0.484897 0.266508 0.609928
O O10 0.777688 0.462648 0.810644
O O11 0.323782 0.100784 0.904632
O O12 0.300172 0.968722 0.159728
O O13 0.381677 0.152117 0.168433
O O14 0.237170 0.782126 0.876564
O O15 0.579598 0.352601 0.323979
O O16 0.153521 0.488504 0.915721
O O17 0.000000 0.500000 0.000000
#
# Coordination Sequence:
#
# PCOD8041394 Si02
#       8
#     2   2   2   2   2   2   2   2
#     4   7  15  31  48  77  92 125 179 205 231 286
#     4  10  23  29  48  75 110 131 159 201 254 301
#     4   9  17  27  51  73  99 131 163 201 246 290
#     4   9  16  32  53  72  98 130 172 207 232 290
#     4  11  18  34  50  75  99 139 167 196 241 304
#     4  11  19  34  46  77 107 130 155 210 258 292
#     4  10  15  28  50  74  93 133 167 196 232 303
#     4   9  17  28  51  72  97 131 164 201 246 286
#
# _framework density 18.06973
#
# number of rings (size 3 to 8) (size 9 to 14) (size 15 to 20)
#    0.000    3.000    5.000    0.000    1.750    0.000 
#    0.000    8.125    0.000    1.500    0.000    0.000 
#    0.000    1.000    0.000    0.000    0.000    0.000 
#
# Total GULP energy -198267.895805 kJ/mol
# GULP energy per Si atom -12391.743488 kJ/mol
# Density = 1.802860 g / cm^3
# Si number density = 18.069730 Si / 1000 Ang^3
#
#
#
# Elastic Constant Matrix: (Units=GPa)
#
#
# Indices 1 2 3 4 5 6 
#
# 1 77.9020 47.6667 48.6118 -3.9021 2.0672 34.5650
# 2 47.6667 65.9418 34.1568 -12.1480 1.5283 14.9349
# 3 48.6118 34.1568 132.8510 -1.7536 -15.7322 16.7898
# 4 -3.9021 -12.1480 -1.7536 17.0275 -0.1846 0.9486
# 5 2.0672 1.5283 -15.7322 -0.1846 23.0348 -1.4403
# 6 34.5650 14.9349 16.7898 0.9486 -1.4403 31.3834
#
#
#
# Elastic Compliance Matrix: (Units=1/GPa)
#
#
# Indices 1 2 3 4 5 6 
#
# 1 0.050687 -0.023331 -0.008869 -0.003818 -0.011615 -0.040396
# 2 -0.023331 0.033768 -0.001152 0.018085 -0.000183 0.009688
# 3 -0.008869 -0.001152 0.011529 -0.001827 0.009021 0.004618
# 4 -0.003818 0.018085 -0.001827 0.070862 -0.001890 -0.005652
# 5 -0.011615 -0.000183 0.009021 -0.001890 0.051267 0.010463
# 6 -0.040396 0.009688 0.004618 -0.005652 0.010463 0.069925
#
#
# Mechanical properties :
#
#
# Convention : Reuss Voigt Hill
#
# Bulk Modulus (GPa) = 34.15249 59.72948 46.94099
# Shear Modulus (GPa) = 13.71723 24.03977 18.87850
#
# Velocity S-wave (km/s) = 2.75822 3.65141 3.23578
# Velocity P-wave (km/s) = 5.39306 7.13469 6.32412
#
# Compressibility (1/GPa) = 0.02928044
#
# Stress axis : x y z
#
# Youngs Moduli (GPa) = 19.72876 29.61342 86.73497
#
# Poissons Ratio (x) = 0.69091 0.76927
# Poissons Ratio (y) = 0.46029 0.09994
# Poissons Ratio (z) = 0.17498 0.03412
#
# Static dielectric constant tensor:
#      x y z
#    x 3.773960 0.731160 0.055120 
#    y 0.731160 3.458320 -0.032420 
#    z 0.055120 -0.032420 3.330990 
# 
# 
# High freq. dielectric constant tensor:
#      x y z
#    x 1.680220 0.032210 0.000750 
#    y 0.032210 1.677280 -0.001390 
#    z 0.000750 -0.001390 1.692780 
# 
# From -- ./inp_files/318638.got.cif
#   From: 2010.06.25/outbox.cif.g09.slc.cpg/sg2_160_cif.got.tgz:318638.got - 2010.06.27 13:26:56.
