data_PCOD8041173
_publ_section_title
;
Structure prediction by ZEFSAII (Michael W. Deem and Ramdas Pophale) SiO2 
 PCOD8041173
Probable space group: P -1
;
_chemical_formula_sum "Si O2"
_cell_formula_units_Z 14
_cell_length_a 10.181047
_cell_length_b 11.186015
_cell_length_c 9.360770
_cell_angle_alpha 127.156758
_cell_angle_beta 105.285334
_cell_angle_gamma 99.241083
_cell_volume 745.291880
_symmetry_space_group_name_H-M "P -1"
_symmetry_group_IT_number 2
_symmetry_cell_setting 'triclinic'
loop_
_space_group_symop_operation_xyz
x,y,z
-x,-y,-z
loop_
_atom_site_type_symbol
_atom_site_label
_atom_site_fract_x
_atom_site_fract_y
_atom_site_fract_z
Si Si1 0.336608 0.124367 0.287503
Si Si2 0.670274 0.425004 0.003391
Si Si3 0.308217 0.195657 0.022480
Si Si4 0.794864 0.990147 0.548467
Si Si5 0.890738 0.760365 0.231051
Si Si6 0.482635 0.075696 0.760963
Si Si7 0.469723 0.459873 0.724234
O O1 0.263592 0.101728 0.093120
O O2 0.209712 0.014841 0.284323
O O3 0.475259 0.071889 0.285989
O O4 0.399167 0.313990 0.487422
O O5 0.639691 0.232663 0.875449
O O6 0.542206 0.410796 0.845051
O O7 0.830201 0.560640 0.087286
O O8 0.653468 0.488646 0.202110
O O9 0.411488 0.387339 0.219079
O O10 0.158910 0.184287 0.891721
O O11 0.397958 0.117215 0.896725
O O12 0.820468 0.831301 0.387511
O O13 0.635339 0.983261 0.446564
O O14 0.929205 0.159215 0.654765
#
# Coordination Sequence:
#
# PCOD8041173 Si02
#       7
#     2   2   2   2   2   2   2
#     4  12  19  30  51  80 103 125 166 206 243 297
#     4   9  15  32  52  72  97 128 166 205 244 283
#     4   9  20  33  50  74 103 133 160 202 253 291
#     4  10  19  31  53  78  94 130 171 207 240 284
#     4   9  18  35  52  72  99 131 168 203 247 287
#     4  10  20  33  51  76 103 131 159 204 254 290
#     4   9  16  29  51  75  95 126 168 208 239 280
#
# _framework density 18.784589
#
# number of rings (size 3 to 8) (size 9 to 14) (size 15 to 20)
#    0.000    2.286    2.857    3.000    0.000    0.571 
#    0.000    0.714    0.000    0.000    0.000    5.000 
#    0.000    0.000    0.000    0.000    0.000    0.000 
#
# Total GULP energy -173472.240631 kJ/mol
# GULP energy per Si atom -12390.874331 kJ/mol
# Density = 1.874183 g / cm^3
# Si number density = 18.784589 Si / 1000 Ang^3
#
#
#
# Elastic Constant Matrix: (Units=GPa)
#
#
# Indices 1 2 3 4 5 6 
#
# 1 44.5431 25.4826 18.1102 4.0056 8.9325 3.7257
# 2 25.4826 73.0842 38.9777 -17.1267 2.0633 5.8248
# 3 18.1102 38.9777 67.1473 -6.6303 4.0951 7.6507
# 4 4.0056 -17.1267 -6.6303 29.0523 10.0412 0.1349
# 5 8.9325 2.0633 4.0951 10.0412 17.9094 4.7271
# 6 3.7257 5.8248 7.6507 0.1349 4.7271 18.1376
#
#
#
# Elastic Compliance Matrix: (Units=1/GPa)
#
#
# Indices 1 2 3 4 5 6 
#
# 1 0.033021 -0.012211 -0.002174 -0.008876 -0.009765 0.000667
# 2 -0.012211 0.027922 -0.010884 0.017021 -0.003924 -0.000971
# 3 -0.002174 -0.010884 0.022396 -0.000615 -0.001059 -0.005225
# 4 -0.008876 0.017021 -0.000615 0.055790 -0.029714 0.003946
# 5 -0.009765 -0.003924 -0.001059 -0.029714 0.082713 -0.017623
# 6 0.000667 -0.000971 -0.005225 0.003946 -0.017623 0.062077
#
#
# Mechanical properties :
#
#
# Convention : Reuss Voigt Hill
#
# Bulk Modulus (GPa) = 30.48812 38.87951 34.68382
# Shear Modulus (GPa) = 14.47632 19.83347 17.15490
#
# Velocity S-wave (km/s) = 2.77907 3.25289 3.02527
# Velocity P-wave (km/s) = 5.15395 5.90346 5.54140
#
# Compressibility (1/GPa) = 0.03279966
#
# Stress axis : x y z
#
# Youngs Moduli (GPa) = 30.28391 35.81358 44.65026
#
# Poissons Ratio (x) = 0.43733 0.09709
# Poissons Ratio (y) = 0.36980 0.48598
# Poissons Ratio (z) = 0.06585 0.38980
#
# Static dielectric constant tensor:
#      x y z
#    x 3.038620 0.120120 -0.112130 
#    y 0.120120 3.452210 0.094140 
#    z -0.112130 0.094140 3.447300 
# 
# 
# High freq. dielectric constant tensor:
#      x y z
#    x 1.688620 0.014830 -0.013650 
#    y 0.014830 1.725120 0.007960 
#    z -0.013650 0.007960 1.726730 
# 
# From -- ./inp_files/250400.got.cif
#   From: 2010.06.25/outbox.cif.g09.slc.cpg/sg2_126_cif.got.tgz:250400.got - 2010.06.27 13:26:56.
