data_PCOD8041702
_publ_section_title
;
Structure prediction by ZEFSAII (Michael W. Deem and Ramdas Pophale) SiO2 
 PCOD8041702
Probable space group: P -1
;
_chemical_formula_sum "Si O2"
_cell_formula_units_Z 16
_cell_length_a 14.053043
_cell_length_b 16.162570
_cell_length_c 9.571850
_cell_angle_alpha 41.367093
_cell_angle_beta 80.694446
_cell_angle_gamma 47.963681
_cell_volume 767.942617
_symmetry_space_group_name_H-M "P -1"
_symmetry_group_IT_number 2
_symmetry_cell_setting 'triclinic'
loop_
_space_group_symop_operation_xyz
x,y,z
-x,-y,-z
loop_
_atom_site_type_symbol
_atom_site_label
_atom_site_fract_x
_atom_site_fract_y
_atom_site_fract_z
Si Si1 0.826222 0.304551 0.019035
Si Si2 0.851533 0.205806 0.460070
Si Si3 0.079795 0.271101 0.643888
Si Si4 0.993783 0.640652 0.144114
Si Si5 0.481866 0.520865 0.142776
Si Si6 0.365139 0.895882 0.834972
Si Si7 0.812274 0.738225 0.808489
Si Si8 0.248418 0.445575 0.801073
O O1 0.835093 0.251472 0.243139
O O2 0.857824 0.417386 0.853384
O O3 0.630792 0.479448 0.783511
O O4 0.976521 0.064325 0.201846
O O5 0.681598 0.310208 0.423817
O O6 0.861129 0.328771 0.376762
O O7 0.102611 0.392830 0.448051
O O8 0.111676 0.211546 0.875440
O O9 0.875330 0.454210 0.428233
O O10 0.223211 0.038774 0.812974
O O11 0.846473 0.792931 0.863485
O O12 0.500000 0.500000 0.000000
O O13 0.369291 0.762958 0.916215
O O14 0.313391 0.059423 0.530054
O O15 0.557119 0.718095 0.082956
O O16 0.720546 0.709312 0.913062
O O17 0.000000 0.500000 0.000000
#
# Coordination Sequence:
#
# PCOD8041702 Si02
#       8
#     2   2   2   2   2   2   2   2
#     4  10  19  33  57  80 116 152 186 231 298 337
#     4   9  19  32  56  85 116 141 188 243 288 337
#     4  10  22  42  58  81 123 157 189 240 282 345
#     4  10  22  38  60  86 119 155 194 232 290 345
#     4   9  20  35  52  88 117 144 183 243 289 335
#     4  11  21  37  64  83 115 153 196 238 295 335
#     4  11  20  35  62  89 114 146 193 247 290 336
#     4  10  20  37  58  84 114 150 196 237 289 339
#
# _framework density 20.834889
#
# number of rings (size 3 to 8) (size 9 to 14) (size 15 to 20)
#    0.000    2.000    2.500    1.875    5.250    0.000 
#    2.250    9.375    0.000    3.000    0.000    0.000 
#    0.000    0.000    0.000    0.000    0.000    0.000 
#
# Total GULP energy -198333.851776 kJ/mol
# GULP energy per Si atom -12395.865736 kJ/mol
# Density = 2.078747 g / cm^3
# Si number density = 20.834889 Si / 1000 Ang^3
#
#
#
# Elastic Constant Matrix: (Units=GPa)
#
#
# Indices 1 2 3 4 5 6 
#
# 1 152.3852 32.2020 27.2074 -8.9617 9.0331 0.5257
# 2 32.2020 113.5016 33.0864 -7.7678 15.5293 11.0201
# 3 27.2074 33.0864 43.6532 -4.8660 14.4941 0.1854
# 4 -8.9617 -7.7678 -4.8660 22.7913 1.0935 2.5499
# 5 9.0331 15.5293 14.4941 1.0935 19.8403 -4.7679
# 6 0.5257 11.0201 0.1854 2.5499 -4.7679 28.5822
#
#
#
# Elastic Compliance Matrix: (Units=1/GPa)
#
#
# Indices 1 2 3 4 5 6 
#
# 1 0.007542 -0.000909 -0.003795 0.001840 -0.000035 0.000066
# 2 -0.000909 0.012696 -0.006473 0.003597 -0.006492 -0.006240
# 3 -0.003795 -0.006473 0.038038 0.005669 -0.021742 -0.001814
# 4 0.001840 0.003597 0.005669 0.048507 -0.012353 -0.007846
# 5 -0.000035 -0.006492 -0.021742 -0.012353 0.076012 0.016427
# 6 0.000066 -0.006240 -0.001814 -0.007846 0.016427 0.040843
#
#
# Mechanical properties :
#
#
# Convention : Reuss Voigt Hill
#
# Bulk Modulus (GPa) = 27.83865 54.94794 41.39329
# Shear Modulus (GPa) = 19.38251 28.71238 24.04744
#
# Velocity S-wave (km/s) = 3.05338 3.71629 3.40102
# Velocity P-wave (km/s) = 5.08147 6.69662 5.94416
#
# Compressibility (1/GPa) = 0.03592128
#
# Stress axis : x y z
#
# Youngs Moduli (GPa) = 132.58918 78.76777 26.28980
#
# Poissons Ratio (x) = 0.07162 0.09977
# Poissons Ratio (y) = 0.12056 0.17016
# Poissons Ratio (z) = 0.50319 0.50983
#
# Static dielectric constant tensor:
#      x y z
#    x 4.272070 0.068740 0.050800 
#    y 0.068740 3.875940 -0.160250 
#    z 0.050800 -0.160250 3.571580 
# 
# 
# High freq. dielectric constant tensor:
#      x y z
#    x 1.832580 0.009290 0.007260 
#    y 0.009290 1.812370 -0.013860 
#    z 0.007260 -0.013860 1.776770 
# 
# From -- ./inp_files/314664.got.cif
#   From: 2010.06.25/outbox.cif.g09.slc.cpg/sg2_158_cif.got.tgz:314664.got - 2010.06.27 13:26:56.
