data_PCOD8041443
_publ_section_title
;
Structure prediction by ZEFSAII (Michael W. Deem and Ramdas Pophale) SiO2 
 PCOD8041443
Probable space group: P -1
;
_chemical_formula_sum "Si O2"
_cell_formula_units_Z 16
_cell_length_a 21.865357
_cell_length_b 10.197675
_cell_length_c 14.404104
_cell_angle_alpha 135.069737
_cell_angle_beta 21.868988
_cell_angle_gamma 127.928074
_cell_volume 833.887897
_symmetry_space_group_name_H-M "P -1"
_symmetry_group_IT_number 2
_symmetry_cell_setting 'triclinic'
loop_
_space_group_symop_operation_xyz
x,y,z
-x,-y,-z
loop_
_atom_site_type_symbol
_atom_site_label
_atom_site_fract_x
_atom_site_fract_y
_atom_site_fract_z
Si Si1 0.866946 0.175130 0.673658
Si Si2 0.361218 0.912844 0.208172
Si Si3 0.767189 0.418483 0.343845
Si Si4 0.767189 0.929226 0.854590
Si Si5 0.409790 0.379240 0.135313
Si Si6 0.251832 0.475451 0.872252
Si Si7 0.424166 0.725078 0.613748
Si Si8 0.866946 0.726979 0.225504
O O1 0.757115 0.186569 0.741647
O O2 0.061265 0.102123 0.344173
O O3 0.792923 0.031832 0.773307
O O4 0.860016 0.382603 0.830254
O O5 0.242880 0.068067 0.512995
O O6 0.450753 0.757831 0.073872
O O7 0.500000 0.000000 0.000000
O O8 0.706033 0.478401 0.562540
O O9 0.630040 0.316321 0.434966
O O10 0.792920 0.606447 0.347924
O O11 0.938735 0.270023 0.027971
O O12 0.706029 0.735227 0.819372
O O13 0.630040 0.056274 0.174916
O O14 0.500000 0.500000 0.000000
O O15 0.342755 0.597539 0.735863
O O16 0.377862 0.329751 0.683210
O O17 0.139987 0.357945 0.910297
#
# Coordination Sequence:
#
# PCOD8041443 Si02
#       8
#     2   2   2   2   2   2   2   2
#     4  10  19  32  58  87 114 144 187 249 289 337
#     4  12  21  36  60  90 116 150 204 243 287 339
#     4  10  19  35  55  85 116 147 189 237 296 339
#     4  10  19  35  55  85 116 147 189 237 296 339
#     4  12  25  40  58  84 123 162 194 237 292 354
#     4   9  17  26  45  80 112 137 169 228 296 326
#     4   9  17  28  50  74 107 139 179 229 276 338
#     4  10  19  32  58  87 114 144 187 249 289 337
#
# _framework density 19.187231000000001
#
# number of rings (size 3 to 8) (size 9 to 14) (size 15 to 20)
#    0.000    1.750    2.500    3.000    3.500    4.000 
#    0.000    1.875    0.000    0.000    0.000    0.000 
#    0.000    0.000    0.000    0.000    0.000    0.000 
#
# Total GULP energy -198413.210262 kJ/mol
# GULP energy per Si atom -12400.825641 kJ/mol
# Density = 1.914356 g / cm^3
# Si number density = 19.187231 Si / 1000 Ang^3
#
#
#
# Elastic Constant Matrix: (Units=GPa)
#
#
# Indices 1 2 3 4 5 6 
#
# 1 100.6268 40.2957 27.6430 -1.4640 -5.3688 16.0983
# 2 40.2957 63.3944 34.9162 2.7801 7.0808 1.8758
# 3 27.6430 34.9162 96.4366 18.2454 0.2172 -3.6971
# 4 -1.4640 2.7801 18.2454 20.7070 6.1194 1.6640
# 5 -5.3688 7.0808 0.2172 6.1194 36.4588 9.5586
# 6 16.0983 1.8758 -3.6971 1.6640 9.5586 26.3184
#
#
#
# Elastic Compliance Matrix: (Units=1/GPa)
#
#
# Indices 1 2 3 4 5 6 
#
# 1 0.017224 -0.010192 -0.002449 0.003622 0.007344 -0.013049
# 2 -0.010192 0.026968 -0.007406 0.004361 -0.009076 0.006292
# 3 -0.002449 -0.007406 0.016755 -0.014988 0.002317 0.004486
# 4 0.003622 0.004361 -0.014988 0.064447 -0.009680 -0.005191
# 5 0.007344 -0.009076 0.002317 -0.009680 0.036081 -0.016012
# 6 -0.013049 0.006292 0.004486 -0.005191 -0.016012 0.052303
#
#
# Mechanical properties :
#
#
# Convention : Reuss Voigt Hill
#
# Bulk Modulus (GPa) = 47.95525 51.79640 49.87583
# Shear Modulus (GPa) = 19.16994 27.20370 23.18682
#
# Velocity S-wave (km/s) = 3.16428 3.76946 3.48005
# Velocity P-wave (km/s) = 6.19660 6.78225 6.49603
#
# Compressibility (1/GPa) = 0.02085277
#
# Stress axis : x y z
#
# Youngs Moduli (GPa) = 58.05814 37.08065 59.68254
#
# Poissons Ratio (x) = 0.37794 0.14617
# Poissons Ratio (y) = 0.59175 0.44201
# Poissons Ratio (z) = 0.14219 0.27462
#
# Static dielectric constant tensor:
#      x y z
#    x 3.693950 0.180320 -0.178980 
#    y 0.180320 3.103190 0.304570 
#    z -0.178980 0.304570 3.641930 
# 
# 
# High freq. dielectric constant tensor:
#      x y z
#    x 1.753210 0.030850 -0.013640 
#    y 0.030850 1.689970 0.028450 
#    z -0.013640 0.028450 1.756240 
# 
# From -- ./inp_files/348972.got.cif
#   From: 2010.06.25/outbox.cif.g09.slc.cpg/sg2_175_cif.got.tgz:348972.got - 2010.06.27 13:26:56.
