data_PCOD8041731
_publ_section_title
;
Structure prediction by ZEFSAII (Michael W. Deem and Ramdas Pophale) SiO2 
 PCOD8041731
Probable space group: P -1
;
_chemical_formula_sum "Si O2"
_cell_formula_units_Z 16
_cell_length_a 20.920464
_cell_length_b 8.445175
_cell_length_c 15.770424
_cell_angle_alpha 109.852559
_cell_angle_beta 19.708668
_cell_angle_gamma 120.567623
_cell_volume 710.086033
_symmetry_space_group_name_H-M "P -1"
_symmetry_group_IT_number 2
_symmetry_cell_setting 'triclinic'
loop_
_space_group_symop_operation_xyz
x,y,z
-x,-y,-z
loop_
_atom_site_type_symbol
_atom_site_label
_atom_site_fract_x
_atom_site_fract_y
_atom_site_fract_z
Si Si1 0.174319 0.833325 0.826293
Si Si2 0.279880 0.000375 0.454558
Si Si3 0.660559 0.491620 0.651880
Si Si4 0.314854 0.057305 0.071881
Si Si5 0.552257 0.292791 0.431387
Si Si6 0.136814 0.070017 0.470399
Si Si7 0.989382 0.594942 0.843265
Si Si8 0.333516 0.391499 0.515989
O O1 0.339240 0.801987 0.669097
O O2 0.106837 0.683149 0.803991
O O3 0.294602 0.077279 0.691605
O O4 0.948862 0.749558 0.150184
O O5 0.167733 0.971736 0.496781
O O6 0.379445 0.217042 0.417686
O O7 0.056040 0.795544 0.742792
O O8 0.515103 0.011500 0.164031
O O9 0.679173 0.682519 0.705521
O O10 0.902608 0.512190 0.356344
O O11 0.577864 0.464931 0.652373
O O12 0.466093 0.305010 0.919275
O O13 0.193405 0.984934 0.302705
O O14 0.117286 0.972323 0.229648
O O15 0.537723 0.458039 0.535259
O O16 0.707813 0.418020 0.175892
#
# Coordination Sequence:
#
# PCOD8041731 Si02
#       8
#     2   2   2   2   2   2   2   2
#     4  10  19  33  57  86 118 165 208 253 299 354
#     4  10  23  39  64  92 130 160 200 261 307 360
#     4  10  19  35  62  90 122 158 206 255 301 362
#     4  10  22  42  66  92 122 161 202 250 313 376
#     4  10  19  33  59  86 122 163 211 253 298 355
#     4  10  22  42  66  92 122 161 202 250 313 376
#     4  10  19  37  54  87 124 162 202 253 300 354
#     4  10  19  37  54  87 124 162 202 253 300 354
#
# _framework density 22.532482999999999
#
# number of rings (size 3 to 8) (size 9 to 14) (size 15 to 20)
#    0.000    2.000    2.500    1.500    0.000    6.000 
#    0.000   12.500    0.000   13.500    0.000    0.000 
#    0.000    0.000    0.000    0.000    0.000    0.000 
#
# Total GULP energy -198283.401040 kJ/mol
# GULP energy per Si atom -12392.712565 kJ/mol
# Density = 2.248120 g / cm^3
# Si number density = 22.532483 Si / 1000 Ang^3
#
#
#
# Elastic Constant Matrix: (Units=GPa)
#
#
# Indices 1 2 3 4 5 6 
#
# 1 68.8462 3.6912 36.1735 4.1682 -3.4421 -19.8644
# 2 3.6912 84.3787 26.2989 -7.1537 8.9878 -13.0871
# 3 36.1735 26.2989 74.1831 -5.3518 5.7456 -6.3170
# 4 4.1682 -7.1537 -5.3518 26.4902 -1.4935 1.8729
# 5 -3.4421 8.9878 5.7456 -1.4935 22.5457 -5.3942
# 6 -19.8644 -13.0871 -6.3170 1.8729 -5.3942 31.9721
#
#
#
# Elastic Compliance Matrix: (Units=1/GPa)
#
#
# Indices 1 2 3 4 5 6 
#
# 1 0.028837 0.004784 -0.015467 -0.007122 0.010514 0.019010
# 2 0.004784 0.015241 -0.006868 0.001350 -0.001715 0.007485
# 3 -0.015467 -0.006868 0.023647 0.005593 -0.007515 -0.009344
# 4 -0.007122 0.001350 0.005593 0.040655 -0.001656 -0.005428
# 5 0.010514 -0.001715 -0.007515 -0.001656 0.051594 0.013147
# 6 0.019010 0.007485 -0.009344 -0.005428 0.013147 0.046842
#
#
# Mechanical properties :
#
#
# Convention : Reuss Voigt Hill
#
# Bulk Modulus (GPa) = 30.65381 39.97057 35.31219
# Shear Modulus (GPa) = 19.77902 26.95120 23.36511
#
# Velocity S-wave (km/s) = 2.96598 3.46223 3.22367
# Velocity P-wave (km/s) = 5.03619 5.81036 5.43707
#
# Compressibility (1/GPa) = 0.03262237
#
# Stress axis : x y z
#
# Youngs Moduli (GPa) = 34.67742 65.61339 42.28863
#
# Poissons Ratio (x) = -0.31389 0.65408
# Poissons Ratio (y) = -0.16590 0.29045
# Poissons Ratio (z) = 0.53636 0.45065
#
# Static dielectric constant tensor:
#      x y z
#    x 3.913230 -0.150080 0.112070 
#    y -0.150080 4.220180 -0.190990 
#    z 0.112070 -0.190990 4.080590 
# 
# 
# High freq. dielectric constant tensor:
#      x y z
#    x 1.881560 -0.013370 0.005550 
#    y -0.013370 1.897750 -0.002010 
#    z 0.005550 -0.002010 1.882380 
# 
# From -- ./inp_files/540516.got.cif
#   From: 2010.06.25/outbox.cif.g09.slc.cpg/sg2_271_cif.got.tgz:540516.got - 2010.06.27 13:26:56.
