data_PCOD8041451
_publ_section_title
;
Structure prediction by ZEFSAII (Michael W. Deem and Ramdas Pophale) SiO2 
 PCOD8041451
Probable space group: P -1
;
_chemical_formula_sum "Si O2"
_cell_formula_units_Z 16
_cell_length_a 11.485933
_cell_length_b 8.136519
_cell_length_c 12.575401
_cell_angle_alpha 104.981733
_cell_angle_beta 46.057127
_cell_angle_gamma 121.289107
_cell_volume 713.152255
_symmetry_space_group_name_H-M "P -1"
_symmetry_group_IT_number 2
_symmetry_cell_setting 'triclinic'
loop_
_space_group_symop_operation_xyz
x,y,z
-x,-y,-z
loop_
_atom_site_type_symbol
_atom_site_label
_atom_site_fract_x
_atom_site_fract_y
_atom_site_fract_z
Si Si1 0.626917 0.968070 0.058090
Si Si2 0.514402 0.838000 0.330046
Si Si3 0.710540 0.311006 0.921591
Si Si4 0.776997 0.058348 0.383392
Si Si5 0.799326 0.948311 0.573869
Si Si6 0.968868 0.356920 0.591741
Si Si7 0.202157 0.301110 0.126480
Si Si8 0.337277 0.415138 0.298292
O O1 0.569647 0.980960 0.217296
O O2 0.459476 0.831832 0.066295
O O3 0.765202 0.877124 0.955070
O O4 0.727482 0.192500 0.990822
O O5 0.331900 0.823625 0.497640
O O6 0.489794 0.632695 0.267549
O O7 0.682077 0.918389 0.320277
O O8 0.906295 0.410348 0.750041
O O9 0.696061 0.509757 0.988589
O O10 0.983434 0.219501 0.250786
O O11 0.778933 0.920939 0.454904
O O12 0.629110 0.764951 0.715274
O O13 0.792094 0.145831 0.637918
O O14 0.000000 0.000000 0.500000
O O15 0.000000 0.500000 0.500000
O O16 0.162837 0.358609 0.480037
O O17 0.285173 0.396047 0.204816
#
# Coordination Sequence:
#
# PCOD8041451 Si02
#       8
#     2   2   2   2   2   2   2   2
#     4  11  25  40  63  97 139 170 213 276 331 394
#     4  11  25  45  63  91 135 175 212 270 340 392
#     4  11  22  37  64  97 134 167 219 267 335 384
#     4  11  24  44  68  92 127 174 222 269 331 395
#     4  10  19  32  59 101 121 152 212 278 316 372
#     4  11  17  33  61  94 126 164 206 270 319 372
#     4  12  22  41  68  99 126 171 224 270 323 396
#     4  11  21  34  66  96 126 159 217 275 321 373
#
# _framework density 22.435601999999999
#
# number of rings (size 3 to 8) (size 9 to 14) (size 15 to 20)
#    0.000    1.000    5.000    3.375    1.750    2.000 
#    0.000    0.625    0.000    0.000    0.000    0.000 
#    0.000    0.000    0.000    0.000    0.000    0.000 
#
# Total GULP energy -198253.100102 kJ/mol
# GULP energy per Si atom -12390.818756 kJ/mol
# Density = 2.238454 g / cm^3
# Si number density = 22.435602 Si / 1000 Ang^3
#
#
#
# Elastic Constant Matrix: (Units=GPa)
#
#
# Indices 1 2 3 4 5 6 
#
# 1 95.3344 59.1688 23.4688 -10.7612 24.4324 2.7661
# 2 59.1688 147.1376 34.2741 -24.6742 20.1908 -21.7036
# 3 23.4688 34.2741 53.8211 -8.4038 6.1832 -9.9098
# 4 -10.7612 -24.6742 -8.4038 40.1661 -12.4584 12.6304
# 5 24.4324 20.1908 6.1832 -12.4584 24.6123 -1.7462
# 6 2.7661 -21.7036 -9.9098 12.6304 -1.7462 41.2115
#
#
#
# Elastic Compliance Matrix: (Units=1/GPa)
#
#
# Indices 1 2 3 4 5 6 
#
# 1 0.018584 -0.005685 -0.004142 -0.002157 -0.014203 -0.005178
# 2 -0.005685 0.011106 -0.003204 0.002943 -0.000852 0.004522
# 3 -0.004142 -0.003204 0.023109 0.001078 0.001756 0.003892
# 4 -0.002157 0.002943 0.001078 0.033734 0.015985 -0.007707
# 5 -0.014203 -0.000852 0.001756 0.015985 0.062987 -0.001304
# 6 -0.005178 0.004522 0.003892 -0.007707 -0.001304 0.030237
#
#
# Mechanical properties :
#
#
# Convention : Reuss Voigt Hill
#
# Bulk Modulus (GPa) = 37.39858 58.90184 48.15021
# Shear Modulus (GPa) = 23.28496 33.15674 28.22085
#
# Velocity S-wave (km/s) = 3.22507 3.84847 3.55048
# Velocity P-wave (km/s) = 5.52934 6.78663 6.18999
#
# Compressibility (1/GPa) = 0.02673898
#
# Stress axis : x y z
#
# Youngs Moduli (GPa) = 53.80942 90.03970 43.27235
#
# Poissons Ratio (x) = 0.51187 0.17923
# Poissons Ratio (y) = 0.30590 0.13863
# Poissons Ratio (z) = 0.22287 0.28845
#
# Static dielectric constant tensor:
#      x y z
#    x 4.463640 -1.001270 -0.264140 
#    y -1.001270 5.150530 0.097500 
#    z -0.264140 0.097500 4.466550 
# 
# 
# High freq. dielectric constant tensor:
#      x y z
#    x 1.849610 -0.033510 -0.010520 
#    y -0.033510 1.891090 -0.011980 
#    z -0.010520 -0.011980 1.890200 
# 
# From -- ./inp_files/419531.got.cif
#   From: 2010.06.25/outbox.cif.g09.slc.cpg/sg2_210_cif.got.tgz:419531.got - 2010.06.27 13:26:56.
