data_PCOD8041786
_publ_section_title
;
Structure prediction by ZEFSAII (Michael W. Deem and Ramdas Pophale) SiO2 
 PCOD8041786
Probable space group: P -1
;
_chemical_formula_sum "Si O2"
_cell_formula_units_Z 14
_cell_length_a 18.371132
_cell_length_b 11.588059
_cell_length_c 9.043358
_cell_angle_alpha 40.701069
_cell_angle_beta 80.950749
_cell_angle_gamma 50.227479
_cell_volume 730.079411
_symmetry_space_group_name_H-M "P -1"
_symmetry_group_IT_number 2
_symmetry_cell_setting 'triclinic'
loop_
_space_group_symop_operation_xyz
x,y,z
-x,-y,-z
loop_
_atom_site_type_symbol
_atom_site_label
_atom_site_fract_x
_atom_site_fract_y
_atom_site_fract_z
Si Si1 0.652631 0.736226 0.594218
Si Si2 0.452385 0.351418 0.767900
Si Si3 0.428334 0.707906 0.963374
Si Si4 0.272651 0.854088 0.107774
Si Si5 0.614105 0.825258 0.844867
Si Si6 0.282889 0.205576 0.897130
Si Si7 0.856678 0.247318 0.772773
O O1 0.680015 0.640254 0.850935
O O2 0.777187 0.448295 0.747664
O O3 0.533774 0.853303 0.456227
O O4 0.624299 0.998138 0.342802
O O5 0.470373 0.475942 0.758083
O O6 0.393833 0.539189 0.455836
O O7 0.367421 0.366516 0.854790
O O8 0.588777 0.002545 0.030069
O O9 0.313697 0.810433 0.965192
O O10 0.500000 0.500000 0.000000
O O11 0.161606 0.926708 0.084602
O O12 0.230182 0.115315 0.953052
O O13 0.685223 0.849795 0.881991
O O14 0.183621 0.549065 0.548396
O O15 0.000000 0.000000 0.000000
#
# Coordination Sequence:
#
# PCOD8041786 Si02
#       7
#     2   2   2   2   2   2   2
#     4  10  22  37  56  94 127 157 193 242 309 358
#     4  10  19  33  58  92 124 153 189 237 313 376
#     4  10  21  32  55  96 132 148 180 244 317 369
#     4  11  23  37  62  89 120 156 203 242 303 367
#     4  10  19  34  64  86 125 152 181 252 319 359
#     4  11  20  39  57  91 119 154 200 248 298 359
#     4  12  25  43  62  81 118 170 217 247 280 347
#
# _framework density 19.175993999999999
#
# number of rings (size 3 to 8) (size 9 to 14) (size 15 to 20)
#    0.000    1.429    5.714    3.000   10.000    0.571 
#    0.000    0.714    0.000    0.857    0.000    0.000 
#    0.000    0.000    0.000    0.000    0.000    0.000 
#
# Total GULP energy -173499.549320 kJ/mol
# GULP energy per Si atom -12392.824951 kJ/mol
# Density = 1.913235 g / cm^3
# Si number density = 19.175994 Si / 1000 Ang^3
#
#
#
# Elastic Constant Matrix: (Units=GPa)
#
#
# Indices 1 2 3 4 5 6 
#
# 1 132.2918 41.7059 48.1911 -4.1508 4.3609 9.9516
# 2 41.7059 98.2368 34.6631 10.5830 18.5718 18.4853
# 3 48.1911 34.6631 77.0875 5.9468 6.8585 1.4777
# 4 -4.1508 10.5830 5.9468 24.5910 -2.0403 4.8211
# 5 4.3609 18.5718 6.8585 -2.0403 31.3828 1.9140
# 6 9.9516 18.4853 1.4777 4.8211 1.9140 24.8006
#
#
#
# Elastic Compliance Matrix: (Units=1/GPa)
#
#
# Indices 1 2 3 4 5 6 
#
# 1 0.011046 -0.002911 -0.006136 0.005381 0.002068 -0.003102
# 2 -0.002911 0.016963 -0.004446 -0.005559 -0.008446 -0.009478
# 3 -0.006136 -0.004446 0.019207 -0.005002 -0.001388 0.005711
# 4 0.005381 -0.005559 -0.005002 0.047231 0.007160 -0.007452
# 5 0.002068 -0.008446 -0.001388 0.007160 0.037266 0.001280
# 6 -0.003102 -0.009478 0.005711 -0.007452 0.001280 0.049640
#
#
# Mechanical properties :
#
#
# Convention : Reuss Voigt Hill
#
# Bulk Modulus (GPa) = 49.43062 61.85958 55.64510
# Shear Modulus (GPa) = 23.24685 28.35862 25.80274
#
# Velocity S-wave (km/s) = 3.48557 3.84977 3.67219
# Velocity P-wave (km/s) = 6.48323 7.21733 6.86011
#
# Compressibility (1/GPa) = 0.02023038
#
# Stress axis : x y z
#
# Youngs Moduli (GPa) = 90.52951 58.95112 52.06412
#
# Poissons Ratio (x) = 0.17163 0.31946
# Poissons Ratio (y) = 0.26356 0.23146
# Poissons Ratio (z) = 0.55549 0.26208
#
# Static dielectric constant tensor:
#      x y z
#    x 3.797920 0.376440 -0.202630 
#    y 0.376440 3.656100 0.392220 
#    z -0.202630 0.392220 3.338410 
# 
# 
# High freq. dielectric constant tensor:
#      x y z
#    x 1.743510 0.024580 -0.025630 
#    y 0.024580 1.727960 0.033820 
#    z -0.025630 0.033820 1.724130 
# 
# From -- ./inp_files/295392.got.cif
#   From: 2010.06.25/outbox.cif.g09.slc.cpg/sg2_148_cif.got.tgz:295392.got - 2010.06.27 13:26:56.
