data_PCOD8041118
_publ_section_title
;
Structure prediction by ZEFSAII (Michael W. Deem and Ramdas Pophale) SiO2 
 PCOD8041118
Probable space group: P -1
;
_chemical_formula_sum "Si O2"
_cell_formula_units_Z 16
_cell_length_a 13.239477
_cell_length_b 11.273378
_cell_length_c 8.899762
_cell_angle_alpha 81.966438
_cell_angle_beta 47.051595
_cell_angle_gamma 106.262919
_cell_volume 823.654392
_symmetry_space_group_name_H-M "P -1"
_symmetry_group_IT_number 2
_symmetry_cell_setting 'triclinic'
loop_
_space_group_symop_operation_xyz
x,y,z
-x,-y,-z
loop_
_atom_site_type_symbol
_atom_site_label
_atom_site_fract_x
_atom_site_fract_y
_atom_site_fract_z
Si Si1 0.865222 0.270096 0.181238
Si Si2 0.246880 0.423104 0.318196
Si Si3 0.543680 0.458218 0.190141
Si Si4 0.415325 0.695735 0.557316
Si Si5 0.867242 0.493967 0.313873
Si Si6 0.853571 0.868814 0.593378
Si Si7 0.311695 0.231752 0.934979
Si Si8 0.037537 0.947913 0.819155
O O1 0.683839 0.226305 0.321067
O O2 0.916197 0.376003 0.256307
O O3 0.866314 0.131314 0.239052
O O4 0.991141 0.353349 0.906341
O O5 0.370990 0.407381 0.302079
O O6 0.162815 0.493072 0.482368
O O7 0.118983 0.262874 0.425593
O O8 0.332425 0.522265 0.071630
O O9 0.527436 0.339880 0.340700
O O10 0.612752 0.602563 0.184526
O O11 0.295433 0.553073 0.610160
O O12 0.571744 0.799849 0.278012
O O13 0.696339 0.815129 0.872613
O O14 0.000000 0.000000 0.500000
O O15 0.839847 0.919774 0.432379
O O16 0.131231 0.154675 0.070598
O O17 0.000000 0.000000 0.000000
#
# Coordination Sequence:
#
# PCOD8041118 Si02
#       8
#     2   2   2   2   2   2   2   2
#     4   9  20  35  56  82 117 145 183 228 283 339
#     4  10  19  33  56  87 113 139 192 229 280 335
#     4  10  19  30  56  89 115 139 174 247 286 322
#     4  10  19  33  55  82 116 144 175 229 299 327
#     4   9  18  34  56  81 119 145 172 234 291 334
#     4   9  21  37  53  80 117 148 190 234 265 322
#     4  10  20  35  58  84 110 145 192 234 279 324
#     4  11  22  37  62  80 107 157 197 222 268 335
#
# _framework density 19.425622000000001
#
# number of rings (size 3 to 8) (size 9 to 14) (size 15 to 20)
#    0.750    1.500    1.250    1.875    3.500    0.000 
#    0.000    1.875    8.250    0.000    0.000    0.000 
#    0.000    0.000    0.000    0.000    0.000    0.000 
#
# Total GULP energy -198230.646134 kJ/mol
# GULP energy per Si atom -12389.415383 kJ/mol
# Density = 1.938141 g / cm^3
# Si number density = 19.425622 Si / 1000 Ang^3
#
#
#
# Elastic Constant Matrix: (Units=GPa)
#
#
# Indices 1 2 3 4 5 6 
#
# 1 56.0285 14.5583 39.5747 3.5354 5.1357 -8.5112
# 2 14.5583 77.8553 37.6666 12.9222 11.5539 -3.3737
# 3 39.5747 37.6666 145.4717 19.5952 16.6561 -19.6323
# 4 3.5354 12.9222 19.5952 28.3483 2.9937 1.3792
# 5 5.1357 11.5539 16.6561 2.9937 30.3044 -1.8343
# 6 -8.5112 -3.3737 -19.6323 1.3792 -1.8343 26.5985
#
#
#
# Elastic Compliance Matrix: (Units=1/GPa)
#
#
# Indices 1 2 3 4 5 6 
#
# 1 0.022518 -0.001671 -0.005517 0.001644 -0.000138 0.002826
# 2 -0.001671 0.015757 -0.002611 -0.004739 -0.003850 -0.000483
# 3 -0.005517 -0.002611 0.011006 -0.005690 -0.003187 0.006102
# 4 0.001644 -0.004739 -0.005690 0.041457 0.000172 -0.006412
# 5 -0.000138 -0.003850 -0.003187 0.000172 0.036201 -0.000397
# 6 0.002826 -0.000483 0.006102 -0.006412 -0.000397 0.043248
#
#
# Mechanical properties :
#
#
# Convention : Reuss Voigt Hill
#
# Bulk Modulus (GPa) = 33.69160 51.43944 42.56552
# Shear Modulus (GPa) = 25.03998 29.55399 27.29698
#
# Velocity S-wave (km/s) = 3.59418 3.90473 3.75267
# Velocity P-wave (km/s) = 5.88267 6.84594 6.38250
#
# Compressibility (1/GPa) = 0.02968099
#
# Stress axis : x y z
#
# Youngs Moduli (GPa) = 44.40972 63.46279 90.85839
#
# Poissons Ratio (x) = 0.10607 0.50130
# Poissons Ratio (y) = 0.07422 0.23726
# Poissons Ratio (z) = 0.24502 0.16572
#
# Static dielectric constant tensor:
#      x y z
#    x 3.302070 0.166670 0.123480 
#    y 0.166670 3.432790 0.099440 
#    z 0.123480 0.099440 3.959910 
# 
# 
# High freq. dielectric constant tensor:
#      x y z
#    x 1.717320 0.016930 0.002630 
#    y 0.016930 1.738800 0.010350 
#    z 0.002630 0.010350 1.775340 
# 
# From -- ./inp_files/305075.got.cif
#   From: 2010.06.25/outbox.cif.g09.slc.cpg/sg2_153_cif.got.tgz:305075.got - 2010.06.27 13:26:56.
