data_PCOD8041543
_publ_section_title
;
Structure prediction by ZEFSAII (Michael W. Deem and Ramdas Pophale) SiO2 
 PCOD8041543
Probable space group: P -1
;
_chemical_formula_sum "Si O2"
_cell_formula_units_Z 12
_cell_length_a 33.722256
_cell_length_b 32.844344
_cell_length_c 13.072068
_cell_angle_alpha 17.914244
_cell_angle_beta 162.282935
_cell_angle_gamma 171.375929
_cell_volume 645.533538
_symmetry_space_group_name_H-M "P -1"
_symmetry_group_IT_number 2
_symmetry_cell_setting 'triclinic'
loop_
_space_group_symop_operation_xyz
x,y,z
-x,-y,-z
loop_
_atom_site_type_symbol
_atom_site_label
_atom_site_fract_x
_atom_site_fract_y
_atom_site_fract_z
Si Si1 0.789264 0.569462 0.732190
Si Si2 0.683674 0.864062 0.070144
Si Si3 0.965077 0.001739 0.079970
Si Si4 0.385636 0.043295 0.127055
Si Si5 0.835945 0.727175 0.874217
Si Si6 0.626131 0.745600 0.682055
O O1 0.623020 0.383173 0.663169
O O2 0.613796 0.352930 0.911709
O O3 0.785608 0.727794 0.352952
O O4 0.099305 0.792964 0.959356
O O5 0.761170 0.808572 0.463161
O O6 0.405725 0.591409 0.977750
O O7 0.666308 0.974198 0.839297
O O8 0.908562 0.098337 0.978540
O O9 0.102090 0.218490 0.982338
O O10 0.180412 0.108643 0.288105
O O11 0.796278 0.948473 0.714575
O O12 0.500000 0.000000 0.500000
O O13 0.500000 0.500000 0.000000
#
# Coordination Sequence:
#
# PCOD8041543 Si02
#       6
#     2   2   2   2   2   2
#     4  11  20  36  54  79 112 140 178 230 266 313
#     4  10  21  33  49  78 105 146 179 210 269 322
#     4  10  19  33  53  86 114 144 169 217 283 336
#     4  12  24  38  56  77 109 151 192 223 257 308
#     4  10  20  31  54  75 113 140 166 218 274 333
#     4   9  19  31  55  80 117 137 176 215 278 342
#
# _framework density 18.589274
#
# number of rings (size 3 to 8) (size 9 to 14) (size 15 to 20)
#    0.000    1.667    3.333    1.500    9.333    0.000 
#    0.000    0.000    0.000    0.000    0.000    7.000 
#    0.000    0.000    0.000    0.000    0.000    0.000 
#
# Total GULP energy -148694.410679 kJ/mol
# GULP energy per Si atom -12391.200890 kJ/mol
# Density = 1.854696 g / cm^3
# Si number density = 18.589274 Si / 1000 Ang^3
#
#
#
# Elastic Constant Matrix: (Units=GPa)
#
#
# Indices 1 2 3 4 5 6 
#
# 1 134.1873 57.1771 48.9905 16.9680 -2.3475 -22.4665
# 2 57.1771 125.5130 33.2724 21.5544 -3.7477 -11.0654
# 3 48.9905 33.2724 48.9247 17.1574 2.8309 -10.0129
# 4 16.9680 21.5544 17.1574 28.4849 -1.6307 -14.4892
# 5 -2.3475 -3.7477 2.8309 -1.6307 21.9243 5.2121
# 6 -22.4665 -11.0654 -10.0129 -14.4892 5.2121 37.1096
#
#
#
# Elastic Compliance Matrix: (Units=1/GPa)
#
#
# Indices 1 2 3 4 5 6 
#
# 1 0.013576 -0.003267 -0.011878 0.004460 0.001434 0.005580
# 2 -0.003267 0.011042 -0.002777 -0.005586 0.001929 -0.001887
# 3 -0.011878 -0.002777 0.039958 -0.016695 -0.007505 -0.002702
# 4 0.004460 -0.005586 -0.016695 0.056085 0.001520 0.018214
# 5 0.001434 0.001929 -0.007505 0.001520 0.048804 -0.006843
# 6 0.005580 -0.001887 -0.002702 0.018214 -0.006843 0.037106
#
#
# Mechanical properties :
#
#
# Convention : Reuss Voigt Hill
#
# Bulk Modulus (GPa) = 34.80280 65.27832 50.04056
# Shear Modulus (GPa) = 19.84192 28.78276 24.31234
#
# Velocity S-wave (km/s) = 3.27063 3.93918 3.62037
# Velocity P-wave (km/s) = 5.74677 7.47542 6.66735
#
# Compressibility (1/GPa) = 0.02873332
#
# Stress axis : x y z
#
# Youngs Moduli (GPa) = 73.65872 90.56070 25.02642
#
# Poissons Ratio (x) = 0.29587 0.29725
# Poissons Ratio (y) = 0.24065 0.06950
# Poissons Ratio (z) = 0.87488 0.25148
#
# Static dielectric constant tensor:
#      x y z
#    x 3.603520 -0.327860 -0.485000 
#    y -0.327860 3.250550 0.401170 
#    z -0.485000 0.401170 3.101320 
# 
# 
# High freq. dielectric constant tensor:
#      x y z
#    x 1.713220 -0.002830 -0.033580 
#    y -0.002830 1.754820 0.012110 
#    z -0.033580 0.012110 1.652570 
# 
# From -- ./inp_files/61045.got.cif
#   From: 2010.06.25/outbox.cif.g09.slc.cpg/sg2_31_cif.got.tgz:61045.got - 2010.06.27 13:26:56.
