data_PCOD8041032
_publ_section_title
;
Structure prediction by ZEFSAII (Michael W. Deem and Ramdas Pophale) SiO2 
 PCOD8041032
Probable space group: P -1
;
_chemical_formula_sum "Si O2"
_cell_formula_units_Z 14
_cell_length_a 14.719578
_cell_length_b 12.643767
_cell_length_c 11.514498
_cell_angle_alpha 82.909105
_cell_angle_beta 29.863348
_cell_angle_gamma 100.863879
_cell_volume 848.633794
_symmetry_space_group_name_H-M "P -1"
_symmetry_group_IT_number 2
_symmetry_cell_setting 'triclinic'
loop_
_space_group_symop_operation_xyz
x,y,z
-x,-y,-z
loop_
_atom_site_type_symbol
_atom_site_label
_atom_site_fract_x
_atom_site_fract_y
_atom_site_fract_z
Si Si1 0.565058 0.452187 0.825009
Si Si2 0.755235 0.629451 0.205769
Si Si3 0.642606 0.294185 0.118310
Si Si4 0.808169 0.354936 0.684701
Si Si5 0.035204 0.321237 0.801615
Si Si6 0.836999 0.847574 0.233637
Si Si7 0.178343 0.402510 0.115973
O O1 0.618105 0.350380 0.820391
O O2 0.793250 0.578503 0.499886
O O3 0.500000 0.500000 0.000000
O O4 0.355654 0.379631 0.976720
O O5 0.500000 0.500000 0.500000
O O6 0.885005 0.610712 0.167867
O O7 0.757747 0.756683 0.217037
O O8 0.881208 0.652741 0.941359
O O9 0.380889 0.182636 0.453581
O O10 0.687740 0.261097 0.943813
O O11 0.700226 0.439824 0.037816
O O12 0.787981 0.281559 0.054374
O O13 0.000000 0.500000 0.500000
O O14 0.939686 0.315750 0.462911
O O15 0.031313 0.190402 0.823044
O O16 0.000000 0.000000 0.000000
#
# Coordination Sequence:
#
# PCOD8041032 Si02
#       7
#     2   2   2   2   2   2   2
#     4  12  16  27  48  76 109 136 168 206 262 308
#     4  10  19  35  51  77 109 138 168 216 262 304
#     4  11  18  33  53  77 109 133 172 218 258 306
#     4  10  19  27  47  79 108 134 164 212 268 300
#     4  10  20  31  50  78 103 138 174 202 267 305
#     4  10  22  38  53  73 106 142 177 213 255 309
#     4  11  18  31  48  75 115 132 163 214 259 310
#
# _framework density 16.497104
#
# number of rings (size 3 to 8) (size 9 to 14) (size 15 to 20)
#    0.857    0.571   10.000    0.000    0.000    1.143 
#    2.571    0.000    0.000    0.857    0.000    7.000 
#    0.000    0.000    0.000    0.000    0.000    0.000 
#
# Total GULP energy -173510.544610 kJ/mol
# GULP energy per Si atom -12393.610329 kJ/mol
# Density = 1.645956 g / cm^3
# Si number density = 16.497104 Si / 1000 Ang^3
#
#
#
# Elastic Constant Matrix: (Units=GPa)
#
#
# Indices 1 2 3 4 5 6 
#
# 1 119.9719 30.5261 46.6480 10.0577 -3.3795 -12.5490
# 2 30.5261 47.3262 42.0725 3.4020 -0.0594 4.2658
# 3 46.6480 42.0725 108.3196 14.7429 7.1582 3.6599
# 4 10.0577 3.4020 14.7429 26.9387 0.1942 1.3914
# 5 -3.3795 -0.0594 7.1582 0.1942 29.3653 20.1582
# 6 -12.5490 4.2658 3.6599 1.3914 20.1582 27.4597
#
#
#
# Elastic Compliance Matrix: (Units=1/GPa)
#
#
# Indices 1 2 3 4 5 6 
#
# 1 0.012179 -0.006677 -0.002238 -0.003022 -0.005824 0.011330
# 2 -0.006677 0.038541 -0.013262 0.005751 0.015513 -0.018951
# 3 -0.002238 -0.013262 0.016605 -0.006764 -0.007490 0.004665
# 4 -0.003022 0.005751 -0.006764 0.041617 0.006909 -0.008554
# 5 -0.005824 0.015513 -0.007490 0.006909 0.077069 -0.061000
# 6 0.011330 -0.018951 0.004665 -0.008554 -0.061000 0.089131
#
#
# Mechanical properties :
#
#
# Convention : Reuss Voigt Hill
#
# Bulk Modulus (GPa) = 43.53421 57.12344 50.32882
# Shear Modulus (GPa) = 15.28344 27.17748 21.23046
#
# Velocity S-wave (km/s) = 3.04704 4.06323 3.59126
# Velocity P-wave (km/s) = 6.23101 7.53091 6.91159
#
# Compressibility (1/GPa) = 0.02297044
#
# Stress axis : x y z
#
# Youngs Moduli (GPa) = 82.10982 25.94665 60.22449
#
# Poissons Ratio (x) = 0.17326 0.13477
# Poissons Ratio (y) = 0.54828 0.79867
# Poissons Ratio (z) = 0.18375 0.34409
#
# Static dielectric constant tensor:
#      x y z
#    x 3.586410 0.060710 0.188230 
#    y 0.060710 2.936860 0.576120 
#    z 0.188230 0.576120 3.323050 
# 
# 
# High freq. dielectric constant tensor:
#      x y z
#    x 1.647280 -0.008650 0.008250 
#    y -0.008650 1.584880 0.042240 
#    z 0.008250 0.042240 1.627550 
# 
# From -- ./inp_files/429756.got.cif
#   From: 2010.06.25/outbox.cif.g09.slc.cpg/sg2_215_cif.got.tgz:429756.got - 2010.06.27 13:26:56.
