data_PCOD8041834
_publ_section_title
;
Structure prediction by ZEFSAII (Michael W. Deem and Ramdas Pophale) SiO2 
 PCOD8041834
Probable space group: P -1
;
_chemical_formula_sum "Si O2"
_cell_formula_units_Z 16
_cell_length_a 13.985279
_cell_length_b 14.944179
_cell_length_c 11.263040
_cell_angle_alpha 45.729923
_cell_angle_beta 32.447322
_cell_angle_gamma 31.429571
_cell_volume 656.523144
_symmetry_space_group_name_H-M "P -1"
_symmetry_group_IT_number 2
_symmetry_cell_setting 'triclinic'
loop_
_space_group_symop_operation_xyz
x,y,z
-x,-y,-z
loop_
_atom_site_type_symbol
_atom_site_label
_atom_site_fract_x
_atom_site_fract_y
_atom_site_fract_z
Si Si1 0.627133 0.664611 0.865483
Si Si2 0.632345 0.741720 0.388096
Si Si3 0.197408 0.798446 0.351303
Si Si4 0.002200 0.358414 0.363052
Si Si5 0.091487 0.814703 0.701983
Si Si6 0.292275 0.183258 0.994012
Si Si7 0.944677 0.284473 0.932533
Si Si8 0.344790 0.950350 0.702334
O O1 0.815175 0.686136 0.681568
O O2 0.769850 0.464405 0.875866
O O3 0.462458 0.786911 0.814883
O O4 0.454909 0.722364 0.104545
O O5 0.375932 0.880523 0.600649
O O6 0.743097 0.552016 0.468027
O O7 0.829612 0.746153 0.224104
O O8 0.585095 0.777671 0.262671
O O9 0.258071 0.724199 0.492228
O O10 0.067751 0.752700 0.451845
O O11 0.992110 0.002881 0.369570
O O12 0.132419 0.329308 0.127416
O O13 0.859851 0.838221 0.905716
O O14 0.205368 0.711249 0.804835
O O15 0.500000 0.000000 0.000000
O O16 0.061287 0.119659 0.876953
O O17 0.500000 0.000000 0.500000
#
# Coordination Sequence:
#
# PCOD8041834 Si02
#       8
#     2   2   2   2   2   2   2   2
#     4  11  22  40  68  95 121 175 208 253 327 368
#     4   9  20  37  57  89 125 164 204 267 307 364
#     4  10  20  37  63  91 133 168 202 265 313 374
#     4  10  22  37  62  97 125 157 210 260 312 381
#     4   9  18  36  58  90 132 166 203 262 314 368
#     4  10  19  33  60  93 124 161 205 257 319 378
#     4   9  19  36  63  91 124 161 217 258 303 379
#     4  10  21  38  66  91 126 167 216 261 305 375
#
# _framework density 24.370808
#
# number of rings (size 3 to 8) (size 9 to 14) (size 15 to 20)
#    0.000    2.250    1.250    1.125    3.500    6.000 
#    0.000    4.375    0.000    1.500    0.000    0.000 
#    0.000    0.000    0.000    0.000    0.000    0.000 
#
# Total GULP energy -198250.876589 kJ/mol
# GULP energy per Si atom -12390.679787 kJ/mol
# Density = 2.431534 g / cm^3
# Si number density = 24.370808 Si / 1000 Ang^3
#
#
#
# Elastic Constant Matrix: (Units=GPa)
#
#
# Indices 1 2 3 4 5 6 
#
# 1 30.0625 18.3692 -2.6095 1.3911 4.8039 6.3848
# 2 18.3692 120.2951 21.0891 4.0084 14.5274 7.4652
# 3 -2.6095 21.0891 73.2098 1.7825 18.3849 -0.6065
# 4 1.3911 4.0084 1.7825 29.9485 -0.2198 4.4060
# 5 4.8039 14.5274 18.3849 -0.2198 22.4646 0.2663
# 6 6.3848 7.4652 -0.6065 4.4060 0.2663 30.6053
#
#
#
# Elastic Compliance Matrix: (Units=1/GPa)
#
#
# Indices 1 2 3 4 5 6 
#
# 1 0.040010 -0.005482 0.005288 -0.000514 -0.009264 -0.006750
# 2 -0.005482 0.010064 -0.002198 -0.000810 -0.003530 -0.001207
# 3 0.005288 -0.002198 0.018175 -0.001153 -0.014596 0.000086
# 4 -0.000514 -0.000810 -0.001153 0.034293 0.001968 -0.004672
# 5 -0.009264 -0.003530 -0.014596 0.001968 0.060723 0.001693
# 6 -0.006750 -0.001207 0.000086 -0.004672 0.001693 0.035036
#
#
# Mechanical properties :
#
#
# Convention : Reuss Voigt Hill
#
# Bulk Modulus (GPa) = 15.75648 33.02944 24.39296
# Shear Modulus (GPa) = 22.29742 29.05159 25.67450
#
# Velocity S-wave (km/s) = 3.02805 3.45637 3.24928
# Velocity P-wave (km/s) = 4.32491 5.43240 4.90998
#
# Compressibility (1/GPa) = 0.06346596
#
# Stress axis : x y z
#
# Youngs Moduli (GPa) = 24.99345 99.36810 55.01956
#
# Poissons Ratio (x) = 0.54473 -0.29096
# Poissons Ratio (y) = 0.13701 0.12094
# Poissons Ratio (z) = -0.13217 0.21842
#
# Static dielectric constant tensor:
#      x y z
#    x 3.913270 0.345070 0.327610 
#    y 0.345070 4.742320 0.181510 
#    z 0.327610 0.181510 4.692130 
# 
# 
# High freq. dielectric constant tensor:
#      x y z
#    x 1.936150 0.014960 0.016400 
#    y 0.014960 1.969670 -0.004860 
#    z 0.016400 -0.004860 1.971170 
# 
# From -- ./inp_files/455539.got.cif
#   From: 2010.06.25/outbox.cif.g09.slc.cpg/sg2_228_cif.got.tgz:455539.got - 2010.06.27 13:26:56.
