data_PCOD8041374
_publ_section_title
;
Structure prediction by ZEFSAII (Michael W. Deem and Ramdas Pophale) SiO2 
 PCOD8041374
Probable space group: P -1
;
_chemical_formula_sum "Si O2"
_cell_formula_units_Z 16
_cell_length_a 12.945111
_cell_length_b 18.209907
_cell_length_c 10.203622
_cell_angle_alpha 114.322921
_cell_angle_beta 54.592313
_cell_angle_gamma 152.231541
_cell_volume 880.606019
_symmetry_space_group_name_H-M "P -1"
_symmetry_group_IT_number 2
_symmetry_cell_setting 'triclinic'
loop_
_space_group_symop_operation_xyz
x,y,z
-x,-y,-z
loop_
_atom_site_type_symbol
_atom_site_label
_atom_site_fract_x
_atom_site_fract_y
_atom_site_fract_z
Si Si1 0.713709 0.852753 0.762450
Si Si2 0.185924 0.779042 0.946021
Si Si3 0.630841 0.491797 0.237550
Si Si4 0.253581 0.697910 0.601931
Si Si5 0.287921 0.149706 0.540179
Si Si6 0.626725 0.488510 0.540179
Si Si7 0.086568 0.642239 0.398069
Si Si8 0.534722 0.127840 0.946020
O O1 0.528311 0.676104 0.798324
O O2 0.708122 0.876976 0.633037
O O3 0.622455 0.876318 0.935056
O O4 0.002296 0.987338 0.689803
O O5 0.245271 0.765888 0.759288
O O6 0.334332 0.944777 0.959446
O O7 0.270590 0.770590 0.000001
O O8 0.884045 0.630181 0.064944
O O9 0.714683 0.545830 0.366963
O O10 0.457423 0.472380 0.310197
O O11 0.533947 0.811885 0.479871
O O12 0.209658 0.709659 0.500001
O O13 0.037819 0.512606 0.662394
O O14 0.384517 0.294839 0.585731
O O15 0.867764 0.589825 0.520129
O O16 0.307124 0.786506 0.240712
#
# Coordination Sequence:
#
# PCOD8041374 Si02
#       8
#     2   2   2   2   2   2   2   2
#     4  10  19  32  55  82 109 142 181 227 274 321
#     4  11  22  35  55  83 113 144 183 229 272 320
#     4  10  19  32  55  82 109 142 181 227 274 321
#     4  10  21  38  59  82 111 147 183 222 274 331
#     4   9  18  33  53  80 112 142 176 224 275 323
#     4   9  18  33  53  80 112 142 176 224 275 323
#     4  10  21  38  59  82 111 147 183 222 274 331
#     4  11  22  35  55  83 113 144 183 229 272 320
#
# _framework density 18.169305999999999
#
# number of rings (size 3 to 8) (size 9 to 14) (size 15 to 20)
#    0.000    2.000    2.500    1.500    0.000    3.500 
#    0.000    1.250    0.000    0.000    0.000    0.000 
#    0.000    0.000    0.000    0.000    0.000    0.000 
#
# Total GULP energy -198479.799922 kJ/mol
# GULP energy per Si atom -12404.987495 kJ/mol
# Density = 1.812795 g / cm^3
# Si number density = 18.169306 Si / 1000 Ang^3
#
#
#
# Elastic Constant Matrix: (Units=GPa)
#
#
# Indices 1 2 3 4 5 6 
#
# 1 112.6545 46.4714 52.8409 2.7085 -9.4288 11.3451
# 2 46.4714 84.2358 51.7464 -10.7571 -7.1810 4.1421
# 3 52.8409 51.7464 87.6582 -4.6085 -12.7263 0.4252
# 4 2.7085 -10.7571 -4.6085 33.2647 -2.9632 -5.0722
# 5 -9.4288 -7.1810 -12.7263 -2.9632 27.8220 3.7154
# 6 11.3451 4.1421 0.4252 -5.0722 3.7154 25.6533
#
#
#
# Elastic Compliance Matrix: (Units=1/GPa)
#
#
# Indices 1 2 3 4 5 6 
#
# 1 0.014417 -0.004273 -0.006159 -0.004297 0.001394 -0.006635
# 2 -0.004273 0.020716 -0.009309 0.005751 0.000280 -0.000204
# 3 -0.006159 -0.009309 0.021399 0.001424 0.004992 0.003431
# 4 -0.004297 0.005751 0.001424 0.033857 0.003329 0.007160
# 5 0.001394 0.000280 0.004992 0.003329 0.039909 -0.005866
# 6 -0.006635 -0.000204 0.003431 0.007160 -0.005866 0.044157
#
#
# Mechanical properties :
#
#
# Convention : Reuss Voigt Hill
#
# Bulk Modulus (GPa) = 58.65617 65.18513 61.92065
# Shear Modulus (GPa) = 22.76658 26.24732 24.50695
#
# Velocity S-wave (km/s) = 3.54365 3.80491 3.67660
# Velocity P-wave (km/s) = 7.00689 7.43354 7.22336
#
# Compressibility (1/GPa) = 0.01704850
#
# Stress axis : x y z
#
# Youngs Moduli (GPa) = 69.36424 48.27205 46.73153
#
# Poissons Ratio (x) = 0.20629 0.28782
# Poissons Ratio (y) = 0.29643 0.43502
# Poissons Ratio (z) = 0.42722 0.44936
#
# Static dielectric constant tensor:
#      x y z
#    x 3.404110 0.031780 -0.152060 
#    y 0.031780 3.350770 -0.058930 
#    z -0.152060 -0.058930 3.117550 
# 
# 
# High freq. dielectric constant tensor:
#      x y z
#    x 1.701440 -0.002500 -0.020390 
#    y -0.002500 1.707590 -0.008110 
#    z -0.020390 -0.008110 1.688870 
# 
# From -- ./inp_files/181539.got.cif
#   From: 2010.06.25/outbox.cif.g09.slc.cpg/sg2_91_cif.got.tgz:181539.got - 2010.06.27 13:26:56.
