data_PCOD8041870
_publ_section_title
;
Structure prediction by ZEFSAII (Michael W. Deem and Ramdas Pophale) SiO2 
 PCOD8041870
Probable space group: P -1
;
_chemical_formula_sum "Si O2"
_cell_formula_units_Z 14
_cell_length_a 14.854706
_cell_length_b 14.528506
_cell_length_c 8.525487
_cell_angle_alpha 134.512507
_cell_angle_beta 146.953808
_cell_angle_gamma 42.621032
_cell_volume 661.491230
_symmetry_space_group_name_H-M "P -1"
_symmetry_group_IT_number 2
_symmetry_cell_setting 'triclinic'
loop_
_space_group_symop_operation_xyz
x,y,z
-x,-y,-z
loop_
_atom_site_type_symbol
_atom_site_label
_atom_site_fract_x
_atom_site_fract_y
_atom_site_fract_z
Si Si1 0.064502 0.892321 0.326395
Si Si2 0.357833 0.845010 0.450986
Si Si3 0.130258 0.074070 0.211949
Si Si4 0.026266 0.388381 0.542954
Si Si5 0.363377 0.359277 0.192695
Si Si6 0.331418 0.652115 0.596701
Si Si7 0.320006 0.630878 0.897847
O O1 0.218717 0.911412 0.468652
O O2 0.151440 0.736099 0.336818
O O3 0.000000 0.000000 0.500000
O O4 0.889937 0.915258 0.993191
O O5 0.557459 0.773783 0.730530
O O6 0.330682 0.973587 0.443755
O O7 0.306042 0.729321 0.144068
O O8 0.089039 0.229487 0.391308
O O9 0.000000 0.000000 0.000000
O O10 0.000000 0.500000 0.500000
O O11 0.835071 0.429901 0.394077
O O12 0.165530 0.391122 0.881970
O O13 0.363268 0.490099 0.448737
O O14 0.495480 0.329636 0.201584
O O15 0.305793 0.711418 0.807897
O O16 0.500000 0.500000 0.000000
#
# Coordination Sequence:
#
# PCOD8041870 Si02
#       7
#     2   2   2   2   2   2   2
#     4  10  19  33  63  96 119 165 226 270 309 388
#     4  10  21  40  64  93 126 176 222 264 321 397
#     4  10  20  40  66  91 128 174 218 261 330 393
#     4  12  25  40  68 101 134 169 222 281 329 379
#     4  10  22  41  63  95 136 172 216 279 327 381
#     4  10  21  38  66  91 134 178 220 261 337 395
#     4  12  22  40  69  98 130 176 221 265 330 404
#
# _framework density 21.164303
#
# number of rings (size 3 to 8) (size 9 to 14) (size 15 to 20)
#    0.000    1.429    4.286    2.571    4.000    1.143 
#    0.000    0.000    0.000    6.857    0.000    0.000 
#    0.000    0.000    0.000    0.000    0.000    0.000 
#
# Total GULP energy -173461.407377 kJ/mol
# GULP energy per Si atom -12390.100527 kJ/mol
# Density = 2.111613 g / cm^3
# Si number density = 21.164303 Si / 1000 Ang^3
#
#
#
# Elastic Constant Matrix: (Units=GPa)
#
#
# Indices 1 2 3 4 5 6 
#
# 1 86.5525 35.3970 35.4874 -12.6351 -15.5150 -7.7100
# 2 35.3970 153.3731 42.6021 -30.0635 -2.4070 18.0358
# 3 35.4874 42.6021 95.4141 -27.7833 -5.3676 2.7602
# 4 -12.6351 -30.0635 -27.7833 47.9959 5.6314 -11.4489
# 5 -15.5150 -2.4070 -5.3676 5.6314 30.1223 -4.0215
# 6 -7.7100 18.0358 2.7602 -11.4489 -4.0215 36.7777
#
#
#
# Elastic Compliance Matrix: (Units=1/GPa)
#
#
# Indices 1 2 3 4 5 6 
#
# 1 0.016820 -0.003202 -0.004417 0.000425 0.008406 0.006479
# 2 -0.003202 0.008809 -0.001931 0.002829 -0.002382 -0.004226
# 3 -0.004417 -0.001931 0.014804 0.006502 -0.000895 0.000836
# 4 0.000425 0.002829 0.006502 0.028424 -0.002809 0.006755
# 5 0.008406 -0.002382 -0.000895 -0.002809 0.038549 0.006339
# 6 0.006479 -0.004226 0.000836 0.006755 0.006339 0.033354
#
#
# Mechanical properties :
#
#
# Convention : Reuss Voigt Hill
#
# Bulk Modulus (GPa) = 46.87177 62.47922 54.67549
# Shear Modulus (GPa) = 29.94523 37.76940 33.85731
#
# Velocity S-wave (km/s) = 3.76559 4.22901 4.00401
# Velocity P-wave (km/s) = 6.41100 7.30966 6.87503
#
# Compressibility (1/GPa) = 0.02133480
#
# Stress axis : x y z
#
# Youngs Moduli (GPa) = 59.45230 113.51608 67.54807
#
# Poissons Ratio (x) = 0.36344 0.29838
# Poissons Ratio (y) = 0.19035 0.13040
# Poissons Ratio (z) = 0.26262 0.21915
#
# Static dielectric constant tensor:
#      x y z
#    x 4.820050 0.473300 -0.539070 
#    y 0.473300 4.612180 -0.467210 
#    z -0.539070 -0.467210 3.878280 
# 
# 
# High freq. dielectric constant tensor:
#      x y z
#    x 1.809370 0.005010 -0.037290 
#    y 0.005010 1.857510 -0.024780 
#    z -0.037290 -0.024780 1.806400 
# 
# From -- ./inp_files/240703.got.cif
#   From: 2010.06.25/outbox.cif.g09.slc.cpg/sg2_121_cif.got.tgz:240703.got - 2010.06.27 13:26:56.
