data_PCOD8041858
_publ_section_title
;
Structure prediction by ZEFSAII (Michael W. Deem and Ramdas Pophale) SiO2 
 PCOD8041858
Probable space group: P -1
;
_chemical_formula_sum "Si O2"
_cell_formula_units_Z 14
_cell_length_a 14.192423
_cell_length_b 8.769036
_cell_length_c 9.998215
_cell_angle_alpha 139.316180
_cell_angle_beta 45.621790
_cell_angle_gamma 118.889189
_cell_volume 576.772432
_symmetry_space_group_name_H-M "P -1"
_symmetry_group_IT_number 2
_symmetry_cell_setting 'triclinic'
loop_
_space_group_symop_operation_xyz
x,y,z
-x,-y,-z
loop_
_atom_site_type_symbol
_atom_site_label
_atom_site_fract_x
_atom_site_fract_y
_atom_site_fract_z
Si Si1 0.377249 0.949012 0.452625
Si Si2 0.148625 0.667622 0.846486
Si Si3 0.585929 0.164029 0.246054
Si Si4 0.274365 0.495499 0.354572
Si Si5 0.488942 0.633647 0.810267
Si Si6 0.851508 0.729555 0.205584
Si Si7 0.714385 0.615502 0.018403
O O1 0.512569 0.942825 0.226685
O O2 0.249763 0.032800 0.538018
O O3 0.367388 0.698867 0.361564
O O4 0.375576 0.135150 0.702541
O O5 0.256388 0.852394 0.890466
O O6 0.152925 0.592908 0.635439
O O7 0.184043 0.435270 0.746433
O O8 0.002994 0.792078 0.107620
O O9 0.510224 0.391551 0.543676
O O10 0.562305 0.165555 0.110665
O O11 0.372761 0.310027 0.219569
O O12 0.224647 0.388881 0.195041
O O13 0.375750 0.601192 0.013199
O O14 0.834348 0.589135 0.989505
#
# Coordination Sequence:
#
# PCOD8041858 Si02
#       7
#     2   2   2   2   2   2   2
#     4   9  20  36  56  83 113 144 177 228 277 329
#     4  10  19  33  62  82 100 158 185 219 270 338
#     4   9  15  32  56  80 108 143 190 217 270 323
#     4  11  21  32  59  85 113 139 185 223 285 318
#     4   9  16  30  54  79 107 145 175 225 266 325
#     4   9  19  38  58  78 111 147 190 215 279 323
#     4   9  19  36  54  80 118 140 175 236 270 322
#
# _framework density 24.273007
#
# number of rings (size 3 to 8) (size 9 to 14) (size 15 to 20)
#    0.857    1.714    1.429    2.143    0.000    6.286 
#    0.000    0.714    6.286    1.714    0.000    1.000 
#    0.000    0.000    0.000    0.000    0.000    0.000 
#
# Total GULP energy -173518.338620 kJ/mol
# GULP energy per Si atom -12394.167044 kJ/mol
# Density = 2.421776 g / cm^3
# Si number density = 24.273007 Si / 1000 Ang^3
#
#
#
# Elastic Constant Matrix: (Units=GPa)
#
#
# Indices 1 2 3 4 5 6 
#
# 1 95.8471 28.1781 29.0318 -23.7055 -8.6273 -0.4179
# 2 28.1781 68.6919 23.8292 -23.4317 -4.6158 -2.4302
# 3 29.0318 23.8292 72.3919 -26.0008 6.7625 -4.8192
# 4 -23.7055 -23.4317 -26.0008 26.2964 -2.3664 1.6830
# 5 -8.6273 -4.6158 6.7625 -2.3664 43.0856 -18.1581
# 6 -0.4179 -2.4302 -4.8192 1.6830 -18.1581 30.4052
#
#
#
# Elastic Compliance Matrix: (Units=1/GPa)
#
#
# Indices 1 2 3 4 5 6 
#
# 1 0.014311 -0.001441 -0.001982 0.009931 0.004327 0.001802
# 2 -0.001441 0.021832 -0.000336 0.018013 0.004513 0.003370
# 3 -0.001982 -0.000336 0.021955 0.019345 -0.002437 0.000899
# 4 0.009931 0.018013 0.019345 0.082531 0.007278 0.004420
# 5 0.004327 0.004513 -0.002437 0.007278 0.033657 0.019731
# 6 0.001802 0.003370 0.000899 0.004420 0.019731 0.044865
#
#
# Mechanical properties :
#
#
# Convention : Reuss Voigt Hill
#
# Bulk Modulus (GPa) = 19.77070 44.33434 32.05252
# Shear Modulus (GPa) = 20.53140 30.35021 25.44081
#
# Velocity S-wave (km/s) = 2.91151 3.53989 3.24097
# Velocity P-wave (km/s) = 4.41196 5.91712 5.21908
#
# Compressibility (1/GPa) = 0.05057989
#
# Stress axis : x y z
#
# Youngs Moduli (GPa) = 69.87701 45.80352 45.54799
#
# Poissons Ratio (x) = 0.06598 0.09029
# Poissons Ratio (y) = 0.10066 0.01532
# Poissons Ratio (z) = 0.13851 0.01540
#
# Static dielectric constant tensor:
#      x y z
#    x 4.264900 -0.214040 0.273060 
#    y -0.214040 4.161310 -0.349280 
#    z 0.273060 -0.349280 4.111210 
# 
# 
# High freq. dielectric constant tensor:
#      x y z
#    x 1.956970 -0.019090 0.020180 
#    y -0.019090 1.955260 -0.020490 
#    z 0.020180 -0.020490 1.946400 
# 
# From -- ./inp_files/293168.got.cif
#   From: 2010.06.25/outbox.cif.g09.slc.cpg/sg2_147_cif.got.tgz:293168.got - 2010.06.27 13:26:56.
