data_PCOD8041336
_publ_section_title
;
Structure prediction by ZEFSAII (Michael W. Deem and Ramdas Pophale) SiO2 
 PCOD8041336
Probable space group: P -1
;
_chemical_formula_sum "Si O2"
_cell_formula_units_Z 16
_cell_length_a 14.743389
_cell_length_b 11.396113
_cell_length_c 17.827567
_cell_angle_alpha 62.845678
_cell_angle_beta 158.616062
_cell_angle_gamma 106.769444
_cell_volume 881.644403
_symmetry_space_group_name_H-M "P -1"
_symmetry_group_IT_number 2
_symmetry_cell_setting 'triclinic'
loop_
_space_group_symop_operation_xyz
x,y,z
-x,-y,-z
loop_
_atom_site_type_symbol
_atom_site_label
_atom_site_fract_x
_atom_site_fract_y
_atom_site_fract_z
Si Si1 0.516648 0.846239 0.631765
Si Si2 0.214860 0.831093 0.705649
Si Si3 0.212143 0.160619 0.527348
Si Si4 0.809985 0.110592 0.491938
Si Si5 0.431418 0.342414 0.543652
Si Si6 0.918760 0.412242 0.901539
Si Si7 0.592012 0.954390 0.000466
Si Si8 0.701667 0.091414 0.709638
O O1 0.418459 0.803781 0.646799
O O2 0.299034 0.864763 0.391574
O O3 0.519350 0.001751 0.602456
O O4 0.818190 0.730358 0.877331
O O5 0.229904 0.787549 0.642157
O O6 0.085273 0.750390 0.685324
O O7 0.514793 0.817795 0.964213
O O8 0.000000 0.000000 0.500000
O O9 0.291456 0.277843 0.514316
O O10 0.196719 0.042585 0.491221
O O11 0.441471 0.084457 0.788750
O O12 0.091069 0.088127 0.754611
O O13 0.683512 0.368008 0.767292
O O14 0.196524 0.493463 0.289788
O O15 0.550475 0.239503 0.594302
O O16 0.000000 0.500000 0.000000
O O17 0.500000 0.000000 0.000000
O O18 0.000000 0.000000 0.000000
#
# Coordination Sequence:
#
# PCOD8041336 Si02
#       8
#     2   2   2   2   2   2   2   2
#     4  11  23  35  59  82 116 152 187 235 285 341
#     4   8  16  29  45  77 116 137 175 220 277 339
#     4  10  19  30  53  84 111 141 185 228 282 336
#     4  10  18  30  50  83 115 145 175 225 285 333
#     4  11  23  39  61  80 113 153 193 239 282 335
#     4  11  24  44  56  76 114 158 201 232 278 342
#     4  10  15  28  48  77 120 148 167 222 287 336
#     4  11  22  36  55  88 114 137 187 244 288 329
#
# _framework density 18.147905999999999
#
# number of rings (size 3 to 8) (size 9 to 14) (size 15 to 20)
#    0.000    2.000    7.500    0.000    1.750    1.000 
#    0.000    0.000    0.000    0.750    0.000    1.750 
#    0.000    0.000    0.000    0.000    0.000    0.000 
#
# Total GULP energy -198267.175505 kJ/mol
# GULP energy per Si atom -12391.698469 kJ/mol
# Density = 1.810660 g / cm^3
# Si number density = 18.147906 Si / 1000 Ang^3
#
#
#
# Elastic Constant Matrix: (Units=GPa)
#
#
# Indices 1 2 3 4 5 6 
#
# 1 130.1906 36.5901 36.2351 15.7448 -3.1109 19.0317
# 2 36.5901 75.9462 31.4417 20.5551 0.2370 12.4690
# 3 36.2351 31.4417 99.2726 20.9542 -9.0891 4.1456
# 4 15.7448 20.5551 20.9542 29.1705 -2.9431 2.0908
# 5 -3.1109 0.2370 -9.0891 -2.9431 20.2603 6.3827
# 6 19.0317 12.4690 4.1456 2.0908 6.3827 30.2208
#
#
#
# Elastic Compliance Matrix: (Units=1/GPa)
#
#
# Indices 1 2 3 4 5 6 
#
# 1 0.010013 -0.002729 -0.002086 -0.001398 0.002080 -0.005236
# 2 -0.002729 0.019124 -0.002991 -0.009712 -0.001920 -0.004684
# 3 -0.002086 -0.002991 0.013484 -0.005967 0.004871 0.000082
# 4 -0.001398 -0.009712 -0.005967 0.046381 0.003399 0.001779
# 5 0.002080 -0.001920 0.004871 0.003399 0.056591 -0.013373
# 6 -0.005236 -0.004684 0.000082 0.001779 -0.013373 0.041010
#
#
# Mechanical properties :
#
#
# Convention : Reuss Voigt Hill
#
# Bulk Modulus (GPa) = 37.02543 57.10479 47.06511
# Shear Modulus (GPa) = 23.67217 29.33985 26.50601
#
# Velocity S-wave (km/s) = 3.61557 4.02519 3.82587
# Velocity P-wave (km/s) = 6.15436 7.28955 6.74587
#
# Compressibility (1/GPa) = 0.02700847
#
# Stress axis : x y z
#
# Youngs Moduli (GPa) = 99.87181 52.29048 74.16129
#
# Poissons Ratio (x) = 0.14269 0.15473
# Poissons Ratio (y) = 0.27254 0.22182
# Poissons Ratio (z) = 0.20837 0.15640
#
# Static dielectric constant tensor:
#      x y z
#    x 3.682940 0.120180 -0.024310 
#    y 0.120180 3.335590 0.414390 
#    z -0.024310 0.414390 3.531690 
# 
# 
# High freq. dielectric constant tensor:
#      x y z
#    x 1.709930 0.004190 -0.005940 
#    y 0.004190 1.673610 0.036510 
#    z -0.005940 0.036510 1.697770 
# 
# From -- ./inp_files/456740.got.cif
#   From: 2010.06.25/outbox.cif.g09.slc.cpg/sg2_229_cif.got.tgz:456740.got - 2010.06.27 13:26:56.
