data_PCOD8041399
_publ_section_title
;
Structure prediction by ZEFSAII (Michael W. Deem and Ramdas Pophale) SiO2 
 PCOD8041399
Probable space group: P -1
;
_chemical_formula_sum "Si O2"
_cell_formula_units_Z 14
_cell_length_a 9.477886
_cell_length_b 10.722276
_cell_length_c 10.005715
_cell_angle_alpha 127.607021
_cell_angle_beta 108.426709
_cell_angle_gamma 92.461667
_cell_volume 725.643355
_symmetry_space_group_name_H-M "P -1"
_symmetry_group_IT_number 2
_symmetry_cell_setting 'triclinic'
loop_
_space_group_symop_operation_xyz
x,y,z
-x,-y,-z
loop_
_atom_site_type_symbol
_atom_site_label
_atom_site_fract_x
_atom_site_fract_y
_atom_site_fract_z
Si Si1 0.462636 0.165991 0.126364
Si Si2 0.246540 0.081549 0.779847
Si Si3 0.960507 0.154368 0.853946
Si Si4 0.960044 0.626423 0.735195
Si Si5 0.230835 0.159420 0.287228
Si Si6 0.199394 0.718529 0.641146
Si Si7 0.337612 0.037002 0.485052
O O1 0.341967 0.132297 0.188270
O O2 0.627791 0.302146 0.301466
O O3 0.500000 0.000000 0.000000
O O4 0.379090 0.206279 0.995081
O O5 0.905910 0.858690 0.216935
O O6 0.205111 0.890982 0.688001
O O7 0.313206 0.104331 0.666061
O O8 0.923100 0.003645 0.852629
O O9 0.803219 0.133541 0.705375
O O10 0.014511 0.322378 0.067544
O O11 0.824331 0.683673 0.660210
O O12 0.902212 0.427039 0.581584
O O13 0.121905 0.702209 0.753627
O O14 0.328954 0.179242 0.469151
O O15 0.500000 0.000000 0.500000
#
# Coordination Sequence:
#
# PCOD8041399 Si02
#       7
#     2   2   2   2   2   2   2
#     4  10  19  32  56  83 108 140 187 231 268 317
#     4  11  19  37  56  85 109 148 185 229 271 331
#     4  10  20  34  59  80 110 144 189 225 272 328
#     4  11  20  37  55  88 111 150 178 233 282 325
#     4  10  20  35  58  80 111 143 185 231 272 324
#     4  10  22  33  57  84 119 140 186 229 281 328
#     4  10  22  33  56  86 111 141 187 232 275 321
#
# _framework density 19.293225
#
# number of rings (size 3 to 8) (size 9 to 14) (size 15 to 20)
#    0.857    0.857    2.857    4.286    2.000    0.571 
#    0.000    0.714    0.000    0.857    0.000    0.000 
#    0.000    0.000    0.000    0.000    0.000    0.000 
#
# Total GULP energy -173490.176084 kJ/mol
# GULP energy per Si atom -12392.155435 kJ/mol
# Density = 1.924931 g / cm^3
# Si number density = 19.293225 Si / 1000 Ang^3
#
#
#
# Elastic Constant Matrix: (Units=GPa)
#
#
# Indices 1 2 3 4 5 6 
#
# 1 140.2153 2.1951 48.6930 -14.0725 -9.6554 6.8825
# 2 2.1951 17.3874 19.9838 -6.6283 -5.3372 2.7037
# 3 48.6930 19.9838 109.9607 -21.9034 -9.4805 12.3761
# 4 -14.0725 -6.6283 -21.9034 30.4711 1.3262 -5.1727
# 5 -9.6554 -5.3372 -9.4805 1.3262 38.9777 -12.1556
# 6 6.8825 2.7037 12.3761 -5.1727 -12.1556 16.4154
#
#
#
# Elastic Compliance Matrix: (Units=1/GPa)
#
#
# Indices 1 2 3 4 5 6 
#
# 1 0.008885 0.005226 -0.004380 0.002159 0.002067 0.000927
# 2 0.005226 0.079618 -0.014664 0.009846 0.010321 0.006496
# 3 -0.004380 -0.014664 0.015270 0.004635 -0.001749 -0.007096
# 4 0.002159 0.009846 0.004635 0.040853 0.004885 0.010470
# 5 0.002067 0.010321 -0.001749 0.004885 0.035212 0.026366
# 6 0.000927 0.006496 -0.007096 0.010470 0.026366 0.087633
#
#
# Mechanical properties :
#
#
# Convention : Reuss Voigt Hill
#
# Bulk Modulus (GPa) = 13.13436 45.47859 29.30647
# Shear Modulus (GPa) = 15.60137 30.28562 22.94349
#
# Velocity S-wave (km/s) = 2.84675 3.96631 3.45222
# Velocity P-wave (km/s) = 4.19856 6.67825 5.57794
#
# Compressibility (1/GPa) = 0.07613618
#
# Stress axis : x y z
#
# Youngs Moduli (GPa) = 112.55325 12.56003 65.48877
#
# Poissons Ratio (x) = -0.06564 0.28685
# Poissons Ratio (y) = -0.58819 0.96030
# Poissons Ratio (z) = 0.49301 0.18418
#
# Static dielectric constant tensor:
#      x y z
#    x 3.891400 0.198670 0.374890 
#    y 0.198670 2.927610 -0.209470 
#    z 0.374890 -0.209470 3.575170 
# 
# 
# High freq. dielectric constant tensor:
#      x y z
#    x 1.773310 0.005280 -0.001060 
#    y 0.005280 1.695610 -0.013850 
#    z -0.001060 -0.013850 1.752410 
# 
# From -- ./inp_files/250445.got.cif
#   From: 2010.06.25/outbox.cif.g09.slc.cpg/sg2_126_cif.got.tgz:250445.got - 2010.06.27 13:26:56.
