data_PCOD8041476
_publ_section_title
;
Structure prediction by ZEFSAII (Michael W. Deem and Ramdas Pophale) SiO2 
 PCOD8041476
Probable space group: P -1
;
_chemical_formula_sum "Si O2"
_cell_formula_units_Z 16
_cell_length_a 12.901617
_cell_length_b 15.415345
_cell_length_c 14.172460
_cell_angle_alpha 142.077995
_cell_angle_beta 43.086008
_cell_angle_gamma 107.237258
_cell_volume 882.238913
_symmetry_space_group_name_H-M "P -1"
_symmetry_group_IT_number 2
_symmetry_cell_setting 'triclinic'
loop_
_space_group_symop_operation_xyz
x,y,z
-x,-y,-z
loop_
_atom_site_type_symbol
_atom_site_label
_atom_site_fract_x
_atom_site_fract_y
_atom_site_fract_z
Si Si1 0.995604 0.283781 0.994573
Si Si2 0.997530 0.589534 0.708306
Si Si3 0.596929 0.702949 0.577336
Si Si4 0.134387 0.029472 0.383402
Si Si5 0.896393 0.762535 0.731024
Si Si6 0.152209 0.279336 0.700752
Si Si7 0.140941 0.941124 0.091092
Si Si8 0.408480 0.226478 0.149599
O O1 0.082909 0.315103 0.053483
O O2 0.774989 0.474727 0.269272
O O3 0.979920 0.129330 0.899741
O O4 0.164233 0.196509 0.724251
O O5 0.949165 0.453121 0.600377
O O6 0.245657 0.451754 0.425434
O O7 0.898907 0.750432 0.832561
O O8 0.636906 0.786011 0.534906
O O9 0.591737 0.798255 0.758644
O O10 0.379391 0.762734 0.758483
O O11 0.104370 0.033195 0.295917
O O12 0.064445 0.226348 0.634673
O O13 0.371932 0.863163 0.111802
O O14 0.000000 0.000000 0.500000
O O15 0.669680 0.869983 0.931576
O O16 0.953844 0.886498 0.771167
O O17 0.000000 0.500000 0.000000
#
# Coordination Sequence:
#
# PCOD8041476 Si02
#       8
#     2   2   2   2   2   2   2   2
#     4  10  19  33  47  76 109 134 157 211 258 301
#     4   8  18  35  53  75  95 134 178 211 249 287
#     4   9  18  32  51  74 106 133 168 198 251 315
#     4  11  20  32  49  79 108 132 161 200 261 312
#     4   9  17  33  55  77  91 131 183 214 241 286
#     4  10  20  32  46  71 107 141 157 194 253 308
#     4  11  20  30  53  80 100 132 168 212 251 298
#     4   8  16  32  55  74  98 130 172 212 237 296
#
# _framework density 18.135677000000001
#
# number of rings (size 3 to 8) (size 9 to 14) (size 15 to 20)
#    0.750    1.750    1.250    1.875    1.750    2.500 
#    0.000    0.000    0.000    3.750    0.000    0.000 
#    0.000    0.000    0.000    0.000    0.000    0.000 
#
# Total GULP energy -198221.157820 kJ/mol
# GULP energy per Si atom -12388.822364 kJ/mol
# Density = 1.809440 g / cm^3
# Si number density = 18.135677 Si / 1000 Ang^3
#
#
#
# Elastic Constant Matrix: (Units=GPa)
#
#
# Indices 1 2 3 4 5 6 
#
# 1 52.9307 31.8724 21.0742 -8.6128 14.6690 -7.5522
# 2 31.8724 132.1277 36.9880 -10.6876 2.5082 -2.8702
# 3 21.0742 36.9880 61.8067 -12.2236 12.2586 -2.1201
# 4 -8.6128 -10.6876 -12.2236 30.9309 2.2709 2.2409
# 5 14.6690 2.5082 12.2586 2.2709 22.3735 0.4507
# 6 -7.5522 -2.8702 -2.1201 2.2409 0.4507 26.8940
#
#
#
# Elastic Compliance Matrix: (Units=1/GPa)
#
#
# Indices 1 2 3 4 5 6 
#
# 1 0.030597 -0.005893 -0.001445 0.006790 -0.019451 0.007610
# 2 -0.005893 0.010344 -0.005479 -0.000582 0.005786 -0.001031
# 3 -0.001445 -0.005479 0.024031 0.008082 -0.012435 0.000439
# 4 0.006790 -0.000582 0.008082 0.038180 -0.012680 -0.000487
# 5 -0.019451 0.005786 -0.012435 -0.012680 0.065018 -0.005858
# 6 0.007610 -0.001031 0.000439 -0.000487 -0.005858 0.039383
#
#
# Mechanical properties :
#
#
# Convention : Reuss Voigt Hill
#
# Bulk Modulus (GPa) = 25.41989 47.41491 36.41740
# Shear Modulus (GPa) = 20.30044 26.50171 23.40107
#
# Velocity S-wave (km/s) = 3.34932 3.82685 3.59602
# Velocity P-wave (km/s) = 5.38555 6.76222 6.11277
#
# Compressibility (1/GPa) = 0.03933928
#
# Stress axis : x y z
#
# Youngs Moduli (GPa) = 32.68283 96.66976 41.61300
#
# Poissons Ratio (x) = 0.56964 0.06011
# Poissons Ratio (y) = 0.19259 0.22802
# Poissons Ratio (z) = 0.04721 0.52970
#
# Static dielectric constant tensor:
#      x y z
#    x 3.234730 -0.081450 0.302620 
#    y -0.081450 3.470390 -0.251590 
#    z 0.302620 -0.251590 3.549550 
# 
# 
# High freq. dielectric constant tensor:
#      x y z
#    x 1.675080 -0.002680 0.027340 
#    y -0.002680 1.697620 -0.000220 
#    z 0.027340 -0.000220 1.689060 
# 
# From -- ./inp_files/508646.got.cif
#   From: 2010.06.25/outbox.cif.g09.slc.cpg/sg2_255_cif.got.tgz:508646.got - 2010.06.27 13:26:56.
