data_PCOD8041922
_publ_section_title
;
Structure prediction by ZEFSAII (Michael W. Deem and Ramdas Pophale) SiO2 
 PCOD8041922
Probable space group: P -1
;
_chemical_formula_sum "Si O2"
_cell_formula_units_Z 14
_cell_length_a 8.080884
_cell_length_b 9.146658
_cell_length_c 8.551276
_cell_angle_alpha 100.289842
_cell_angle_beta 62.875577
_cell_angle_gamma 84.096913
_cell_volume 541.094889
_symmetry_space_group_name_H-M "P -1"
_symmetry_group_IT_number 2
_symmetry_cell_setting 'triclinic'
loop_
_space_group_symop_operation_xyz
x,y,z
-x,-y,-z
loop_
_atom_site_type_symbol
_atom_site_label
_atom_site_fract_x
_atom_site_fract_y
_atom_site_fract_z
Si Si1 0.377343 0.942915 0.743352
Si Si2 0.928904 0.811168 0.968189
Si Si3 0.150521 0.422106 0.265840
Si Si4 0.607507 0.621851 0.553208
Si Si5 0.203834 0.701695 0.572361
Si Si6 0.256856 0.986540 0.466283
Si Si7 0.957971 0.725949 0.290028
O O1 0.412490 0.758543 0.659759
O O2 0.321056 0.029473 0.620714
O O3 0.579748 0.983105 0.718082
O O4 0.209305 0.019641 0.950606
O O5 0.817892 0.687311 0.920865
O O6 0.112099 0.813673 0.778701
O O7 0.002606 0.759082 0.098424
O O8 0.328079 0.369313 0.292688
O O9 0.950462 0.399163 0.432684
O O10 0.133343 0.595885 0.249264
O O11 0.606383 0.434718 0.498155
O O12 0.762065 0.662622 0.374501
O O13 0.237507 0.811063 0.436176
O O14 0.063499 0.120235 0.559590
#
# Coordination Sequence:
#
# PCOD8041922 Si02
#       7
#     2   2   2   2   2   2   2
#     4   9  19  34  52  76 108 142 163 212 265 318
#     4   9  19  32  57  81 102 128 184 215 260 289
#     4   9  19  33  53  81 104 137 172 217 253 312
#     4  10  19  34  54  75 111 140 173 200 267 318
#     4   9  19  32  55  82 101 132 178 225 245 301
#     4   9  18  34  54  78 107 133 178 211 262 303
#     4   9  16  31  52  77 100 135 171 218 246 305
#
# _framework density 25.873464999999999
#
# number of rings (size 3 to 8) (size 9 to 14) (size 15 to 20)
#    0.857    2.000    0.000    3.000    0.000    3.429 
#    0.000    6.429    3.143    0.857    3.714    0.000 
#    0.000    0.000    0.000    0.000    0.000    0.000 
#
# Total GULP energy -173465.342957 kJ/mol
# GULP energy per Si atom -12390.381640 kJ/mol
# Density = 2.581458 g / cm^3
# Si number density = 25.873465 Si / 1000 Ang^3
#
#
#
# Elastic Constant Matrix: (Units=GPa)
#
#
# Indices 1 2 3 4 5 6 
#
# 1 64.4066 57.9583 29.6591 10.3672 -9.7297 -16.3349
# 2 57.9583 209.5482 18.2407 25.7957 -4.0812 11.1445
# 3 29.6591 18.2407 57.8129 11.9903 -7.7602 -6.6653
# 4 10.3672 25.7957 11.9903 38.7658 -2.6517 -5.0007
# 5 -9.7297 -4.0812 -7.7602 -2.6517 28.6387 5.7035
# 6 -16.3349 11.1445 -6.6653 -5.0007 5.7035 44.9701
#
#
#
# Elastic Compliance Matrix: (Units=1/GPa)
#
#
# Indices 1 2 3 4 5 6 
#
# 1 0.032346 -0.008759 -0.012486 0.002860 0.004263 0.011847
# 2 -0.008759 0.007785 0.002237 -0.004239 -0.000623 -0.005172
# 3 -0.012486 0.002237 0.024264 -0.005794 0.002607 -0.002468
# 4 0.002860 -0.004239 -0.005794 0.030274 0.000703 0.004508
# 5 0.004263 -0.000623 0.002607 0.000703 0.037566 -0.002597
# 6 0.011847 -0.005172 -0.002468 0.004508 -0.002597 0.028287
#
#
# Mechanical properties :
#
#
# Convention : Reuss Voigt Hill
#
# Bulk Modulus (GPa) = 37.90858 60.38709 49.14784
# Shear Modulus (GPa) = 24.11615 37.53556 30.82585
#
# Velocity S-wave (km/s) = 3.05631 3.81298 3.45542
# Velocity P-wave (km/s) = 5.20942 6.54027 5.91241
#
# Compressibility (1/GPa) = 0.02637925
#
# Stress axis : x y z
#
# Youngs Moduli (GPa) = 30.91569 128.45531 41.21344
#
# Poissons Ratio (x) = 1.12510 0.51458
# Poissons Ratio (y) = 0.27078 -0.09218
# Poissons Ratio (z) = 0.38600 -0.28730
#
# Static dielectric constant tensor:
#      x y z
#    x 4.675430 -0.074780 -0.088570 
#    y -0.074780 5.056770 0.327930 
#    z -0.088570 0.327930 4.170080 
# 
# 
# High freq. dielectric constant tensor:
#      x y z
#    x 2.055610 0.001940 0.001880 
#    y 0.001940 2.083300 0.027150 
#    z 0.001880 0.027150 1.985940 
# 
# From -- ./inp_files/238124.got.cif
#   From: 2010.06.25/outbox.cif.g09.slc.cpg/sg2_120_cif.got.tgz:238124.got - 2010.06.27 13:26:56.
