data_PCOD8041762
_publ_section_title
;
Structure prediction by ZEFSAII (Michael W. Deem and Ramdas Pophale) SiO2 
 PCOD8041762
Probable space group: P -1
;
_chemical_formula_sum "Si O2"
_cell_formula_units_Z 16
_cell_length_a 10.854885
_cell_length_b 11.989097
_cell_length_c 11.893570
_cell_angle_alpha 141.104283
_cell_angle_beta 54.254650
_cell_angle_gamma 119.689341
_cell_volume 786.296714
_symmetry_space_group_name_H-M "P -1"
_symmetry_group_IT_number 2
_symmetry_cell_setting 'triclinic'
loop_
_space_group_symop_operation_xyz
x,y,z
-x,-y,-z
loop_
_atom_site_type_symbol
_atom_site_label
_atom_site_fract_x
_atom_site_fract_y
_atom_site_fract_z
Si Si1 0.627716 0.419173 0.221016
Si Si2 0.157159 0.546154 0.509794
Si Si3 0.322498 0.013690 0.624208
Si Si4 0.682276 0.365472 0.724177
Si Si5 0.320163 0.960124 0.054621
Si Si6 0.655983 0.604685 0.116980
Si Si7 0.701150 0.679608 0.574193
Si Si8 0.170480 0.941156 0.879780
O O1 0.628546 0.479083 0.139570
O O2 0.707147 0.587999 0.377929
O O3 0.460102 0.372247 0.320595
O O4 0.723936 0.244147 0.044828
O O5 0.285374 0.546398 0.345502
O O6 0.171722 0.392319 0.471045
O O7 0.164744 0.729061 0.717122
O O8 0.000000 0.500000 0.500000
O O9 0.263584 0.195663 0.743468
O O10 0.500000 0.000000 0.500000
O O11 0.246594 0.829483 0.463609
O O12 0.279694 0.019960 0.783849
O O13 0.500311 0.346440 0.820288
O O14 0.750396 0.493726 0.889294
O O15 0.259384 0.106543 0.288119
O O16 0.250934 0.002929 0.002605
O O17 0.500000 0.000000 0.000000
O O18 0.000000 0.000000 0.000000
#
# Coordination Sequence:
#
# PCOD8041762 Si02
#       8
#     2   2   2   2   2   2   2   2
#     4  10  20  35  54  86 119 157 194 250 294 364
#     4  11  21  36  60  85 120 156 198 250 304 363
#     4   9  21  35  57  87 120 159 200 251 305 356
#     4   9  20  34  51  86 114 151 199 243 293 353
#     4  10  22  35  58  90 121 164 202 255 305 361
#     4  10  19  33  58  80 120 155 190 246 299 357
#     4  10  20  34  55  82 119 154 201 240 303 347
#     4  11  23  40  61  93 129 156 205 262 308 368
#
# _framework density 20.348552000000002
#
# number of rings (size 3 to 8) (size 9 to 14) (size 15 to 20)
#    0.000    2.000    2.500    0.750    3.500    4.000 
#    0.000    0.000    0.000    3.000    0.000    9.625 
#    0.000    0.000    0.000    0.000    0.000    0.000 
#
# Total GULP energy -198210.567573 kJ/mol
# GULP energy per Si atom -12388.160473 kJ/mol
# Density = 2.030224 g / cm^3
# Si number density = 20.348552 Si / 1000 Ang^3
#
#
#
# Elastic Constant Matrix: (Units=GPa)
#
#
# Indices 1 2 3 4 5 6 
#
# 1 84.6752 12.1022 33.5846 6.9629 4.8809 -7.1516
# 2 12.1022 71.9102 51.5892 21.7646 1.6599 -17.9345
# 3 33.5846 51.5892 147.4883 31.8234 22.0968 -13.1845
# 4 6.9629 21.7646 31.8234 33.9922 3.4420 -5.9575
# 5 4.8809 1.6599 22.0968 3.4420 27.8450 1.4998
# 6 -7.1516 -17.9345 -13.1845 -5.9575 1.4998 24.5690
#
#
#
# Elastic Compliance Matrix: (Units=1/GPa)
#
#
# Indices 1 2 3 4 5 6 
#
# 1 0.013125 0.000510 -0.002955 0.000236 -0.000159 0.002674
# 2 0.000510 0.023420 -0.006156 -0.007633 0.003704 0.011864
# 3 -0.002955 -0.006156 0.012103 -0.005941 -0.007995 0.000189
# 4 0.000236 -0.007633 -0.005941 0.039981 0.000133 0.000995
# 5 -0.000159 0.003704 -0.007995 0.000133 0.042274 -0.004182
# 6 0.002674 0.011864 0.000189 0.000995 -0.004182 0.050738
#
#
# Mechanical properties :
#
#
# Convention : Reuss Voigt Hill
#
# Bulk Modulus (GPa) = 31.79975 55.40285 43.60130
# Shear Modulus (GPa) = 23.88647 31.06774 27.47710
#
# Velocity S-wave (km/s) = 3.42989 3.91164 3.67866
# Velocity P-wave (km/s) = 5.59884 6.90560 6.28626
#
# Compressibility (1/GPa) = 0.03144679
#
# Stress axis : x y z
#
# Youngs Moduli (GPa) = 76.19271 42.69837 82.62440
#
# Poissons Ratio (x) = -0.02179 0.24417
# Poissons Ratio (y) = -0.03889 0.50860
# Poissons Ratio (z) = 0.22517 0.26283
#
# Static dielectric constant tensor:
#      x y z
#    x 3.117500 -0.149570 0.112910 
#    y -0.149570 3.499160 0.597510 
#    z 0.112910 0.597510 4.345710 
# 
# 
# High freq. dielectric constant tensor:
#      x y z
#    x 1.757900 -0.009180 0.012610 
#    y -0.009180 1.780410 0.030160 
#    z 0.012610 0.030160 1.814510 
# 
# From -- ./inp_files/278034.got.cif
#   From: 2010.06.25/outbox.cif.g09.slc.cpg/sg2_140_cif.got.tgz:278034.got - 2010.06.27 13:26:56.
