data_PCOD8041127
_publ_section_title
;
Structure prediction by ZEFSAII (Michael W. Deem and Ramdas Pophale) SiO2 
 PCOD8041127
Probable space group: P -1
;
_chemical_formula_sum "Si O2"
_cell_formula_units_Z 16
_cell_length_a 8.262668
_cell_length_b 16.500114
_cell_length_c 10.911413
_cell_angle_alpha 139.121241
_cell_angle_beta 112.248803
_cell_angle_gamma 59.949254
_cell_volume 842.713684
_symmetry_space_group_name_H-M "P -1"
_symmetry_group_IT_number 2
_symmetry_cell_setting 'triclinic'
loop_
_space_group_symop_operation_xyz
x,y,z
-x,-y,-z
loop_
_atom_site_type_symbol
_atom_site_label
_atom_site_fract_x
_atom_site_fract_y
_atom_site_fract_z
Si Si1 0.168426 0.129973 0.474975
Si Si2 0.197800 0.642159 0.795121
Si Si3 0.955161 0.347039 0.489197
Si Si4 0.201600 0.845002 0.215029
Si Si5 0.813003 0.642159 0.795121
Si Si6 0.660042 0.652961 0.510803
Si Si7 0.176576 0.154997 0.784971
Si Si8 0.546602 0.129974 0.474975
O O1 0.189560 0.181423 0.675239
O O2 0.358254 0.105331 0.427169
O O3 0.991038 0.238055 0.481395
O O4 0.129018 0.993817 0.312393
O O5 0.164388 0.685009 0.691686
O O6 0.349396 0.493323 0.678334
O O7 0.003734 0.646925 0.801317
O O8 0.270907 0.743340 0.005286
O O9 0.842292 0.493323 0.678334
O O10 0.150655 0.345610 0.492529
O O11 0.377166 0.818577 0.324760
O O12 0.036415 0.821842 0.216513
O O13 0.657280 0.685009 0.691687
O O14 0.747698 0.743340 0.005286
O O15 0.485754 0.761945 0.518605
O O16 0.304258 0.006183 0.687607
#
# Coordination Sequence:
#
# PCOD8041127 Si02
#       8
#     2   2   2   2   2   2   2   2
#     4  10  19  31  48  69  94 123 153 188 228 270
#     4   8  15  29  48  69  92 119 153 190 227 270
#     4   8  15  29  48  69  92 119 153 190 227 270
#     4  10  19  31  48  69  94 123 153 188 228 270
#     4   8  15  29  48  69  92 119 153 190 227 270
#     4   8  15  29  48  69  92 119 153 190 227 270
#     4  10  19  31  48  69  94 123 153 188 228 270
#     4  10  19  31  48  69  94 123 153 188 228 270
#
# _framework density 18.986283
#
# number of rings (size 3 to 8) (size 9 to 14) (size 15 to 20)
#    0.000    3.000    0.000    4.500    0.000    2.000 
#    0.000    0.000    0.000    9.000    0.000   14.000 
#    0.000    0.000    0.000    0.000    0.000    0.000 
#
# Total GULP energy -198339.218885 kJ/mol
# GULP energy per Si atom -12396.201180 kJ/mol
# Density = 1.894307 g / cm^3
# Si number density = 18.986283 Si / 1000 Ang^3
#
#
#
# Elastic Constant Matrix: (Units=GPa)
#
#
# Indices 1 2 3 4 5 6 
#
# 1 20.6238 -3.5327 -3.9551 0.0300 -0.1265 0.8910
# 2 -3.5327 145.1037 44.5142 1.3402 -0.5310 10.0828
# 3 -3.9551 44.5142 146.8331 -1.1680 -1.6524 4.2973
# 4 0.0300 1.3402 -1.1680 13.1149 -0.3357 0.1696
# 5 -0.1265 -0.5310 -1.6524 -0.3357 17.1158 -0.0313
# 6 0.8910 10.0828 4.2973 0.1696 -0.0313 17.9347
#
#
#
# Elastic Compliance Matrix: (Units=1/GPa)
#
#
# Indices 1 2 3 4 5 6 
#
# 1 0.049030 0.001091 0.001092 -0.000071 0.000494 -0.003309
# 2 0.001091 0.007893 -0.002256 -0.000959 0.000009 -0.003942
# 3 0.001092 -0.002256 0.007556 0.000926 0.000685 -0.000604
# 4 -0.000071 -0.000959 0.000926 0.076475 0.001559 -0.000400
# 5 0.000494 0.000009 0.000685 0.001559 0.058526 -0.000106
# 6 -0.003309 -0.003942 -0.000604 -0.000400 -0.000106 0.058287
#
#
# Mechanical properties :
#
#
# Convention : Reuss Voigt Hill
#
# Bulk Modulus (GPa) = 15.54385 42.95704 29.25044
# Shear Modulus (GPa) = 17.89822 28.00202 22.95012
#
# Velocity S-wave (km/s) = 3.07366 3.84455 3.48051
# Velocity P-wave (km/s) = 4.56083 6.51013 5.62063
#
# Compressibility (1/GPa) = 0.06433413
#
# Stress axis : x y z
#
# Youngs Moduli (GPa) = 20.39562 126.69511 132.33759
#
# Poissons Ratio (x) = -0.13825 -0.14448
# Poissons Ratio (y) = -0.02226 0.29850
# Poissons Ratio (z) = -0.02227 0.28577
#
# Static dielectric constant tensor:
#      x y z
#    x 3.026540 0.064320 -0.009740 
#    y 0.064320 3.754920 0.000840 
#    z -0.009740 0.000840 3.760410 
# 
# 
# High freq. dielectric constant tensor:
#      x y z
#    x 1.699890 0.003590 -0.000540 
#    y 0.003590 1.740560 0.000050 
#    z -0.000540 0.000050 1.740860 
# 
# From -- ./inp_files/257093.got.cif
#   From: 2010.06.25/outbox.cif.g09.slc.cpg/sg2_129_cif.got.tgz:257093.got - 2010.06.27 13:26:56.
