data_PCOD8041418
_publ_section_title
;
Structure prediction by ZEFSAII (Michael W. Deem and Ramdas Pophale) SiO2 
 PCOD8041418
Probable space group: P -1
;
_chemical_formula_sum "Si O2"
_cell_formula_units_Z 16
_cell_length_a 22.417678
_cell_length_b 13.070802
_cell_length_c 9.581991
_cell_angle_alpha 126.696526
_cell_angle_beta 134.299845
_cell_angle_gamma 26.174257
_cell_volume 882.567372
_symmetry_space_group_name_H-M "P -1"
_symmetry_group_IT_number 2
_symmetry_cell_setting 'triclinic'
loop_
_space_group_symop_operation_xyz
x,y,z
-x,-y,-z
loop_
_atom_site_type_symbol
_atom_site_label
_atom_site_fract_x
_atom_site_fract_y
_atom_site_fract_z
Si Si1 0.162955 0.454550 0.002099
Si Si2 0.517509 0.655348 0.893344
Si Si3 0.520622 0.360318 0.695684
Si Si4 0.260509 0.263877 0.307580
Si Si5 0.307078 0.074176 0.716663
Si Si6 0.432411 0.274091 0.690110
Si Si7 0.613261 0.618213 0.748309
Si Si8 0.828714 0.828948 0.707048
O O1 0.241261 0.275433 0.859883
O O2 0.986537 0.701095 0.880956
O O3 0.178489 0.369209 0.109313
O O4 0.242758 0.490586 0.164167
O O5 0.514295 0.519017 0.840109
O O6 0.645004 0.509062 0.860363
O O7 0.350773 0.903535 0.757389
O O8 0.562953 0.701761 0.119752
O O9 0.429754 0.410917 0.714730
O O10 0.431945 0.438483 0.474080
O O11 0.695889 0.092041 0.757254
O O12 0.284854 0.377129 0.496558
O O13 0.162557 0.311698 0.300642
O O14 0.421335 0.990095 0.335053
O O15 0.186273 0.185406 0.493228
O O16 0.466847 0.903184 0.757049
#
# Coordination Sequence:
#
# PCOD8041418 Si02
#       8
#     2   2   2   2   2   2   2   2
#     4  12  19  37  53  81 109 137 172 213 273 311
#     4  10  20  33  59  77 106 135 179 220 257 297
#     4  10  19  38  53  79 105 138 180 216 254 307
#     4  10  20  34  53  80 110 132 177 213 269 306
#     4   9  21  34  54  82 103 138 171 221 261 307
#     4  10  19  32  57  84 100 135 176 227 253 303
#     4   9  20  32  57  79 100 139 173 221 255 300
#     4  10  23  33  55  77 112 141 166 215 263 323
#
# _framework density 18.128927000000001
#
# number of rings (size 3 to 8) (size 9 to 14) (size 15 to 20)
#    0.750    1.250    2.500    1.875    3.500    0.000 
#    0.000    0.625    0.000    0.750    0.000    0.000 
#    0.000    0.000    0.000    0.000    0.000    0.000 
#
# Total GULP energy -198296.123941 kJ/mol
# GULP energy per Si atom -12393.507746 kJ/mol
# Density = 1.808767 g / cm^3
# Si number density = 18.128927 Si / 1000 Ang^3
#
#
#
# Elastic Constant Matrix: (Units=GPa)
#
#
# Indices 1 2 3 4 5 6 
#
# 1 71.0410 19.9759 29.7876 -7.9894 3.5260 8.0713
# 2 19.9759 26.0001 11.9908 -1.6346 15.4427 2.0937
# 3 29.7876 11.9908 81.6342 -7.3730 -3.1191 -8.8503
# 4 -7.9894 -1.6346 -7.3730 22.8335 -1.7194 2.4345
# 5 3.5260 15.4427 -3.1191 -1.7194 36.5150 -2.4843
# 6 8.0713 2.0937 -8.8503 2.4345 -2.4843 20.9793
#
#
#
# Elastic Compliance Matrix: (Units=1/GPa)
#
#
# Indices 1 2 3 4 5 6 
#
# 1 0.022793 -0.015229 -0.006521 0.006126 0.003269 -0.010324
# 2 -0.015229 0.071863 -0.007333 -0.004028 -0.030249 -0.007521
# 3 -0.006521 -0.007333 0.017320 0.002067 0.006058 0.011025
# 4 0.006126 -0.004028 0.002067 0.047211 0.003090 -0.006196
# 5 0.003269 -0.030249 0.006058 0.003090 0.041127 0.008828
# 6 -0.010324 -0.007521 0.011025 -0.006196 0.008828 0.058804
#
#
# Mechanical properties :
#
#
# Convention : Reuss Voigt Hill
#
# Bulk Modulus (GPa) = 18.58465 33.57599 26.08032
# Shear Modulus (GPa) = 14.91560 23.86030 19.38795
#
# Velocity S-wave (km/s) = 2.87148 3.63181 3.27379
# Velocity P-wave (km/s) = 4.61167 6.01229 5.35794
#
# Compressibility (1/GPa) = 0.05380784
#
# Stress axis : x y z
#
# Youngs Moduli (GPa) = 43.87392 13.91540 57.73775
#
# Poissons Ratio (x) = 0.21192 0.37650
# Poissons Ratio (y) = 0.66817 0.42341
# Poissons Ratio (z) = 0.28610 0.10205
#
# Static dielectric constant tensor:
#      x y z
#    x 3.365670 0.062560 -0.147490 
#    y 0.062560 2.930190 -0.035230 
#    z -0.147490 -0.035230 3.368430 
# 
# 
# High freq. dielectric constant tensor:
#      x y z
#    x 1.699240 0.009040 -0.016440 
#    y 0.009040 1.656340 0.002900 
#    z -0.016440 0.002900 1.714470 
# 
# From -- ./inp_files/203668.got.cif
#   From: 2010.06.25/outbox.cif.g09.slc.cpg/sg2_102_cif.got.tgz:203668.got - 2010.06.27 13:26:56.
