data_PCOD8041628
_publ_section_title
;
Structure prediction by ZEFSAII (Michael W. Deem and Ramdas Pophale) SiO2 
 PCOD8041628
Probable space group: P -1
;
_chemical_formula_sum "Si O2"
_cell_formula_units_Z 16
_cell_length_a 11.696893
_cell_length_b 11.696898
_cell_length_c 13.076219
_cell_angle_alpha 50.741140
_cell_angle_beta 115.518771
_cell_angle_gamma 140.728697
_cell_volume 870.459088
_symmetry_space_group_name_H-M "P -1"
_symmetry_group_IT_number 2
_symmetry_cell_setting 'triclinic'
loop_
_space_group_symop_operation_xyz
x,y,z
-x,-y,-z
loop_
_atom_site_type_symbol
_atom_site_label
_atom_site_fract_x
_atom_site_fract_y
_atom_site_fract_z
Si Si1 0.506907 0.292184 0.585606
Si Si2 0.130368 0.188413 0.296907
Si Si3 0.514679 0.572724 0.296907
Si Si4 0.872157 0.364703 0.386776
Si Si5 0.101906 0.032259 0.865836
Si Si6 0.751479 0.258933 0.613223
Si Si7 0.966463 0.205035 0.828500
Si Si8 0.877791 0.092513 0.414394
O O1 0.582038 0.478093 0.430633
O O2 0.559985 0.376803 0.674013
O O3 0.581330 0.194028 0.638448
O O4 0.289296 0.109617 0.601087
O O5 0.347178 0.402187 0.250634
O O6 0.050817 0.233997 0.325989
O O7 0.091276 0.987329 0.430632
O O8 0.030527 0.129836 0.184392
O O9 0.685771 0.785079 0.184392
O O10 0.721842 0.221842 0.499999
O O11 0.877041 0.537041 0.248203
O O12 0.832478 0.219780 0.361550
O O13 0.070136 0.488828 0.441036
O O14 0.039483 0.137877 0.822640
O O15 0.083704 0.892520 0.023779
O O16 0.785244 0.125244 0.751796
#
# Coordination Sequence:
#
# PCOD8041628 Si02
#       8
#     2   2   2   2   2   2   2   2
#     4  10  19  33  55  87 115 141 187 235 280 336
#     4  10  21  34  57  87 112 147 187 233 280 327
#     4  10  21  34  57  87 112 147 187 233 280 327
#     4   9  18  33  55  81 110 145 179 228 288 318
#     4  11  20  40  60  78 115 150 197 222 278 337
#     4   9  18  33  55  81 110 145 179 228 288 318
#     4   9  21  36  58  84 107 155 189 229 274 340
#     4  10  19  33  55  87 115 141 187 235 280 336
#
# _framework density 18.381105000000002
#
# number of rings (size 3 to 8) (size 9 to 14) (size 15 to 20)
#    0.750    1.500    1.250    2.250    3.500    0.500 
#    0.000    6.250    0.000    0.000    0.000    0.000 
#    0.000    0.000    0.000    0.000    0.000    0.000 
#
# Total GULP energy -198335.048010 kJ/mol
# GULP energy per Si atom -12395.940501 kJ/mol
# Density = 1.833927 g / cm^3
# Si number density = 18.381105 Si / 1000 Ang^3
#
#
#
# Elastic Constant Matrix: (Units=GPa)
#
#
# Indices 1 2 3 4 5 6 
#
# 1 106.7358 27.7321 56.0587 -2.6528 -1.1362 -8.4300
# 2 27.7321 80.3617 45.9100 5.6394 -8.9878 -1.5966
# 3 56.0587 45.9100 122.7190 -2.8612 -4.2069 -4.3818
# 4 -2.6528 5.6394 -2.8612 9.6953 -6.2306 1.1460
# 5 -1.1362 -8.9878 -4.2069 -6.2306 22.2476 -3.7938
# 6 -8.4300 -1.5966 -4.3818 1.1460 -3.7938 32.8711
#
#
#
# Elastic Compliance Matrix: (Units=1/GPa)
#
#
# Indices 1 2 3 4 5 6 
#
# 1 0.012699 -0.001630 -0.005031 0.002804 0.000240 0.002437
# 2 -0.001630 0.017462 -0.005918 -0.010477 0.002978 0.000350
# 3 -0.005031 -0.005918 0.012888 0.006991 0.001764 0.000100
# 4 0.002804 -0.010477 0.006991 0.134490 0.034981 0.000491
# 5 0.000240 0.002978 0.001764 0.034981 0.057289 0.005834
# 6 0.002437 0.000350 0.000100 0.000491 0.005834 0.031733
#
#
# Mechanical properties :
#
#
# Convention : Reuss Voigt Hill
#
# Bulk Modulus (GPa) = 55.89022 63.24646 59.56834
# Shear Modulus (GPa) = 16.79642 24.97052 20.88347
#
# Velocity S-wave (km/s) = 3.02617 3.68977 3.37432
# Velocity P-wave (km/s) = 6.53319 7.25504 6.90356
#
# Compressibility (1/GPa) = 0.01789222
#
# Stress axis : x y z
#
# Youngs Moduli (GPa) = 78.74425 57.26608 77.59312
#
# Poissons Ratio (x) = 0.09334 0.39035
# Poissons Ratio (y) = 0.12835 0.45919
# Poissons Ratio (z) = 0.39614 0.33889
#
# Static dielectric constant tensor:
#      x y z
#    x 3.247820 -0.029770 -0.037480 
#    y -0.029770 3.169850 0.015940 
#    z -0.037480 0.015940 3.128050 
# 
# 
# High freq. dielectric constant tensor:
#      x y z
#    x 1.715200 -0.005270 -0.009420 
#    y -0.005270 1.700780 0.004480 
#    z -0.009420 0.004480 1.684180 
# 
# From -- ./inp_files/425490.got.cif
#   From: 2010.06.25/outbox.cif.g09.slc.cpg/sg2_213_cif.got.tgz:425490.got - 2010.06.27 13:26:56.
