data_PCOD8041188
_publ_section_title
;
Structure prediction by ZEFSAII (Michael W. Deem and Ramdas Pophale) SiO2 
 PCOD8041188
Probable space group: P -1
;
_chemical_formula_sum "Si O2"
_cell_formula_units_Z 16
_cell_length_a 8.668944
_cell_length_b 14.958634
_cell_length_c 13.132835
_cell_angle_alpha 108.090515
_cell_angle_beta 51.753448
_cell_angle_gamma 70.332526
_cell_volume 897.429573
_symmetry_space_group_name_H-M "P -1"
_symmetry_group_IT_number 2
_symmetry_cell_setting 'triclinic'
loop_
_space_group_symop_operation_xyz
x,y,z
-x,-y,-z
loop_
_atom_site_type_symbol
_atom_site_label
_atom_site_fract_x
_atom_site_fract_y
_atom_site_fract_z
Si Si1 0.004255 0.650587 0.506987
Si Si2 0.037992 0.515381 0.792946
Si Si3 0.706515 0.630207 0.770337
Si Si4 0.095043 0.280420 0.657805
Si Si5 0.358794 0.895047 0.517884
Si Si6 0.818108 0.195033 0.817834
Si Si7 0.473131 0.260135 0.794644
Si Si8 0.615372 0.320759 0.573215
O O1 0.740928 0.697233 0.692342
O O2 0.898129 0.725793 0.469409
O O3 0.238825 0.491389 0.340651
O O4 0.138010 0.687624 0.533915
O O5 0.020252 0.408480 0.777473
O O6 0.352971 0.444044 0.655916
O O7 0.937398 0.575354 0.742405
O O8 0.840407 0.632964 0.997361
O O9 0.394867 0.736705 0.977344
O O10 0.399719 0.145156 0.523447
O O11 0.866695 0.286300 0.797547
O O12 0.473831 0.849047 0.337565
O O13 0.274659 0.817843 0.562488
O O14 0.099668 0.051375 0.688565
O O15 0.693041 0.181034 0.768587
O O16 0.515114 0.340591 0.738518
#
# Coordination Sequence:
#
# PCOD8041188 Si02
#       8
#     2   2   2   2   2   2   2   2
#     4  10  19  37  50  74  95 133 163 197 253 281
#     4   9  18  31  49  80  98 122 161 203 249 280
#     4   9  22  33  52  71 104 124 161 208 238 295
#     4  10  19  31  54  73 101 126 164 201 239 293
#     4   9  20  31  48  77 100 128 160 204 239 285
#     4  11  19  33  50  76  99 130 162 199 244 285
#     4   9  18  29  49  74 100 125 152 206 238 289
#     4   9  18  30  53  70  99 130 158 199 239 295
#
# _framework density 17.828696999999998
#
# number of rings (size 3 to 8) (size 9 to 14) (size 15 to 20)
#    0.750    1.750    1.250    1.125    1.750    2.000 
#    0.000    1.250    0.000    0.000    0.000    0.000 
#    0.000    0.000    0.000    0.000    0.000    0.000 
#
# Total GULP energy -198331.259792 kJ/mol
# GULP energy per Si atom -12395.703737 kJ/mol
# Density = 1.778812 g / cm^3
# Si number density = 17.828697 Si / 1000 Ang^3
#
#
#
# Elastic Constant Matrix: (Units=GPa)
#
#
# Indices 1 2 3 4 5 6 
#
# 1 71.4691 26.7738 37.0306 -4.7289 -14.3391 1.7840
# 2 26.7738 54.3671 49.4562 -8.5852 -5.5112 -1.8462
# 3 37.0306 49.4562 96.1464 -5.3200 0.3193 -6.4806
# 4 -4.7289 -8.5852 -5.3200 25.8648 -2.4433 -5.7676
# 5 -14.3391 -5.5112 0.3193 -2.4433 18.8503 2.3445
# 6 1.7840 -1.8462 -6.4806 -5.7676 2.3445 19.4797
#
#
#
# Elastic Compliance Matrix: (Units=1/GPa)
#
#
# Indices 1 2 3 4 5 6 
#
# 1 0.022897 -0.001789 -0.008284 0.002136 0.018129 -0.006572
# 2 -0.001789 0.039389 -0.019144 0.009701 0.011865 -0.001028
# 3 -0.008284 -0.019144 0.023869 -0.002509 -0.013595 0.007779
# 4 0.002136 0.009701 -0.002509 0.045324 0.008856 0.012243
# 5 0.018129 0.011865 -0.013595 0.008856 0.073084 -0.011233
# 6 -0.006572 -0.001028 0.007779 0.012243 -0.011233 0.059405
#
#
# Mechanical properties :
#
#
# Convention : Reuss Voigt Hill
#
# Bulk Modulus (GPa) = 36.07193 49.83376 42.95285
# Shear Modulus (GPa) = 15.07656 20.08708 17.58182
#
# Velocity S-wave (km/s) = 2.91113 3.36023 3.14371
# Velocity P-wave (km/s) = 5.61926 6.56255 6.10913
#
# Compressibility (1/GPa) = 0.02772238
#
# Stress axis : x y z
#
# Youngs Moduli (GPa) = 43.67435 25.38783 41.89501
#
# Poissons Ratio (x) = 0.04541 0.34704
# Poissons Ratio (y) = 0.07812 0.80204
# Poissons Ratio (z) = 0.36178 0.48603
#
# Static dielectric constant tensor:
#      x y z
#    x 3.307950 -0.122350 -0.025930 
#    y -0.122350 3.122520 -0.017280 
#    z -0.025930 -0.017280 3.011940 
# 
# 
# High freq. dielectric constant tensor:
#      x y z
#    x 1.694390 -0.007640 -0.005180 
#    y -0.007640 1.670120 0.002920 
#    z -0.005180 0.002920 1.664510 
# 
# From -- ./inp_files/295573.got.cif
#   From: 2010.06.25/outbox.cif.g09.slc.cpg/sg2_148_cif.got.tgz:295573.got - 2010.06.27 13:26:56.
