data_PCOD8041429
_publ_section_title
;
Structure prediction by ZEFSAII (Michael W. Deem and Ramdas Pophale) SiO2 
 PCOD8041429
Probable space group: P -1
;
_chemical_formula_sum "Si O2"
_cell_formula_units_Z 16
_cell_length_a 8.958717
_cell_length_b 30.282372
_cell_length_c 9.034272
_cell_angle_alpha 38.779170
_cell_angle_beta 147.738437
_cell_angle_gamma 142.225909
_cell_volume 753.643295
_symmetry_space_group_name_H-M "P -1"
_symmetry_group_IT_number 2
_symmetry_cell_setting 'triclinic'
loop_
_space_group_symop_operation_xyz
x,y,z
-x,-y,-z
loop_
_atom_site_type_symbol
_atom_site_label
_atom_site_fract_x
_atom_site_fract_y
_atom_site_fract_z
Si Si1 0.636921 0.183061 0.847496
Si Si2 0.536759 0.577709 0.906459
Si Si3 0.770917 0.331078 0.757083
Si Si4 0.410302 0.047882 0.673168
Si Si5 0.460648 0.700980 0.030113
Si Si6 0.151851 0.791108 0.368621
Si Si7 0.352616 0.548730 0.163311
Si Si8 0.972045 0.910845 0.534303
O O1 0.633383 0.247618 0.786629
O O2 0.705113 0.215777 0.652508
O O3 0.299725 0.112768 0.753088
O O4 0.898264 0.154981 0.187255
O O5 0.290898 0.607575 0.557496
O O6 0.500000 0.500000 0.000000
O O7 0.479309 0.561631 0.071766
O O8 0.870087 0.642302 0.989996
O O9 0.609685 0.327548 0.787060
O O10 0.708670 0.121056 0.683951
O O11 0.170791 0.082291 0.444027
O O12 0.256347 0.994149 0.540650
O O13 0.500000 0.000000 0.000000
O O14 0.441220 0.630629 0.097140
O O15 0.793408 0.767150 0.120832
O O16 0.218202 0.734734 0.685300
O O17 0.500000 0.500000 0.500000
O O18 0.000000 0.500000 0.000000
#
# Coordination Sequence:
#
# PCOD8041429 Si02
#       8
#     2   2   2   2   2   2   2   2
#     4  11  21  37  60  89 120 160 207 256 312 370
#     4  12  24  43  68  95 124 167 216 251 307 382
#     4  12  25  43  63  88 129 171 209 254 310 382
#     4  10  19  34  60  95 126 156 207 264 325 366
#     4  12  25  41  60  92 127 164 209 257 319 360
#     4  11  22  37  62  91 122 156 207 268 308 369
#     4  12  24  43  68  96 130 161 202 262 313 363
#     4  10  19  32  57  91 120 152 204 257 309 372
#
# _framework density 21.230201999999998
#
# number of rings (size 3 to 8) (size 9 to 14) (size 15 to 20)
#    0.000    0.750    2.500    7.875    1.750    0.000 
#    0.000    0.000    0.000    4.500    0.000    0.000 
#    0.000    0.000    0.000    0.000    0.000    0.000 
#
# Total GULP energy -198406.569102 kJ/mol
# GULP energy per Si atom -12400.410569 kJ/mol
# Density = 2.118188 g / cm^3
# Si number density = 21.230202 Si / 1000 Ang^3
#
#
#
# Elastic Constant Matrix: (Units=GPa)
#
#
# Indices 1 2 3 4 5 6 
#
# 1 106.3236 49.0848 19.6737 1.9300 -8.1896 -11.3649
# 2 49.0848 137.3969 10.5656 14.2086 11.5339 -3.1462
# 3 19.6737 10.5656 100.2623 -5.9494 11.1549 -1.5686
# 4 1.9300 14.2086 -5.9494 44.3190 3.5215 8.3222
# 5 -8.1896 11.5339 11.1549 3.5215 30.6525 0.8024
# 6 -11.3649 -3.1462 -1.5686 8.3222 0.8024 34.1756
#
#
#
# Elastic Compliance Matrix: (Units=1/GPa)
#
#
# Indices 1 2 3 4 5 6 
#
# 1 0.013030 -0.004824 -0.002721 -0.000589 0.006256 0.003761
# 2 -0.004824 0.009630 0.000314 -0.002460 -0.004744 0.000007
# 3 -0.002721 0.000314 0.011155 0.002062 -0.005122 -0.000746
# 4 -0.000589 -0.002460 0.002062 0.025065 -0.002695 -0.006368
# 5 0.006256 -0.004744 -0.005122 -0.002695 0.038223 0.001167
# 6 0.003761 0.000007 -0.000746 -0.006368 0.001167 0.032001
#
#
# Mechanical properties :
#
#
# Convention : Reuss Voigt Hill
#
# Bulk Modulus (GPa) = 51.66895 55.84787 53.75841
# Shear Modulus (GPa) = 33.32945 39.47334 36.40140
#
# Velocity S-wave (km/s) = 3.96650 4.31664 4.14527
# Velocity P-wave (km/s) = 6.73557 7.15594 6.94893
#
# Compressibility (1/GPa) = 0.01935398
#
# Stress axis : x y z
#
# Youngs Moduli (GPa) = 76.74492 103.84042 89.64441
#
# Poissons Ratio (x) = 0.50091 0.24389
# Poissons Ratio (y) = 0.37021 -0.02812
# Poissons Ratio (z) = 0.20879 -0.03258
#
# Static dielectric constant tensor:
#      x y z
#    x 3.533190 -0.041290 0.077180 
#    y -0.041290 4.298410 0.210030 
#    z 0.077180 0.210030 3.799560 
# 
# 
# High freq. dielectric constant tensor:
#      x y z
#    x 1.797990 -0.005690 0.020200 
#    y -0.005690 1.859310 0.010180 
#    z 0.020200 0.010180 1.845330 
# 
# From -- ./inp_files/227990.got.cif
#   From: 2010.06.25/outbox.cif.g09.slc.cpg/sg2_114_cif.got.tgz:227990.got - 2010.06.27 13:26:56.
