data_PCOD8041070
_publ_section_title
;
Structure prediction by ZEFSAII (Michael W. Deem and Ramdas Pophale) SiO2 
 PCOD8041070
Probable space group: P -1
;
_chemical_formula_sum "Si O2"
_cell_formula_units_Z 16
_cell_length_a 13.450751
_cell_length_b 12.357521
_cell_length_c 13.461853
_cell_angle_alpha 58.427656
_cell_angle_beta 148.822823
_cell_angle_gamma 119.379303
_cell_volume 982.290948
_symmetry_space_group_name_H-M "P -1"
_symmetry_group_IT_number 2
_symmetry_cell_setting 'triclinic'
loop_
_space_group_symop_operation_xyz
x,y,z
-x,-y,-z
loop_
_atom_site_type_symbol
_atom_site_label
_atom_site_fract_x
_atom_site_fract_y
_atom_site_fract_z
Si Si1 0.726677 0.614007 0.542221
Si Si2 0.389651 0.414315 0.327512
Si Si3 0.325601 0.150192 0.320004
Si Si4 0.475862 0.199035 0.849147
Si Si5 0.646350 0.006789 0.764324
Si Si6 0.933449 0.134290 0.085719
Si Si7 0.388033 0.032817 0.030402
Si Si8 0.854619 0.360597 0.040668
O O1 0.607267 0.481652 0.469864
O O2 0.640353 0.649642 0.558490
O O3 0.685300 0.723035 0.376270
O O4 0.957097 0.604520 0.746059
O O5 0.364211 0.303939 0.276077
O O6 0.224647 0.510890 0.128700
O O7 0.506505 0.088192 0.545999
O O8 0.152233 0.108800 0.267193
O O9 0.281509 0.102276 0.193015
O O10 0.477461 0.069714 0.849361
O O11 0.410063 0.162445 0.923062
O O12 0.684299 0.280342 0.994634
O O13 0.551930 0.939051 0.816356
O O14 0.821864 0.110586 0.896747
O O15 0.916524 0.278732 0.038589
O O16 0.835262 0.032174 0.131376
#
# Coordination Sequence:
#
# PCOD8041070 Si02
#       8
#     2   2   2   2   2   2   2   2
#     4  10  19  30  47  72  99 129 157 198 243 283
#     4  10  21  29  49  74 103 125 159 201 245 288
#     4  11  19  33  51  73  99 133 161 191 246 294
#     4   9  17  33  47  71 102 128 159 200 239 285
#     4   9  21  33  49  72 102 129 160 200 236 289
#     4   9  19  31  50  73 101 125 159 199 240 292
#     4   8  17  33  48  69 102 128 158 203 236 279
#     4  10  19  31  49  76 100 128 159 195 250 290
#
# _framework density 16.288453000000001
#
# number of rings (size 3 to 8) (size 9 to 14) (size 15 to 20)
#    0.750    1.750    1.250    1.500    3.500    0.000 
#    2.250    1.875    0.000    3.000    0.000    1.750 
#    0.000    0.000    0.000    0.000    0.000    0.000 
#
# Total GULP energy -198260.865490 kJ/mol
# GULP energy per Si atom -12391.304093 kJ/mol
# Density = 1.625138 g / cm^3
# Si number density = 16.288453 Si / 1000 Ang^3
#
#
#
# Elastic Constant Matrix: (Units=GPa)
#
#
# Indices 1 2 3 4 5 6 
#
# 1 57.4942 36.7426 10.7572 -6.1859 -2.2686 3.2675
# 2 36.7426 77.9182 31.4229 -0.6354 1.3608 -2.7174
# 3 10.7572 31.4229 73.7949 6.0794 9.7873 9.2510
# 4 -6.1859 -0.6354 6.0794 22.9457 7.7368 -1.9625
# 5 -2.2686 1.3608 9.7873 7.7368 21.7687 -5.0560
# 6 3.2675 -2.7174 9.2510 -1.9625 -5.0560 23.1068
#
#
#
# Elastic Compliance Matrix: (Units=1/GPa)
#
#
# Indices 1 2 3 4 5 6 
#
# 1 0.026616 -0.013622 0.002300 0.005990 -0.000926 -0.005980
# 2 -0.013622 0.023360 -0.009562 -0.001027 0.003939 0.009276
# 3 0.002300 -0.009562 0.020367 -0.002639 -0.010182 -0.012056
# 4 0.005990 -0.001027 -0.002639 0.051401 -0.016181 0.000914
# 5 -0.000926 0.003939 -0.010182 -0.016181 0.059724 0.016364
# 6 -0.005980 0.009276 -0.012056 0.000914 0.016364 0.053699
#
#
# Mechanical properties :
#
#
# Convention : Reuss Voigt Hill
#
# Bulk Modulus (GPa) = 34.99681 40.78365 37.89023
# Shear Modulus (GPa) = 17.45454 22.24987 19.85221
#
# Velocity S-wave (km/s) = 3.27707 3.69994 3.49491
# Velocity P-wave (km/s) = 5.98759 6.58373 6.29272
#
# Compressibility (1/GPa) = 0.02857403
#
# Stress axis : x y z
#
# Youngs Moduli (GPa) = 37.57179 42.80848 49.10019
#
# Poissons Ratio (x) = 0.58312 -0.11291
# Poissons Ratio (y) = 0.51179 0.46950
# Poissons Ratio (z) = -0.08640 0.40933
#
# Static dielectric constant tensor:
#      x y z
#    x 2.992120 -0.011000 0.024370 
#    y -0.011000 3.126300 0.156090 
#    z 0.024370 0.156090 2.994710 
# 
# 
# High freq. dielectric constant tensor:
#      x y z
#    x 1.599920 0.005290 0.008570 
#    y 0.005290 1.619600 0.009190 
#    z 0.008570 0.009190 1.621980 
# 
# From -- ./inp_files/530501.got.cif
#   From: 2010.06.25/outbox.cif.g09.slc.cpg/sg2_266_cif.got.tgz:530501.got - 2010.06.27 13:26:56.
