data_PCOD8041686
_publ_section_title
;
Structure prediction by ZEFSAII (Michael W. Deem and Ramdas Pophale) SiO2 
 PCOD8041686
Probable space group: P -1
;
_chemical_formula_sum "Si O2"
_cell_formula_units_Z 16
_cell_length_a 11.088317
_cell_length_b 15.192113
_cell_length_c 9.397412
_cell_angle_alpha 70.687114
_cell_angle_beta 73.627336
_cell_angle_gamma 133.673423
_cell_volume 717.716167
_symmetry_space_group_name_H-M "P -1"
_symmetry_group_IT_number 2
_symmetry_cell_setting 'triclinic'
loop_
_space_group_symop_operation_xyz
x,y,z
-x,-y,-z
loop_
_atom_site_type_symbol
_atom_site_label
_atom_site_fract_x
_atom_site_fract_y
_atom_site_fract_z
Si Si1 0.654342 0.796894 0.858958
Si Si2 0.581469 0.558699 0.104863
Si Si3 0.188058 0.177293 0.512990
Si Si4 0.879987 0.495474 0.736359
Si Si5 0.280111 0.784868 0.680172
Si Si6 0.969597 0.255873 0.004162
Si Si7 0.144047 0.482553 0.576874
Si Si8 0.407524 0.149943 0.612128
O O1 0.718867 0.796354 0.685326
O O2 0.635127 0.702370 0.035663
O O3 0.392684 0.683843 0.001124
O O4 0.893245 0.015252 0.704532
O O5 0.357863 0.377879 0.380520
O O6 0.828808 0.656822 0.000041
O O7 0.500000 0.500000 0.000000
O O8 0.230377 0.119959 0.638829
O O9 0.871937 0.553502 0.564929
O O10 0.089438 0.677341 0.669308
O O11 0.933930 0.423958 0.715458
O O12 0.412516 0.768651 0.624057
O O13 0.500000 0.000000 0.500000
O O14 0.123365 0.703572 0.920451
O O15 0.091202 0.356506 0.756985
O O16 0.748526 0.038212 0.175308
O O17 0.419628 0.701792 0.397381
#
# Coordination Sequence:
#
# PCOD8041686 Si02
#       8
#     2   2   2   2   2   2   2   2
#     4  10  21  36  57  87 123 155 197 248 304 354
#     4  10  19  33  56  88 121 155 194 249 303 352
#     4  10  19  34  58  90 119 156 198 249 300 355
#     4  10  22  43  61  87 126 161 201 249 304 363
#     4   9  20  35  60  94 118 149 198 257 297 354
#     4  11  20  37  63  91 120 159 203 252 306 354
#     4  10  23  41  63  86 123 165 201 248 302 359
#     4  10  20  36  59  89 126 151 206 248 300 356
#
# _framework density 22.292935
#
# number of rings (size 3 to 8) (size 9 to 14) (size 15 to 20)
#    0.000    2.000    2.500    1.500    1.750    1.000 
#    0.000   13.750    0.000    0.000    0.000    0.000 
#    0.000    0.000    0.000    0.000    0.000    0.000 
#
# Total GULP energy -198237.553119 kJ/mol
# GULP energy per Si atom -12389.847070 kJ/mol
# Density = 2.224220 g / cm^3
# Si number density = 22.292935 Si / 1000 Ang^3
#
#
#
# Elastic Constant Matrix: (Units=GPa)
#
#
# Indices 1 2 3 4 5 6 
#
# 1 45.1684 13.0104 21.4654 -10.7628 -0.6185 20.5748
# 2 13.0104 87.8769 57.5236 -21.9336 2.5630 16.8989
# 3 21.4654 57.5236 104.5643 -26.9183 1.9027 11.7020
# 4 -10.7628 -21.9336 -26.9183 37.0429 10.0850 -0.3813
# 5 -0.6185 2.5630 1.9027 10.0850 39.5185 -8.5463
# 6 20.5748 16.8989 11.7020 -0.3813 -8.5463 26.5766
#
#
#
# Elastic Compliance Matrix: (Units=1/GPa)
#
#
# Indices 1 2 3 4 5 6 
#
# 1 0.046065 0.010059 -0.004835 0.019229 -0.014167 -0.044209
# 2 0.010059 0.023256 -0.009228 0.012099 -0.008555 -0.021089
# 3 -0.004835 -0.009228 0.016970 0.005864 -0.001408 0.001770
# 4 0.019229 0.012099 0.005864 0.049130 -0.019983 -0.030882
# 5 -0.014167 -0.008555 -0.001408 -0.019983 0.036998 0.028638
# 6 -0.044209 -0.021089 0.001770 -0.030882 0.028638 0.093249
#
#
# Mechanical properties :
#
#
# Convention : Reuss Voigt Hill
#
# Bulk Modulus (GPa) = 12.77420 46.84538 29.80979
# Shear Modulus (GPa) = 16.67941 30.33492 23.50716
#
# Velocity S-wave (km/s) = 2.73828 3.69282 3.25078
# Velocity P-wave (km/s) = 3.96739 6.26433 5.24318
#
# Compressibility (1/GPa) = 0.07828278
#
# Stress axis : x y z
#
# Youngs Moduli (GPa) = 21.70824 43.00039 58.92805
#
# Poissons Ratio (x) = -0.43253 0.28490
# Poissons Ratio (y) = -0.21836 0.54380
# Poissons Ratio (z) = 0.10495 0.39681
#
# Static dielectric constant tensor:
#      x y z
#    x 4.106440 -0.019160 0.125350 
#    y -0.019160 4.171350 -0.510320 
#    z 0.125350 -0.510320 4.487050 
# 
# 
# High freq. dielectric constant tensor:
#      x y z
#    x 1.867830 0.016630 -0.001710 
#    y 0.016630 1.862940 -0.025590 
#    z -0.001710 -0.025590 1.874580 
# 
# From -- ./inp_files/277688.got.cif
#   From: 2010.06.25/outbox.cif.g09.slc.cpg/sg2_139_cif.got.tgz:277688.got - 2010.06.27 13:26:56.
