data_PCOD8041303
_publ_section_title
;
Structure prediction by ZEFSAII (Michael W. Deem and Ramdas Pophale) SiO2 
 PCOD8041303
Probable space group: P -1
;
_chemical_formula_sum "Si O2"
_cell_formula_units_Z 16
_cell_length_a 21.594877
_cell_length_b 9.086484
_cell_length_c 10.330264
_cell_angle_alpha 139.025686
_cell_angle_beta 34.307008
_cell_angle_gamma 127.865836
_cell_volume 748.884286
_symmetry_space_group_name_H-M "P -1"
_symmetry_group_IT_number 2
_symmetry_cell_setting 'triclinic'
loop_
_space_group_symop_operation_xyz
x,y,z
-x,-y,-z
loop_
_atom_site_type_symbol
_atom_site_label
_atom_site_fract_x
_atom_site_fract_y
_atom_site_fract_z
Si Si1 0.880433 0.978286 0.547541
Si Si2 0.399103 0.725118 0.599148
Si Si3 0.015442 0.185108 0.987040
Si Si4 0.836806 0.431421 0.056050
Si Si5 0.365788 0.983164 0.069770
Si Si6 0.540954 0.306813 0.070618
Si Si7 0.386614 0.639466 0.284575
Si Si8 0.847321 0.518807 0.388419
O O1 0.970703 0.950855 0.261265
O O2 0.887559 0.774641 0.504865
O O3 0.762556 0.961323 0.668584
O O4 0.896612 0.211964 0.746006
O O5 0.294375 0.588142 0.741644
O O6 0.509570 0.570198 0.313636
O O7 0.380649 0.800864 0.530219
O O8 0.410068 0.940127 0.816971
O O9 0.120014 0.344078 0.940781
O O10 0.907643 0.350278 0.273016
O O11 0.000000 0.000000 0.000000
O O12 0.878330 0.441028 0.137987
O O13 0.425381 0.186544 0.170625
O O14 0.393052 0.760978 0.960015
O O15 0.616360 0.240205 0.770351
O O16 0.283718 0.476372 0.360129
O O17 0.500000 0.500000 0.000000
#
# Coordination Sequence:
#
# PCOD8041303 Si02
#       8
#     2   2   2   2   2   2   2   2
#     4  10  20  38  62  81 110 151 197 231 283 347
#     4   9  18  35  55  79 112 149 194 235 279 344
#     4  11  24  37  57  86 118 147 183 241 293 341
#     4   9  19  38  62  82 108 152 193 234 280 343
#     4  10  20  32  56  83 110 154 192 233 287 344
#     4  10  19  32  52  82 117 151 189 237 289 336
#     4   9  18  34  57  80 113 149 188 239 282 335
#     4  10  21  38  59  83 112 151 193 235 283 340
#
# _framework density 21.365116
#
# number of rings (size 3 to 8) (size 9 to 14) (size 15 to 20)
#    0.000    2.250    0.000    4.875    1.750    3.000 
#    0.000    3.750    0.000    0.000    0.000    0.000 
#    0.000    0.000    0.000    0.000    0.000    0.000 
#
# Total GULP energy -198291.752117 kJ/mol
# GULP energy per Si atom -12393.234507 kJ/mol
# Density = 2.131649 g / cm^3
# Si number density = 21.365116 Si / 1000 Ang^3
#
#
#
# Elastic Constant Matrix: (Units=GPa)
#
#
# Indices 1 2 3 4 5 6 
#
# 1 60.9381 21.6779 23.8853 -5.7087 -2.4717 -11.7654
# 2 21.6779 89.7261 32.5216 1.4979 -0.4250 -16.1587
# 3 23.8853 32.5216 99.2560 -0.1487 3.8105 -9.5086
# 4 -5.7087 1.4979 -0.1487 31.3550 2.4254 1.0241
# 5 -2.4717 -0.4250 3.8105 2.4254 31.1573 0.6774
# 6 -11.7654 -16.1587 -9.5086 1.0241 0.6774 28.7190
#
#
#
# Elastic Compliance Matrix: (Units=1/GPa)
#
#
# Indices 1 2 3 4 5 6 
#
# 1 0.020180 -0.002672 -0.003516 0.003483 0.001605 0.005437
# 2 -0.002672 0.014097 -0.003443 -0.001394 0.000385 0.005737
# 3 -0.003516 -0.003443 0.012186 -0.000301 -0.001808 0.000710
# 4 0.003483 -0.001394 -0.000301 0.032785 -0.002245 -0.000573
# 5 0.001605 0.000385 -0.001808 -0.002245 0.032633 -0.000414
# 6 0.005437 0.005737 0.000710 -0.000573 -0.000414 0.040541
#
#
# Mechanical properties :
#
#
# Convention : Reuss Voigt Hill
#
# Bulk Modulus (GPa) = 36.76442 45.12108 40.94275
# Shear Modulus (GPa) = 27.66220 29.70194 28.68207
#
# Velocity S-wave (km/s) = 3.60215 3.73259 3.66795
# Velocity P-wave (km/s) = 5.87756 6.30406 6.09454
#
# Compressibility (1/GPa) = 0.02720021
#
# Stress axis : x y z
#
# Youngs Moduli (GPa) = 49.55357 70.93714 82.05978
#
# Poissons Ratio (x) = 0.18958 0.28853
# Poissons Ratio (y) = 0.13243 0.28254
# Poissons Ratio (z) = 0.17423 0.24424
#
# Static dielectric constant tensor:
#      x y z
#    x 3.798430 -0.106300 0.132660 
#    y -0.106300 3.870090 -0.116010 
#    z 0.132660 -0.116010 4.032830 
# 
# 
# High freq. dielectric constant tensor:
#      x y z
#    x 1.825810 0.005240 -0.002940 
#    y 0.005240 1.816000 -0.001100 
#    z -0.002940 -0.001100 1.844470 
# 
# From -- ./inp_files/342980.got.cif
#   From: 2010.06.25/outbox.cif.g09.slc.cpg/sg2_172_cif.got.tgz:342980.got - 2010.06.27 13:26:56.
