data_PCOD8041656
_publ_section_title
;
Structure prediction by ZEFSAII (Michael W. Deem and Ramdas Pophale) SiO2 
 PCOD8041656
Probable space group: P -1
;
_chemical_formula_sum "Si O2"
_cell_formula_units_Z 14
_cell_length_a 13.760108
_cell_length_b 9.289766
_cell_length_c 10.695967
_cell_angle_alpha 90.879765
_cell_angle_beta 33.141120
_cell_angle_gamma 98.266526
_cell_volume 725.637133
_symmetry_space_group_name_H-M "P -1"
_symmetry_group_IT_number 2
_symmetry_cell_setting 'triclinic'
loop_
_space_group_symop_operation_xyz
x,y,z
-x,-y,-z
loop_
_atom_site_type_symbol
_atom_site_label
_atom_site_fract_x
_atom_site_fract_y
_atom_site_fract_z
Si Si1 0.294030 0.705924 0.999514
Si Si2 0.598945 0.578184 0.773593
Si Si3 0.093480 0.371885 0.158043
Si Si4 0.029166 0.337436 0.494484
Si Si5 0.550386 0.169363 0.411603
Si Si6 0.734702 0.404203 0.421503
Si Si7 0.685253 0.630783 0.309497
O O1 0.489737 0.698963 0.847405
O O2 0.319698 0.809416 0.850222
O O3 0.185390 0.544031 0.073890
O O4 0.161154 0.762253 0.243620
O O5 0.808034 0.660198 0.582499
O O6 0.593616 0.451322 0.672536
O O7 0.500000 0.500000 0.000000
O O8 0.080424 0.280891 0.302202
O O9 0.889480 0.350590 0.327549
O O10 0.217021 0.310032 0.925150
O O11 0.000000 0.500000 0.500000
O O12 0.636184 0.266132 0.440287
O O13 0.368152 0.225726 0.570668
O O14 0.500000 0.000000 0.500000
O O15 0.816190 0.555833 0.254064
O O16 0.500000 0.500000 0.500000
#
# Coordination Sequence:
#
# PCOD8041656 Si02
#       7
#     2   2   2   2   2   2   2
#     4  11  19  36  54  84 121 147 188 240 285 340
#     4  12  19  30  58  92 118 145 181 237 298 337
#     4  11  18  33  56  91 116 137 187 246 291 338
#     4  10  20  30  52  91 119 143 180 241 296 336
#     4  11  24  39  56  80 117 160 195 230 285 346
#     4  11  20  33  58  88 113 146 189 242 293 328
#     4  10  19  33  56  83 109 145 191 239 285 331
#
# _framework density 19.293391
#
# number of rings (size 3 to 8) (size 9 to 14) (size 15 to 20)
#    0.000    1.143   10.000    1.286    0.000    0.000 
#    0.000    0.714    0.000    4.286    0.000    0.000 
#    0.000    0.000    0.000    0.000    0.000    0.000 
#
# Total GULP energy -173443.636379 kJ/mol
# GULP energy per Si atom -12388.831170 kJ/mol
# Density = 1.924948 g / cm^3
# Si number density = 19.293391 Si / 1000 Ang^3
#
#
#
# Elastic Constant Matrix: (Units=GPa)
#
#
# Indices 1 2 3 4 5 6 
#
# 1 113.9241 27.0369 53.2124 -1.6696 6.8534 -4.6840
# 2 27.0369 72.3256 34.5972 -7.8240 7.8894 -7.3967
# 3 53.2124 34.5972 148.0638 11.6369 33.4128 -2.8815
# 4 -1.6696 -7.8240 11.6369 17.8538 -3.0887 4.9592
# 5 6.8534 7.8894 33.4128 -3.0887 51.4105 8.4737
# 6 -4.6840 -7.3967 -2.8815 4.9592 8.4737 11.7692
#
#
#
# Elastic Compliance Matrix: (Units=1/GPa)
#
#
# Indices 1 2 3 4 5 6 
#
# 1 0.011153 -0.002048 -0.004245 0.003442 0.001911 -0.000714
# 2 -0.002048 0.018084 -0.003910 0.008410 -0.000514 0.006420
# 3 -0.004245 -0.003910 0.013115 -0.016239 -0.010560 0.013510
# 4 0.003442 0.008410 -0.016239 0.088629 0.022515 -0.050876
# 5 0.001911 -0.000514 -0.010560 0.022515 0.033369 -0.035661
# 6 -0.000714 0.006420 0.013510 -0.050876 -0.035661 0.139139
#
#
# Mechanical properties :
#
#
# Convention : Reuss Voigt Hill
#
# Bulk Modulus (GPa) = 45.56383 62.66741 54.11562
# Shear Modulus (GPa) = 15.09611 30.83783 22.96697
#
# Velocity S-wave (km/s) = 2.80027 4.00229 3.45397
# Velocity P-wave (km/s) = 5.84148 7.34231 6.63447
#
# Compressibility (1/GPa) = 0.02194724
#
# Stress axis : x y z
#
# Youngs Moduli (GPa) = 89.66360 55.29611 76.24576
#
# Poissons Ratio (x) = 0.11322 0.32369
# Poissons Ratio (y) = 0.18359 0.29811
# Poissons Ratio (z) = 0.38066 0.21620
#
# Static dielectric constant tensor:
#      x y z
#    x 4.254450 -0.239370 0.407470 
#    y -0.239370 3.172700 0.650800 
#    z 0.407470 0.650800 4.671390 
# 
# 
# High freq. dielectric constant tensor:
#      x y z
#    x 1.766370 -0.017350 0.018360 
#    y -0.017350 1.668420 0.033530 
#    z 0.018360 0.033530 1.768310 
# 
# From -- ./inp_files/447312.got.cif
#   From: 2010.06.25/outbox.cif.g09.slc.cpg/sg2_224_cif.got.tgz:447312.got - 2010.06.27 13:26:56.
