data_PCOD8041321
_publ_section_title
;
Structure prediction by ZEFSAII (Michael W. Deem and Ramdas Pophale) SiO2 
 PCOD8041321
Probable space group: P -1
;
_chemical_formula_sum "Si O2"
_cell_formula_units_Z 16
_cell_length_a 13.956824
_cell_length_b 19.856125
_cell_length_c 12.057442
_cell_angle_alpha 145.445153
_cell_angle_beta 150.023839
_cell_angle_gamma 29.070429
_cell_volume 780.192256
_symmetry_space_group_name_H-M "P -1"
_symmetry_group_IT_number 2
_symmetry_cell_setting 'triclinic'
loop_
_space_group_symop_operation_xyz
x,y,z
-x,-y,-z
loop_
_atom_site_type_symbol
_atom_site_label
_atom_site_fract_x
_atom_site_fract_y
_atom_site_fract_z
Si Si1 0.192568 0.193080 0.024845
Si Si2 0.365796 0.880203 0.740095
Si Si3 0.188934 0.926041 0.224535
Si Si4 0.304282 0.638387 0.628174
Si Si5 0.011868 0.200505 0.282030
Si Si6 0.312118 0.892409 0.949639
Si Si7 0.240389 0.668116 0.347580
Si Si8 0.332584 0.141728 0.342864
O O1 0.959129 0.328732 0.918836
O O2 0.222946 0.051237 0.808038
O O3 0.403409 0.203567 0.215854
O O4 0.182442 0.195101 0.150966
O O5 0.226745 0.808216 0.478789
O O6 0.436196 0.851627 0.900413
O O7 0.440821 0.854569 0.438548
O O8 0.183357 0.798957 0.987688
O O9 0.170857 0.038397 0.269663
O O10 0.973799 0.009346 0.209314
O O11 0.105189 0.678929 0.574702
O O12 0.196803 0.672477 0.442160
O O13 0.510942 0.473605 0.626263
O O14 0.393307 0.741662 0.885126
O O15 0.165019 0.235954 0.406041
O O16 0.401495 0.979466 0.219150
#
# Coordination Sequence:
#
# PCOD8041321 Si02
#       8
#     2   2   2   2   2   2   2   2
#     4  10  21  34  53  81 108 134 173 213 256 313
#     4   9  19  33  52  78 103 135 170 209 260 305
#     4   9  17  31  51  78 108 134 170 215 261 306
#     4   9  19  36  56  76 104 138 175 214 258 309
#     4   9  18  32  51  78 105 136 173 213 257 303
#     4   8  17  32  51  79 107 132 168 213 259 305
#     4  10  20  38  56  75 105 139 172 215 261 306
#     4  10  19  32  53  81 109 137 169 213 262 307
#
# _framework density 20.507766
#
# number of rings (size 3 to 8) (size 9 to 14) (size 15 to 20)
#    0.000    2.750    0.000    1.500    0.000   12.000 
#    0.000   11.250    0.000    1.500    0.000    0.000 
#    0.000    0.000    0.000    0.000    0.000    0.000 
#
# Total GULP energy -198223.182942 kJ/mol
# GULP energy per Si atom -12388.948934 kJ/mol
# Density = 2.046109 g / cm^3
# Si number density = 20.507766 Si / 1000 Ang^3
#
#
#
# Elastic Constant Matrix: (Units=GPa)
#
#
# Indices 1 2 3 4 5 6 
#
# 1 124.1897 22.1711 18.5046 -1.8244 -4.3410 -18.5791
# 2 22.1711 35.8016 23.9080 -6.9759 -5.5976 -8.8103
# 3 18.5046 23.9080 76.9855 -15.4371 2.5147 -3.1909
# 4 -1.8244 -6.9759 -15.4371 21.8229 -2.1422 -5.2283
# 5 -4.3410 -5.5976 2.5147 -2.1422 23.2738 2.6579
# 6 -18.5791 -8.8103 -3.1909 -5.2283 2.6579 22.6085
#
#
#
# Elastic Compliance Matrix: (Units=1/GPa)
#
#
# Indices 1 2 3 4 5 6 
#
# 1 0.009857 -0.003748 -0.000804 0.000681 0.000328 0.006645
# 2 -0.003748 0.044486 -0.010493 0.010885 0.010531 0.014054
# 3 -0.000804 -0.010493 0.018468 0.009378 -0.003861 0.000479
# 4 0.000681 0.010885 0.009378 0.061211 0.005119 0.019679
# 5 0.000328 0.010531 -0.003861 0.005119 0.046501 -0.000455
# 6 0.006645 0.014054 0.000479 0.019679 -0.000455 0.059841
#
#
# Mechanical properties :
#
#
# Convention : Reuss Voigt Hill
#
# Bulk Modulus (GPa) = 23.40790 40.68270 32.04530
# Shear Modulus (GPa) = 17.56277 25.03390 21.29833
#
# Velocity S-wave (km/s) = 2.92960 3.49765 3.22615
# Velocity P-wave (km/s) = 4.78355 6.01599 5.43482
#
# Compressibility (1/GPa) = 0.04272061
#
# Stress axis : x y z
#
# Youngs Moduli (GPa) = 101.45421 22.47906 54.14810
#
# Poissons Ratio (x) = 0.08425 0.04353
# Poissons Ratio (y) = 0.38024 0.56818
# Poissons Ratio (z) = 0.08156 0.23588
#
# Static dielectric constant tensor:
#      x y z
#    x 3.853370 -0.064250 -0.017370 
#    y -0.064250 3.297680 0.154420 
#    z -0.017370 0.154420 3.522430 
# 
# 
# High freq. dielectric constant tensor:
#      x y z
#    x 1.817790 -0.009630 -0.000260 
#    y -0.009630 1.747820 0.003840 
#    z -0.000260 0.003840 1.778560 
# 
# From -- ./inp_files/457355.got.cif
#   From: 2010.06.25/outbox.cif.g09.slc.cpg/sg2_229_cif.got.tgz:457355.got - 2010.06.27 13:26:56.
