data_PCOD8041076
_publ_section_title
;
Structure prediction by ZEFSAII (Michael W. Deem and Ramdas Pophale) SiO2 
 PCOD8041076
Probable space group: P -1
;
_chemical_formula_sum "Si O2"
_cell_formula_units_Z 16
_cell_length_a 11.226667
_cell_length_b 14.415065
_cell_length_c 28.378940
_cell_angle_alpha 27.631219
_cell_angle_beta 22.228380
_cell_angle_gamma 30.075023
_cell_volume 778.495604
_symmetry_space_group_name_H-M "P -1"
_symmetry_group_IT_number 2
_symmetry_cell_setting 'triclinic'
loop_
_space_group_symop_operation_xyz
x,y,z
-x,-y,-z
loop_
_atom_site_type_symbol
_atom_site_label
_atom_site_fract_x
_atom_site_fract_y
_atom_site_fract_z
Si Si1 0.837385 0.895280 0.171540
Si Si2 0.013017 0.432209 0.099462
Si Si3 0.830710 0.573912 0.849874
Si Si4 0.309359 0.155547 0.852755
Si Si5 0.614716 0.269204 0.841203
Si Si6 0.732013 0.882561 0.662780
Si Si7 0.681039 0.507166 0.792048
Si Si8 0.240193 0.035859 0.148058
O O1 0.616517 0.924254 0.192029
O O2 0.070002 0.662250 0.191061
O O3 0.611295 0.948009 0.277363
O O4 0.048651 0.059368 0.017864
O O5 0.122688 0.352085 0.147602
O O6 0.957515 0.237237 0.176765
O O7 0.691184 0.619132 0.130001
O O8 0.305064 0.512052 0.934418
O O9 0.820230 0.756900 0.735210
O O10 0.156637 0.399538 0.797353
O O11 0.500000 0.500000 0.000000
O O12 0.636615 0.093705 0.791357
O O13 0.764246 0.438769 0.737217
O O14 0.869590 0.118120 0.779937
O O15 0.525717 0.122136 0.980346
O O16 0.715770 0.733798 0.691099
O O17 0.000000 0.000000 0.500000
#
# Coordination Sequence:
#
# PCOD8041076 Si02
#       8
#     2   2   2   2   2   2   2   2
#     4  11  21  35  61  84 121 153 195 239 301 347
#     4  11  19  33  58  89 122 150 190 243 294 350
#     4  12  20  36  61  88 117 153 197 246 298 351
#     4  11  18  33  58  92 115 151 188 248 294 348
#     4  10  21  31  50  86 128 152 186 236 299 355
#     4  12  27  41  58  87 122 160 199 242 298 355
#     4  11  21  37  56  84 123 159 193 236 301 354
#     4  10  19  30  47  82 126 149 183 229 302 343
#
# _framework density 20.552461000000001
#
# number of rings (size 3 to 8) (size 9 to 14) (size 15 to 20)
#    0.000    1.000    7.500    2.250    0.000    1.500 
#    0.000    0.000    0.000    0.750    0.000    2.625 
#    0.000    0.000    0.000    0.000    0.000    0.000 
#
# Total GULP energy -198266.005522 kJ/mol
# GULP energy per Si atom -12391.625345 kJ/mol
# Density = 2.050568 g / cm^3
# Si number density = 20.552461 Si / 1000 Ang^3
#
#
#
# Elastic Constant Matrix: (Units=GPa)
#
#
# Indices 1 2 3 4 5 6 
#
# 1 117.6566 23.6688 12.9507 -11.7672 0.4984 23.5753
# 2 23.6688 98.4070 23.7043 -5.3509 -3.4789 22.8523
# 3 12.9507 23.7043 58.9663 -9.7567 3.2246 13.2034
# 4 -11.7672 -5.3509 -9.7567 14.3597 0.9505 -1.1971
# 5 0.4984 -3.4789 3.2246 0.9505 12.4072 -4.9953
# 6 23.5753 22.8523 13.2034 -1.1971 -4.9953 53.9094
#
#
#
# Elastic Compliance Matrix: (Units=1/GPa)
#
#
# Indices 1 2 3 4 5 6 
#
# 1 0.010403 -0.001359 0.000803 0.008430 -0.003383 -0.004296
# 2 -0.001359 0.012372 -0.004059 0.000247 0.003210 -0.003353
# 3 0.000803 -0.004059 0.022450 0.014669 -0.010034 -0.004733
# 4 0.008430 0.000247 0.014669 0.086937 -0.013439 -0.006698
# 5 -0.003383 0.003210 -0.010034 -0.013439 0.089528 0.010574
# 6 -0.004296 -0.003353 -0.004733 -0.006698 0.010574 0.023840
#
#
# Mechanical properties :
#
#
# Convention : Reuss Voigt Hill
#
# Bulk Modulus (GPa) = 27.78152 43.96416 35.87284
# Shear Modulus (GPa) = 18.74361 30.44900 24.59630
#
# Velocity S-wave (km/s) = 3.02319 3.85324 3.46317
# Velocity P-wave (km/s) = 5.07277 6.42139 5.78650
#
# Compressibility (1/GPa) = 0.03599515
#
# Stress axis : x y z
#
# Youngs Moduli (GPa) = 96.13052 80.82732 44.54394
#
# Poissons Ratio (x) = 0.10985 -0.03579
# Poissons Ratio (y) = 0.13065 0.18080
# Poissons Ratio (z) = -0.07723 0.32807
#
# Static dielectric constant tensor:
#      x y z
#    x 3.201580 0.089470 -0.457240 
#    y 0.089470 4.162130 -0.097820 
#    z -0.457240 -0.097820 2.588670 
# 
# 
# High freq. dielectric constant tensor:
#      x y z
#    x 1.826420 0.011310 0.007050 
#    y 0.011310 1.835350 0.001960 
#    z 0.007050 0.001960 1.691510 
# 
# From -- ./inp_files/313457.got.cif
#   From: 2010.06.25/outbox.cif.g09.slc.cpg/sg2_157_cif.got.tgz:313457.got - 2010.06.27 13:26:56.
