data_PCOD8041334
_publ_section_title
;
Structure prediction by ZEFSAII (Michael W. Deem and Ramdas Pophale) SiO2 
 PCOD8041334
Probable space group: P -1
;
_chemical_formula_sum "Si O2"
_cell_formula_units_Z 16
_cell_length_a 17.596712
_cell_length_b 14.661512
_cell_length_c 14.129512
_cell_angle_alpha 39.540532
_cell_angle_beta 159.596466
_cell_angle_gamma 140.119070
_cell_volume 792.573699
_symmetry_space_group_name_H-M "P -1"
_symmetry_group_IT_number 2
_symmetry_cell_setting 'triclinic'
loop_
_space_group_symop_operation_xyz
x,y,z
-x,-y,-z
loop_
_atom_site_type_symbol
_atom_site_label
_atom_site_fract_x
_atom_site_fract_y
_atom_site_fract_z
Si Si1 0.215758 0.058654 0.055572
Si Si2 0.468528 0.806822 0.539048
Si Si3 0.770280 0.864065 0.670908
Si Si4 0.033221 0.638176 0.215198
Si Si5 0.372744 0.946281 0.800005
Si Si6 0.984491 0.691111 0.529369
Si Si7 0.422796 0.209219 0.997815
Si Si8 0.911193 0.330526 0.535612
O O1 0.320908 0.188601 0.147929
O O2 0.325582 0.921141 0.317769
O O3 0.273953 0.093726 0.986326
O O4 0.950441 0.004331 0.807380
O O5 0.556708 0.834212 0.513576
O O6 0.285628 0.655332 0.455119
O O7 0.692551 0.911842 0.439617
O O8 0.876004 0.718058 0.902085
O O9 0.032678 0.716112 0.255945
O O10 0.935346 0.463384 0.244833
O O11 0.161280 0.819680 0.681969
O O12 0.533320 0.874309 0.978137
O O13 0.500000 0.000000 0.000000
O O14 0.972969 0.736287 0.365636
O O15 0.742085 0.677772 0.305503
O O16 0.646065 0.292720 0.241521
O O17 0.000000 0.500000 0.500000
#
# Coordination Sequence:
#
# PCOD8041334 Si02
#       8
#     2   2   2   2   2   2   2   2
#     4  10  19  32  53  89 119 157 190 232 283 356
#     4  10  20  32  55  85 129 157 191 227 292 354
#     4  11  22  37  59  85 119 158 198 248 293 348
#     4  10  22  36  57  90 126 164 191 228 291 362
#     4  11  25  44  65  87 110 149 207 266 309 344
#     4  10  23  40  60  88 124 158 202 244 290 355
#     4  11  20  37  61  85 121 155 198 238 291 345
#     4   9  20  35  54  88 129 168 196 222 278 358
#
# _framework density 20.187396
#
# number of rings (size 3 to 8) (size 9 to 14) (size 15 to 20)
#    0.000    1.750    3.750    0.375    1.750    5.500 
#    0.000    0.625    0.000    1.500    0.000    0.000 
#    0.000    0.000    0.000    0.000    0.000    0.000 
#
# Total GULP energy -198291.927449 kJ/mol
# GULP energy per Si atom -12393.245466 kJ/mol
# Density = 2.014145 g / cm^3
# Si number density = 20.187396 Si / 1000 Ang^3
#
#
#
# Elastic Constant Matrix: (Units=GPa)
#
#
# Indices 1 2 3 4 5 6 
#
# 1 80.1113 41.4798 52.0990 6.2738 -2.8207 6.6184
# 2 41.4798 86.0455 40.2058 -0.9145 -9.9588 4.6532
# 3 52.0990 40.2058 104.5873 -5.3330 -3.8427 -5.6729
# 4 6.2738 -0.9145 -5.3330 29.5556 2.2822 1.7371
# 5 -2.8207 -9.9588 -3.8427 2.2822 40.1215 6.0494
# 6 6.6184 4.6532 -5.6729 1.7371 6.0494 28.0776
#
#
#
# Elastic Compliance Matrix: (Units=1/GPa)
#
#
# Indices 1 2 3 4 5 6 
#
# 1 0.023089 -0.006275 -0.009735 -0.006528 0.000418 -0.006056
# 2 -0.006275 0.016785 -0.003284 0.001135 0.003776 -0.002850
# 3 -0.009735 -0.003284 0.016197 0.004618 -0.001126 0.006068
# 4 -0.006528 0.001135 0.004618 0.036206 -0.001862 0.000445
# 5 0.000418 0.003776 -0.001126 -0.001862 0.026888 -0.006630
# 6 -0.006056 -0.002850 0.006068 0.000445 -0.006630 0.040142
#
#
# Mechanical properties :
#
#
# Convention : Reuss Voigt Hill
#
# Bulk Modulus (GPa) = 57.20588 59.81257 58.50923
# Shear Modulus (GPa) = 24.54293 28.68158 26.61226
#
# Velocity S-wave (km/s) = 3.49055 3.77340 3.63473
# Velocity P-wave (km/s) = 6.68163 6.97694 6.83088
#
# Compressibility (1/GPa) = 0.01748072
#
# Stress axis : x y z
#
# Youngs Moduli (GPa) = 43.31021 59.57808 61.74051
#
# Poissons Ratio (x) = 0.37386 0.60106
# Poissons Ratio (y) = 0.27178 0.20279
# Poissons Ratio (z) = 0.42164 0.19568
#
# Static dielectric constant tensor:
#      x y z
#    x 3.387310 0.274620 0.078700 
#    y 0.274620 3.615190 -0.068810 
#    z 0.078700 -0.068810 3.621970 
# 
# 
# High freq. dielectric constant tensor:
#      x y z
#    x 1.761820 0.033990 0.025140 
#    y 0.033990 1.779730 -0.011720 
#    z 0.025140 -0.011720 1.790740 
# 
# From -- ./inp_files/77463.got.cif
#   From: 2010.06.25/outbox.cif.g09.slc.cpg/sg2_39_cif.got.tgz:77463.got - 2010.06.27 13:26:56.
