data_PCOD8041152
_publ_section_title
;
Structure prediction by ZEFSAII (Michael W. Deem and Ramdas Pophale) SiO2 
 PCOD8041152
Probable space group: P -1
;
_chemical_formula_sum "Si O2"
_cell_formula_units_Z 16
_cell_length_a 11.016369
_cell_length_b 15.523414
_cell_length_c 8.989709
_cell_angle_alpha 85.139053
_cell_angle_beta 83.383095
_cell_angle_gamma 30.897509
_cell_volume 783.872829
_symmetry_space_group_name_H-M "P -1"
_symmetry_group_IT_number 2
_symmetry_cell_setting 'triclinic'
loop_
_space_group_symop_operation_xyz
x,y,z
-x,-y,-z
loop_
_atom_site_type_symbol
_atom_site_label
_atom_site_fract_x
_atom_site_fract_y
_atom_site_fract_z
Si Si1 0.658990 0.170213 0.102422
Si Si2 0.732160 0.005843 0.380931
Si Si3 0.208110 0.063170 0.294019
Si Si4 0.005366 0.723390 0.187178
Si Si5 0.131577 0.465081 0.147853
Si Si6 0.083493 0.817095 0.938623
Si Si7 0.296945 0.197142 0.267940
Si Si8 0.342774 0.179227 0.927744
O O1 0.396717 0.301762 0.058442
O O2 0.694063 0.252391 0.079789
O O3 0.701206 0.112300 0.274450
O O4 0.845971 0.009064 0.996594
O O5 0.764046 0.010144 0.549009
O O6 0.960529 0.810706 0.324279
O O7 0.497197 0.090839 0.378626
O O8 0.164261 0.189500 0.330710
O O9 0.972800 0.176668 0.223425
O O10 0.444287 0.908286 0.183438
O O11 0.141684 0.550033 0.228649
O O12 0.748969 0.852476 0.136192
O O13 0.145160 0.696228 0.048105
O O14 0.116551 0.388969 0.265739
O O15 0.891631 0.614174 0.056629
O O16 0.409793 0.114417 0.097155
#
# Coordination Sequence:
#
# PCOD8041152 Si02
#       8
#     2   2   2   2   2   2   2   2
#     4   9  20  39  55  76 101 132 176 220 249 302
#     4  10  21  34  51  74 108 139 175 207 252 300
#     4  12  20  32  54  79 104 140 171 207 255 309
#     4   9  18  34  50  78 101 138 164 209 259 298
#     4   9  19  32  53  77 105 136 164 213 261 296
#     4  10  20  35  59  77  98 134 177 214 257 296
#     4  11  18  31  50  76 108 134 168 206 252 306
#     4  10  19  31  51  79 105 133 164 210 258 304
#
# _framework density 20.411473999999998
#
# number of rings (size 3 to 8) (size 9 to 14) (size 15 to 20)
#    0.750    1.250    2.500    3.375    0.000    1.000 
#    0.000    5.625    0.000    0.750    0.000    0.000 
#    0.000    0.000    0.000    0.000    0.000    0.000 
#
# Total GULP energy -198211.790051 kJ/mol
# GULP energy per Si atom -12388.236878 kJ/mol
# Density = 2.036502 g / cm^3
# Si number density = 20.411474 Si / 1000 Ang^3
#
#
#
# Elastic Constant Matrix: (Units=GPa)
#
#
# Indices 1 2 3 4 5 6 
#
# 1 75.9892 6.4871 5.2435 -9.9703 -10.6260 -1.2462
# 2 6.4871 64.0142 2.4325 -5.8288 -10.0718 3.8943
# 3 5.2435 2.4325 91.8288 -10.6420 -0.0885 -0.6883
# 4 -9.9703 -5.8288 -10.6420 16.2024 2.8204 0.4416
# 5 -10.6260 -10.0718 -0.0885 2.8204 19.2439 -6.1088
# 6 -1.2462 3.8943 -0.6883 0.4416 -6.1088 27.5538
#
#
#
# Elastic Compliance Matrix: (Units=1/GPa)
#
#
# Indices 1 2 3 4 5 6 
#
# 1 0.015382 0.000330 0.000082 0.008144 0.008217 0.002342
# 2 0.000330 0.017400 0.000115 0.005107 0.008326 -0.000677
# 3 0.000082 0.000115 0.011811 0.008033 -0.001042 -0.000077
# 4 0.008144 0.005107 0.008033 0.074689 -0.004483 -0.002344
# 5 0.008217 0.008326 -0.001042 -0.004483 0.065909 0.013853
# 6 0.002342 -0.000677 -0.000077 -0.002344 0.013853 0.039601
#
#
# Mechanical properties :
#
#
# Convention : Reuss Voigt Hill
#
# Bulk Modulus (GPa) = 21.90692 28.90649 25.40670
# Shear Modulus (GPa) = 20.92458 27.11129 24.01794
#
# Velocity S-wave (km/s) = 3.20525 3.64845 3.43401
# Velocity P-wave (km/s) = 4.94511 5.65163 5.31013
#
# Compressibility (1/GPa) = 0.04564768
#
# Stress axis : x y z
#
# Youngs Moduli (GPa) = 65.01170 57.47141 84.66334
#
# Poissons Ratio (x) = -0.01896 -0.00696
# Poissons Ratio (y) = -0.02145 -0.00974
# Poissons Ratio (z) = -0.00534 -0.00661
#
# Static dielectric constant tensor:
#      x y z
#    x 3.885200 0.259550 -0.040690 
#    y 0.259550 3.625600 -0.075240 
#    z -0.040690 -0.075240 3.279870 
# 
# 
# High freq. dielectric constant tensor:
#      x y z
#    x 1.799240 0.022410 0.004140 
#    y 0.022410 1.787720 -0.010490 
#    z 0.004140 -0.010490 1.760740 
# 
# From -- ./inp_files/276533.got.cif
#   From: 2010.06.25/outbox.cif.g09.slc.cpg/sg2_139_cif.got.tgz:276533.got - 2010.06.27 13:26:56.
