data_PCOD8041119
_publ_section_title
;
Structure prediction by ZEFSAII (Michael W. Deem and Ramdas Pophale) SiO2 
 PCOD8041119
Probable space group: P -1
;
_chemical_formula_sum "Si O2"
_cell_formula_units_Z 16
_cell_length_a 9.788146
_cell_length_b 8.661062
_cell_length_c 16.039881
_cell_angle_alpha 94.958994
_cell_angle_beta 91.585109
_cell_angle_gamma 30.765327
_cell_volume 690.056352
_symmetry_space_group_name_H-M "P -1"
_symmetry_group_IT_number 2
_symmetry_cell_setting 'triclinic'
loop_
_space_group_symop_operation_xyz
x,y,z
-x,-y,-z
loop_
_atom_site_type_symbol
_atom_site_label
_atom_site_fract_x
_atom_site_fract_y
_atom_site_fract_z
Si Si1 0.920244 0.280820 0.656699
Si Si2 0.057359 0.271820 0.961228
Si Si3 0.732006 0.813945 0.261852
Si Si4 0.580354 0.707918 0.372902
Si Si5 0.607100 0.779995 0.865041
Si Si6 0.058666 0.255265 0.137375
Si Si7 0.454536 0.716675 0.542772
Si Si8 0.911080 0.962050 0.712477
O O1 0.639486 0.579478 0.618352
O O2 0.002896 0.346721 0.718026
O O3 0.897023 0.159935 0.713804
O O4 0.146932 0.031816 0.579063
O O5 0.861363 0.428675 0.885687
O O6 0.365767 0.957468 0.927333
O O7 0.000000 0.500000 0.000000
O O8 0.994427 0.239030 0.044837
O O9 0.627584 0.835914 0.345873
O O10 0.823380 0.597243 0.184895
O O11 0.494753 0.148607 0.229716
O O12 0.516992 0.777913 0.473187
O O13 0.830614 0.352653 0.345361
O O14 0.337404 0.872277 0.327819
O O15 0.674551 0.898513 0.876246
O O16 0.098468 0.073413 0.192077
O O17 0.500000 0.500000 0.500000
#
# Coordination Sequence:
#
# PCOD8041119 Si02
#       8
#     2   2   2   2   2   2   2   2
#     4  12  26  40  64  89 118 158 197 239 309 357
#     4  10  19  30  57  90 111 155 200 237 277 340
#     4  11  25  38  59  93 127 151 190 250 307 345
#     4  11  23  39  64  84 116 155 200 246 292 341
#     4  11  19  35  56  88 120 152 192 244 286 339
#     4  10  21  36  61  88 122 150 199 246 283 340
#     4  12  23  43  65  85 115 157 205 248 284 352
#     4  11  21  39  61  88 114 158 199 242 286 352
#
# _framework density 23.186513000000001
#
# number of rings (size 3 to 8) (size 9 to 14) (size 15 to 20)
#    0.000    1.000    6.250    2.625    1.750    1.000 
#    0.000    0.000    0.000    1.500    0.000    0.875 
#    0.000    0.000    0.000    0.000    0.000    0.000 
#
# Total GULP energy -198301.685099 kJ/mol
# GULP energy per Si atom -12393.855319 kJ/mol
# Density = 2.313374 g / cm^3
# Si number density = 23.186513 Si / 1000 Ang^3
#
#
#
# Elastic Constant Matrix: (Units=GPa)
#
#
# Indices 1 2 3 4 5 6 
#
# 1 83.1102 -40.8009 11.4905 -39.7981 -22.5010 3.6126
# 2 -40.8009 -191.5111 -155.8589 -97.1547 -27.8979 46.9518
# 3 11.4905 -155.8589 43.4766 -83.8441 -49.5599 53.2175
# 4 -39.7981 -97.1547 -83.8441 19.1710 -5.5252 20.2087
# 5 -22.5010 -27.8979 -49.5599 -5.5252 40.6831 0.4763
# 6 3.6126 46.9518 53.2175 20.2087 0.4763 6.8490
#
#
#
# Elastic Compliance Matrix: (Units=1/GPa)
#
#
# Indices 1 2 3 4 5 6 
#
# 1 0.015259 0.000260 -0.004242 0.004049 0.003872 0.010916
# 2 0.000260 0.008418 -0.007094 -0.006476 -0.003801 0.016651
# 3 -0.004242 -0.007094 0.007983 -0.001323 0.002421 -0.007422
# 4 0.004049 -0.006476 -0.001323 0.016125 -0.001683 0.005078
# 5 0.003872 -0.003801 0.002421 -0.001683 0.026739 0.008305
# 6 0.010916 0.016651 -0.007422 0.005078 0.008305 0.068209
#
#
# Mechanical properties :
#
#
# Convention : Reuss Voigt Hill
#
# Bulk Modulus (GPa) = 105.19222 -48.36254 28.41484
# Shear Modulus (GPa) = 29.75212 21.35696 25.55454
#
# Velocity S-wave (km/s) = 3.58602 3.03825 3.32344
# Velocity P-wave (km/s) = 7.91280 2.93179 5.19697
#
# Compressibility (1/GPa) = 0.00950641
#
# Stress axis : x y z
#
# Youngs Moduli (GPa) = 65.53600 118.79374 125.26489
#
# Poissons Ratio (x) = -0.03084 0.53137
# Poissons Ratio (y) = -0.01702 0.88868
# Poissons Ratio (z) = 0.27800 0.84277
#
# Static dielectric constant tensor:
#      x y z
#    x 4.145760 -0.137600 -0.867580 
#    y -0.137600 4.335040 -0.720260 
#    z -0.867580 -0.720260 6.110490 
# 
# 
# High freq. dielectric constant tensor:
#      x y z
#    x 1.877510 -0.030480 -0.025200 
#    y -0.030480 1.921050 -0.012610 
#    z -0.025200 -0.012610 1.940150 
# 
# From -- ./inp_files/557253.got.cif
#   From: 2010.06.25/outbox.cif.g09.slc.cpg/sg2_279_cif.got.tgz:557253.got - 2010.06.27 13:26:56.
