data_PCOD8041618
_publ_section_title
;
Structure prediction by ZEFSAII (Michael W. Deem and Ramdas Pophale) SiO2 
 PCOD8041618
Probable space group: P -1
;
_chemical_formula_sum "Si O2"
_cell_formula_units_Z 16
_cell_length_a 25.998614
_cell_length_b 26.430767
_cell_length_c 9.079147
_cell_angle_alpha 137.388600
_cell_angle_beta 41.458275
_cell_angle_gamma 168.707828
_cell_volume 808.793669
_symmetry_space_group_name_H-M "P -1"
_symmetry_group_IT_number 2
_symmetry_cell_setting 'triclinic'
loop_
_space_group_symop_operation_xyz
x,y,z
-x,-y,-z
loop_
_atom_site_type_symbol
_atom_site_label
_atom_site_fract_x
_atom_site_fract_y
_atom_site_fract_z
Si Si1 0.933573 0.015398 0.259898
Si Si2 0.585324 0.480633 0.152008
Si Si3 0.685838 0.012837 0.350185
Si Si4 0.024434 0.482094 0.216914
Si Si5 0.143560 0.975055 0.856890
Si Si6 0.841674 0.473979 0.710647
Si Si7 0.502440 0.002478 0.832535
Si Si8 0.446108 0.518117 0.441860
O O1 0.883626 0.029600 0.267263
O O2 0.175737 0.263777 0.379455
O O3 0.669004 0.764993 0.392647
O O4 0.000000 0.000000 0.000000
O O5 0.560355 0.543373 0.294528
O O6 0.602012 0.484196 0.302284
O O7 0.857203 0.703183 0.968962
O O8 0.326369 0.200870 0.040667
O O9 0.566231 0.977798 0.595720
O O10 0.463113 0.781179 0.213104
O O11 0.720278 0.981589 0.334029
O O12 0.970216 0.290303 0.259048
O O13 0.908694 0.450180 0.472529
O O14 0.102475 0.480441 0.139104
O O15 0.787383 0.233598 0.093495
O O16 0.288844 0.744417 0.124176
O O17 0.500000 0.000000 0.000000
#
# Coordination Sequence:
#
# PCOD8041618 Si02
#       8
#     2   2   2   2   2   2   2   2
#     4  12  21  37  60  91 114 151 200 247 285 344
#     4  11  22  38  60  88 113 152 193 247 296 350
#     4  10  21  35  55  79 112 148 179 230 281 338
#     4   9  17  30  55  82  99 132 176 232 268 310
#     4  12  23  37  61  84 117 156 201 235 294 359
#     4   9  17  33  54  80 104 129 181 227 274 316
#     4  10  19  33  55  82 111 144 184 225 273 332
#     4  11  22  38  60  87 118 145 195 253 298 326
#
# _framework density 19.782547000000001
#
# number of rings (size 3 to 8) (size 9 to 14) (size 15 to 20)
#    0.000    1.500    2.500    3.750    0.000    5.000 
#    0.000    0.000   16.500    0.000    0.000    0.000 
#    0.000    0.000    0.000    0.000    0.000    0.000 
#
# Total GULP energy -198247.169748 kJ/mol
# GULP energy per Si atom -12390.448109 kJ/mol
# Density = 1.973752 g / cm^3
# Si number density = 19.782547 Si / 1000 Ang^3
#
#
#
# Elastic Constant Matrix: (Units=GPa)
#
#
# Indices 1 2 3 4 5 6 
#
# 1 139.5735 -96.5219 60.9401 24.1762 -32.3607 54.0278
# 2 -96.5219 -777.9028 210.2884 112.9453 -355.0787 320.4097
# 3 60.9401 210.2884 3.5610 -19.2511 104.8438 -59.2599
# 4 24.1762 112.9453 -19.2511 10.6744 45.4201 -22.6035
# 5 -32.3607 -355.0787 104.8438 45.4201 -120.6744 129.7443
# 6 54.0278 320.4097 -59.2599 -22.6035 129.7443 -67.5101
#
#
#
# Elastic Compliance Matrix: (Units=1/GPa)
#
#
# Indices 1 2 3 4 5 6 
#
# 1 0.007735 -0.001522 -0.004044 -0.001818 -0.001469 0.000302
# 2 -0.001522 0.006402 0.006653 -0.000432 -0.011651 0.001080
# 3 -0.004044 0.006653 0.025946 -0.000536 -0.009401 -0.012324
# 4 -0.001818 -0.000432 -0.000536 0.055468 0.000994 -0.019695
# 5 -0.001469 -0.011651 -0.009401 0.000994 0.031517 0.012017
# 6 0.000302 0.001080 -0.012324 -0.019695 0.012017 0.031061
#
#
# Mechanical properties :
#
#
# Convention : Reuss Voigt Hill
#
# Bulk Modulus (GPa) = 23.66447 -31.70614 -4.02083
# Shear Modulus (GPa) = 29.40468 -89.46701 -30.03116
#
# Velocity S-wave (km/s) = 3.85956 -6.73227 -3.90046
# Velocity P-wave (km/s) = 5.64357 8.74605 4.72459
#
# Compressibility (1/GPa) = 0.04225744
#
# Stress axis : x y z
#
# Youngs Moduli (GPa) = 129.27802 156.20031 38.54120
#
# Poissons Ratio (x) = 0.23773 0.15586
# Poissons Ratio (y) = 0.19675 -0.25641
# Poissons Ratio (z) = 0.52280 -1.03918
#
# Static dielectric constant tensor:
#      x y z
#    x 3.907770 0.146550 0.268580 
#    y 0.146550 3.973520 0.060190 
#    z 0.268580 0.060190 3.262360 
# 
# 
# High freq. dielectric constant tensor:
#      x y z
#    x 1.787010 0.004500 0.016330 
#    y 0.004500 1.794860 0.004110 
#    z 0.016330 0.004110 1.730280 
# 
# From -- ./inp_files/357999.got.cif
#   From: 2010.06.25/outbox.cif.g09.slc.cpg/sg2_179_cif.got.tgz:357999.got - 2010.06.27 13:26:56.
