data_PCOD8041952
_publ_section_title
;
Structure prediction by ZEFSAII (Michael W. Deem and Ramdas Pophale) SiO2 
 PCOD8041952
Probable space group: P -1
;
_chemical_formula_sum "Si O2"
_cell_formula_units_Z 16
_cell_length_a 19.844505
_cell_length_b 17.383663
_cell_length_c 8.805211
_cell_angle_alpha 116.128595
_cell_angle_beta 53.551523
_cell_angle_gamma 159.819402
_cell_volume 763.989910
_symmetry_space_group_name_H-M "P -1"
_symmetry_group_IT_number 2
_symmetry_cell_setting 'triclinic'
loop_
_space_group_symop_operation_xyz
x,y,z
-x,-y,-z
loop_
_atom_site_type_symbol
_atom_site_label
_atom_site_fract_x
_atom_site_fract_y
_atom_site_fract_z
Si Si1 0.337432 0.504083 0.888702
Si Si2 0.147704 0.731906 0.701658
Si Si3 0.216623 0.953191 0.254842
Si Si4 0.974857 0.691701 0.655095
Si Si5 0.645500 0.665384 0.799002
Si Si6 0.963772 0.565438 0.107866
Si Si7 0.324048 0.718598 0.478501
Si Si8 0.092717 0.210516 0.656317
O O1 0.472632 0.553800 0.824787
O O2 0.252122 0.396416 0.743062
O O3 0.512255 0.754054 0.867863
O O4 0.105893 0.307990 0.128421
O O5 0.114575 0.750910 0.608329
O O6 0.150035 0.631416 0.585863
O O7 0.401430 0.997283 0.671150
O O8 0.951082 0.577304 0.955450
O O9 0.151439 0.899011 0.472534
O O10 0.185355 0.825811 0.125221
O O11 0.029118 0.826745 0.295365
O O12 0.739145 0.424001 0.661992
O O13 0.726564 0.659567 0.592787
O O14 0.500000 0.500000 0.000000
O O15 0.886853 0.948848 0.766596
O O16 0.721429 0.350342 0.342488
O O17 0.000000 0.500000 0.000000
#
# Coordination Sequence:
#
# PCOD8041952 Si02
#       8
#     2   2   2   2   2   2   2   2
#     4  11  23  38  60  88 118 153 189 233 288 344
#     4  10  19  34  55  77 104 146 193 238 288 335
#     4  10  22  38  55  84 120 153 194 240 286 337
#     4  11  22  34  54  82 111 146 190 234 281 338
#     4  10  22  41  64  89 117 149 187 233 285 342
#     4   9  18  35  57  79 111 153 193 237 286 333
#     4   9  20  36  53  76 109 145 188 240 287 333
#     4  10  22  40  61  86 118 152 189 233 282 345
#
# _framework density 20.942684
#
# number of rings (size 3 to 8) (size 9 to 14) (size 15 to 20)
#    0.000    2.000    0.000    3.000    0.000    5.500 
#    0.000    0.000    0.000   13.500    0.000    0.000 
#    0.000    0.000    0.000    0.000    0.000    0.000 
#
# Total GULP energy -198338.630947 kJ/mol
# GULP energy per Si atom -12396.164434 kJ/mol
# Density = 2.089502 g / cm^3
# Si number density = 20.942684 Si / 1000 Ang^3
#
#
#
# Elastic Constant Matrix: (Units=GPa)
#
#
# Indices 1 2 3 4 5 6 
#
# 1 76.2858 38.6082 37.7802 -1.7057 16.2036 7.6358
# 2 38.6082 75.6300 39.2605 13.0383 7.3760 -5.9710
# 3 37.7802 39.2605 118.1774 7.2265 12.8220 -0.9177
# 4 -1.7057 13.0383 7.2265 28.4342 -4.4242 1.9600
# 5 16.2036 7.3760 12.8220 -4.4242 32.1749 -0.6310
# 6 7.6358 -5.9710 -0.9177 1.9600 -0.6310 24.1817
#
#
#
# Elastic Compliance Matrix: (Units=1/GPa)
#
#
# Indices 1 2 3 4 5 6 
#
# 1 0.023476 -0.011682 -0.003398 0.007311 -0.007005 -0.011202
# 2 -0.011682 0.023681 -0.003409 -0.011335 0.000457 0.010337
# 3 -0.003398 -0.003409 0.011030 -0.001828 -0.002140 0.000742
# 4 0.007311 -0.011335 -0.001828 0.042687 0.005348 -0.008497
# 5 -0.007005 0.000457 -0.002140 0.005348 0.036145 0.002753
# 6 -0.011202 0.010337 0.000742 -0.008497 0.002753 0.048232
#
#
# Mechanical properties :
#
#
# Convention : Reuss Voigt Hill
#
# Bulk Modulus (GPa) = 47.14800 55.71012 51.42906
# Shear Modulus (GPa) = 21.80546 27.25445 24.52995
#
# Velocity S-wave (km/s) = 3.23026 3.61138 3.42612
# Velocity P-wave (km/s) = 6.03941 6.63690 6.34519
#
# Compressibility (1/GPa) = 0.02120981
#
# Stress axis : x y z
#
# Youngs Moduli (GPa) = 42.59587 42.22807 90.65832
#
# Poissons Ratio (x) = 0.49330 0.30808
# Poissons Ratio (y) = 0.49760 0.30904
# Poissons Ratio (z) = 0.14475 0.14395
#
# Static dielectric constant tensor:
#      x y z
#    x 3.790030 -0.190300 0.256000 
#    y -0.190300 3.716030 0.061380 
#    z 0.256000 0.061380 4.147710 
# 
# 
# High freq. dielectric constant tensor:
#      x y z
#    x 1.811920 -0.014340 0.011830 
#    y -0.014340 1.813090 0.006740 
#    z 0.011830 0.006740 1.833900 
# 
# From -- ./inp_files/348511.got.cif
#   From: 2010.06.25/outbox.cif.g09.slc.cpg/sg2_175_cif.got.tgz:348511.got - 2010.06.27 13:26:56.
