data_PCOD8041196
_publ_section_title
;
Structure prediction by ZEFSAII (Michael W. Deem and Ramdas Pophale) SiO2 
 PCOD8041196
Probable space group: P -1
;
_chemical_formula_sum "Si O2"
_cell_formula_units_Z 14
_cell_length_a 18.999053
_cell_length_b 19.078941
_cell_length_c 10.861213
_cell_angle_alpha 30.840495
_cell_angle_beta 148.758178
_cell_angle_gamma 158.662742
_cell_volume 701.429569
_symmetry_space_group_name_H-M "P -1"
_symmetry_group_IT_number 2
_symmetry_cell_setting 'triclinic'
loop_
_space_group_symop_operation_xyz
x,y,z
-x,-y,-z
loop_
_atom_site_type_symbol
_atom_site_label
_atom_site_fract_x
_atom_site_fract_y
_atom_site_fract_z
Si Si1 0.212987 0.663493 0.351748
Si Si2 0.170513 0.494992 0.039206
Si Si3 0.889899 0.594002 0.202888
Si Si4 0.988745 0.092711 0.456740
Si Si5 0.214091 0.053168 0.993674
Si Si6 0.548487 0.402647 0.143760
Si Si7 0.611545 0.914869 0.043262
O O1 0.125127 0.564065 0.509375
O O2 0.349197 0.635912 0.554098
O O3 0.017812 0.543240 0.152431
O O4 0.356075 0.902054 0.214597
O O5 0.142976 0.438106 0.941711
O O6 0.384785 0.724054 0.041978
O O7 0.149022 0.337537 0.318769
O O8 0.709385 0.555531 0.045613
O O9 0.103040 0.827556 0.196685
O O10 0.047292 0.049801 0.730062
O O11 0.759929 0.981123 0.277505
O O12 0.000000 0.000000 0.500000
O O13 0.351082 0.142465 0.940066
O O14 0.346132 0.188649 0.104998
O O15 0.500000 0.500000 0.000000
#
# Coordination Sequence:
#
# PCOD8041196 Si02
#       7
#     2   2   2   2   2   2   2
#     4   9  21  33  52  80 113 131 182 216 263 328
#     4  11  18  32  54  84 112 141 165 217 273 317
#     4  10  20  31  53  80 109 137 174 212 268 318
#     4   9  19  32  48  82 118 136 173 207 264 336
#     4  11  20  34  54  79 113 144 168 220 267 312
#     4  10  24  38  52  76 106 146 185 217 259 312
#     4  10  19  31  54  82 111 142 166 214 270 320
#
# _framework density 19.959239
#
# number of rings (size 3 to 8) (size 9 to 14) (size 15 to 20)
#    0.857    1.143    5.714    0.429    2.000    5.143 
#    0.000    0.000    0.000    3.429    0.000    6.000 
#    0.000    0.000    0.000    0.000    0.000    0.000 
#
# Total GULP energy -173448.817534 kJ/mol
# GULP energy per Si atom -12389.201252 kJ/mol
# Density = 1.991381 g / cm^3
# Si number density = 19.959239 Si / 1000 Ang^3
#
#
#
# Elastic Constant Matrix: (Units=GPa)
#
#
# Indices 1 2 3 4 5 6 
#
# 1 21.9015 12.4645 14.2510 7.6913 17.3825 -2.1209
# 2 12.4645 164.1129 54.2953 -0.5337 10.0470 12.2763
# 3 14.2510 54.2953 122.6917 -3.8552 23.9435 3.5138
# 4 7.6913 -0.5337 -3.8552 26.9905 4.8584 1.4176
# 5 17.3825 10.0470 23.9435 4.8584 22.5439 -2.1912
# 6 -2.1209 12.2763 3.5138 1.4176 -2.1912 8.8193
#
#
#
# Elastic Compliance Matrix: (Units=1/GPa)
#
#
# Indices 1 2 3 4 5 6 
#
# 1 0.135507 -0.007622 0.006246 -0.020600 -0.101452 0.018814
# 2 -0.007622 0.008350 -0.003227 0.001739 0.004097 -0.011431
# 3 0.006246 -0.003227 0.012550 0.003365 -0.017818 -0.003973
# 4 -0.020600 0.001739 0.003365 0.044171 0.000490 -0.015693
# 5 -0.101452 0.004097 -0.017818 0.000490 0.140729 0.011883
# 6 0.018814 -0.011431 -0.003973 -0.015693 0.011883 0.140882
#
#
# Mechanical properties :
#
#
# Convention : Reuss Voigt Hill
#
# Bulk Modulus (GPa) = 6.79347 52.30308 29.54827
# Shear Modulus (GPa) = 9.25132 26.85045 18.05089
#
# Velocity S-wave (km/s) = 2.15526 3.67176 3.01057
# Velocity P-wave (km/s) = 3.09913 6.65114 5.18856
#
# Compressibility (1/GPa) = 0.14720029
#
# Stress axis : x y z
#
# Youngs Moduli (GPa) = 7.37967 119.76126 79.68125
#
# Poissons Ratio (x) = 0.91278 -0.49765
# Poissons Ratio (y) = 0.05625 0.25717
# Poissons Ratio (z) = -0.04609 0.38652
#
# Static dielectric constant tensor:
#      x y z
#    x 3.002770 0.276360 0.234350 
#    y 0.276360 4.149770 0.285830 
#    z 0.234350 0.285830 4.118050 
# 
# 
# High freq. dielectric constant tensor:
#      x y z
#    x 1.707890 0.014210 0.019680 
#    y 0.014210 1.785850 0.000860 
#    z 0.019680 0.000860 1.792210 
# 
# From -- ./inp_files/431802.got.cif
#   From: 2010.06.25/outbox.cif.g09.slc.cpg/sg2_216_cif.got.tgz:431802.got - 2010.06.27 13:26:56.
