data_PCOD8041067
_publ_section_title
;
Structure prediction by ZEFSAII (Michael W. Deem and Ramdas Pophale) SiO2 
 PCOD8041067
Probable space group: P -1
;
_chemical_formula_sum "Si O2"
_cell_formula_units_Z 16
_cell_length_a 11.544514
_cell_length_b 16.537868
_cell_length_c 14.326006
_cell_angle_alpha 137.891820
_cell_angle_beta 27.560643
_cell_angle_gamma 129.074860
_cell_volume 845.264379
_symmetry_space_group_name_H-M "P -1"
_symmetry_group_IT_number 2
_symmetry_cell_setting 'triclinic'
loop_
_space_group_symop_operation_xyz
x,y,z
-x,-y,-z
loop_
_atom_site_type_symbol
_atom_site_label
_atom_site_fract_x
_atom_site_fract_y
_atom_site_fract_z
Si Si1 0.858601 0.801920 0.924386
Si Si2 0.879374 0.162550 0.499820
Si Si3 0.170256 0.075552 0.767665
Si Si4 0.437017 0.141416 0.147383
Si Si5 0.554557 0.227735 0.529526
Si Si6 0.532594 0.101240 0.852458
Si Si7 0.520921 0.638943 0.122209
Si Si8 0.385952 0.833550 0.765099
O O1 0.148954 0.800586 0.692148
O O2 0.766902 0.910248 0.155137
O O3 0.714827 0.825131 0.950175
O O4 0.775114 0.678046 0.925310
O O5 0.769987 0.105076 0.620945
O O6 0.722923 0.284901 0.682737
O O7 0.156766 0.184077 0.351488
O O8 0.871439 0.063736 0.338950
O O9 0.400752 0.115347 0.574888
O O10 0.915070 0.161650 0.004452
O O11 0.501841 0.216209 0.257920
O O12 0.598070 0.164905 0.959077
O O13 0.500000 0.000000 0.000000
O O14 0.465796 0.340478 0.757111
O O15 0.515549 0.252187 0.466446
O O16 0.472640 0.964536 0.794227
O O17 0.500000 0.500000 0.000000
#
# Coordination Sequence:
#
# PCOD8041067 Si02
#       8
#     2   2   2   2   2   2   2   2
#     4   9  21  34  53  82 106 136 176 212 271 327
#     4  11  20  33  54  79 109 147 171 210 274 308
#     4  10  19  31  49  83 111 137 168 210 265 336
#     4  10  20  33  47  76 114 144 177 210 249 322
#     4  10  20  34  55  75 109 147 165 216 270 310
#     4  10  19  30  46  74 111 143 170 204 254 319
#     4  10  23  39  55  79 106 136 183 224 257 312
#     4  10  20  31  48  77 113 141 174 206 257 325
#
# _framework density 18.928989999999999
#
# number of rings (size 3 to 8) (size 9 to 14) (size 15 to 20)
#    0.000    2.000    3.750    0.750    1.750    6.000 
#    0.000    0.000    0.000    0.750    0.000   11.375 
#    0.000    0.000    0.000    0.000    0.000    0.000 
#
# Total GULP energy -198224.550432 kJ/mol
# GULP energy per Si atom -12389.034402 kJ/mol
# Density = 1.888591 g / cm^3
# Si number density = 18.928990 Si / 1000 Ang^3
#
#
#
# Elastic Constant Matrix: (Units=GPa)
#
#
# Indices 1 2 3 4 5 6 
#
# 1 129.9288 31.9176 35.3284 6.6675 31.3114 -11.5501
# 2 31.9176 61.9016 40.8793 -0.9773 8.4233 2.9702
# 3 35.3284 40.8793 65.2685 -5.1180 9.0461 2.5662
# 4 6.6675 -0.9773 -5.1180 25.3980 0.5402 5.6022
# 5 31.3114 8.4233 9.0461 0.5402 33.3393 -8.1082
# 6 -11.5501 2.9702 2.5662 5.6022 -8.1082 17.5547
#
#
#
# Elastic Compliance Matrix: (Units=1/GPa)
#
#
# Indices 1 2 3 4 5 6 
#
# 1 0.012525 -0.002710 -0.004758 -0.005872 -0.007831 0.007652
# 2 -0.002710 0.028597 -0.016071 -0.000323 -0.001496 -0.004860
# 3 -0.004758 -0.016071 0.029128 0.008293 -0.001451 -0.007986
# 4 -0.005872 -0.000323 0.008293 0.047334 -0.002608 -0.021332
# 5 -0.007831 -0.001496 -0.001451 -0.002608 0.041937 0.015515
# 6 0.007652 -0.004860 -0.007986 -0.021332 0.015515 0.077963
#
#
# Mechanical properties :
#
#
# Convention : Reuss Voigt Hill
#
# Bulk Modulus (GPa) = 43.15653 52.59437 47.87545
# Shear Modulus (GPa) = 17.10666 25.18999 21.14832
#
# Velocity S-wave (km/s) = 3.00947 3.65192 3.34615
# Velocity P-wave (km/s) = 5.90970 6.75481 6.34634
#
# Compressibility (1/GPa) = 0.02317147
#
# Stress axis : x y z
#
# Youngs Moduli (GPa) = 79.84198 34.96898 34.33174
#
# Poissons Ratio (x) = 0.09477 0.16335
# Poissons Ratio (y) = 0.21639 0.55174
# Poissons Ratio (z) = 0.37988 0.56198
#
# Static dielectric constant tensor:
#      x y z
#    x 4.219840 -0.093660 0.404430 
#    y -0.093660 3.178530 -0.526420 
#    z 0.404430 -0.526420 3.490870 
# 
# 
# High freq. dielectric constant tensor:
#      x y z
#    x 1.750390 -0.003740 0.019780 
#    y -0.003740 1.689790 -0.051310 
#    z 0.019780 -0.051310 1.721800 
# 
# From -- ./inp_files/432586.got.cif
#   From: 2010.06.25/outbox.cif.g09.slc.cpg/sg2_217_cif.got.tgz:432586.got - 2010.06.27 13:26:56.
