data_PCOD8041580
_publ_section_title
;
Structure prediction by ZEFSAII (Michael W. Deem and Ramdas Pophale) SiO2 
 PCOD8041580
Probable space group: P -1
;
_chemical_formula_sum "Si O2"
_cell_formula_units_Z 14
_cell_length_a 14.366981
_cell_length_b 17.074815
_cell_length_c 12.489030
_cell_angle_alpha 136.879283
_cell_angle_beta 158.576497
_cell_angle_gamma 38.131106
_cell_volume 690.936979
_symmetry_space_group_name_H-M "P -1"
_symmetry_group_IT_number 2
_symmetry_cell_setting 'triclinic'
loop_
_space_group_symop_operation_xyz
x,y,z
-x,-y,-z
loop_
_atom_site_type_symbol
_atom_site_label
_atom_site_fract_x
_atom_site_fract_y
_atom_site_fract_z
Si Si1 0.681630 0.079122 0.776197
Si Si2 0.090623 0.953509 0.799073
Si Si3 0.353202 0.632209 0.342041
Si Si4 0.206596 0.126667 0.957313
Si Si5 0.391063 0.806806 0.399893
Si Si6 0.425561 0.369438 0.201713
Si Si7 0.923949 0.785381 0.321461
O O1 0.535921 0.195765 0.651032
O O2 0.500000 0.000000 0.500000
O O3 0.000000 0.000000 0.000000
O O4 0.680238 0.128939 0.946722
O O5 0.928323 0.089079 0.819585
O O6 0.215175 0.989201 0.860311
O O7 0.902840 0.880568 0.490983
O O8 0.445775 0.666342 0.359650
O O9 0.298056 0.507521 0.146221
O O10 0.589786 0.609036 0.664258
O O11 0.083401 0.753367 0.211224
O O12 0.255760 0.129196 0.885171
O O13 0.443800 0.139838 0.293348
O O14 0.744526 0.292491 0.425949
O O15 0.221642 0.304358 0.885620
#
# Coordination Sequence:
#
# PCOD8041580 Si02
#       7
#     2   2   2   2   2   2   2
#     4  10  20  35  54  78 105 140 180 217 260 308
#     4  10  22  35  52  80 114 142 172 216 266 330
#     4   9  20  35  54  80 106 138 184 228 259 300
#     4  10  19  33  54  82 108 141 172 220 269 317
#     4  10  19  34  57  79 108 136 181 223 267 304
#     4  10  22  36  55  78 108 145 181 217 260 316
#     4  11  23  35  53  81 113 146 172 208 272 328
#
# _framework density 20.262340999999999
#
# number of rings (size 3 to 8) (size 9 to 14) (size 15 to 20)
#    0.000    2.000    2.857    0.429    4.000    2.286 
#    0.000    0.000    0.000    1.714    0.000    0.000 
#    0.000    0.000    0.000    0.000    0.000    0.000 
#
# Total GULP energy -173445.858262 kJ/mol
# GULP energy per Si atom -12388.989876 kJ/mol
# Density = 2.021622 g / cm^3
# Si number density = 20.262341 Si / 1000 Ang^3
#
#
#
# Elastic Constant Matrix: (Units=GPa)
#
#
# Indices 1 2 3 4 5 6 
#
# 1 85.1413 56.7334 47.8223 7.7618 -5.6191 43.2185
# 2 56.7334 85.9381 38.0324 21.3556 -8.4767 42.3906
# 3 47.8223 38.0324 112.3822 15.0394 2.3881 20.9257
# 4 7.7618 21.3556 15.0394 26.3215 8.1321 4.5645
# 5 -5.6191 -8.4767 2.3881 8.1321 39.0340 -0.9256
# 6 43.2185 42.3906 20.9257 4.5645 -0.9256 33.9053
#
#
#
# Elastic Compliance Matrix: (Units=1/GPa)
#
#
# Indices 1 2 3 4 5 6 
#
# 1 0.040279 0.002292 -0.008743 -0.002261 0.006156 -0.048340
# 2 0.002292 0.052649 -0.002798 -0.036713 0.018123 -0.061583
# 3 -0.008743 -0.002798 0.012679 -0.003076 -0.001831 0.007182
# 4 -0.002261 -0.036713 -0.003076 0.069850 -0.021697 0.040685
# 5 0.006156 0.018123 -0.001831 -0.021697 0.034468 -0.025513
# 6 -0.048340 -0.061583 0.007182 0.040685 -0.025513 0.157501
#
#
# Mechanical properties :
#
#
# Convention : Reuss Voigt Hill
#
# Bulk Modulus (GPa) = 11.47986 63.18197 37.33092
# Shear Modulus (GPa) = 12.04937 29.24373 20.64655
#
# Velocity S-wave (km/s) = 2.44123 3.80314 3.19558
# Velocity P-wave (km/s) = 3.69108 7.10879 5.66387
#
# Compressibility (1/GPa) = 0.08710906
#
# Stress axis : x y z
#
# Youngs Moduli (GPa) = 24.82707 18.99368 78.87189
#
# Poissons Ratio (x) = -0.04354 0.68957
# Poissons Ratio (y) = -0.05691 0.22069
# Poissons Ratio (z) = 0.21706 0.05315
#
# Static dielectric constant tensor:
#      x y z
#    x 4.188650 0.648340 -0.238210 
#    y 0.648340 3.790910 -0.310940 
#    z -0.238210 -0.310940 3.940250 
# 
# 
# High freq. dielectric constant tensor:
#      x y z
#    x 1.781690 0.034610 0.008590 
#    y 0.034610 1.761370 -0.007330 
#    z 0.008590 -0.007330 1.793390 
# 
# From -- ./inp_files/27621.got.cif
#   From: 2010.06.25/outbox.cif.g09.slc.cpg/sg2_14_cif.got.tgz:27621.got - 2010.06.27 13:26:56.
