data_PCOD8041016
_publ_section_title
;
Structure prediction by ZEFSAII (Michael W. Deem and Ramdas Pophale) SiO2 
 PCOD8041016
Probable space group: P -1
;
_chemical_formula_sum "Si O2"
_cell_formula_units_Z 16
_cell_length_a 10.373216
_cell_length_b 10.614520
_cell_length_c 11.925158
_cell_angle_alpha 102.354189
_cell_angle_beta 101.987954
_cell_angle_gamma 137.844114
_cell_volume 713.931559
_symmetry_space_group_name_H-M "P -1"
_symmetry_group_IT_number 2
_symmetry_cell_setting 'triclinic'
loop_
_space_group_symop_operation_xyz
x,y,z
-x,-y,-z
loop_
_atom_site_type_symbol
_atom_site_label
_atom_site_fract_x
_atom_site_fract_y
_atom_site_fract_z
Si Si1 0.142689 0.927736 0.451912
Si Si2 0.002015 0.350326 0.989816
Si Si3 0.238009 0.869600 0.680222
Si Si4 0.111458 0.460927 0.265042
Si Si5 0.508900 0.576674 0.399064
Si Si6 0.665497 0.094841 0.694353
Si Si7 0.638731 0.556808 0.203976
Si Si8 0.491713 0.302476 0.922543
O O1 0.333523 0.997607 0.430663
O O2 0.899770 0.721239 0.305791
O O3 0.113178 0.852252 0.558347
O O4 0.242411 0.152677 0.518587
O O5 0.811199 0.142520 0.829499
O O6 0.950180 0.279269 0.098323
O O7 0.248661 0.484797 0.036207
O O8 0.000000 0.500000 0.000000
O O9 0.406338 0.901628 0.658097
O O10 0.376015 0.072691 0.830264
O O11 0.047373 0.638638 0.674132
O O12 0.298180 0.504680 0.338583
O O13 0.237606 0.689661 0.286948
O O14 0.500000 0.500000 0.500000
O O15 0.497114 0.461725 0.275724
O O16 0.652714 0.701003 0.164222
O O17 0.505544 0.339879 0.066167
#
# Coordination Sequence:
#
# PCOD8041016 Si02
#       8
#     2   2   2   2   2   2   2   2
#     4  12  24  44  71  98 135 187 226 278 349 402
#     4  10  18  42  67  90 136 174 211 284 339 384
#     4  12  24  43  72  99 138 179 223 281 349 400
#     4  11  24  43  70 101 138 178 226 284 340 406
#     4  12  25  45  65  98 144 179 230 285 331 407
#     4  11  23  45  70 100 140 175 226 285 342 406
#     4  11  23  41  70  95 130 184 232 268 341 401
#     4  11  21  42  68  97 132 178 223 284 333 403
#
# _framework density 22.411111999999999
#
# number of rings (size 3 to 8) (size 9 to 14) (size 15 to 20)
#    0.000    0.750    7.500    1.500    1.750    1.000 
#    4.500    0.625    0.000    0.000    0.000    0.000 
#    0.000    0.000    0.000    0.000    0.000    0.000 
#
# Total GULP energy -198403.103050 kJ/mol
# GULP energy per Si atom -12400.193941 kJ/mol
# Density = 2.236010 g / cm^3
# Si number density = 22.411112 Si / 1000 Ang^3
#
#
#
# Elastic Constant Matrix: (Units=GPa)
#
#
# Indices 1 2 3 4 5 6 
#
# 1 94.7906 25.0844 36.5555 -9.4628 2.7809 19.2542
# 2 25.0844 71.9232 35.6593 -31.7873 9.7041 22.8519
# 3 36.5555 35.6593 141.5088 -30.2931 4.2386 5.4470
# 4 -9.4628 -31.7873 -30.2931 33.3089 3.8218 -3.4703
# 5 2.7809 9.7041 4.2386 3.8218 47.0537 -5.2088
# 6 19.2542 22.8519 5.4470 -3.4703 -5.2088 31.4955
#
#
#
# Elastic Compliance Matrix: (Units=1/GPa)
#
#
# Indices 1 2 3 4 5 6 
#
# 1 0.013416 -0.000945 -0.003016 -0.000461 -0.001089 -0.007225
# 2 -0.000945 0.042748 -0.000712 0.038626 -0.014993 -0.028539
# 3 -0.003016 -0.000712 0.009597 0.007448 -0.000994 0.001356
# 4 -0.000461 0.038626 0.007448 0.073015 -0.017178 -0.023828
# 5 -0.001089 -0.014993 -0.000994 -0.017178 0.027484 0.014368
# 6 -0.007225 -0.028539 0.001356 -0.023828 0.014368 0.056390
#
#
# Mechanical properties :
#
#
# Convention : Reuss Voigt Hill
#
# Bulk Modulus (GPa) = 17.72535 55.86900 36.79717
# Shear Modulus (GPa) = 19.93618 36.43317 28.18467
#
# Velocity S-wave (km/s) = 2.98580 4.03634 3.55014
# Velocity P-wave (km/s) = 4.45118 6.83418 5.76710
#
# Compressibility (1/GPa) = 0.05641639
#
# Stress axis : x y z
#
# Youngs Moduli (GPa) = 74.53696 23.39291 104.20026
#
# Poissons Ratio (x) = 0.02211 0.31422
# Poissons Ratio (y) = 0.07045 0.07415
# Poissons Ratio (z) = 0.22477 0.01665
#
# Static dielectric constant tensor:
#      x y z
#    x 4.200420 0.075000 0.063440 
#    y 0.075000 3.595460 -0.339040 
#    z 0.063440 -0.339040 4.652630 
# 
# 
# High freq. dielectric constant tensor:
#      x y z
#    x 1.892930 0.013340 0.001660 
#    y 0.013340 1.835570 -0.017410 
#    z 0.001660 -0.017410 1.913750 
# 
# From -- ./inp_files/423802.got.cif
#   From: 2010.06.25/outbox.cif.g09.slc.cpg/sg2_212_cif.got.tgz:423802.got - 2010.06.27 13:26:56.
