data_PCOD8041766
_publ_section_title
;
Structure prediction by ZEFSAII (Michael W. Deem and Ramdas Pophale) SiO2 
 PCOD8041766
Probable space group: P -1
;
_chemical_formula_sum "Si O2"
_cell_formula_units_Z 14
_cell_length_a 9.160548
_cell_length_b 15.481579
_cell_length_c 14.684970
_cell_angle_alpha 36.408676
_cell_angle_beta 139.465503
_cell_angle_gamma 130.826383
_cell_volume 798.560606
_symmetry_space_group_name_H-M "P -1"
_symmetry_group_IT_number 2
_symmetry_cell_setting 'triclinic'
loop_
_space_group_symop_operation_xyz
x,y,z
-x,-y,-z
loop_
_atom_site_type_symbol
_atom_site_label
_atom_site_fract_x
_atom_site_fract_y
_atom_site_fract_z
Si Si1 0.091388 0.565043 0.849430
Si Si2 0.221809 0.428965 0.690733
Si Si3 0.589192 0.183719 0.306084
Si Si4 0.680238 0.585528 0.753518
Si Si5 0.052393 0.838101 0.174175
Si Si6 0.840965 0.661389 0.074890
Si Si7 0.525378 0.140562 0.516991
O O1 0.218646 0.707668 0.742007
O O2 0.059757 0.428694 0.881761
O O3 0.843739 0.603085 0.729033
O O4 0.227316 0.522051 0.038096
O O5 0.437508 0.503618 0.675019
O O6 0.273473 0.450490 0.806395
O O7 0.000000 0.500000 0.500000
O O8 0.155519 0.253988 0.789824
O O9 0.645230 0.169341 0.451581
O O10 0.591178 0.025925 0.392195
O O11 0.343363 0.238793 0.134686
O O12 0.658649 0.746050 0.648751
O O13 0.289831 0.829426 0.342020
O O14 0.049177 0.763633 0.134736
O O15 0.000000 0.000000 0.000000
#
# Coordination Sequence:
#
# PCOD8041766 Si02
#       7
#     2   2   2   2   2   2   2
#     4  11  22  35  56  84 121 147 182 226 288 332
#     4  10  19  33  58  82 105 145 190 232 268 325
#     4  11  21  35  60  86 109 146 188 243 266 329
#     4  11  21  36  55  86 116 151 181 229 282 339
#     4  10  20  34  58  83 108 140 183 237 280 321
#     4  10  19  34  59  82 110 142 188 233 273 324
#     4  11  21  36  59  86 112 141 195 230 282 321
#
# _framework density 17.531544
#
# number of rings (size 3 to 8) (size 9 to 14) (size 15 to 20)
#    0.857    0.571    5.714    1.286    0.000    0.571 
#    0.000    2.857    0.000    0.857    0.000    0.000 
#    0.000    0.000    0.000    0.000    0.000    0.000 
#
# Total GULP energy -173475.501855 kJ/mol
# GULP energy per Si atom -12391.107275 kJ/mol
# Density = 1.749164 g / cm^3
# Si number density = 17.531544 Si / 1000 Ang^3
#
#
#
# Elastic Constant Matrix: (Units=GPa)
#
#
# Indices 1 2 3 4 5 6 
#
# 1 96.7443 56.9853 36.3274 -11.7030 12.9101 8.1731
# 2 56.9853 124.7484 42.8141 -19.7962 7.6818 6.9857
# 3 36.3274 42.8141 81.9885 -8.1941 1.9187 12.1327
# 4 -11.7030 -19.7962 -8.1941 38.4628 -2.7752 -1.4299
# 5 12.9101 7.6818 1.9187 -2.7752 25.3939 0.4083
# 6 8.1731 6.9857 12.1327 -1.4299 0.4083 15.3380
#
#
#
# Elastic Compliance Matrix: (Units=1/GPa)
#
#
# Indices 1 2 3 4 5 6 
#
# 1 0.016052 -0.005425 -0.003617 0.000769 -0.006114 -0.002987
# 2 -0.005425 0.012391 -0.003755 0.003928 -0.000287 0.000592
# 3 -0.003617 -0.003755 0.017238 0.000402 0.001877 -0.010010
# 4 0.000769 0.003928 0.000402 0.028452 0.001498 0.000095
# 5 -0.006114 -0.000287 0.001877 0.001498 0.042582 0.000910
# 6 -0.002987 0.000592 -0.010010 0.000095 0.000910 0.074423
#
#
# Mechanical properties :
#
#
# Convention : Reuss Voigt Hill
#
# Bulk Modulus (GPa) = 49.78634 63.97054 56.87844
# Shear Modulus (GPa) = 22.37862 26.99591 24.68726
#
# Velocity S-wave (km/s) = 3.57666 3.92835 3.75662
# Velocity P-wave (km/s) = 6.74659 7.55936 7.16451
#
# Compressibility (1/GPa) = 0.02008583
#
# Stress axis : x y z
#
# Youngs Moduli (GPa) = 62.29902 80.70397 58.01128
#
# Poissons Ratio (x) = 0.43784 0.20984
# Poissons Ratio (y) = 0.33798 0.21783
# Poissons Ratio (z) = 0.22535 0.30304
#
# Static dielectric constant tensor:
#      x y z
#    x 3.113160 0.083130 -0.079210 
#    y 0.083130 3.475130 -0.032580 
#    z -0.079210 -0.032580 3.520460 
# 
# 
# High freq. dielectric constant tensor:
#      x y z
#    x 1.636530 0.000050 -0.011470 
#    y 0.000050 1.685640 -0.005960 
#    z -0.011470 -0.005960 1.692590 
# 
# From -- ./inp_files/187791.got.cif
#   From: 2010.06.25/outbox.cif.g09.slc.cpg/sg2_94_cif.got.tgz:187791.got - 2010.06.27 13:26:56.
