data_PCOD8041822
_publ_section_title
;
Structure prediction by ZEFSAII (Michael W. Deem and Ramdas Pophale) SiO2 
 PCOD8041822
Probable space group: P -1
;
_chemical_formula_sum "Si O2"
_cell_formula_units_Z 16
_cell_length_a 12.219237
_cell_length_b 8.938491
_cell_length_c 10.969320
_cell_angle_alpha 123.709058
_cell_angle_beta 62.850211
_cell_angle_gamma 90.554728
_cell_volume 837.448630
_symmetry_space_group_name_H-M "P -1"
_symmetry_group_IT_number 2
_symmetry_cell_setting 'triclinic'
loop_
_space_group_symop_operation_xyz
x,y,z
-x,-y,-z
loop_
_atom_site_type_symbol
_atom_site_label
_atom_site_fract_x
_atom_site_fract_y
_atom_site_fract_z
Si Si1 0.351793 0.531064 0.104490
Si Si2 0.893708 0.682360 0.187876
Si Si3 0.798096 0.058106 0.688055
Si Si4 0.732156 0.397453 0.542560
Si Si5 0.473351 0.778811 0.514558
Si Si6 0.636103 0.797264 0.219504
Si Si7 0.051832 0.952378 0.641338
Si Si8 0.726544 0.713301 0.508783
O O1 0.280774 0.720082 0.145052
O O2 0.310913 0.547562 0.272750
O O3 0.500000 0.500000 0.000000
O O4 0.329352 0.343170 0.976705
O O5 0.758024 0.729079 0.212993
O O6 0.859318 0.654702 0.333969
O O7 0.952273 0.849863 0.207031
O O8 0.000000 0.500000 0.000000
O O9 0.871661 0.065561 0.530472
O O10 0.702020 0.932087 0.664284
O O11 0.902509 0.963184 0.698905
O O12 0.621893 0.346869 0.496726
O O13 0.869732 0.223816 0.392011
O O14 0.756483 0.576682 0.548278
O O15 0.510647 0.792585 0.359619
O O16 0.601390 0.691452 0.492749
O O17 0.392441 0.984180 0.706129
#
# Coordination Sequence:
#
# PCOD8041822 Si02
#       8
#     2   2   2   2   2   2   2   2
#     4  11  20  34  58  86 112 144 191 234 275 327
#     4  10  19  35  59  83 108 144 193 234 273 330
#     4   9  19  35  54  81 112 145 189 231 274 330
#     4  11  21  37  59  83 116 152 184 229 284 337
#     4  10  19  36  59  83 115 148 189 231 277 336
#     4  10  19  33  60  86 107 146 193 235 273 324
#     4   9  18  35  57  79 107 149 191 228 270 332
#     4  10  22  36  58  84 113 152 186 227 287 338
#
# _framework density 19.105650000000001
#
# number of rings (size 3 to 8) (size 9 to 14) (size 15 to 20)
#    0.000    2.000    2.500    1.875    3.500    1.500 
#    0.000    3.125    2.750    0.000    0.000    0.000 
#    0.000    0.000    0.000    0.000    0.000    0.000 
#
# Total GULP energy -198308.850554 kJ/mol
# GULP energy per Si atom -12394.303160 kJ/mol
# Density = 1.906216 g / cm^3
# Si number density = 19.105650 Si / 1000 Ang^3
#
#
#
# Elastic Constant Matrix: (Units=GPa)
#
#
# Indices 1 2 3 4 5 6 
#
# 1 82.7875 28.3669 23.4554 4.6775 2.4967 -0.9580
# 2 28.3669 98.7526 41.1824 12.3174 2.6351 -9.3441
# 3 23.4554 41.1824 95.2370 28.1822 2.7894 -4.9410
# 4 4.6775 12.3174 28.1822 24.6875 1.2398 1.0493
# 5 2.4967 2.6351 2.7894 1.2398 30.0680 10.0793
# 6 -0.9580 -9.3441 -4.9410 1.0493 10.0793 24.9380
#
#
#
# Elastic Compliance Matrix: (Units=1/GPa)
#
#
# Indices 1 2 3 4 5 6 
#
# 1 0.013819 -0.003214 -0.002695 0.002127 -0.000311 -0.001171
# 2 -0.003214 0.013564 -0.004375 -0.001269 -0.002144 0.005012
# 3 -0.002695 -0.004375 0.018876 -0.018924 -0.001504 0.003401
# 4 0.002127 -0.001269 -0.018924 0.062574 0.001598 -0.007422
# 5 -0.000311 -0.002144 -0.001504 0.001598 0.039260 -0.017048
# 6 -0.001171 0.005012 0.003401 -0.007422 -0.017048 0.049809
#
#
# Mechanical properties :
#
#
# Convention : Reuss Voigt Hill
#
# Bulk Modulus (GPa) = 38.92334 51.42069 45.17202
# Shear Modulus (GPa) = 22.02312 28.19019 25.10666
#
# Velocity S-wave (km/s) = 3.39883 3.84538 3.62898
# Velocity P-wave (km/s) = 5.98495 6.83288 6.42292
#
# Compressibility (1/GPa) = 0.02569152
#
# Stress axis : x y z
#
# Youngs Moduli (GPa) = 72.36194 73.72560 52.97699
#
# Poissons Ratio (x) = 0.23692 0.14276
# Poissons Ratio (y) = 0.23254 0.23180
# Poissons Ratio (z) = 0.19500 0.32258
#
# Static dielectric constant tensor:
#      x y z
#    x 3.371240 -0.117700 -0.377340 
#    y -0.117700 3.292570 0.133550 
#    z -0.377340 0.133550 2.792550 
# 
# 
# High freq. dielectric constant tensor:
#      x y z
#    x 1.755310 0.001950 -0.000390 
#    y 0.001950 1.718450 0.030300 
#    z -0.000390 0.030300 1.729140 
# 
# From -- ./inp_files/182382.got.cif
#   From: 2010.06.25/outbox.cif.g09.slc.cpg/sg2_92_cif.got.tgz:182382.got - 2010.06.27 13:26:56.
