data_PCOD8041597
_publ_section_title
;
Structure prediction by ZEFSAII (Michael W. Deem and Ramdas Pophale) SiO2 
 PCOD8041597
Probable space group: P -1
;
_chemical_formula_sum "Si O2"
_cell_formula_units_Z 14
_cell_length_a 11.607805
_cell_length_b 8.172517
_cell_length_c 11.781357
_cell_angle_alpha 36.186466
_cell_angle_beta 95.006029
_cell_angle_gamma 105.057216
_cell_volume 622.355026
_symmetry_space_group_name_H-M "P -1"
_symmetry_group_IT_number 2
_symmetry_cell_setting 'triclinic'
loop_
_space_group_symop_operation_xyz
x,y,z
-x,-y,-z
loop_
_atom_site_type_symbol
_atom_site_label
_atom_site_fract_x
_atom_site_fract_y
_atom_site_fract_z
Si Si1 0.887351 0.531880 0.242793
Si Si2 0.378569 0.742848 0.100339
Si Si3 0.850946 0.137543 0.922966
Si Si4 0.417675 0.249696 0.252256
Si Si5 0.360890 0.382716 0.519475
Si Si6 0.775201 0.238190 0.611754
Si Si7 0.660809 0.154629 0.308675
O O1 0.868385 0.312411 0.472062
O O2 0.792852 0.386973 0.215370
O O3 0.026331 0.607174 0.167354
O O4 0.866413 0.826234 0.118399
O O5 0.264962 0.865609 0.007895
O O6 0.337577 0.514788 0.325546
O O7 0.397760 0.566098 0.089816
O O8 0.500000 0.000000 0.000000
O O9 0.840534 0.198008 0.754565
O O10 0.559384 0.316438 0.190348
O O11 0.331835 0.068332 0.246769
O O12 0.388287 0.067555 0.467562
O O13 0.500000 0.500000 0.500000
O O14 0.281047 0.491981 0.542020
O O15 0.325203 0.030401 0.698521
#
# Coordination Sequence:
#
# PCOD8041597 Si02
#       7
#     2   2   2   2   2   2   2
#     4  10  21  39  61  76 114 157 181 232 277 330
#     4  10  21  35  54  82 115 145 180 236 286 323
#     4  10  22  39  56  86 111 145 199 223 273 343
#     4   9  17  32  55  82 110 144 183 229 278 339
#     4  10  19  33  54  87 113 141 185 231 276 339
#     4  10  20  37  59  84 112 146 186 234 280 323
#     4   9  17  32  56  82 110 148 187 219 286 329
#
# _framework density 22.495200000000001
#
# number of rings (size 3 to 8) (size 9 to 14) (size 15 to 20)
#    0.000    2.286    1.429    1.286    4.000    0.000 
#    2.571   15.000    0.000    3.429    0.000    0.000 
#    0.000    0.000    0.000    0.000    0.000    0.000 
#
# Total GULP energy -173555.455005 kJ/mol
# GULP energy per Si atom -12396.818215 kJ/mol
# Density = 2.244400 g / cm^3
# Si number density = 22.495200 Si / 1000 Ang^3
#
#
#
# Elastic Constant Matrix: (Units=GPa)
#
#
# Indices 1 2 3 4 5 6 
#
# 1 129.6344 56.2058 21.0625 -27.2457 -21.2338 11.8968
# 2 56.2058 134.5449 14.5209 -40.2835 -20.2306 7.7783
# 3 21.0625 14.5209 35.3780 -14.4675 -12.9622 2.1789
# 4 -27.2457 -40.2835 -14.4675 33.7707 7.6743 -2.0133
# 5 -21.2338 -20.2306 -12.9622 7.6743 31.1680 -10.9541
# 6 11.8968 7.7783 2.1789 -2.0133 -10.9541 40.3318
#
#
#
# Elastic Compliance Matrix: (Units=1/GPa)
#
#
# Indices 1 2 3 4 5 6 
#
# 1 0.010642 -0.002505 -0.002556 0.003704 0.003128 -0.001484
# 2 -0.002505 0.012976 0.003615 0.013916 0.004807 0.000041
# 3 -0.002556 0.003615 0.039995 0.016329 0.014112 0.002544
# 4 0.003704 0.013916 0.016329 0.055124 0.004537 -0.000675
# 5 0.003128 0.004807 0.014112 0.004537 0.045602 0.010000
# 6 -0.001484 0.000041 0.002544 -0.000675 0.010000 0.027769
#
#
# Mechanical properties :
#
#
# Convention : Reuss Voigt Hill
#
# Bulk Modulus (GPa) = 16.46839 53.68174 35.07506
# Shear Modulus (GPa) = 23.22994 34.90530 29.06762
#
# Velocity S-wave (km/s) = 3.21699 3.94341 3.59858
# Velocity P-wave (km/s) = 4.59733 6.68202 5.73519
#
# Compressibility (1/GPa) = 0.06072238
#
# Stress axis : x y z
#
# Youngs Moduli (GPa) = 93.96493 77.06755 25.00282
#
# Poissons Ratio (x) = 0.19304 0.06390
# Poissons Ratio (y) = 0.23537 -0.09038
# Poissons Ratio (z) = 0.24014 -0.27860
#
# Static dielectric constant tensor:
#      x y z
#    x 4.248950 -0.144620 0.029670 
#    y -0.144620 4.216650 -0.169510 
#    z 0.029670 -0.169510 3.798570 
# 
# 
# High freq. dielectric constant tensor:
#      x y z
#    x 1.878210 0.001150 0.006510 
#    y 0.001150 1.882510 -0.005690 
#    z 0.006510 -0.005690 1.884030 
# 
# From -- ./inp_files/416123.got.cif
#   From: 2010.06.25/outbox.cif.g09.slc.cpg/sg2_209_cif.got.tgz:416123.got - 2010.06.27 13:26:56.
