data_PCOD8041810
_publ_section_title
;
Structure prediction by ZEFSAII (Michael W. Deem and Ramdas Pophale) SiO2 
 PCOD8041810
Probable space group: P -1
;
_chemical_formula_sum "Si O2"
_cell_formula_units_Z 14
_cell_length_a 10.525408
_cell_length_b 13.707739
_cell_length_c 19.707230
_cell_angle_alpha 29.374796
_cell_angle_beta 32.257139
_cell_angle_gamma 31.928914
_cell_volume 673.140951
_symmetry_space_group_name_H-M "P -1"
_symmetry_group_IT_number 2
_symmetry_cell_setting 'triclinic'
loop_
_space_group_symop_operation_xyz
x,y,z
-x,-y,-z
loop_
_atom_site_type_symbol
_atom_site_label
_atom_site_fract_x
_atom_site_fract_y
_atom_site_fract_z
Si Si1 0.748020 0.652372 0.978927
Si Si2 0.198411 0.338937 0.587903
Si Si3 0.739903 0.324107 0.738072
Si Si4 0.083349 0.519985 0.788687
Si Si5 0.770832 0.111702 0.479632
Si Si6 0.057579 0.682007 0.551791
Si Si7 0.395648 0.851152 0.224306
O O1 0.810592 0.574687 0.918679
O O2 0.700363 0.904412 0.854213
O O3 0.491705 0.624731 0.134227
O O4 0.000000 0.500000 0.000000
O O5 0.288650 0.444554 0.420154
O O6 0.470281 0.168216 0.604855
O O7 0.014489 0.529492 0.607288
O O8 0.021290 0.217841 0.715056
O O9 0.740481 0.153276 0.783637
O O10 0.217965 0.659269 0.683634
O O11 0.038314 0.582022 0.693155
O O12 0.287573 0.263844 0.859107
O O13 0.000000 0.000000 0.500000
O O14 0.836386 0.936528 0.494404
O O15 0.331629 0.701148 0.400062
#
# Coordination Sequence:
#
# PCOD8041810 Si02
#       7
#     2   2   2   2   2   2   2
#     4  12  23  38  58  90 124 152 202 244 292 360
#     4  10  21  42  57  84 126 152 199 246 291 359
#     4  10  22  40  58  84 122 163 191 240 300 357
#     4  11  21  35  60  93 119 146 203 252 289 349
#     4  10  19  33  59  91 115 145 198 249 289 337
#     4  10  21  35  62  93 113 153 199 249 299 336
#     4  11  21  37  62  89 116 158 196 248 301 337
#
# _framework density 20.798022
#
# number of rings (size 3 to 8) (size 9 to 14) (size 15 to 20)
#    0.000    1.429    5.714    0.857    2.000    0.000 
#    2.571    2.857    0.000    6.000    0.000    0.000 
#    0.000    0.000    0.000    0.000    0.000    0.000 
#
# Total GULP energy -173465.175958 kJ/mol
# GULP energy per Si atom -12390.369711 kJ/mol
# Density = 2.075068 g / cm^3
# Si number density = 20.798022 Si / 1000 Ang^3
#
#
#
# Elastic Constant Matrix: (Units=GPa)
#
#
# Indices 1 2 3 4 5 6 
#
# 1 77.9506 33.4059 44.5315 18.6054 4.4194 -3.0248
# 2 33.4059 115.5109 27.7215 13.2930 8.1823 6.9156
# 3 44.5315 27.7215 98.0537 31.4121 13.7953 3.9542
# 4 18.6054 13.2930 31.4121 36.9875 2.4210 2.9672
# 5 4.4194 8.1823 13.7953 2.4210 23.5511 10.3487
# 6 -3.0248 6.9156 3.9542 2.9672 10.3487 33.1718
#
#
#
# Elastic Compliance Matrix: (Units=1/GPa)
#
#
# Indices 1 2 3 4 5 6 
#
# 1 0.019202 -0.003813 -0.007019 -0.002643 0.000596 0.003433
# 2 -0.003813 0.010231 -0.000516 -0.001068 -0.001629 -0.001815
# 3 -0.007019 -0.000516 0.018331 -0.011373 -0.008489 0.000948
# 4 -0.002643 -0.001068 -0.011373 0.038365 0.005221 -0.003723
# 5 0.000596 -0.001629 -0.008489 0.005221 0.054395 -0.016031
# 6 0.003433 -0.001815 0.000948 -0.003723 -0.016031 0.036059
#
#
# Mechanical properties :
#
#
# Convention : Reuss Voigt Hill
#
# Bulk Modulus (GPa) = 39.88902 55.87032 47.87967
# Shear Modulus (GPa) = 24.08084 31.13250 27.60667
#
# Velocity S-wave (km/s) = 3.40640 3.87317 3.64726
# Velocity P-wave (km/s) = 5.89002 6.85008 6.38811
#
# Compressibility (1/GPa) = 0.02506955
#
# Stress axis : x y z
#
# Youngs Moduli (GPa) = 52.07723 97.74500 54.55157
#
# Poissons Ratio (x) = 0.37266 0.38287
# Poissons Ratio (y) = 0.19855 0.02816
# Poissons Ratio (z) = 0.36551 0.05046
#
# Static dielectric constant tensor:
#      x y z
#    x 3.567050 0.165610 0.077610 
#    y 0.165610 4.277330 0.232650 
#    z 0.077610 0.232650 3.742780 
# 
# 
# High freq. dielectric constant tensor:
#      x y z
#    x 1.778860 0.010360 0.014310 
#    y 0.010360 1.829630 0.013640 
#    z 0.014310 0.013640 1.793790 
# 
# From -- ./inp_files/518546.got.cif
#   From: 2010.06.25/outbox.cif.g09.slc.cpg/sg2_260_cif.got.tgz:518546.got - 2010.06.27 13:26:56.
