data_PCOD8041548
_publ_section_title
;
Structure prediction by ZEFSAII (Michael W. Deem and Ramdas Pophale) SiO2 
 PCOD8041548
Probable space group: P -1
;
_chemical_formula_sum "Si O2"
_cell_formula_units_Z 16
_cell_length_a 14.330754
_cell_length_b 11.470352
_cell_length_c 14.289660
_cell_angle_alpha 148.940565
_cell_angle_beta 117.540712
_cell_angle_gamma 83.779296
_cell_volume 835.383211
_symmetry_space_group_name_H-M "P -1"
_symmetry_group_IT_number 2
_symmetry_cell_setting 'triclinic'
loop_
_space_group_symop_operation_xyz
x,y,z
-x,-y,-z
loop_
_atom_site_type_symbol
_atom_site_label
_atom_site_fract_x
_atom_site_fract_y
_atom_site_fract_z
Si Si1 0.118238 0.114477 0.430379
Si Si2 0.569289 0.867218 0.467887
Si Si3 0.706791 0.727790 0.069716
Si Si4 0.930119 0.707405 0.208310
Si Si5 0.048290 0.825884 0.861187
Si Si6 0.176017 0.853101 0.122546
Si Si7 0.095688 0.816024 0.670975
Si Si8 0.341618 0.252125 0.740441
O O1 0.151580 0.059173 0.305683
O O2 0.024985 0.801971 0.226068
O O3 0.254826 0.341375 0.713266
O O4 0.038360 0.242368 0.472160
O O5 0.670000 0.955793 0.487023
O O6 0.500000 0.000000 0.500000
O O7 0.666576 0.009715 0.700957
O O8 0.452491 0.524320 0.197347
O O9 0.780553 0.585782 0.021769
O O10 0.722428 0.892614 0.287574
O O11 0.771689 0.952588 0.169363
O O12 0.922686 0.471669 0.104365
O O13 0.000000 0.000000 0.500000
O O14 0.123767 0.948115 0.879977
O O15 0.924749 0.482649 0.548903
O O16 0.150103 0.852581 0.000935
O O17 0.000000 0.000000 0.000000
O O18 0.500000 0.500000 0.000000
#
# Coordination Sequence:
#
# PCOD8041548 Si02
#       8
#     2   2   2   2   2   2   2   2
#     4  10  19  33  53  89 115 147 188 234 297 355
#     4  10  20  36  55  86 123 153 186 231 291 362
#     4  10  19  37  55  85 122 150 191 231 296 351
#     4  11  19  30  53  85 118 148 184 237 297 355
#     4  11  23  42  59  86 114 155 205 245 294 334
#     4  11  21  35  58  83 117 154 193 240 292 349
#     4  10  23  40  63  84 116 155 196 255 286 341
#     4   9  19  31  52  81 121 151 179 221 282 360
#
# _framework density 19.152888000000001
#
# number of rings (size 3 to 8) (size 9 to 14) (size 15 to 20)
#    0.000    1.750    3.750    1.875    0.000    0.000 
#    2.250    0.625    0.000    0.750    0.000    0.000 
#    0.000    0.000    0.000    0.000    0.000    0.000 
#
# Total GULP energy -198224.156577 kJ/mol
# GULP energy per Si atom -12389.009786 kJ/mol
# Density = 1.910930 g / cm^3
# Si number density = 19.152888 Si / 1000 Ang^3
#
#
#
# Elastic Constant Matrix: (Units=GPa)
#
#
# Indices 1 2 3 4 5 6 
#
# 1 91.1782 48.0728 34.2346 -3.8154 3.5976 14.6648
# 2 48.0728 114.3683 39.6108 -12.5746 -0.5231 19.1926
# 3 34.2346 39.6108 76.2377 -10.6813 -0.6505 3.7381
# 4 -3.8154 -12.5746 -10.6813 33.3955 -4.9511 -3.7329
# 5 3.5976 -0.5231 -0.6505 -4.9511 29.4192 -3.7041
# 6 14.6648 19.1926 3.7381 -3.7329 -3.7041 36.5054
#
#
#
# Elastic Compliance Matrix: (Units=1/GPa)
#
#
# Indices 1 2 3 4 5 6 
#
# 1 0.015897 -0.004577 -0.004923 -0.002383 -0.003042 -0.004028
# 2 -0.004577 0.013135 -0.004175 0.002698 0.000613 -0.004301
# 3 -0.004923 -0.004175 0.017962 0.004241 0.002013 0.002971
# 4 -0.002383 0.002698 0.004241 0.033354 0.006445 0.003169
# 5 -0.003042 0.000613 0.002013 0.006445 0.036136 0.005019
# 6 -0.004028 -0.004301 0.002971 0.003169 0.005019 0.031802
#
#
# Mechanical properties :
#
#
# Convention : Reuss Voigt Hill
#
# Bulk Modulus (GPa) = 50.90487 58.40230 54.65358
# Shear Modulus (GPa) = 27.44473 30.52176 28.98324
#
# Velocity S-wave (km/s) = 3.78951 3.99630 3.89428
# Velocity P-wave (km/s) = 6.76632 7.20089 6.98698
#
# Compressibility (1/GPa) = 0.01964449
#
# Stress axis : x y z
#
# Youngs Moduli (GPa) = 62.90341 76.13366 55.67174
#
# Poissons Ratio (x) = 0.34847 0.27407
# Poissons Ratio (y) = 0.28792 0.23243
# Poissons Ratio (z) = 0.30967 0.31786
#
# Static dielectric constant tensor:
#      x y z
#    x 4.087330 0.037690 0.139550 
#    y 0.037690 3.643550 -0.303000 
#    z 0.139550 -0.303000 3.732560 
# 
# 
# High freq. dielectric constant tensor:
#      x y z
#    x 1.751110 0.005050 -0.005510 
#    y 0.005050 1.727110 -0.022220 
#    z -0.005510 -0.022220 1.733640 
# 
# From -- ./inp_files/453506.got.cif
#   From: 2010.06.25/outbox.cif.g09.slc.cpg/sg2_227_cif.got.tgz:453506.got - 2010.06.27 13:26:56.
