data_PCOD8041396
_publ_section_title
;
Structure prediction by ZEFSAII (Michael W. Deem and Ramdas Pophale) SiO2 
 PCOD8041396
Probable space group: P -1
;
_chemical_formula_sum "Si O2"
_cell_formula_units_Z 14
_cell_length_a 13.205001
_cell_length_b 11.651950
_cell_length_c 19.609943
_cell_angle_alpha 154.751771
_cell_angle_beta 26.307307
_cell_angle_gamma 147.621011
_cell_volume 561.219570
_symmetry_space_group_name_H-M "P -1"
_symmetry_group_IT_number 2
_symmetry_cell_setting 'triclinic'
loop_
_space_group_symop_operation_xyz
x,y,z
-x,-y,-z
loop_
_atom_site_type_symbol
_atom_site_label
_atom_site_fract_x
_atom_site_fract_y
_atom_site_fract_z
Si Si1 0.055240 0.626569 0.793751
Si Si2 0.895170 0.825013 0.867775
Si Si3 0.601327 0.281018 0.927545
Si Si4 0.641748 0.520506 0.273550
Si Si5 0.002180 0.143486 0.848353
Si Si6 0.781149 0.930771 0.727393
Si Si7 0.236264 0.149579 0.494947
O O1 0.219316 0.413247 0.600022
O O2 0.029317 0.633634 0.730219
O O3 0.797426 0.544954 0.938575
O O4 0.160489 0.925962 0.918573
O O5 0.045869 0.932913 0.767826
O O6 0.652370 0.644680 0.890830
O O7 0.624484 0.160446 0.925484
O O8 0.617161 0.037918 0.733952
O O9 0.382350 0.364843 0.332605
O O10 0.629891 0.745131 0.459837
O O11 0.751086 0.669729 0.218600
O O12 0.821463 0.325979 0.085837
O O13 0.891830 0.983979 0.762800
O O14 0.981286 0.968039 0.567754
#
# Coordination Sequence:
#
# PCOD8041396 Si02
#       7
#     2   2   2   2   2   2   2
#     4  10  21  37  54  82 116 149 184 224 277 335
#     4  11  22  36  56  84 118 147 180 228 286 327
#     4  11  22  36  58  87 114 144 185 230 278 333
#     4  10  19  33  55  81 113 145 185 235 275 317
#     4  10  20  33  51  84 113 143 186 234 272 329
#     4  10  19  32  56  82 111 145 181 234 281 315
#     4  10  21  37  57  87 114 141 189 229 273 335
#
# _framework density 24.945674
#
# number of rings (size 3 to 8) (size 9 to 14) (size 15 to 20)
#    0.000    1.714    2.857    2.571    2.000    3.429 
#    0.000    0.000    0.000    7.714    0.000   21.000 
#    0.000    0.000    0.000    0.000    0.000    0.000 
#
# Total GULP energy -173609.006092 kJ/mol
# GULP energy per Si atom -12400.643292 kJ/mol
# Density = 2.488890 g / cm^3
# Si number density = 24.945674 Si / 1000 Ang^3
#
#
#
# Elastic Constant Matrix: (Units=GPa)
#
#
# Indices 1 2 3 4 5 6 
#
# 1 100.3078 35.9990 -7.3086 -11.4465 -4.3938 -17.6431
# 2 35.9990 127.1922 -4.0162 -12.8410 -8.6652 4.2404
# 3 -7.3086 -4.0162 27.8050 -1.5091 2.3215 -2.7448
# 4 -11.4465 -12.8410 -1.5091 20.8871 1.2340 7.7819
# 5 -4.3938 -8.6652 2.3215 1.2340 18.1931 0.8449
# 6 -17.6431 4.2404 -2.7448 7.7819 0.8449 50.0296
#
#
#
# Elastic Compliance Matrix: (Units=1/GPa)
#
#
# Indices 1 2 3 4 5 6 
#
# 1 0.012552 -0.003191 0.003403 0.003513 0.000638 0.004327
# 2 -0.003191 0.009613 0.000250 0.004998 0.003565 -0.002764
# 3 0.003403 0.000250 0.037735 0.003991 -0.004270 0.002700
# 4 0.003513 0.004998 0.003991 0.056065 -0.000727 -0.007674
# 5 0.000638 0.003565 -0.004270 -0.000727 0.057466 -0.001169
# 6 0.004327 -0.002764 0.002700 -0.007674 -0.001169 0.023110
#
#
# Mechanical properties :
#
#
# Convention : Reuss Voigt Hill
#
# Bulk Modulus (GPa) = 16.44071 33.85038 25.14554
# Shear Modulus (GPa) = 23.15965 33.19734 28.17849
#
# Velocity S-wave (km/s) = 3.05028 3.65195 3.36459
# Velocity P-wave (km/s) = 4.36010 5.60191 5.01956
#
# Compressibility (1/GPa) = 0.06082461
#
# Stress axis : x y z
#
# Youngs Moduli (GPa) = 79.66575 104.02677 26.50049
#
# Poissons Ratio (x) = 0.33198 -0.09018
# Poissons Ratio (y) = 0.25424 -0.00664
# Poissons Ratio (z) = -0.27110 -0.02605
#
# Static dielectric constant tensor:
#      x y z
#    x 4.522340 -0.030150 0.211850 
#    y -0.030150 4.755250 -0.107450 
#    z 0.211850 -0.107450 3.816090 
# 
# 
# High freq. dielectric constant tensor:
#      x y z
#    x 1.996570 0.008160 0.024500 
#    y 0.008160 2.011740 -0.010940 
#    z 0.024500 -0.010940 1.936190 
# 
# From -- ./inp_files/523733.got.cif
#   From: 2010.06.25/outbox.cif.g09.slc.cpg/sg2_262_cif.got.tgz:523733.got - 2010.06.27 13:26:56.
