data_PCOD8041472
_publ_section_title
;
Structure prediction by ZEFSAII (Michael W. Deem and Ramdas Pophale) SiO2 
 PCOD8041472
Probable space group: P -1
;
_chemical_formula_sum "Si O2"
_cell_formula_units_Z 16
_cell_length_a 21.270000
_cell_length_b 9.709876
_cell_length_c 9.023300
_cell_angle_alpha 103.828530
_cell_angle_beta 110.567821
_cell_angle_gamma 30.843299
_cell_volume 886.893604
_symmetry_space_group_name_H-M "P -1"
_symmetry_group_IT_number 2
_symmetry_cell_setting 'triclinic'
loop_
_space_group_symop_operation_xyz
x,y,z
-x,-y,-z
loop_
_atom_site_type_symbol
_atom_site_label
_atom_site_fract_x
_atom_site_fract_y
_atom_site_fract_z
Si Si1 0.060934 0.578096 0.982703
Si Si2 0.176549 0.078186 0.967302
Si Si3 0.581884 0.472702 0.486893
Si Si4 0.814648 0.063403 0.766899
Si Si5 0.766396 0.466266 0.912648
Si Si6 0.406319 0.554399 0.860897
Si Si7 0.606861 0.738428 0.121191
Si Si8 0.486112 0.099149 0.360140
O O1 0.969336 0.722228 0.090529
O O2 0.168139 0.262790 0.983223
O O3 0.128056 0.607635 0.056829
O O4 0.964791 0.743906 0.801126
O O5 0.249707 0.905690 0.138295
O O6 0.258271 0.865950 0.845738
O O7 0.500000 0.500000 0.500000
O O8 0.732118 0.182322 0.581796
O O9 0.569272 0.496093 0.306770
O O10 0.522944 0.717573 0.577715
O O11 0.821429 0.217751 0.844577
O O12 0.639144 0.734359 0.784425
O O13 0.739085 0.509479 0.078902
O O14 0.430936 0.355759 0.898768
O O15 0.500000 0.500000 0.000000
O O16 0.611241 0.826323 0.297018
O O17 0.500000 0.000000 0.000000
O O18 0.500000 0.000000 0.500000
#
# Coordination Sequence:
#
# PCOD8041472 Si02
#       8
#     2   2   2   2   2   2   2   2
#     4   9  19  36  62  83 111 154 194 242 277 346
#     4   9  20  36  58  84 116 144 204 230 286 342
#     4  11  24  37  57  84 120 157 188 238 300 348
#     4   9  18  37  55  82 114 147 193 238 283 339
#     4  10  19  32  63  83 113 151 197 235 286 337
#     4  12  24  37  61  86 117 156 195 242 293 343
#     4  10  21  36  57  87 118 147 195 241 279 348
#     4  10  21  37  54  85 121 154 185 237 292 346
#
# _framework density 18.040495
#
# number of rings (size 3 to 8) (size 9 to 14) (size 15 to 20)
#    0.750    1.250    2.500    1.125    7.000    1.000 
#    0.000    0.625    2.750    2.250    0.000    0.000 
#    0.000    0.000    0.000    0.000    0.000    0.000 
#
# Total GULP energy -198214.680508 kJ/mol
# GULP energy per Si atom -12388.417532 kJ/mol
# Density = 1.799943 g / cm^3
# Si number density = 18.040495 Si / 1000 Ang^3
#
#
#
# Elastic Constant Matrix: (Units=GPa)
#
#
# Indices 1 2 3 4 5 6 
#
# 1 120.9700 50.6871 50.1530 -0.0466 2.0626 11.8299
# 2 50.6871 81.6642 35.1685 4.5547 1.5924 15.6353
# 3 50.1530 35.1685 96.2431 6.9110 -1.3814 3.7703
# 4 -0.0466 4.5547 6.9110 25.3824 -0.7143 -8.9731
# 5 2.0626 1.5924 -1.3814 -0.7143 25.9550 -0.5005
# 6 11.8299 15.6353 3.7703 -8.9731 -0.5005 29.7030
#
#
#
# Elastic Compliance Matrix: (Units=1/GPa)
#
#
# Indices 1 2 3 4 5 6 
#
# 1 0.012728 -0.005852 -0.004620 0.002023 -0.000858 -0.000806
# 2 -0.005852 0.019421 -0.003276 -0.005922 -0.001243 -0.009286
# 3 -0.004620 -0.003276 0.014188 -0.002930 0.001260 0.000900
# 4 0.002023 -0.005922 -0.002930 0.047321 0.001677 0.017007
# 5 -0.000858 -0.001243 0.001260 0.001677 0.038824 0.001997
# 6 -0.000806 -0.009286 0.000900 0.017007 0.001997 0.043933
#
#
# Mechanical properties :
#
#
# Convention : Reuss Voigt Hill
#
# Bulk Modulus (GPa) = 53.07667 63.43273 58.25470
# Shear Modulus (GPa) = 23.78765 27.06597 25.42681
#
# Velocity S-wave (km/s) = 3.63515 3.87756 3.75831
# Velocity P-wave (km/s) = 6.86322 7.43538 7.15502
#
# Compressibility (1/GPa) = 0.01884067
#
# Stress axis : x y z
#
# Youngs Moduli (GPa) = 78.56428 51.49134 70.48040
#
# Poissons Ratio (x) = 0.30134 0.32565
# Poissons Ratio (y) = 0.45978 0.23088
# Poissons Ratio (z) = 0.36300 0.16867
#
# Static dielectric constant tensor:
#      x y z
#    x 3.324890 0.050970 -0.223600 
#    y 0.050970 3.577460 -0.034760 
#    z -0.223600 -0.034760 3.128000 
# 
# 
# High freq. dielectric constant tensor:
#      x y z
#    x 1.702750 0.019530 -0.011610 
#    y 0.019530 1.706290 -0.001020 
#    z -0.011610 -0.001020 1.669860 
# 
# From -- ./inp_files/329173.got.cif
#   From: 2010.06.25/outbox.cif.g09.slc.cpg/sg2_165_cif.got.tgz:329173.got - 2010.06.27 13:26:56.
