data_PCOD8041991
_publ_section_title
;
Structure prediction by ZEFSAII (Michael W. Deem and Ramdas Pophale) SiO2 
 PCOD8041991
Probable space group: P -1
;
_chemical_formula_sum "Si O2"
_cell_formula_units_Z 16
_cell_length_a 6.751611
_cell_length_b 26.106427
_cell_length_c 11.593968
_cell_angle_alpha 146.644943
_cell_angle_beta 111.385973
_cell_angle_gamma 53.333354
_cell_volume 858.563901
_symmetry_space_group_name_H-M "P -1"
_symmetry_group_IT_number 2
_symmetry_cell_setting 'triclinic'
loop_
_space_group_symop_operation_xyz
x,y,z
-x,-y,-z
loop_
_atom_site_type_symbol
_atom_site_label
_atom_site_fract_x
_atom_site_fract_y
_atom_site_fract_z
Si Si1 0.794946 0.825890 0.324080
Si Si2 0.993969 0.853167 0.653011
Si Si3 0.193276 0.559114 0.534488
Si Si4 0.025375 0.234883 0.289877
Si Si5 0.328631 0.829375 0.985371
Si Si6 0.141349 0.360794 0.163772
Si Si7 0.771195 0.010940 0.538259
Si Si8 0.611092 0.100783 0.112157
O O1 0.950939 0.813351 0.447802
O O2 0.486959 0.906300 0.436349
O O3 0.836159 0.886256 0.338390
O O4 0.896250 0.699998 0.066263
O O5 0.074730 0.754187 0.578607
O O6 0.213245 0.877784 0.727124
O O7 0.741529 0.968057 0.867640
O O8 0.500000 0.500000 0.500000
O O9 0.104283 0.475841 0.330291
O O10 0.085417 0.643612 0.561472
O O11 0.057149 0.620370 0.741976
O O12 0.334186 0.155672 0.213253
O O13 0.923466 0.173337 0.076813
O O14 0.561751 0.714802 0.875764
O O15 0.428113 0.834912 0.893359
O O16 0.256655 0.939394 0.247038
O O17 0.000000 0.000000 0.500000
#
# Coordination Sequence:
#
# PCOD8041991 Si02
#       8
#     2   2   2   2   2   2   2   2
#     4  10  22  39  53  83 123 154 188 236 288 346
#     4  10  22  37  55  84 121 160 194 222 279 354
#     4  11  22  39  63  88 110 142 199 252 296 339
#     4  11  22  34  63  84 114 152 197 242 283 334
#     4  10  19  34  55  88 114 146 187 232 290 344
#     4  10  22  37  60  85 114 147 184 248 300 337
#     4  10  22  32  56  84 118 157 189 226 289 351
#     4  10  20  37  55  83 121 156 190 233 276 340
#
# _framework density 18.635770000000001
#
# number of rings (size 3 to 8) (size 9 to 14) (size 15 to 20)
#    0.000    1.750    3.750    0.375    3.500    1.000 
#    0.000    0.625    0.000    1.500    0.000    0.000 
#    0.000    0.000    0.000    0.000    0.000    0.000 
#
# Total GULP energy -198367.518333 kJ/mol
# GULP energy per Si atom -12397.969896 kJ/mol
# Density = 1.859335 g / cm^3
# Si number density = 18.635770 Si / 1000 Ang^3
#
#
#
# Elastic Constant Matrix: (Units=GPa)
#
#
# Indices 1 2 3 4 5 6 
#
# 1 109.0035 24.5551 29.9668 -0.8320 0.0830 -9.4764
# 2 24.5551 82.6795 43.8441 -6.6439 8.8347 -0.3938
# 3 29.9668 43.8441 98.5090 -12.6786 15.0831 -0.6563
# 4 -0.8320 -6.6439 -12.6786 32.4836 -1.2850 8.9521
# 5 0.0830 8.8347 15.0831 -1.2850 22.0370 5.5220
# 6 -9.4764 -0.3938 -0.6563 8.9521 5.5220 32.7595
#
#
#
# Elastic Compliance Matrix: (Units=1/GPa)
#
#
# Indices 1 2 3 4 5 6 
#
# 1 0.010683 -0.001985 -0.002887 -0.002092 0.001788 0.003279
# 2 -0.001985 0.016269 -0.006201 0.000878 -0.002122 -0.000385
# 3 -0.002887 -0.006201 0.015562 0.004574 -0.007752 -0.000541
# 4 -0.002092 0.000878 0.004574 0.035622 0.001219 -0.010443
# 5 0.001788 -0.002122 -0.007752 0.001219 0.053874 -0.009078
# 6 0.003279 -0.000385 -0.000541 -0.010443 -0.009078 0.035842
#
#
# Mechanical properties :
#
#
# Convention : Reuss Voigt Hill
#
# Bulk Modulus (GPa) = 49.10349 54.10266 51.60308
# Shear Modulus (GPa) = 25.40806 30.24443 27.82625
#
# Velocity S-wave (km/s) = 3.69643 4.03292 3.86834
# Velocity P-wave (km/s) = 6.68015 7.12605 6.90670
#
# Compressibility (1/GPa) = 0.02036515
#
# Stress axis : x y z
#
# Youngs Moduli (GPa) = 93.60912 61.46838 64.25965
#
# Poissons Ratio (x) = 0.12202 0.18555
# Poissons Ratio (y) = 0.18582 0.39850
# Poissons Ratio (z) = 0.27029 0.38119
#
# Static dielectric constant tensor:
#      x y z
#    x 3.524150 -0.048050 0.198940 
#    y -0.048050 3.353100 0.429200 
#    z 0.198940 0.429200 1.050330 
# 
# 
# High freq. dielectric constant tensor:
#      x y z
#    x 1.734300 -0.000950 0.017470 
#    y -0.000950 1.719010 0.002650 
#    z 0.017470 0.002650 1.701620 
# 
# From -- ./inp_files/70289.got.cif
#   From: 2010.06.25/outbox.cif.g09.slc.cpg/sg2_36_cif.got.tgz:70289.got - 2010.06.27 13:26:56.
