data_PCOD8041647
_publ_section_title
;
Structure prediction by ZEFSAII (Michael W. Deem and Ramdas Pophale) SiO2 
 PCOD8041647
Probable space group: P -1
;
_chemical_formula_sum "Si O2"
_cell_formula_units_Z 14
_cell_length_a 21.523727
_cell_length_b 12.733393
_cell_length_c 10.189725
_cell_angle_alpha 39.331135
_cell_angle_beta 26.761613
_cell_angle_gamma 26.858000
_cell_volume 564.445393
_symmetry_space_group_name_H-M "P -1"
_symmetry_group_IT_number 2
_symmetry_cell_setting 'triclinic'
loop_
_space_group_symop_operation_xyz
x,y,z
-x,-y,-z
loop_
_atom_site_type_symbol
_atom_site_label
_atom_site_fract_x
_atom_site_fract_y
_atom_site_fract_z
Si Si1 0.781608 0.236097 0.209182
Si Si2 0.170661 0.728833 0.415659
Si Si3 0.121816 0.654668 0.846791
Si Si4 0.294307 0.813923 0.867489
Si Si5 0.749540 0.921755 0.669396
Si Si6 0.932841 0.468259 0.383042
Si Si7 0.405535 0.054435 0.331789
O O1 0.762833 0.416435 0.162520
O O2 0.676219 0.335394 0.169492
O O3 0.687193 0.166397 0.539822
O O4 0.000000 0.000000 0.000000
O O5 0.254534 0.608097 0.518461
O O6 0.072140 0.647764 0.619752
O O7 0.330085 0.677267 0.065832
O O8 0.000000 0.000000 0.500000
O O9 0.072878 0.505796 0.057437
O O10 0.925524 0.929085 0.962926
O O11 0.435916 0.854164 0.546382
O O12 0.728143 0.857771 0.629300
O O13 0.974678 0.711180 0.494423
O O14 0.616708 0.945300 0.006060
O O15 0.710955 0.712464 0.588984
#
# Coordination Sequence:
#
# PCOD8041647 Si02
#       7
#     2   2   2   2   2   2   2
#     4   9  16  31  54  81 108 142 182 223 271 326
#     4  10  19  33  56  81 108 149 186 224 279 328
#     4   9  18  31  52  81 111 142 185 227 268 326
#     4   8  16  31  52  76 110 144 179 225 273 322
#     4  10  19  34  57  82 116 148 177 223 279 326
#     4  11  20  33  57  81 108 145 187 227 271 325
#     4   9  20  35  53  85 115 143 183 227 271 326
#
# _framework density 24.803108999999999
#
# number of rings (size 3 to 8) (size 9 to 14) (size 15 to 20)
#    0.000    2.571    0.000    4.286    0.000    1.143 
#    0.000    1.429    0.000   33.429    0.000    0.000 
#    0.000    0.000    0.000    0.000    0.000    0.000 
#
# Total GULP energy -173478.872291 kJ/mol
# GULP energy per Si atom -12391.348021 kJ/mol
# Density = 2.474666 g / cm^3
# Si number density = 24.803109 Si / 1000 Ang^3
#
#
#
# Elastic Constant Matrix: (Units=GPa)
#
#
# Indices 1 2 3 4 5 6 
#
# 1 81.7288 35.4292 23.7098 -1.9665 23.2656 34.7992
# 2 35.4292 64.1563 16.2030 -8.1016 6.6310 31.3200
# 3 23.7098 16.2030 151.9834 -16.6741 19.4216 22.0965
# 4 -1.9665 -8.1016 -16.6741 15.6207 -4.2780 -7.4623
# 5 23.2656 6.6310 19.4216 -4.2780 36.8972 -6.2828
# 6 34.7992 31.3200 22.0965 -7.4623 -6.2828 42.5075
#
#
#
# Elastic Compliance Matrix: (Units=1/GPa)
#
#
# Indices 1 2 3 4 5 6 
#
# 1 0.039669 -0.001120 0.002068 -0.023288 -0.035770 -0.042100
# 2 -0.001120 0.027073 0.001709 0.003727 -0.008111 -0.020464
# 3 0.002068 0.001709 0.008582 0.004805 -0.006862 -0.007584
# 4 -0.023288 0.003727 0.004805 0.092112 0.027976 0.034126
# 5 -0.035770 -0.008111 -0.006862 0.027976 0.067107 0.053657
# 6 -0.042100 -0.020464 -0.007584 0.034126 0.053657 0.090933
#
#
# Mechanical properties :
#
#
# Convention : Reuss Voigt Hill
#
# Bulk Modulus (GPa) = 12.40116 49.83916 31.12016
# Shear Modulus (GPa) = 14.40754 33.84018 24.12386
#
# Velocity S-wave (km/s) = 2.41275 3.69772 3.12206
# Velocity P-wave (km/s) = 3.57387 6.19422 5.05672
#
# Compressibility (1/GPa) = 0.08063762
#
# Stress axis : x y z
#
# Youngs Moduli (GPa) = 25.20849 36.93738 116.52939
#
# Poissons Ratio (x) = 0.04136 -0.24096
# Poissons Ratio (y) = 0.02823 -0.19916
# Poissons Ratio (z) = -0.05213 -0.06313
#
# Static dielectric constant tensor:
#      x y z
#    x 4.593620 0.426430 0.340010 
#    y 0.426430 4.331210 -0.360720 
#    z 0.340010 -0.360720 5.018480 
# 
# 
# High freq. dielectric constant tensor:
#      x y z
#    x 1.963010 0.018060 0.009900 
#    y 0.018060 1.970060 -0.013270 
#    z 0.009900 -0.013270 1.997730 
# 
# From -- ./inp_files/154798.got.cif
#   From: 2010.06.25/outbox.cif.g09.slc.cpg/sg2_78_cif.got.tgz:154798.got - 2010.06.27 13:26:56.
