data_PCOD8041990
_publ_section_title
;
Structure prediction by ZEFSAII (Michael W. Deem and Ramdas Pophale) SiO2 
 PCOD8041990
Probable space group: P -1
;
_chemical_formula_sum "Si O2"
_cell_formula_units_Z 16
_cell_length_a 13.289200
_cell_length_b 23.455345
_cell_length_c 11.116123
_cell_angle_alpha 138.371863
_cell_angle_beta 23.605099
_cell_angle_gamma 144.211200
_cell_volume 811.258332
_symmetry_space_group_name_H-M "P -1"
_symmetry_group_IT_number 2
_symmetry_cell_setting 'triclinic'
loop_
_space_group_symop_operation_xyz
x,y,z
-x,-y,-z
loop_
_atom_site_type_symbol
_atom_site_label
_atom_site_fract_x
_atom_site_fract_y
_atom_site_fract_z
Si Si1 0.128776 0.617893 0.741622
Si Si2 0.364157 0.939627 0.175151
Si Si3 0.036305 0.982949 0.293531
Si Si4 0.560901 0.594729 0.658486
Si Si5 0.270883 0.238051 0.706750
Si Si6 0.810722 0.591152 0.822267
Si Si7 0.906215 0.732598 0.302668
Si Si8 0.039096 0.429197 0.627840
O O1 0.393158 0.719867 0.572209
O O2 0.959864 0.560176 0.715985
O O3 0.228411 0.546939 0.588202
O O4 0.935214 0.639471 0.079404
O O5 0.213562 0.823316 0.140117
O O6 0.123900 0.968458 0.530962
O O7 0.500000 0.000000 0.000000
O O8 0.623976 0.967609 0.029320
O O9 0.897551 0.870375 0.228587
O O10 0.000000 0.000000 0.500000
O O11 0.500000 0.500000 0.500000
O O12 0.700088 0.693138 0.581282
O O13 0.792412 0.607027 0.525946
O O14 0.274039 0.591322 0.018991
O O15 0.230487 0.232904 0.598694
O O16 0.175074 0.308847 0.989290
O O17 0.988631 0.620753 0.550262
O O18 0.500000 0.500000 0.000000
#
# Coordination Sequence:
#
# PCOD8041990 Si02
#       8
#     2   2   2   2   2   2   2   2
#     4  11  22  36  63  84 122 160 209 253 308 354
#     4  10  19  35  55  86 127 149 187 250 315 373
#     4  10  19  34  55  87 128 147 184 247 321 374
#     4  12  26  41  60  86 122 173 208 248 292 363
#     4  11  22  35  62  92 124 158 199 253 317 372
#     4  11  24  40  59  90 119 169 210 258 307 353
#     4  11  23  36  60  92 124 163 200 247 312 378
#     4  12  25  43  58  82 127 164 210 250 285 363
#
# _framework density 19.722448
#
# number of rings (size 3 to 8) (size 9 to 14) (size 15 to 20)
#    0.000    1.000    5.000    3.750    5.250    0.000 
#    0.000    0.000    0.000    0.000    0.000    5.250 
#    0.000    0.000    0.000    0.000    0.000    0.000 
#
# Total GULP energy -198309.196908 kJ/mol
# GULP energy per Si atom -12394.324807 kJ/mol
# Density = 1.967756 g / cm^3
# Si number density = 19.722448 Si / 1000 Ang^3
#
#
#
# Elastic Constant Matrix: (Units=GPa)
#
#
# Indices 1 2 3 4 5 6 
#
# 1 96.6734 40.0924 57.4279 -5.5743 -20.4765 5.6020
# 2 40.0924 94.9148 32.4345 -8.5548 4.3905 16.9526
# 3 57.4279 32.4345 117.6642 -7.9651 -9.3406 7.1180
# 4 -5.5743 -8.5548 -7.9651 26.2146 1.6727 -9.2863
# 5 -20.4765 4.3905 -9.3406 1.6727 39.4155 -3.9292
# 6 5.6020 16.9526 7.1180 -9.2863 -3.9292 25.2753
#
#
#
# Elastic Compliance Matrix: (Units=1/GPa)
#
#
# Indices 1 2 3 4 5 6 
#
# 1 0.019028 -0.006773 -0.006876 0.000536 0.009378 0.003916
# 2 -0.006773 0.015786 -0.000947 0.000409 -0.006483 -0.009677
# 3 -0.006876 -0.000947 0.012221 0.001718 -0.000719 -0.000763
# 4 0.000536 0.000409 0.001718 0.044379 0.000299 0.015475
# 5 0.009378 -0.006483 -0.000719 0.000299 0.031527 0.007484
# 6 0.003916 -0.009677 -0.000763 0.015475 0.007484 0.052251
#
#
# Mechanical properties :
#
#
# Convention : Reuss Voigt Hill
#
# Bulk Modulus (GPa) = 56.04697 63.24023 59.64360
# Shear Modulus (GPa) = 23.77201 30.13426 26.95313
#
# Velocity S-wave (km/s) = 3.47555 3.91310 3.70080
# Velocity P-wave (km/s) = 6.67724 7.24922 6.96910
#
# Compressibility (1/GPa) = 0.01784218
#
# Stress axis : x y z
#
# Youngs Moduli (GPa) = 52.55466 63.34922 81.82471
#
# Poissons Ratio (x) = 0.42904 0.56264
# Poissons Ratio (y) = 0.35594 0.07752
# Poissons Ratio (z) = 0.36137 0.06002
#
# Static dielectric constant tensor:
#      x y z
#    x 3.913320 0.088770 -0.510520 
#    y 0.088770 3.590020 0.064590 
#    z -0.510520 0.064590 3.974240 
# 
# 
# High freq. dielectric constant tensor:
#      x y z
#    x 1.749610 0.008590 -0.036250 
#    y 0.008590 1.763940 0.006090 
#    z -0.036250 0.006090 1.761460 
# 
# From -- ./inp_files/70175.got.cif
#   From: 2010.06.25/outbox.cif.g09.slc.cpg/sg2_36_cif.got.tgz:70175.got - 2010.06.27 13:26:56.
