data_PCOD8041710
_publ_section_title
;
Structure prediction by ZEFSAII (Michael W. Deem and Ramdas Pophale) SiO2 
 PCOD8041710
Probable space group: P -1
;
_chemical_formula_sum "Si O2"
_cell_formula_units_Z 16
_cell_length_a 9.292095
_cell_length_b 19.138065
_cell_length_c 8.482178
_cell_angle_alpha 49.865865
_cell_angle_beta 64.242864
_cell_angle_gamma 46.757396
_cell_volume 840.017901
_symmetry_space_group_name_H-M "P -1"
_symmetry_group_IT_number 2
_symmetry_cell_setting 'triclinic'
loop_
_space_group_symop_operation_xyz
x,y,z
-x,-y,-z
loop_
_atom_site_type_symbol
_atom_site_label
_atom_site_fract_x
_atom_site_fract_y
_atom_site_fract_z
Si Si1 0.217959 0.993971 0.745382
Si Si2 0.668913 0.355280 0.467691
Si Si3 0.368881 0.796872 0.516450
Si Si4 0.920143 0.213670 0.122334
Si Si5 0.840092 0.998078 0.886758
Si Si6 0.096508 0.219330 0.334324
Si Si7 0.433583 0.616160 0.165982
Si Si8 0.429046 0.244034 0.215062
O O1 0.224024 0.087294 0.512782
O O2 0.002172 0.022994 0.789599
O O3 0.383038 0.872603 0.773606
O O4 0.257441 0.996607 0.908247
O O5 0.581993 0.301104 0.485683
O O6 0.555711 0.483111 0.278987
O O7 0.640436 0.343890 0.680286
O O8 0.901598 0.290033 0.429932
O O9 0.178294 0.834803 0.658613
O O10 0.329808 0.903865 0.286617
O O11 0.553444 0.754018 0.606186
O O12 0.040492 0.238180 0.148394
O O13 0.751575 0.327440 0.946989
O O14 0.070551 0.122961 0.055269
O O15 0.224463 0.265974 0.236444
O O16 0.575170 0.653207 0.004301
#
# Coordination Sequence:
#
# PCOD8041710 Si02
#       8
#     2   2   2   2   2   2   2   2
#     4  11  20  33  56  81 116 144 180 224 269 324
#     4  10  21  39  61  82 105 140 188 231 268 320
#     4  10  19  33  57  82 109 144 185 225 264 324
#     4  10  19  33  57  82 109 144 185 225 264 324
#     4  11  18  32  58  84 106 145 190 224 263 314
#     4  11  23  37  55  83 117 146 176 224 278 324
#     4  10  21  39  61  82 105 140 188 231 268 320
#     4  11  23  37  55  83 117 146 176 224 278 324
#
# _framework density 19.047214
#
# number of rings (size 3 to 8) (size 9 to 14) (size 15 to 20)
#    0.000    1.500    5.000    3.000    0.000    5.000 
#    0.000    6.250    0.000    3.000    0.000    0.000 
#    0.000    0.000    0.000    0.000    0.000    0.000 
#
# Total GULP energy -198451.908831 kJ/mol
# GULP energy per Si atom -12403.244302 kJ/mol
# Density = 1.900386 g / cm^3
# Si number density = 19.047214 Si / 1000 Ang^3
#
#
#
# Elastic Constant Matrix: (Units=GPa)
#
#
# Indices 1 2 3 4 5 6 
#
# 1 115.9734 7.4599 34.9660 -1.0630 11.9355 11.1496
# 2 7.4599 53.5031 7.2250 -3.7698 10.3615 7.4636
# 3 34.9660 7.2250 87.6676 -8.7697 23.7695 -0.7398
# 4 -1.0630 -3.7698 -8.7697 23.6489 4.5009 5.1718
# 5 11.9355 10.3615 23.7695 4.5009 21.6996 4.5520
# 6 11.1496 7.4636 -0.7398 5.1718 4.5520 12.3759
#
#
#
# Elastic Compliance Matrix: (Units=1/GPa)
#
#
# Indices 1 2 3 4 5 6 
#
# 1 0.011000 0.000586 -0.004665 0.001169 0.000922 -0.011370
# 2 0.000586 0.023542 0.002346 0.010239 -0.013329 -0.013962
# 3 -0.004665 0.002346 0.021341 0.011073 -0.026126 0.009046
# 4 0.001169 0.010239 0.011073 0.057529 -0.025110 -0.021371
# 5 0.000922 -0.013329 -0.026126 -0.025110 0.089270 -0.016695
# 6 -0.011370 -0.013962 0.009046 -0.021371 -0.016695 0.115079
#
#
# Mechanical properties :
#
#
# Convention : Reuss Voigt Hill
#
# Bulk Modulus (GPa) = 19.07679 39.60511 29.34095
# Shear Modulus (GPa) = 14.76234 25.37774 20.07004
#
# Velocity S-wave (km/s) = 2.78697 3.65411 3.24960
# Velocity P-wave (km/s) = 4.51592 6.21624 5.43301
#
# Compressibility (1/GPa) = 0.05241973
#
# Stress axis : x y z
#
# Youngs Moduli (GPa) = 90.90602 42.47660 46.85721
#
# Poissons Ratio (x) = -0.02490 0.21858
# Poissons Ratio (y) = -0.05328 -0.10995
# Poissons Ratio (z) = 0.42405 -0.09967
#
# Static dielectric constant tensor:
#      x y z
#    x 3.437710 0.233780 0.291720 
#    y 0.233780 3.440510 0.104740 
#    z 0.291720 0.104740 3.594170 
# 
# 
# High freq. dielectric constant tensor:
#      x y z
#    x 1.720070 0.018820 0.022680 
#    y 0.018820 1.737970 0.002360 
#    z 0.022680 0.002360 1.745120 
# 
# From -- ./inp_files/178964.got.cif
#   From: 2010.06.25/outbox.cif.g09.slc.cpg/sg2_90_cif.got.tgz:178964.got - 2010.06.27 13:26:56.
