data_PCOD8041107
_publ_section_title
;
Structure prediction by ZEFSAII (Michael W. Deem and Ramdas Pophale) SiO2 
 PCOD8041107
Probable space group: P -1
;
_chemical_formula_sum "Si O2"
_cell_formula_units_Z 16
_cell_length_a 13.862245
_cell_length_b 9.415966
_cell_length_c 13.744391
_cell_angle_alpha 131.608226
_cell_angle_beta 139.686355
_cell_angle_gamma 59.145120
_cell_volume 867.757626
_symmetry_space_group_name_H-M "P -1"
_symmetry_group_IT_number 2
_symmetry_cell_setting 'triclinic'
loop_
_space_group_symop_operation_xyz
x,y,z
-x,-y,-z
loop_
_atom_site_type_symbol
_atom_site_label
_atom_site_fract_x
_atom_site_fract_y
_atom_site_fract_z
Si Si1 0.438353 0.364905 0.974713
Si Si2 0.108102 0.538997 0.191391
Si Si3 0.538000 0.950197 0.807399
Si Si4 0.831280 0.526020 0.077589
Si Si5 0.627180 0.229178 0.573793
Si Si6 0.833396 0.100680 0.833927
Si Si7 0.554941 0.591342 0.785518
Si Si8 0.836993 0.875746 0.922214
O O1 0.257382 0.395011 0.859429
O O2 0.465430 0.144671 0.875817
O O3 0.500000 0.500000 0.000000
O O4 0.513995 0.418065 0.161807
O O5 0.228972 0.699112 0.342128
O O6 0.196544 0.347433 0.200434
O O7 0.998528 0.603873 0.226838
O O8 0.000000 0.500000 0.000000
O O9 0.472627 0.901891 0.629585
O O10 0.498416 0.782265 0.775865
O O11 0.715951 0.978852 0.946199
O O12 0.838244 0.298054 0.986606
O O13 0.736052 0.586464 0.934537
O O14 0.694016 0.098373 0.652182
O O15 0.520889 0.402320 0.610472
O O16 0.810556 0.932905 0.815935
O O17 0.994346 0.074605 0.891601
#
# Coordination Sequence:
#
# PCOD8041107 Si02
#       8
#     2   2   2   2   2   2   2   2
#     4  10  21  38  55  76 110 155 186 216 268 340
#     4  11  15  33  55  78 105 147 180 222 272 324
#     4  12  22  33  55  90 113 137 181 237 282 316
#     4   8  17  31  57  71 104 140 190 212 256 316
#     4  11  21  34  55  87 118 136 176 238 289 311
#     4   9  18  34  51  81 105 145 185 222 260 332
#     4   9  19  36  54  77 112 144 184 217 266 334
#     4  10  19  30  54  80 108 142 187 221 265 325
#
# _framework density 18.438329
#
# number of rings (size 3 to 8) (size 9 to 14) (size 15 to 20)
#    0.750    1.250    5.000    1.500    0.000    0.500 
#    0.000    0.625    0.000    0.000    0.000    6.125 
#    0.000    0.000    0.000    0.000    0.000    0.000 
#
# Total GULP energy -198237.851328 kJ/mol
# GULP energy per Si atom -12389.865708 kJ/mol
# Density = 1.839636 g / cm^3
# Si number density = 18.438329 Si / 1000 Ang^3
#
#
#
# Elastic Constant Matrix: (Units=GPa)
#
#
# Indices 1 2 3 4 5 6 
#
# 1 111.8437 35.6625 24.4948 4.0511 -8.8073 -17.4345
# 2 35.6625 109.8112 25.9294 -6.3388 -9.6497 -0.8764
# 3 24.4948 25.9294 43.1735 1.2215 -12.3066 -9.5490
# 4 4.0511 -6.3388 1.2215 12.7060 -0.5213 -8.3370
# 5 -8.8073 -9.6497 -12.3066 -0.5213 17.8556 -0.2955
# 6 -17.4345 -0.8764 -9.5490 -8.3370 -0.2955 34.6627
#
#
#
# Elastic Compliance Matrix: (Units=1/GPa)
#
#
# Indices 1 2 3 4 5 6 
#
# 1 0.011458 -0.002864 -0.003216 -0.001818 0.001907 0.004384
# 2 -0.002864 0.011839 -0.005515 0.006730 0.001364 -0.001030
# 3 -0.003216 -0.005515 0.035998 0.001330 0.020426 0.008654
# 4 -0.001818 0.006730 0.001330 0.098061 0.006904 0.023266
# 5 0.001907 0.001364 0.020426 0.006904 0.072110 0.008896
# 6 0.004384 -0.001030 0.008654 0.023266 0.008896 0.039084
#
#
# Mechanical properties :
#
#
# Convention : Reuss Voigt Hill
#
# Bulk Modulus (GPa) = 27.69713 48.55576 38.12644
# Shear Modulus (GPa) = 16.45955 24.96097 20.71026
#
# Velocity S-wave (km/s) = 2.99102 3.68333 3.35508
# Velocity P-wave (km/s) = 5.19445 6.66937 5.97758
#
# Compressibility (1/GPa) = 0.03610482
#
# Stress axis : x y z
#
# Youngs Moduli (GPa) = 87.27521 84.46663 27.77918
#
# Poissons Ratio (x) = 0.24192 0.08934
# Poissons Ratio (y) = 0.24997 0.15320
# Poissons Ratio (z) = 0.28069 0.46582
#
# Static dielectric constant tensor:
#      x y z
#    x 3.596630 -0.073900 0.126620 
#    y -0.073900 3.559230 -0.169330 
#    z 0.126620 -0.169330 2.898160 
# 
# 
# High freq. dielectric constant tensor:
#      x y z
#    x 1.718570 0.003700 0.013940 
#    y 0.003700 1.731300 -0.013330 
#    z 0.013940 -0.013330 1.652540 
# 
# From -- ./inp_files/529093.got.cif
#   From: 2010.06.25/outbox.cif.g09.slc.cpg/sg2_265_cif.got.tgz:529093.got - 2010.06.27 13:26:56.
