data_PCOD8041435
_publ_section_title
;
Structure prediction by ZEFSAII (Michael W. Deem and Ramdas Pophale) SiO2 
 PCOD8041435
Probable space group: P -1
;
_chemical_formula_sum "Si O2"
_cell_formula_units_Z 16
_cell_length_a 18.262131
_cell_length_b 6.129669
_cell_length_c 17.281364
_cell_angle_alpha 113.579621
_cell_angle_beta 149.739639
_cell_angle_gamma 55.098832
_cell_volume 778.477160
_symmetry_space_group_name_H-M "P -1"
_symmetry_group_IT_number 2
_symmetry_cell_setting 'triclinic'
loop_
_space_group_symop_operation_xyz
x,y,z
-x,-y,-z
loop_
_atom_site_type_symbol
_atom_site_label
_atom_site_fract_x
_atom_site_fract_y
_atom_site_fract_z
Si Si1 0.655830 0.338627 0.821824
Si Si2 0.213785 0.299114 0.923401
Si Si3 0.485254 0.265338 0.908406
Si Si4 0.128335 0.719207 0.115724
Si Si5 0.198809 0.137616 0.639477
Si Si6 0.644477 0.479629 0.331422
Si Si7 0.089560 0.222639 0.950446
Si Si8 0.959517 0.510540 0.593907
O O1 0.690014 0.341177 0.760015
O O2 0.460164 0.446978 0.673596
O O3 0.701831 0.547924 0.935686
O O4 0.759074 0.038295 0.908584
O O5 0.110612 0.208048 0.874896
O O6 0.085645 0.508805 0.773183
O O7 0.353798 0.028173 0.969587
O O8 0.315594 0.272697 0.781859
O O9 0.474986 0.311294 0.813216
O O10 0.500000 0.500000 0.000000
O O11 0.088522 0.748114 0.176520
O O12 0.092805 0.489465 0.018185
O O13 0.000000 0.000000 0.000000
O O14 0.112851 0.220239 0.487599
O O15 0.054486 0.245320 0.587606
O O16 0.310152 0.816171 0.700351
O O17 0.809649 0.499063 0.499897
#
# Coordination Sequence:
#
# PCOD8041435 Si02
#       8
#     2   2   2   2   2   2   2   2
#     4  10  19  32  58  83 110 141 182 227 274 325
#     4  11  21  35  54  84 108 141 187 235 273 322
#     4  11  23  34  56  81 107 142 190 238 283 316
#     4   8  16  30  52  86 114 143 166 220 278 327
#     4  10  22  41  52  71 109 150 191 233 273 336
#     4  11  21  38  55  78 108 147 185 229 279 332
#     4   9  17  32  54  83 117 135 178 225 271 330
#     4  10  24  36  54  75 108 151 189 226 283 327
#
# _framework density 20.552948000000001
#
# number of rings (size 3 to 8) (size 9 to 14) (size 15 to 20)
#    0.000    2.000    2.500    1.125    1.750    4.000 
#    0.000    0.000    0.000    0.750    0.000   30.625 
#    0.000    0.000    0.000    0.000    0.000    0.000 
#
# Total GULP energy -198238.782626 kJ/mol
# GULP energy per Si atom -12389.923914 kJ/mol
# Density = 2.050617 g / cm^3
# Si number density = 20.552948 Si / 1000 Ang^3
#
#
#
# Elastic Constant Matrix: (Units=GPa)
#
#
# Indices 1 2 3 4 5 6 
#
# 1 132.5208 -3.5867 29.7511 -12.1452 35.4667 -3.1337
# 2 -3.5867 80.3839 3.2667 -6.4083 5.4248 -1.2281
# 3 29.7511 3.2667 68.7782 -12.4604 9.3440 -0.1492
# 4 -12.1452 -6.4083 -12.4604 11.4055 -2.6984 1.2935
# 5 35.4667 5.4248 9.3440 -2.6984 30.8008 -7.2765
# 6 -3.1337 -1.2281 -0.1492 1.2935 -7.2765 24.6950
#
#
#
# Elastic Compliance Matrix: (Units=1/GPa)
#
#
# Indices 1 2 3 4 5 6 
#
# 1 0.012680 0.002335 -0.001904 0.009692 -0.014295 -0.003006
# 2 0.002335 0.013610 0.000786 0.009992 -0.004666 -0.000920
# 3 -0.001904 0.000786 0.019082 0.018873 -0.002510 -0.001815
# 4 0.009692 0.009992 0.018873 0.122792 -0.009644 -0.007433
# 5 -0.014295 -0.004666 -0.002510 -0.009644 0.052986 0.014057
# 6 -0.003006 -0.000920 -0.001815 -0.007433 0.014057 0.044587
#
#
# Mechanical properties :
#
#
# Convention : Reuss Voigt Hill
#
# Bulk Modulus (GPa) = 20.91867 37.83833 29.37850
# Shear Modulus (GPa) = 17.90577 30.19704 24.05141
#
# Velocity S-wave (km/s) = 2.95482 3.83721 3.42455
# Velocity P-wave (km/s) = 4.67347 6.17110 5.47374
#
# Compressibility (1/GPa) = 0.04780420
#
# Stress axis : x y z
#
# Youngs Moduli (GPa) = 78.86656 73.47583 52.40503
#
# Poissons Ratio (x) = -0.17154 0.09979
# Poissons Ratio (y) = -0.18412 -0.04118
# Poissons Ratio (z) = 0.15018 -0.05774
#
# Static dielectric constant tensor:
#      x y z
#    x 4.615960 0.104180 0.362570 
#    y 0.104180 3.844320 -0.246270 
#    z 0.362570 -0.246270 3.296690 
# 
# 
# High freq. dielectric constant tensor:
#      x y z
#    x 1.827220 0.009680 0.029010 
#    y 0.009680 1.809190 -0.021960 
#    z 0.029010 -0.021960 1.748220 
# 
# From -- ./inp_files/38454.got.cif
#   From: 2010.06.25/outbox.cif.g09.slc.cpg/sg2_20_cif.got.tgz:38454.got - 2010.06.27 13:26:56.
