data_PCOD8041820
_publ_section_title
;
Structure prediction by ZEFSAII (Michael W. Deem and Ramdas Pophale) SiO2 
 PCOD8041820
Probable space group: P -1
;
_chemical_formula_sum "Si O2"
_cell_formula_units_Z 16
_cell_length_a 15.047080
_cell_length_b 11.826380
_cell_length_c 9.006281
_cell_angle_alpha 124.095962
_cell_angle_beta 37.225446
_cell_angle_gamma 106.734911
_cell_volume 761.680715
_symmetry_space_group_name_H-M "P -1"
_symmetry_group_IT_number 2
_symmetry_cell_setting 'triclinic'
loop_
_space_group_symop_operation_xyz
x,y,z
-x,-y,-z
loop_
_atom_site_type_symbol
_atom_site_label
_atom_site_fract_x
_atom_site_fract_y
_atom_site_fract_z
Si Si1 0.215904 0.043007 0.717252
Si Si2 0.977235 0.987302 0.770159
Si Si3 0.943967 0.217215 0.754776
Si Si4 0.331365 0.570554 0.844291
Si Si5 0.710061 0.857929 0.725219
Si Si6 0.373495 0.282140 0.707429
Si Si7 0.561787 0.182136 0.105612
Si Si8 0.529751 0.868376 0.252890
O O1 0.254285 0.193240 0.765375
O O2 0.108760 0.032294 0.715986
O O3 0.371666 0.902578 0.391765
O O4 0.141836 0.039858 0.974207
O O5 0.044404 0.847405 0.474949
O O6 0.889631 0.117176 0.870143
O O7 0.109057 0.228740 0.597682
O O8 0.811866 0.373708 0.041504
O O9 0.500000 0.500000 0.500000
O O10 0.292470 0.453570 0.915464
O O11 0.344747 0.716126 0.012322
O O12 0.605603 0.777179 0.721281
O O13 0.672885 0.862051 0.952093
O O14 0.669438 0.017242 0.824385
O O15 0.524707 0.218105 0.355602
O O16 0.427512 0.271369 0.800690
O O17 0.500000 0.000000 0.500000
#
# Coordination Sequence:
#
# PCOD8041820 Si02
#       8
#     2   2   2   2   2   2   2   2
#     4  10  20  37  58  91 123 148 190 245 301 347
#     4  10  22  35  61  94 118 144 191 256 301 338
#     4  11  22  37  62  87 121 151 196 244 300 342
#     4  10  24  39  58  82 121 163 201 237 288 359
#     4  11  21  35  63  96 116 144 196 255 298 338
#     4  10  20  38  58  80 113 166 196 228 288 360
#     4  10  20  36  61  90 120 148 195 247 294 340
#     4  10  19  33  60  85 117 150 195 231 291 353
#
# _framework density 21.006177999999998
#
# number of rings (size 3 to 8) (size 9 to 14) (size 15 to 20)
#    0.000    1.750    2.500    3.750    7.000    0.000 
#    0.000    8.750    0.000    0.000    0.000    0.000 
#    0.000    0.000    0.000    0.000    0.000    0.000 
#
# Total GULP energy -198254.725307 kJ/mol
# GULP energy per Si atom -12390.920332 kJ/mol
# Density = 2.095837 g / cm^3
# Si number density = 21.006178 Si / 1000 Ang^3
#
#
#
# Elastic Constant Matrix: (Units=GPa)
#
#
# Indices 1 2 3 4 5 6 
#
# 1 83.6536 33.6004 18.7834 2.7712 -28.7947 -2.6074
# 2 33.6004 131.3838 23.7464 -0.0759 -23.5025 -6.2417
# 3 18.7834 23.7464 65.7212 -4.1317 -29.8728 -12.5740
# 4 2.7712 -0.0759 -4.1317 26.4579 -10.3554 -5.3744
# 5 -28.7947 -23.5025 -29.8728 -10.3554 40.5810 -2.8284
# 6 -2.6074 -6.2417 -12.5740 -5.3744 -2.8284 35.9128
#
#
#
# Elastic Compliance Matrix: (Units=1/GPa)
#
#
# Indices 1 2 3 4 5 6 
#
# 1 0.017346 -0.002105 0.004513 0.006225 0.016326 0.004691
# 2 -0.002105 0.009062 -0.000110 0.002387 0.004429 0.002090
# 3 0.004513 -0.000110 0.035926 0.023516 0.036932 0.019315
# 4 0.006225 0.002387 0.023516 0.060871 0.040132 0.021370
# 5 0.016326 0.004429 0.036932 0.040132 0.078104 0.027043
# 6 0.004691 0.002090 0.019315 0.021370 0.027043 0.040640
#
#
# Mechanical properties :
#
#
# Convention : Reuss Voigt Hill
#
# Bulk Modulus (GPa) = 14.94072 48.11321 31.52697
# Shear Modulus (GPa) = 19.25567 34.23224 26.74395
#
# Velocity S-wave (km/s) = 3.03094 4.04124 3.57199
# Velocity P-wave (km/s) = 4.40190 6.68802 5.66155
#
# Compressibility (1/GPa) = 0.06693116
#
# Stress axis : x y z
#
# Youngs Moduli (GPa) = 57.65044 110.34656 27.83467
#
# Poissons Ratio (x) = 0.23225 -0.12561
# Poissons Ratio (y) = 0.12134 0.00305
# Poissons Ratio (z) = -0.26016 0.01211
#
# Static dielectric constant tensor:
#      x y z
#    x 4.419990 -0.346070 -0.259950 
#    y -0.346070 4.357750 -0.051210 
#    z -0.259950 -0.051210 3.745870 
# 
# 
# High freq. dielectric constant tensor:
#      x y z
#    x 1.830380 -0.010040 -0.016710 
#    y -0.010040 1.814220 -0.025600 
#    z -0.016710 -0.025600 1.802020 
# 
# From -- ./inp_files/308248.got.cif
#   From: 2010.06.25/outbox.cif.g09.slc.cpg/sg2_155_cif.got.tgz:308248.got - 2010.06.27 13:26:56.
