data_PCOD8041452
_publ_section_title
;
Structure prediction by ZEFSAII (Michael W. Deem and Ramdas Pophale) SiO2 
 PCOD8041452
Probable space group: P -1
;
_chemical_formula_sum "Si O2"
_cell_formula_units_Z 16
_cell_length_a 8.440657
_cell_length_b 11.462427
_cell_length_c 8.297552
_cell_angle_alpha 71.447833
_cell_angle_beta 75.463563
_cell_angle_gamma 69.298765
_cell_volume 703.197311
_symmetry_space_group_name_H-M "P -1"
_symmetry_group_IT_number 2
_symmetry_cell_setting 'triclinic'
loop_
_space_group_symop_operation_xyz
x,y,z
-x,-y,-z
loop_
_atom_site_type_symbol
_atom_site_label
_atom_site_fract_x
_atom_site_fract_y
_atom_site_fract_z
Si Si1 0.400049 0.950442 0.326328
Si Si2 0.059965 0.885427 0.386576
Si Si3 0.981315 0.681817 0.301550
Si Si4 0.466576 0.190287 0.340029
Si Si5 0.175888 0.905262 0.848930
Si Si6 0.945178 0.792356 0.786035
Si Si7 0.266715 0.102000 0.934811
Si Si8 0.145203 0.406439 0.302015
O O1 0.221755 0.938803 0.308088
O O2 0.478293 0.829351 0.478482
O O3 0.533982 0.941770 0.148619
O O4 0.365193 0.085548 0.373966
O O5 0.009880 0.863897 0.592545
O O6 0.101375 0.760165 0.315283
O O7 0.887190 0.988582 0.321589
O O8 0.828372 0.767567 0.194081
O O9 0.897770 0.627654 0.493535
O O10 0.098902 0.559988 0.222497
O O11 0.629183 0.174732 0.193403
O O12 0.347445 0.334220 0.267799
O O13 0.064187 0.802372 0.909978
O O14 0.172652 0.988511 0.977261
O O15 0.955309 0.649506 0.787145
O O16 0.753202 0.865021 0.880452
#
# Coordination Sequence:
#
# PCOD8041452 Si02
#       8
#     2   2   2   2   2   2   2   2
#     4  10  19  33  58  84 112 142 179 225 273 332
#     4  10  20  36  61  83 107 146 192 223 266 326
#     4   9  20  38  58  76 110 149 188 230 266 324
#     4  10  19  32  59  82 108 143 185 225 266 321
#     4  10  20  36  58  82 114 146 180 222 274 336
#     4  11  21  33  57  87 112 142 183 227 275 333
#     4  10  21  37  55  85 117 144 173 228 290 318
#     4  10  20  37  57  81 106 149 195 222 266 324
#
# _framework density 22.753215999999998
#
# number of rings (size 3 to 8) (size 9 to 14) (size 15 to 20)
#    0.000    2.000    2.500    1.500    5.250    0.500 
#    0.000   10.000    0.000    1.500    0.000    0.000 
#    0.000    0.000    0.000    0.000    0.000    0.000 
#
# Total GULP energy -198262.642101 kJ/mol
# GULP energy per Si atom -12391.415131 kJ/mol
# Density = 2.270143 g / cm^3
# Si number density = 22.753216 Si / 1000 Ang^3
#
#
#
# Elastic Constant Matrix: (Units=GPa)
#
#
# Indices 1 2 3 4 5 6 
#
# 1 96.6185 49.5802 19.1115 13.3781 -9.3795 -5.8840
# 2 49.5802 147.6487 30.9264 29.5215 -8.7820 -4.3999
# 3 19.1115 30.9264 55.7160 23.8363 11.0742 12.5243
# 4 13.3781 29.5215 23.8363 27.2359 3.8379 2.3721
# 5 -9.3795 -8.7820 11.0742 3.8379 23.6574 2.4751
# 6 -5.8840 -4.3999 12.5243 2.3721 2.4751 26.5689
#
#
#
# Elastic Compliance Matrix: (Units=1/GPa)
#
#
# Indices 1 2 3 4 5 6 
#
# 1 0.013855 -0.002981 -0.005275 -0.000254 0.006428 0.004485
# 2 -0.002981 0.010400 -0.002800 -0.008302 0.005059 0.002652
# 3 -0.005275 -0.002800 0.038489 -0.024469 -0.015489 -0.016148
# 4 -0.000254 -0.008302 -0.024469 0.067311 -0.003107 0.004383
# 5 0.006428 0.005059 -0.015489 -0.003107 0.053947 0.004814
# 6 0.004485 0.002652 -0.016148 0.004383 0.004814 0.045843
#
#
# Mechanical properties :
#
#
# Convention : Reuss Voigt Hill
#
# Bulk Modulus (GPa) = 24.61138 55.46884 40.04011
# Shear Modulus (GPa) = 18.83227 28.85012 23.84120
#
# Velocity S-wave (km/s) = 2.88006 3.56470 3.24051
# Velocity P-wave (km/s) = 4.67972 6.43228 5.62468
#
# Compressibility (1/GPa) = 0.04063162
#
# Stress axis : x y z
#
# Youngs Moduli (GPa) = 72.17366 96.15181 25.98158
#
# Poissons Ratio (x) = 0.28661 0.13706
# Poissons Ratio (y) = 0.21514 0.07276
# Poissons Ratio (z) = 0.38072 0.26927
#
# Static dielectric constant tensor:
#      x y z
#    x 4.276890 0.100240 0.186270 
#    y 0.100240 4.338920 0.291260 
#    z 0.186270 0.291260 4.118310 
# 
# 
# High freq. dielectric constant tensor:
#      x y z
#    x 1.900480 -0.000770 0.010190 
#    y -0.000770 1.871540 0.023490 
#    z 0.010190 0.023490 1.910630 
# 
# From -- ./inp_files/177557.got.cif
#   From: 2010.06.25/outbox.cif.g09.slc.cpg/sg2_89_cif.got.tgz:177557.got - 2010.06.27 13:26:56.
