data_PCOD8041493
_publ_section_title
;
Structure prediction by ZEFSAII (Michael W. Deem and Ramdas Pophale) SiO2 
 PCOD8041493
Probable space group: P -1
;
_chemical_formula_sum "Si O2"
_cell_formula_units_Z 12
_cell_length_a 18.888791
_cell_length_b 5.311738
_cell_length_c 12.496244
_cell_angle_alpha 81.740402
_cell_angle_beta 34.189158
_cell_angle_gamma 73.692664
_cell_volume 666.998811
_symmetry_space_group_name_H-M "P -1"
_symmetry_group_IT_number 2
_symmetry_cell_setting 'triclinic'
loop_
_space_group_symop_operation_xyz
x,y,z
-x,-y,-z
loop_
_atom_site_type_symbol
_atom_site_label
_atom_site_fract_x
_atom_site_fract_y
_atom_site_fract_z
Si Si1 0.016221 0.612897 0.802677
Si Si2 0.354155 0.566969 0.720953
Si Si3 0.874241 0.370925 0.559778
Si Si4 0.255248 0.074500 0.942899
Si Si5 0.892448 0.270534 0.100646
Si Si6 0.830849 0.860245 0.717440
O O1 0.113074 0.555644 0.584306
O O2 0.107786 0.582824 0.794870
O O3 0.893750 0.881420 0.921201
O O4 0.939719 0.393055 0.927894
O O5 0.500000 0.500000 0.500000
O O6 0.324922 0.289670 0.800673
O O7 0.256536 0.726969 0.738671
O O8 0.337119 0.772942 0.828663
O O9 0.791363 0.642928 0.705617
O O10 0.015317 0.256288 0.444498
O O11 0.800044 0.143499 0.677140
O O12 0.253068 0.097163 0.072117
O O13 0.000000 0.000000 0.000000
#
# Coordination Sequence:
#
# PCOD8041493 Si02
#       6
#     2   2   2   2   2   2
#     4   9  19  30  49  76 104 138 164 209 255 303
#     4  11  22  35  53  77 103 135 173 208 246 304
#     4   9  17  27  44  72 102 126 165 202 249 299
#     4  10  19  34  52  73 105 136 167 208 258 297
#     4  10  19  33  51  73 107 137 167 203 260 302
#     4   9  17  28  45  70 100 132 159 204 253 297
#
# _framework density 17.991036000000001
#
# number of rings (size 3 to 8) (size 9 to 14) (size 15 to 20)
#    0.000    2.333    1.667    1.500    2.333    4.000 
#    0.000    0.000    0.000    0.000    0.000    7.000 
#    0.000    0.000    0.000    0.000    0.000    0.000 
#
# Total GULP energy -148676.278696 kJ/mol
# GULP energy per Si atom -12389.689891 kJ/mol
# Density = 1.795009 g / cm^3
# Si number density = 17.991036 Si / 1000 Ang^3
#
#
#
# Elastic Constant Matrix: (Units=GPa)
#
#
# Indices 1 2 3 4 5 6 
#
# 1 62.4638 36.6280 56.7370 -4.3090 8.2270 -0.6722
# 2 36.6280 99.7929 40.4066 3.6882 11.6579 16.0045
# 3 56.7370 40.4066 107.0119 4.2893 13.7263 0.5777
# 4 -4.3090 3.6882 4.2893 27.7807 -3.1284 7.7063
# 5 8.2270 11.6579 13.7263 -3.1284 29.1233 -0.2839
# 6 -0.6722 16.0045 0.5777 7.7063 -0.2839 25.8480
#
#
#
# Elastic Compliance Matrix: (Units=1/GPa)
#
#
# Indices 1 2 3 4 5 6 
#
# 1 0.036169 -0.007487 -0.016925 0.008450 0.001698 0.003454
# 2 -0.007487 0.015224 -0.001238 -0.000786 -0.003571 -0.009398
# 3 -0.016925 -0.001238 0.019635 -0.006510 -0.004659 0.001777
# 4 0.008450 -0.000786 -0.006510 0.042270 0.005423 -0.011691
# 5 0.001698 -0.003571 -0.004659 0.005423 0.038077 0.001161
# 6 0.003454 -0.009398 0.001777 -0.011691 0.001161 0.048055
#
#
# Mechanical properties :
#
#
# Convention : Reuss Voigt Hill
#
# Bulk Modulus (GPa) = 50.69167 59.64576 55.16871
# Shear Modulus (GPa) = 19.43209 25.58351 22.50780
#
# Velocity S-wave (km/s) = 3.29005 3.77505 3.54086
# Velocity P-wave (km/s) = 6.53221 7.22678 6.88826
#
# Compressibility (1/GPa) = 0.01972711
#
# Stress axis : x y z
#
# Youngs Moduli (GPa) = 27.64770 65.68659 50.93010
#
# Poissons Ratio (x) = 0.49182 0.86198
# Poissons Ratio (y) = 0.20701 0.06306
# Poissons Ratio (z) = 0.46793 0.08134
#
# Static dielectric constant tensor:
#      x y z
#    x 4.183130 1.782540 1.564720 
#    y 1.782540 4.260160 0.657920 
#    z 1.564720 0.657920 3.753660 
# 
# 
# High freq. dielectric constant tensor:
#      x y z
#    x 1.663570 0.014170 0.033020 
#    y 0.014170 1.706970 -0.006660 
#    z 0.033020 -0.006660 1.672050 
# 
# From -- ./inp_files/18918.got.cif
#   From: 2010.06.25/outbox.cif.g09.slc.cpg/sg2_10_cif.got.tgz:18918.got - 2010.06.27 13:26:56.
