data_PCOD8041419
_publ_section_title
;
Structure prediction by ZEFSAII (Michael W. Deem and Ramdas Pophale) SiO2 
 PCOD8041419
Probable space group: P -1
;
_chemical_formula_sum "Si O2"
_cell_formula_units_Z 16
_cell_length_a 9.045587
_cell_length_b 9.037762
_cell_length_c 13.435972
_cell_angle_alpha 119.621016
_cell_angle_beta 63.281207
_cell_angle_gamma 84.559975
_cell_volume 778.583818
_symmetry_space_group_name_H-M "P -1"
_symmetry_group_IT_number 2
_symmetry_cell_setting 'triclinic'
loop_
_space_group_symop_operation_xyz
x,y,z
-x,-y,-z
loop_
_atom_site_type_symbol
_atom_site_label
_atom_site_fract_x
_atom_site_fract_y
_atom_site_fract_z
Si Si1 0.386349 0.371606 0.774321
Si Si2 0.114208 0.290355 0.177386
Si Si3 0.656506 0.528785 0.742851
Si Si4 0.061385 0.727739 0.978014
Si Si5 0.690625 0.961566 0.242886
Si Si6 0.152464 0.524916 0.526319
Si Si7 0.664951 0.093785 0.078135
Si Si8 0.552083 0.655900 0.484681
O O1 0.558781 0.404226 0.778273
O O2 0.198804 0.536084 0.924669
O O3 0.404650 0.172100 0.737410
O O4 0.380066 0.396492 0.665334
O O5 0.182556 0.455992 0.235151
O O6 0.043965 0.319171 0.095793
O O7 0.953260 0.306149 0.308698
O O8 0.273944 0.083761 0.073699
O O9 0.720340 0.438606 0.583152
O O10 0.513083 0.741815 0.852127
O O11 0.168433 0.844746 0.941907
O O12 0.909647 0.851485 0.145427
O O13 0.621972 0.031350 0.176933
O O14 0.616988 0.142534 0.396602
O O15 0.277987 0.349300 0.500051
O O16 0.000000 0.500000 0.500000
O O17 0.500000 0.500000 0.500000
#
# Coordination Sequence:
#
# PCOD8041419 Si02
#       8
#     2   2   2   2   2   2   2   2
#     4  11  22  37  56  82 114 150 181 227 274 332
#     4  10  19  32  57  84 108 140 186 233 276 316
#     4  10  20  36  55  82 110 144 184 229 275 326
#     4  10  21  37  59  83 112 146 187 232 271 325
#     4  11  22  35  56  85 115 142 184 230 278 323
#     4  10  20  34  57  84 106 137 185 232 275 315
#     4  10  20  35  58  84 109 141 188 234 269 326
#     4  12  21  37  61  83 109 142 189 229 274 326
#
# _framework density 20.550132000000001
#
# number of rings (size 3 to 8) (size 9 to 14) (size 15 to 20)
#    0.000    1.500    3.750    3.375    1.750    0.000 
#    0.000    2.500    0.000    7.500    0.000    0.000 
#    0.000    0.000    0.000    0.000    0.000    0.000 
#
# Total GULP energy -198254.531408 kJ/mol
# GULP energy per Si atom -12390.908213 kJ/mol
# Density = 2.050336 g / cm^3
# Si number density = 20.550132 Si / 1000 Ang^3
#
#
#
# Elastic Constant Matrix: (Units=GPa)
#
#
# Indices 1 2 3 4 5 6 
#
# 1 82.6243 19.6094 10.3395 -2.6851 -3.8774 14.6132
# 2 19.6094 105.0245 14.6509 6.9863 -4.1291 24.1615
# 3 10.3395 14.6509 105.6584 19.2350 -18.3533 7.6743
# 4 -2.6851 6.9863 19.2350 24.3998 -0.5241 -0.0047
# 5 -3.8774 -4.1291 -18.3533 -0.5241 28.0492 0.5736
# 6 14.6132 24.1615 7.6743 -0.0047 0.5736 18.8457
#
#
#
# Elastic Compliance Matrix: (Units=1/GPa)
#
#
# Indices 1 2 3 4 5 6 
#
# 1 0.014261 -0.000218 -0.000702 0.002221 0.001737 -0.010545
# 2 -0.000218 0.014075 0.000711 -0.004558 0.002795 -0.018251
# 3 -0.000702 0.000711 0.013300 -0.010581 0.008636 -0.006048
# 4 0.002221 -0.004558 -0.010581 0.050737 -0.006516 0.008641
# 5 0.001737 0.002795 0.008636 -0.006516 0.042031 -0.009728
# 6 -0.010545 -0.018251 -0.006048 0.008641 -0.009728 0.087400
#
#
# Mechanical properties :
#
#
# Convention : Reuss Voigt Hill
#
# Bulk Modulus (GPa) = 24.26155 42.50078 33.38117
# Shear Modulus (GPa) = 21.18972 30.83944 26.01458
#
# Velocity S-wave (km/s) = 3.21459 3.87808 3.56182
# Velocity P-wave (km/s) = 5.06061 6.38585 5.76146
#
# Compressibility (1/GPa) = 0.04121748
#
# Stress axis : x y z
#
# Youngs Moduli (GPa) = 70.11964 71.04718 75.18555
#
# Poissons Ratio (x) = 0.01551 0.05277
# Poissons Ratio (y) = 0.01531 -0.05342
# Poissons Ratio (z) = 0.04922 -0.05048
#
# Static dielectric constant tensor:
#      x y z
#    x 3.848310 0.131640 -0.352830 
#    y 0.131640 3.400560 0.069440 
#    z -0.352830 0.069440 4.497830 
# 
# 
# High freq. dielectric constant tensor:
#      x y z
#    x 1.800050 0.013040 -0.018060 
#    y 0.013040 1.762000 0.004610 
#    z -0.018060 0.004610 1.825860 
# 
# From -- ./inp_files/320710.got.cif
#   From: 2010.06.25/outbox.cif.g09.slc.cpg/sg2_161_cif.got.tgz:320710.got - 2010.06.27 13:26:56.
