data_PCOD8041335
_publ_section_title
;
Structure prediction by ZEFSAII (Michael W. Deem and Ramdas Pophale) SiO2 
 PCOD8041335
Probable space group: P -1
;
_chemical_formula_sum "Si O2"
_cell_formula_units_Z 14
_cell_length_a 20.100750
_cell_length_b 17.387475
_cell_length_c 11.167072
_cell_angle_alpha 36.622324
_cell_angle_beta 146.908765
_cell_angle_gamma 160.212169
_cell_volume 719.237563
_symmetry_space_group_name_H-M "P -1"
_symmetry_group_IT_number 2
_symmetry_cell_setting 'triclinic'
loop_
_space_group_symop_operation_xyz
x,y,z
-x,-y,-z
loop_
_atom_site_type_symbol
_atom_site_label
_atom_site_fract_x
_atom_site_fract_y
_atom_site_fract_z
Si Si1 0.760789 0.168821 0.452484
Si Si2 0.644617 0.184940 0.591510
Si Si3 0.664079 0.028297 0.226231
Si Si4 0.359157 0.529139 0.362288
Si Si5 0.866297 0.165228 0.108853
Si Si6 0.202745 0.533894 0.738873
Si Si7 0.470906 0.347953 0.795713
O O1 0.742562 0.307601 0.278450
O O2 0.949499 0.274267 0.690500
O O3 0.527576 0.903270 0.464845
O O4 0.807819 0.181215 0.368994
O O5 0.788620 0.414840 0.452205
O O6 0.500000 0.000000 0.500000
O O7 0.795943 0.215001 0.848880
O O8 0.535456 0.783461 0.356393
O O9 0.820059 0.163251 0.178515
O O10 0.500000 0.000000 0.000000
O O11 0.396657 0.427477 0.615904
O O12 0.388108 0.531960 0.261696
O O13 0.120025 0.369784 0.224464
O O14 0.741624 0.925293 0.188504
O O15 0.364841 0.557082 0.972607
#
# Coordination Sequence:
#
# PCOD8041335 Si02
#       7
#     2   2   2   2   2   2   2
#     4  10  20  36  55  85 116 145 186 234 286 332
#     4  10  19  32  53  90 113 137 186 233 280 335
#     4  11  22  39  54  85 122 148 188 235 278 348
#     4  10  24  36  60  82 115 156 187 231 291 330
#     4  11  21  36  61  88 115 148 189 235 286 334
#     4  10  21  34  62  84 110 146 189 239 286 326
#     4  10  20  41  56  86 115 145 197 239 271 341
#
# _framework density 19.465057000000002
#
# number of rings (size 3 to 8) (size 9 to 14) (size 15 to 20)
#    0.000    1.714    4.286    1.286    8.000    1.714 
#    0.000    0.714    0.000    1.714    0.000    0.000 
#    0.000    0.000    0.000    0.000    0.000    0.000 
#
# Total GULP energy -173536.698732 kJ/mol
# GULP energy per Si atom -12395.478481 kJ/mol
# Density = 1.942075 g / cm^3
# Si number density = 19.465057 Si / 1000 Ang^3
#
#
#
# Elastic Constant Matrix: (Units=GPa)
#
#
# Indices 1 2 3 4 5 6 
#
# 1 88.4231 37.7959 50.0843 8.5063 -7.3312 2.8433
# 2 37.7959 72.0505 47.9567 14.5395 2.7475 12.5139
# 3 50.0843 47.9567 127.3908 8.2425 -6.4380 0.7001
# 4 8.5063 14.5395 8.2425 30.9354 2.9476 2.1372
# 5 -7.3312 2.7475 -6.4380 2.9476 19.3592 5.4136
# 6 2.8433 12.5139 0.7001 2.1372 5.4136 28.4703
#
#
#
# Elastic Compliance Matrix: (Units=1/GPa)
#
#
# Indices 1 2 3 4 5 6 
#
# 1 0.016786 -0.006230 -0.003865 -0.001247 0.006121 0.000087
# 2 -0.006230 0.024597 -0.006534 -0.007078 -0.004530 -0.008636
# 3 -0.003865 -0.006534 0.011916 0.000537 0.002669 0.002417
# 4 -0.001247 -0.007078 0.000537 0.036247 -0.005226 0.001495
# 5 0.006121 -0.004530 0.002669 -0.005226 0.058957 -0.009504
# 6 0.000087 -0.008636 0.002417 0.001495 -0.009504 0.040547
#
#
# Mechanical properties :
#
#
# Convention : Reuss Voigt Hill
#
# Bulk Modulus (GPa) = 49.89530 62.17092 56.03311
# Shear Modulus (GPa) = 21.83527 25.88813 23.86170
#
# Velocity S-wave (km/s) = 3.35291 3.65085 3.50505
# Velocity P-wave (km/s) = 6.37795 7.05554 6.72529
#
# Compressibility (1/GPa) = 0.02004197
#
# Stress axis : x y z
#
# Youngs Moduli (GPa) = 59.57373 40.65492 83.92262
#
# Poissons Ratio (x) = 0.25328 0.32432
# Poissons Ratio (y) = 0.37115 0.54834
# Poissons Ratio (z) = 0.23023 0.26563
#
# Static dielectric constant tensor:
#      x y z
#    x 3.336680 0.709770 0.226460 
#    y 0.709770 3.487260 -0.417800 
#    z 0.226460 -0.417800 3.238190 
# 
# 
# High freq. dielectric constant tensor:
#      x y z
#    x 1.745910 0.021490 -0.013310 
#    y 0.021490 1.761260 0.014350 
#    z -0.013310 0.014350 1.745180 
# 
# From -- ./inp_files/472358.got.cif
#   From: 2010.06.25/outbox.cif.g09.slc.cpg/sg2_237_cif.got.tgz:472358.got - 2010.06.27 13:26:56.
