data_PCOD8041583
_publ_section_title
;
Structure prediction by ZEFSAII (Michael W. Deem and Ramdas Pophale) SiO2 
 PCOD8041583
Probable space group: P -1
;
_chemical_formula_sum "Si O2"
_cell_formula_units_Z 16
_cell_length_a 5.122998
_cell_length_b 11.354951
_cell_length_c 17.267095
_cell_angle_alpha 68.689828
_cell_angle_beta 123.788471
_cell_angle_gamma 104.921400
_cell_volume 775.725407
_symmetry_space_group_name_H-M "P -1"
_symmetry_group_IT_number 2
_symmetry_cell_setting 'triclinic'
loop_
_space_group_symop_operation_xyz
x,y,z
-x,-y,-z
loop_
_atom_site_type_symbol
_atom_site_label
_atom_site_fract_x
_atom_site_fract_y
_atom_site_fract_z
Si Si1 0.231414 0.865371 0.406411
Si Si2 0.891664 0.912073 0.573267
Si Si3 0.952355 0.352547 0.355196
Si Si4 0.155636 0.939244 0.967896
Si Si5 0.880380 0.129985 0.785024
Si Si6 0.396358 0.505552 0.288909
Si Si7 0.573778 0.250963 0.849530
Si Si8 0.819058 0.623530 0.452143
O O1 0.535801 0.854916 0.512869
O O2 0.309233 0.864068 0.328172
O O3 0.993526 0.747504 0.414917
O O4 0.083618 0.000013 0.367321
O O5 0.112003 0.794284 0.646093
O O6 0.000000 0.000000 0.500000
O O7 0.072667 0.431246 0.280622
O O8 0.223613 0.357474 0.466763
O O9 0.638294 0.403465 0.327158
O O10 0.957353 0.981753 0.850133
O O11 0.201771 0.791028 0.031557
O O12 0.500000 0.000000 0.000000
O O13 0.000000 0.000000 0.000000
O O14 0.203919 0.221055 0.814039
O O15 0.652621 0.175125 0.803068
O O16 0.348208 0.598517 0.186212
O O17 0.497692 0.595537 0.357880
O O18 0.000000 0.500000 0.500000
#
# Coordination Sequence:
#
# PCOD8041583 Si02
#       8
#     2   2   2   2   2   2   2   2
#     4  11  23  37  55  78 105 149 187 224 270 314
#     4  11  24  39  54  70 105 148 196 234 261 297
#     4  11  23  38  51  73 105 144 185 226 262 308
#     4   8  16  31  50  77 112 142 161 207 264 330
#     4  10  20  33  54  82 111 139 178 213 267 328
#     4  11  22  34  55  80 107 139 177 215 273 331
#     4  10  19  33  54  82 115 139 168 209 273 337
#     4  10  20  34  50  75 107 136 173 217 267 316
#
# _framework density 20.625855999999999
#
# number of rings (size 3 to 8) (size 9 to 14) (size 15 to 20)
#    0.000    1.750    2.500    2.625    7.000    0.000 
#    0.000    0.000    0.000    0.000    0.000    1.750 
#    0.000    0.000    0.000    0.000    0.000    0.000 
#
# Total GULP energy -198219.116170 kJ/mol
# GULP energy per Si atom -12388.694761 kJ/mol
# Density = 2.057891 g / cm^3
# Si number density = 20.625856 Si / 1000 Ang^3
#
#
#
# Elastic Constant Matrix: (Units=GPa)
#
#
# Indices 1 2 3 4 5 6 
#
# 1 72.4436 10.1690 -9.1137 0.2278 -12.1397 -2.4519
# 2 10.1690 90.0510 18.7065 -21.8798 -4.8646 -12.9578
# 3 -9.1137 18.7065 67.8201 -28.5537 -8.4617 4.6203
# 4 0.2278 -21.8798 -28.5537 28.3908 3.0317 -1.8868
# 5 -12.1397 -4.8646 -8.4617 3.0317 22.7156 -6.9946
# 6 -2.4519 -12.9578 4.6203 -1.8868 -6.9946 26.5157
#
#
#
# Elastic Compliance Matrix: (Units=1/GPa)
#
#
# Indices 1 2 3 4 5 6 
#
# 1 0.016534 -0.001089 0.004967 0.003061 0.011050 0.003264
# 2 -0.001089 0.015905 0.001030 0.013475 0.004367 0.009603
# 3 0.004967 0.001030 0.028101 0.028013 0.009803 0.000645
# 4 0.003061 0.013475 0.028013 0.073520 0.008018 0.009333
# 5 0.011050 0.004367 0.009803 0.008018 0.058846 0.017541
# 6 0.003264 0.009603 0.000645 0.009333 0.017541 0.047887
#
#
# Mechanical properties :
#
#
# Convention : Reuss Voigt Hill
#
# Bulk Modulus (GPa) = 14.21300 29.98203 22.09751
# Shear Modulus (GPa) = 19.65188 29.56128 24.60658
#
# Velocity S-wave (km/s) = 3.09006 3.78989 3.45773
# Velocity P-wave (km/s) = 4.43138 5.80678 5.16507
#
# Compressibility (1/GPa) = 0.07035812
#
# Stress axis : x y z
#
# Youngs Moduli (GPa) = 60.48119 62.87172 35.58567
#
# Poissons Ratio (x) = 0.06844 -0.17676
# Poissons Ratio (y) = 0.06584 -0.03666
# Poissons Ratio (z) = -0.30042 -0.06477
#
# Static dielectric constant tensor:
#      x y z
#    x 3.859490 -0.126240 -0.061630 
#    y -0.126240 3.507310 -0.349980 
#    z -0.061630 -0.349980 4.365650 
# 
# 
# High freq. dielectric constant tensor:
#      x y z
#    x 1.820820 -0.010630 -0.012970 
#    y -0.010630 1.775330 -0.052470 
#    z -0.012970 -0.052470 1.782760 
# 
# From -- ./inp_files/367001.got.cif
#   From: 2010.06.25/outbox.cif.g09.slc.cpg/sg2_184_cif.got.tgz:367001.got - 2010.06.27 13:26:56.
