data_PCOD8041166
_publ_section_title
;
Structure prediction by ZEFSAII (Michael W. Deem and Ramdas Pophale) SiO2 
 PCOD8041166
Probable space group: P -1
;
_chemical_formula_sum "Si O2"
_cell_formula_units_Z 14
_cell_length_a 21.080972
_cell_length_b 14.958745
_cell_length_c 12.103388
_cell_angle_alpha 28.210355
_cell_angle_beta 156.038460
_cell_angle_gamma 151.050432
_cell_volume 682.626188
_symmetry_space_group_name_H-M "P -1"
_symmetry_group_IT_number 2
_symmetry_cell_setting 'triclinic'
loop_
_space_group_symop_operation_xyz
x,y,z
-x,-y,-z
loop_
_atom_site_type_symbol
_atom_site_label
_atom_site_fract_x
_atom_site_fract_y
_atom_site_fract_z
Si Si1 0.949071 0.258867 0.685688
Si Si2 0.686219 0.609170 0.881766
Si Si3 0.655313 0.180668 0.674132
Si Si4 0.676483 0.245475 0.112135
Si Si5 0.732618 0.971436 0.834793
Si Si6 0.678606 0.542204 0.187297
Si Si7 0.582516 0.177284 0.800749
O O1 0.825043 0.180195 0.469581
O O2 0.856909 0.161561 0.758083
O O3 0.000000 0.500000 0.500000
O O4 0.123787 0.219257 0.998071
O O5 0.557605 0.722300 0.540970
O O6 0.666640 0.450561 0.924793
O O7 0.656882 0.485577 0.084903
O O8 0.726993 0.024799 0.897708
O O9 0.748917 0.391366 0.527658
O O10 0.699668 0.215278 0.836641
O O11 0.453164 0.092437 0.442852
O O12 0.500428 0.064447 0.051492
O O13 0.702304 0.276759 0.987084
O O14 0.792806 0.779738 0.128839
O O15 0.500000 0.500000 0.000000
#
# Coordination Sequence:
#
# PCOD8041166 Si02
#       7
#     2   2   2   2   2   2   2
#     4  10  20  36  58  82 112 145 183 222 279 323
#     4  11  21  36  58  82 112 140 182 232 268 322
#     4  10  19  32  54  79 111 138 181 230 270 314
#     4  10  22  36  52  82 114 146 178 221 272 331
#     4  10  19  33  52  81 110 140 179 232 268 314
#     4  10  19  31  52  84 107 134 184 226 274 312
#     4  11  21  35  55  84 110 144 183 218 280 324
#
# _framework density 20.509028000000001
#
# number of rings (size 3 to 8) (size 9 to 14) (size 15 to 20)
#    0.000    1.714    4.286    2.143    4.000    2.286 
#    0.000    0.000    0.000    7.714    0.000    7.000 
#    0.000    0.000    0.000    0.000    0.000    0.000 
#
# Total GULP energy -173498.848928 kJ/mol
# GULP energy per Si atom -12392.774923 kJ/mol
# Density = 2.046235 g / cm^3
# Si number density = 20.509028 Si / 1000 Ang^3
#
#
#
# Elastic Constant Matrix: (Units=GPa)
#
#
# Indices 1 2 3 4 5 6 
#
# 1 154.0775 49.6660 36.1424 10.4931 -34.9635 -21.0536
# 2 49.6660 76.1212 18.5483 -8.5915 -10.4788 -3.7846
# 3 36.1424 18.5483 46.2209 1.4625 -11.3809 -8.5007
# 4 10.4931 -8.5915 1.4625 28.1256 -0.5452 -4.4061
# 5 -34.9635 -10.4788 -11.3809 -0.5452 30.8270 0.2814
# 6 -21.0536 -3.7846 -8.5007 -4.4061 0.2814 41.4290
#
#
#
# Elastic Compliance Matrix: (Units=1/GPa)
#
#
# Indices 1 2 3 4 5 6 
#
# 1 0.012950 -0.006422 -0.003842 -0.005672 0.010945 0.004529
# 2 -0.006422 0.018739 -0.003518 0.008043 -0.002057 -0.001404
# 3 -0.003842 -0.003518 0.027837 -0.000472 0.004685 0.003356
# 4 -0.005672 0.008043 -0.000472 0.040416 -0.003177 0.002075
# 5 0.010945 -0.002057 0.004685 -0.003177 0.045775 0.005686
# 6 0.004529 -0.001404 0.003356 0.002075 0.005686 0.027181
#
#
# Mechanical properties :
#
#
# Convention : Reuss Voigt Hill
#
# Bulk Modulus (GPa) = 31.28624 53.90367 42.59495
# Shear Modulus (GPa) = 23.68384 31.54719 27.61551
#
# Velocity S-wave (km/s) = 3.40192 3.92626 3.67346
# Velocity P-wave (km/s) = 5.54245 6.84792 6.22947
#
# Compressibility (1/GPa) = 0.03196293
#
# Stress axis : x y z
#
# Youngs Moduli (GPa) = 77.21928 53.36560 35.92366
#
# Poissons Ratio (x) = 0.34269 0.13802
# Poissons Ratio (y) = 0.49587 0.12637
# Poissons Ratio (z) = 0.29669 0.18772
#
# Static dielectric constant tensor:
#      x y z
#    x 3.956720 -0.003960 -0.095190 
#    y -0.003960 4.134580 -0.364730 
#    z -0.095190 -0.364730 3.866890 
# 
# 
# High freq. dielectric constant tensor:
#      x y z
#    x 1.816240 -0.007700 -0.005060 
#    y -0.007700 1.788350 -0.034490 
#    z -0.005060 -0.034490 1.767600 
# 
# From -- ./inp_files/422899.got.cif
#   From: 2010.06.25/outbox.cif.g09.slc.cpg/sg2_212_cif.got.tgz:422899.got - 2010.06.27 13:26:56.
