data_PCOD8041883
_publ_section_title
;
Structure prediction by ZEFSAII (Michael W. Deem and Ramdas Pophale) SiO2 
 PCOD8041883
Probable space group: P -1
;
_chemical_formula_sum "Si O2"
_cell_formula_units_Z 16
_cell_length_a 11.797084
_cell_length_b 17.002834
_cell_length_c 19.604151
_cell_angle_alpha 19.036233
_cell_angle_beta 41.334997
_cell_angle_gamma 48.244411
_cell_volume 829.359833
_symmetry_space_group_name_H-M "P -1"
_symmetry_group_IT_number 2
_symmetry_cell_setting 'triclinic'
loop_
_space_group_symop_operation_xyz
x,y,z
-x,-y,-z
loop_
_atom_site_type_symbol
_atom_site_label
_atom_site_fract_x
_atom_site_fract_y
_atom_site_fract_z
Si Si1 0.766033 0.067099 0.066064
Si Si2 0.048798 0.825837 0.499344
Si Si3 0.988600 0.780375 0.283631
Si Si4 0.565545 0.776034 0.687823
Si Si5 0.351631 0.977047 0.329860
Si Si6 0.208847 0.854066 0.631493
Si Si7 0.112313 0.372096 0.402575
Si Si8 0.249027 0.442580 0.056879
O O1 0.557814 0.004416 0.206590
O O2 0.819711 0.854373 0.262938
O O3 0.853891 0.335461 0.837213
O O4 0.839739 0.053705 0.966273
O O5 0.023607 0.704493 0.535435
O O6 0.253524 0.872114 0.390086
O O7 0.986001 0.088486 0.320507
O O8 0.937157 0.637152 0.758038
O O9 0.973081 0.808572 0.348923
O O10 0.000000 0.500000 0.500000
O O11 0.699725 0.688755 0.647134
O O12 0.396516 0.554183 0.956308
O O13 0.500000 0.000000 0.500000
O O14 0.663642 0.875339 0.632458
O O15 0.266576 0.788376 0.583656
O O16 0.306771 0.238363 0.151985
O O17 0.232003 0.653045 0.838975
#
# Coordination Sequence:
#
# PCOD8041883 Si02
#       8
#     2   2   2   2   2   2   2   2
#     4  10  21  37  64  85 104 140 186 237 288 329
#     4  10  23  35  49  82 118 153 188 221 264 334
#     4   9  21  40  62  87 106 131 183 244 292 332
#     4   9  18  29  51  85 111 145 186 226 265 320
#     4  11  22  34  54  82 113 148 192 225 271 330
#     4   9  20  32  51  77 114 158 188 227 264 320
#     4  10  20  37  58  80 114 148 183 231 278 327
#     4  10  19  34  51  76 118 154 190 225 270 315
#
# _framework density 19.291989000000001
#
# number of rings (size 3 to 8) (size 9 to 14) (size 15 to 20)
#    0.000    2.250    1.250    1.500    5.250    5.500 
#    0.000    0.625    0.000    6.750    0.000    0.000 
#    0.000    0.000    0.000    0.000    0.000    0.000 
#
# Total GULP energy -198260.592071 kJ/mol
# GULP energy per Si atom -12391.287004 kJ/mol
# Density = 1.924808 g / cm^3
# Si number density = 19.291989 Si / 1000 Ang^3
#
#
#
# Elastic Constant Matrix: (Units=GPa)
#
#
# Indices 1 2 3 4 5 6 
#
# 1 134.8226 54.8727 61.7481 12.8340 -14.9633 -4.6188
# 2 54.8727 81.4619 37.3678 15.1018 -3.4753 -2.6767
# 3 61.7481 37.3678 74.9167 4.2300 0.3404 -4.2070
# 4 12.8340 15.1018 4.2300 22.5836 -4.5611 3.1018
# 5 -14.9633 -3.4753 0.3404 -4.5611 32.9808 -0.0529
# 6 -4.6188 -2.6767 -4.2070 3.1018 -0.0529 15.9863
#
#
#
# Elastic Compliance Matrix: (Units=1/GPa)
#
#
# Indices 1 2 3 4 5 6 
#
# 1 0.014637 -0.004767 -0.009502 -0.002349 0.005914 0.001406
# 2 -0.004767 0.019791 -0.005219 -0.010184 -0.001428 0.002534
# 3 -0.009502 -0.005219 0.023733 0.003232 -0.004656 0.001984
# 4 -0.002349 -0.010184 0.003232 0.054564 0.005354 -0.012103
# 5 0.005914 -0.001428 -0.004656 0.005354 0.033641 -0.000683
# 6 0.001406 0.002534 0.001984 -0.012103 -0.000683 0.066252
#
#
# Mechanical properties :
#
#
# Convention : Reuss Voigt Hill
#
# Bulk Modulus (GPa) = 52.12104 66.57537 59.34820
# Shear Modulus (GPa) = 19.38068 23.45765 21.41916
#
# Velocity S-wave (km/s) = 3.17298 3.49080 3.33567
# Velocity P-wave (km/s) = 6.36391 7.12964 6.75763
#
# Compressibility (1/GPa) = 0.01918611
#
# Stress axis : x y z
#
# Youngs Moduli (GPa) = 68.31834 50.52810 42.13527
#
# Poissons Ratio (x) = 0.24086 0.40037
# Poissons Ratio (y) = 0.32567 0.21989
# Poissons Ratio (z) = 0.64916 0.26369
#
# Static dielectric constant tensor:
#      x y z
#    x 3.978330 0.155360 0.037950 
#    y 0.155360 3.587640 0.054610 
#    z 0.037950 0.054610 3.705010 
# 
# 
# High freq. dielectric constant tensor:
#      x y z
#    x 1.762440 -0.004580 0.018750 
#    y -0.004580 1.729400 -0.002100 
#    z 0.018750 -0.002100 1.749290 
# 
# From -- ./inp_files/595805.got.cif
#   From: 2010.06.25/outbox.cif.g09.slc.cpg/sg2_298_cif.got.tgz:595805.got - 2010.06.27 13:26:56.
