data_PCOD8041368
_publ_section_title
;
Structure prediction by ZEFSAII (Michael W. Deem and Ramdas Pophale) SiO2 
 PCOD8041368
Probable space group: P -1
;
_chemical_formula_sum "Si O2"
_cell_formula_units_Z 14
_cell_length_a 9.232284
_cell_length_b 19.152296
_cell_length_c 12.301034
_cell_angle_alpha 32.134358
_cell_angle_beta 131.863930
_cell_angle_gamma 105.350725
_cell_volume 561.644779
_symmetry_space_group_name_H-M "P -1"
_symmetry_group_IT_number 2
_symmetry_cell_setting 'triclinic'
loop_
_space_group_symop_operation_xyz
x,y,z
-x,-y,-z
loop_
_atom_site_type_symbol
_atom_site_label
_atom_site_fract_x
_atom_site_fract_y
_atom_site_fract_z
Si Si1 0.363280 0.618576 0.664470
Si Si2 0.272354 0.087127 0.489240
Si Si3 0.891842 0.511608 0.312473
Si Si4 0.767436 0.316721 0.083191
Si Si5 0.047217 0.906587 0.852272
Si Si6 0.448928 0.320307 0.746395
Si Si7 0.677488 0.107964 0.595877
O O1 0.091852 0.655868 0.455259
O O2 0.250582 0.823577 0.363551
O O3 0.500000 0.500000 0.000000
O O4 0.611926 0.491217 0.862313
O O5 0.539718 0.051982 0.658026
O O6 0.026280 0.265138 0.217951
O O7 0.107258 0.138091 0.226052
O O8 0.399972 0.886573 0.859834
O O9 0.000000 0.500000 0.500000
O O10 0.551675 0.726481 0.832303
O O11 0.092911 0.474658 0.365574
O O12 0.906654 0.117915 0.471899
O O13 0.521002 0.400772 0.759692
O O14 0.989607 0.914256 0.943116
O O15 0.402871 0.725241 0.237956
#
# Coordination Sequence:
#
# PCOD8041368 Si02
#       7
#     2   2   2   2   2   2   2
#     4  10  19  32  55  80 110 137 182 216 262 322
#     4   9  19  32  56  81 108 139 183 218 260 320
#     4  11  19  34  58  83 102 140 186 222 257 315
#     4   9  15  33  54  79 102 144 180 215 258 321
#     4   9  16  32  54  76 106 141 178 211 258 321
#     4   9  18  33  58  80 102 138 185 222 259 307
#     4  11  21  34  56  84 108 139 179 222 264 316
#
# _framework density 24.92679
#
# number of rings (size 3 to 8) (size 9 to 14) (size 15 to 20)
#    0.000    2.286    4.286    3.000    0.000    0.571 
#    0.000    4.286    3.143    0.000    0.000    0.000 
#    0.000    0.000    0.000    0.000    0.000    0.000 
#
# Total GULP energy -173494.453523 kJ/mol
# GULP energy per Si atom -12392.460966 kJ/mol
# Density = 2.487006 g / cm^3
# Si number density = 24.926790 Si / 1000 Ang^3
#
#
#
# Elastic Constant Matrix: (Units=GPa)
#
#
# Indices 1 2 3 4 5 6 
#
# 1 181.7485 85.1039 19.7483 -18.6401 51.4719 -18.3426
# 2 85.1039 167.5949 24.7039 -16.5744 25.5455 -17.9833
# 3 19.7483 24.7039 46.6916 -11.6434 24.2648 -12.1890
# 4 -18.6401 -16.5744 -11.6434 27.6519 -13.0090 12.6943
# 5 51.4719 25.5455 24.2648 -13.0090 40.3481 -9.3911
# 6 -18.3426 -17.9833 -12.1890 12.6943 -9.3911 44.6804
#
#
#
# Elastic Compliance Matrix: (Units=1/GPa)
#
#
# Indices 1 2 3 4 5 6 
#
# 1 0.011029 -0.004053 0.005285 -0.000178 -0.014424 0.001357
# 2 -0.004053 0.008386 -0.003480 0.001713 0.002703 0.000843
# 3 0.005285 -0.003480 0.035305 0.003105 -0.023715 0.004534
# 4 -0.000178 0.001713 0.003105 0.047826 0.010381 -0.009943
# 5 -0.014424 0.002703 -0.023715 0.010381 0.058634 -0.001929
# 6 0.001357 0.000843 0.004534 -0.009943 -0.001929 0.026934
#
#
# Mechanical properties :
#
#
# Convention : Reuss Voigt Hill
#
# Bulk Modulus (GPa) = 19.91029 72.79412 46.35220
# Shear Modulus (GPa) = 23.88336 40.30135 32.09236
#
# Velocity S-wave (km/s) = 3.09874 4.02529 3.59202
# Velocity P-wave (km/s) = 4.56155 7.13236 5.98658
#
# Compressibility (1/GPa) = 0.05022529
#
# Stress axis : x y z
#
# Youngs Moduli (GPa) = 90.66724 119.24893 28.32475
#
# Poissons Ratio (x) = 0.48333 -0.14971
# Poissons Ratio (y) = 0.36749 0.09856
# Poissons Ratio (z) = -0.47921 0.41494
#
# Static dielectric constant tensor:
#      x y z
#    x 3.838310 -0.451290 1.258260 
#    y -0.451290 4.813640 0.224850 
#    z 1.258260 0.224850 4.486080 
# 
# 
# High freq. dielectric constant tensor:
#      x y z
#    x 2.010440 -0.005490 0.003210 
#    y -0.005490 1.971610 -0.020490 
#    z 0.003210 -0.020490 1.994500 
# 
# From -- ./inp_files/184001.got.cif
#   From: 2010.06.25/outbox.cif.g09.slc.cpg/sg2_93_cif.got.tgz:184001.got - 2010.06.27 13:26:56.
