data_PCOD8041487
_publ_section_title
;
Structure prediction by ZEFSAII (Michael W. Deem and Ramdas Pophale) SiO2 
 PCOD8041487
Probable space group: P -1
;
_chemical_formula_sum "Si O2"
_cell_formula_units_Z 16
_cell_length_a 14.640481
_cell_length_b 12.382051
_cell_length_c 14.407484
_cell_angle_alpha 109.499363
_cell_angle_beta 19.832692
_cell_angle_gamma 108.764431
_cell_volume 835.046349
_symmetry_space_group_name_H-M "P -1"
_symmetry_group_IT_number 2
_symmetry_cell_setting 'triclinic'
loop_
_space_group_symop_operation_xyz
x,y,z
-x,-y,-z
loop_
_atom_site_type_symbol
_atom_site_label
_atom_site_fract_x
_atom_site_fract_y
_atom_site_fract_z
Si Si1 0.643844 0.423424 0.766611
Si Si2 0.446088 0.289348 0.373846
Si Si3 0.721248 0.922192 0.651244
Si Si4 0.907554 0.641768 0.929274
Si Si5 0.126100 0.281417 0.216503
Si Si6 0.770490 0.927816 0.815291
Si Si7 0.012254 0.639646 0.030489
Si Si8 0.376514 0.501288 0.385696
O O1 0.673008 0.511011 0.679207
O O2 0.941568 0.369225 0.479222
O O3 0.500000 0.500000 0.000000
O O4 0.437764 0.317347 0.919886
O O5 0.389112 0.169244 0.343660
O O6 0.715535 0.299087 0.178146
O O7 0.477512 0.381034 0.288574
O O8 0.212365 0.316773 0.674896
O O9 0.741059 0.873342 0.724040
O O10 0.021605 0.964415 0.349853
O O11 0.523654 0.029209 0.864184
O O12 0.975051 0.722063 0.796632
O O13 0.970627 0.697115 0.984980
O O14 0.098015 0.531647 0.710318
O O15 0.598261 0.601354 0.219159
O O16 0.118239 0.160503 0.240807
O O17 0.000000 0.500000 0.000000
#
# Coordination Sequence:
#
# PCOD8041487 Si02
#       8
#     2   2   2   2   2   2   2   2
#     4  10  21  34  50  84 117 148 181 228 272 349
#     4  12  22  35  57  86 115 152 184 240 285 329
#     4  10  23  39  61  87 110 142 199 244 283 340
#     4  10  20  35  53  81 113 148 191 215 265 347
#     4  10  21  37  59  79 108 154 190 225 285 339
#     4  10  21  43  62  81 110 150 192 243 293 332
#     4  12  21  35  57  82 120 158 184 224 283 341
#     4  10  19  33  50  78 117 148 183 219 269 336
#
# _framework density 19.160613999999999
#
# number of rings (size 3 to 8) (size 9 to 14) (size 15 to 20)
#    0.000    1.500    2.500    3.000    1.750    0.000 
#    2.250    0.000    0.000    4.500    0.000    0.000 
#    0.000    0.000    0.000    0.000    0.000    0.000 
#
# Total GULP energy -198228.363664 kJ/mol
# GULP energy per Si atom -12389.272729 kJ/mol
# Density = 1.911700 g / cm^3
# Si number density = 19.160614 Si / 1000 Ang^3
#
#
#
# Elastic Constant Matrix: (Units=GPa)
#
#
# Indices 1 2 3 4 5 6 
#
# 1 108.7795 50.5244 27.0062 7.6494 6.8469 -3.9711
# 2 50.5244 60.8930 10.1128 3.9547 8.8223 -3.4551
# 3 27.0062 10.1128 99.9792 0.7207 3.2180 1.7964
# 4 7.6494 3.9547 0.7207 19.6588 2.3908 -5.5473
# 5 6.8469 8.8223 3.2180 2.3908 32.9003 -0.4185
# 6 -3.9711 -3.4551 1.7964 -5.5473 -0.4185 38.1261
#
#
#
# Elastic Compliance Matrix: (Units=1/GPa)
#
#
# Indices 1 2 3 4 5 6 
#
# 1 0.016050 -0.012656 -0.003052 -0.003620 0.000617 0.000149
# 2 -0.012656 0.027543 0.000766 0.000261 -0.004831 0.001127
# 3 -0.003052 0.000766 0.010779 0.000526 -0.000672 -0.000687
# 4 -0.003620 0.000261 0.000526 0.054730 -0.003249 0.007549
# 5 0.000617 -0.004831 -0.000672 -0.003249 0.031858 -0.000465
# 6 0.000149 0.001127 -0.000687 0.007549 -0.000465 0.027472
#
#
# Mechanical properties :
#
#
# Convention : Reuss Voigt Hill
#
# Bulk Modulus (GPa) = 40.83515 49.43763 45.13639
# Shear Modulus (GPa) = 24.21556 30.27093 27.24324
#
# Velocity S-wave (km/s) = 3.55888 3.97905 3.77481
# Velocity P-wave (km/s) = 6.18432 6.85333 6.52740
#
# Compressibility (1/GPa) = 0.02448870
#
# Stress axis : x y z
#
# Youngs Moduli (GPa) = 62.30503 36.30675 92.77231
#
# Poissons Ratio (x) = 0.45950 0.28311
# Poissons Ratio (y) = 0.78854 -0.07107
# Poissons Ratio (z) = 0.19014 -0.02781
#
# Static dielectric constant tensor:
#      x y z
#    x 3.853800 -0.078090 0.032370 
#    y -0.078090 3.207470 -0.070150 
#    z 0.032370 -0.070150 3.900750 
# 
# 
# High freq. dielectric constant tensor:
#      x y z
#    x 1.757060 -0.008860 -0.001160 
#    y -0.008860 1.694670 -0.006810 
#    z -0.001160 -0.006810 1.772910 
# 
# From -- ./inp_files/97612.got.cif
#   From: 2010.06.25/outbox.cif.g09.slc.cpg/sg2_49_cif.got.tgz:97612.got - 2010.06.27 13:26:56.
