data_PCOD8041463
_publ_section_title
;
Structure prediction by ZEFSAII (Michael W. Deem and Ramdas Pophale) SiO2 
 PCOD8041463
Probable space group: P -1
;
_chemical_formula_sum "Si O2"
_cell_formula_units_Z 16
_cell_length_a 14.798944
_cell_length_b 9.897332
_cell_length_c 14.750994
_cell_angle_alpha 83.121092
_cell_angle_beta 122.112750
_cell_angle_gamma 144.040140
_cell_volume 839.479465
_symmetry_space_group_name_H-M "P -1"
_symmetry_group_IT_number 2
_symmetry_cell_setting 'triclinic'
loop_
_space_group_symop_operation_xyz
x,y,z
-x,-y,-z
loop_
_atom_site_type_symbol
_atom_site_label
_atom_site_fract_x
_atom_site_fract_y
_atom_site_fract_z
Si Si1 0.331916 0.763416 0.166660
Si Si2 0.903360 0.122016 0.203970
Si Si3 0.095828 0.165764 0.859242
Si Si4 0.185893 0.880247 0.031982
Si Si5 0.652350 0.786122 0.603913
Si Si6 0.718136 0.762984 0.828270
Si Si7 0.496960 0.717112 0.141937
Si Si8 0.581471 0.217640 0.584240
O O1 0.359383 0.956952 0.150816
O O2 0.477834 0.846593 0.162688
O O3 0.418686 0.821033 0.307545
O O4 0.065545 0.425029 0.033747
O O5 0.171454 0.447206 0.344001
O O6 0.851552 0.910410 0.161945
O O7 0.759095 0.992398 0.227423
O O8 0.828991 0.141133 0.082982
O O9 0.331720 0.510479 0.982312
O O10 0.927517 0.068505 0.715252
O O11 0.964591 0.986120 0.900553
O O12 0.269736 0.123785 0.088142
O O13 0.500000 0.500000 0.500000
O O14 0.595028 0.712117 0.686985
O O15 0.605219 0.876912 0.526198
O O16 0.563587 0.459060 0.797227
O O17 0.500000 0.000000 0.500000
#
# Coordination Sequence:
#
# PCOD8041463 Si02
#       8
#     2   2   2   2   2   2   2   2
#     4  10  21  36  60  82 115 152 195 246 272 345
#     4  11  23  36  59  88 125 146 184 248 291 352
#     4  10  20  34  61  88 116 149 189 244 277 345
#     4  10  19  36  55  87 113 146 200 234 293 329
#     4  10  19  34  60  84 112 146 204 234 271 329
#     4  10  19  32  61  84 111 149 194 237 276 344
#     4  12  21  36  59  91 120 151 183 236 318 329
#     4  11  22  41  63  82 112 157 201 237 277 339
#
# _framework density 19.059431
#
# number of rings (size 3 to 8) (size 9 to 14) (size 15 to 20)
#    0.750    0.750    3.750    3.750    0.000    1.500 
#    0.000    1.250    0.000    0.000    0.000    0.000 
#    0.000    0.000    0.000    0.000    0.000    0.000 
#
# Total GULP energy -198368.127093 kJ/mol
# GULP energy per Si atom -12398.007943 kJ/mol
# Density = 1.901605 g / cm^3
# Si number density = 19.059431 Si / 1000 Ang^3
#
#
#
# Elastic Constant Matrix: (Units=GPa)
#
#
# Indices 1 2 3 4 5 6 
#
# 1 135.8416 29.8769 26.3958 -2.8121 4.6221 -8.8772
# 2 29.8769 30.8556 1.9433 -2.0644 9.6574 -0.5349
# 3 26.3958 1.9433 77.7636 -1.7555 10.6429 -8.9976
# 4 -2.8121 -2.0644 -1.7555 26.4925 -13.5929 2.3019
# 5 4.6221 9.6574 10.6429 -13.5929 31.1376 0.1360
# 6 -8.8772 -0.5349 -8.9976 2.3019 0.1360 35.7170
#
#
#
# Elastic Compliance Matrix: (Units=1/GPa)
#
#
# Indices 1 2 3 4 5 6 
#
# 1 0.010478 -0.010992 -0.003614 0.001903 0.003914 0.001392
# 2 -0.010992 0.047807 0.004747 -0.006053 -0.017459 -0.000364
# 3 -0.003614 0.004747 0.015309 -0.003163 -0.007564 0.003262
# 4 0.001903 -0.006053 -0.003163 0.050223 0.024617 -0.003745
# 5 0.003914 -0.017459 -0.007564 0.024617 0.050294 -0.002972
# 6 0.001392 -0.000364 0.003262 -0.003745 -0.002972 0.029413
#
#
# Mechanical properties :
#
#
# Convention : Reuss Voigt Hill
#
# Bulk Modulus (GPa) = 18.56090 40.09917 29.33004
# Shear Modulus (GPa) = 20.72969 31.08575 25.90772
#
# Velocity S-wave (km/s) = 3.30151 4.04293 3.69089
# Velocity P-wave (km/s) = 4.92878 6.54816 5.79531
#
# Compressibility (1/GPa) = 0.05387669
#
# Stress axis : x y z
#
# Youngs Moduli (GPa) = 95.43378 20.91761 65.32241
#
# Poissons Ratio (x) = 0.22993 0.23606
# Poissons Ratio (y) = 1.04901 -0.31010
# Poissons Ratio (z) = 0.34487 -0.09930
#
# Static dielectric constant tensor:
#      x y z
#    x 3.400190 -0.107810 -0.004000 
#    y -0.107810 3.161960 -0.050710 
#    z -0.004000 -0.050710 3.487160 
# 
# 
# High freq. dielectric constant tensor:
#      x y z
#    x 1.741370 -0.018550 -0.000940 
#    y -0.018550 1.708800 -0.010120 
#    z -0.000940 -0.010120 1.741820 
# 
# From -- ./inp_files/514368.got.cif
#   From: 2010.06.25/outbox.cif.g09.slc.cpg/sg2_258_cif.got.tgz:514368.got - 2010.06.27 13:26:56.
