data_PCOD8041735
_publ_section_title
;
Structure prediction by ZEFSAII (Michael W. Deem and Ramdas Pophale) SiO2 
 PCOD8041735
Probable space group: P -1
;
_chemical_formula_sum "Si O2"
_cell_formula_units_Z 16
_cell_length_a 11.566363
_cell_length_b 14.403210
_cell_length_c 9.379679
_cell_angle_alpha 86.239842
_cell_angle_beta 129.596253
_cell_angle_gamma 58.154747
_cell_volume 807.353086
_symmetry_space_group_name_H-M "P -1"
_symmetry_group_IT_number 2
_symmetry_cell_setting 'triclinic'
loop_
_space_group_symop_operation_xyz
x,y,z
-x,-y,-z
loop_
_atom_site_type_symbol
_atom_site_label
_atom_site_fract_x
_atom_site_fract_y
_atom_site_fract_z
Si Si1 0.565132 0.760489 0.284333
Si Si2 0.813679 0.292592 0.767277
Si Si3 0.818476 0.004469 0.834836
Si Si4 0.708106 0.198624 0.181036
Si Si5 0.718690 0.875568 0.274458
Si Si6 0.792236 0.015121 0.493670
Si Si7 0.639850 0.541486 0.469145
Si Si8 0.197703 0.686631 0.553723
O O1 0.722067 0.767723 0.342615
O O2 0.707075 0.620045 0.503907
O O3 0.375190 0.899880 0.210814
O O4 0.470552 0.736672 0.088585
O O5 0.782708 0.420262 0.715864
O O6 0.623929 0.338315 0.715577
O O7 0.784662 0.263281 0.586892
O O8 0.054999 0.153542 0.033915
O O9 0.713069 0.062988 0.589276
O O10 0.000000 0.000000 0.000000
O O11 0.688607 0.309410 0.227847
O O12 0.948181 0.077844 0.308299
O O13 0.660461 0.143825 0.270942
O O14 0.735669 0.935197 0.417213
O O15 0.934380 0.791471 0.355580
O O16 0.500000 0.000000 0.000000
O O17 0.678446 0.469570 0.355609
#
# Coordination Sequence:
#
# PCOD8041735 Si02
#       8
#     2   2   2   2   2   2   2   2
#     4  12  23  36  60  90 119 155 195 235 291 354
#     4   9  18  36  57  88 116 149 190 245 293 334
#     4  12  20  34  63  89 114 148 196 245 291 330
#     4  10  19  33  57  87 114 147 196 245 287 337
#     4  11  22  39  56  85 123 156 189 239 293 351
#     4  10  21  34  57  88 118 149 191 243 293 341
#     4   9  20  35  58  87 116 155 194 237 293 347
#     4   9  20  36  59  79 117 155 192 237 295 336
#
# _framework density 19.817847
#
# number of rings (size 3 to 8) (size 9 to 14) (size 15 to 20)
#    0.750    1.000    3.750    1.500    1.750    1.500 
#    0.000    0.000    0.000    0.750    0.000    0.000 
#    0.000    0.000    0.000    0.000    0.000    0.000 
#
# Total GULP energy -198258.057334 kJ/mol
# GULP energy per Si atom -12391.128583 kJ/mol
# Density = 1.977274 g / cm^3
# Si number density = 19.817847 Si / 1000 Ang^3
#
#
#
# Elastic Constant Matrix: (Units=GPa)
#
#
# Indices 1 2 3 4 5 6 
#
# 1 73.4798 51.0514 29.6346 7.8572 -3.6653 11.2603
# 2 51.0514 104.7624 24.4899 -6.0680 -1.7076 1.6911
# 3 29.6346 24.4899 54.3731 7.6764 -6.9122 -1.0881
# 4 7.8572 -6.0680 7.6764 30.4252 6.1733 -12.4776
# 5 -3.6653 -1.7076 -6.9122 6.1733 24.2742 -1.9634
# 6 11.2603 1.6911 -1.0881 -12.4776 -1.9634 46.6285
#
#
#
# Elastic Compliance Matrix: (Units=1/GPa)
#
#
# Indices 1 2 3 4 5 6 
#
# 1 0.028592 -0.012617 -0.007842 -0.012709 0.003630 -0.009878
# 2 -0.012617 0.016691 -0.002393 0.009914 -0.003538 0.004890
# 3 -0.007842 -0.002393 0.025558 -0.005887 0.007529 0.001319
# 4 -0.012709 0.009914 -0.005887 0.048609 -0.014048 0.014988
# 5 0.003630 -0.003538 0.007529 -0.014048 0.047021 -0.002352
# 6 -0.009878 0.004890 0.001319 0.014988 -0.002352 0.027597
#
#
# Mechanical properties :
#
#
# Convention : Reuss Voigt Hill
#
# Bulk Modulus (GPa) = 39.78289 49.21856 44.50072
# Shear Modulus (GPa) = 20.14900 28.76154 24.45527
#
# Velocity S-wave (km/s) = 3.19205 3.81372 3.51665
# Velocity P-wave (km/s) = 5.80546 6.65447 6.24441
#
# Compressibility (1/GPa) = 0.02513643
#
# Stress axis : x y z
#
# Youngs Moduli (GPa) = 34.97501 59.91332 39.12673
#
# Poissons Ratio (x) = 0.75594 0.30685
# Poissons Ratio (y) = 0.44129 0.09361
# Poissons Ratio (z) = 0.27429 0.14334
#
# Static dielectric constant tensor:
#      x y z
#    x 3.620110 0.059530 -0.227740 
#    y 0.059530 3.791320 -0.019400 
#    z -0.227740 -0.019400 3.288540 
# 
# 
# High freq. dielectric constant tensor:
#      x y z
#    x 1.769810 -0.000390 -0.027200 
#    y -0.000390 1.778820 -0.003140 
#    z -0.027200 -0.003140 1.731800 
# 
# From -- ./inp_files/267951.got.cif
#   From: 2010.06.25/outbox.cif.g09.slc.cpg/sg2_134_cif.got.tgz:267951.got - 2010.06.27 13:26:56.
