data_PCOD8041341
_publ_section_title
;
Structure prediction by ZEFSAII (Michael W. Deem and Ramdas Pophale) SiO2 
 PCOD8041341
Probable space group: P -1
;
_chemical_formula_sum "Si O2"
_cell_formula_units_Z 16
_cell_length_a 26.374295
_cell_length_b 9.050720
_cell_length_c 7.857396
_cell_angle_alpha 101.849383
_cell_angle_beta 127.450949
_cell_angle_gamma 37.062650
_cell_volume 727.825752
_symmetry_space_group_name_H-M "P -1"
_symmetry_group_IT_number 2
_symmetry_cell_setting 'triclinic'
loop_
_space_group_symop_operation_xyz
x,y,z
-x,-y,-z
loop_
_atom_site_type_symbol
_atom_site_label
_atom_site_fract_x
_atom_site_fract_y
_atom_site_fract_z
Si Si1 0.490356 0.883199 0.192516
Si Si2 0.276769 0.817601 0.876866
Si Si3 0.007732 0.163986 0.053286
Si Si4 0.738998 0.201239 0.561497
Si Si5 0.008661 0.302034 0.458139
Si Si6 0.761605 0.826323 0.586180
Si Si7 0.745721 0.811054 0.166231
Si Si8 0.524482 0.140468 0.245362
O O1 0.605457 0.549385 0.428656
O O2 0.517673 0.003146 0.311889
O O3 0.482117 0.880216 0.972644
O O4 0.357856 0.106927 0.070135
O O5 0.267176 0.819576 0.655430
O O6 0.273396 0.004524 0.952959
O O7 0.405144 0.487864 0.139713
O O8 0.154703 0.974028 0.743077
O O9 0.990546 0.274869 0.226945
O O10 0.896236 0.465554 0.784071
O O11 0.143844 0.925954 0.191650
O O12 0.000000 0.000000 0.000000
O O13 0.766020 0.995302 0.680932
O O14 0.895415 0.453761 0.371717
O O15 0.000000 0.500000 0.500000
O O16 0.712778 0.922780 0.316773
O O17 0.656184 0.956748 0.517303
#
# Coordination Sequence:
#
# PCOD8041341 Si02
#       8
#     2   2   2   2   2   2   2   2
#     4   9  16  27  47  75 105 135 173 222 267 307
#     4   8  15  29  49  73 101 137 178 216 256 308
#     4  11  22  36  55  80 112 143 174 219 271 318
#     4   9  17  30  50  75 101 136 182 221 254 308
#     4   9  19  36  57  78 108 146 179 215 262 321
#     4  10  19  32  54  79 104 138 181 223 263 314
#     4   9  17  31  53  78 102 133 178 224 260 307
#     4   9  16  27  46  75 106 134 171 221 269 309
#
# _framework density 21.983284000000001
#
# number of rings (size 3 to 8) (size 9 to 14) (size 15 to 20)
#    0.000    2.750    0.000    2.625    0.000    6.000 
#    0.000    2.500    0.000   11.250    0.000    0.000 
#    0.000    0.000    0.000    0.000    0.000    0.000 
#
# Total GULP energy -198242.128445 kJ/mol
# GULP energy per Si atom -12390.133028 kJ/mol
# Density = 2.193325 g / cm^3
# Si number density = 21.983284 Si / 1000 Ang^3
#
#
#
# Elastic Constant Matrix: (Units=GPa)
#
#
# Indices 1 2 3 4 5 6 
#
# 1 134.9876 49.2164 57.4624 -21.2332 55.1183 22.6765
# 2 49.2164 70.2344 32.3084 -12.1145 14.6177 18.8954
# 3 57.4624 32.3084 84.8442 -28.8315 40.9236 11.1520
# 4 -21.2332 -12.1145 -28.8315 39.6921 -6.3705 6.0774
# 5 55.1183 14.6177 40.9236 -6.3705 48.5378 -8.8209
# 6 22.6765 18.8954 11.1520 6.0774 -8.8209 40.5323
#
#
#
# Elastic Compliance Matrix: (Units=1/GPa)
#
#
# Indices 1 2 3 4 5 6 
#
# 1 0.043750 -0.008019 0.031005 0.038966 -0.077749 -0.052032
# 2 -0.008019 0.021674 -0.006499 -0.000866 0.007572 -0.002052
# 3 0.031005 -0.006499 0.063601 0.055439 -0.090469 -0.059816
# 4 0.038966 -0.000866 0.055439 0.081763 -0.092547 -0.069050
# 5 -0.077749 0.007572 -0.090469 -0.092547 0.192671 0.120666
# 6 -0.052032 -0.002052 -0.059816 -0.069050 0.120666 0.107810
#
#
# Mechanical properties :
#
#
# Convention : Reuss Voigt Hill
#
# Bulk Modulus (GPa) = 6.17293 63.11560 34.64426
# Shear Modulus (GPa) = 9.39332 35.82439 22.60886
#
# Velocity S-wave (km/s) = 2.06935 4.04123 3.21044
# Velocity P-wave (km/s) = 2.91954 7.10975 5.43471
#
# Compressibility (1/GPa) = 0.16199761
#
# Stress axis : x y z
#
# Youngs Moduli (GPa) = 22.85712 46.13918 15.72314
#
# Poissons Ratio (x) = 0.36999 -0.48749
# Poissons Ratio (y) = 0.18329 0.10219
# Poissons Ratio (z) = -0.70868 0.29986
#
# Static dielectric constant tensor:
#      x y z
#    x 4.033210 0.077810 0.546860 
#    y 0.077810 3.878450 -0.295440 
#    z 0.546860 -0.295440 3.873340 
# 
# 
# High freq. dielectric constant tensor:
#      x y z
#    x 1.852290 0.006140 0.037020 
#    y 0.006140 1.845710 -0.020620 
#    z 0.037020 -0.020620 1.853760 
# 
# From -- ./inp_files/269655.got.cif
#   From: 2010.06.25/outbox.cif.g09.slc.cpg/sg2_135_cif.got.tgz:269655.got - 2010.06.27 13:26:56.
