data_PCOD8041247
_publ_section_title
;
Structure prediction by ZEFSAII (Michael W. Deem and Ramdas Pophale) SiO2 
 PCOD8041247
Probable space group: P -1
;
_chemical_formula_sum "Si O2"
_cell_formula_units_Z 12
_cell_length_a 5.178181
_cell_length_b 26.028132
_cell_length_c 14.209655
_cell_angle_alpha 157.950562
_cell_angle_beta 72.206111
_cell_angle_gamma 111.015470
_cell_volume 669.173590
_symmetry_space_group_name_H-M "P -1"
_symmetry_group_IT_number 2
_symmetry_cell_setting 'triclinic'
loop_
_space_group_symop_operation_xyz
x,y,z
-x,-y,-z
loop_
_atom_site_type_symbol
_atom_site_label
_atom_site_fract_x
_atom_site_fract_y
_atom_site_fract_z
Si Si1 0.301596 0.980473 0.901241
Si Si2 0.494003 0.508568 0.363411
Si Si3 0.379619 0.788512 0.880413
Si Si4 0.273568 0.665199 0.328750
Si Si5 0.230691 0.306447 0.199311
Si Si6 0.640457 0.515130 0.152583
O O1 0.299321 0.830229 0.602291
O O2 0.430486 0.092300 0.998945
O O3 0.500000 0.000000 0.000000
O O4 0.000000 0.000000 0.000000
O O5 0.344994 0.637409 0.576426
O O6 0.284387 0.377839 0.212381
O O7 0.746836 0.570071 0.513268
O O8 0.587104 0.456766 0.165388
O O9 0.536439 0.783560 0.954840
O O10 0.063963 0.804310 0.956633
O O11 0.435858 0.616860 0.317301
O O12 0.951269 0.600522 0.260359
O O13 0.403960 0.618105 0.138216
#
# Coordination Sequence:
#
# PCOD8041247 Si02
#       6
#     2   2   2   2   2   2
#     4  12  23  34  55  77 108 142 175 213 264 320
#     4   9  19  31  54  75 101 136 172 216 266 294
#     4  10  19  32  47  75 106 133 161 227 254 304
#     4  10  22  38  49  84 102 142 178 210 264 312
#     4   9  20  30  50  78 104 127 178 214 262 301
#     4  10  21  35  59  71 112 136 176 222 252 318
#
# _framework density 17.932566999999999
#
# number of rings (size 3 to 8) (size 9 to 14) (size 15 to 20)
#    1.000    1.000    0.000    4.500    4.667    0.000 
#    0.000    0.000    0.000    2.000    0.000    0.000 
#    0.000    0.000    0.000    0.000    0.000    0.000 
#
# Total GULP energy -148680.062920 kJ/mol
# GULP energy per Si atom -12390.005243 kJ/mol
# Density = 1.789175 g / cm^3
# Si number density = 17.932567 Si / 1000 Ang^3
#
#
#
# Elastic Constant Matrix: (Units=GPa)
#
#
# Indices 1 2 3 4 5 6 
#
# 1 128.9561 53.7390 21.4260 0.8578 -16.5172 14.6945
# 2 53.7390 170.7532 25.2278 -6.2329 -19.4901 3.3366
# 3 21.4260 25.2278 74.7245 22.7400 11.3089 -14.5981
# 4 0.8578 -6.2329 22.7400 35.8741 11.3684 0.7007
# 5 -16.5172 -19.4901 11.3089 11.3684 39.8376 -6.3257
# 6 14.6945 3.3366 -14.5981 0.7007 -6.3257 29.8632
#
#
#
# Elastic Compliance Matrix: (Units=1/GPa)
#
#
# Indices 1 2 3 4 5 6 
#
# 1 0.010509 -0.002113 -0.004446 0.001317 0.003183 -0.006465
# 2 -0.002113 0.007437 -0.003271 0.002535 0.002833 -0.000850
# 3 -0.004446 -0.003271 0.023326 -0.014292 -0.003847 0.013476
# 4 0.001317 0.002535 -0.014292 0.039817 -0.007166 -0.010370
# 5 0.003183 0.002833 -0.003847 -0.007166 0.031431 0.003063
# 6 -0.006465 -0.000850 0.013476 -0.010370 0.003063 0.044242
#
#
# Mechanical properties :
#
#
# Convention : Reuss Voigt Hill
#
# Bulk Modulus (GPa) = 46.26904 63.91326 55.09115
# Shear Modulus (GPa) = 27.22934 39.38438 33.30686
#
# Velocity S-wave (km/s) = 3.90093 4.69150 4.31436
# Velocity P-wave (km/s) = 6.79319 8.06630 7.45696
#
# Compressibility (1/GPa) = 0.02161273
#
# Stress axis : x y z
#
# Youngs Moduli (GPa) = 95.15338 134.45971 42.87105
#
# Poissons Ratio (x) = 0.28410 0.19059
# Poissons Ratio (y) = 0.20105 0.14024
# Poissons Ratio (z) = 0.42301 0.43985
#
# Static dielectric constant tensor:
#      x y z
#    x 3.426150 -0.031670 0.024410 
#    y -0.031670 2.828970 -0.377330 
#    z 0.024410 -0.377330 2.284480 
# 
# 
# High freq. dielectric constant tensor:
#      x y z
#    x 1.709910 -0.002930 -0.002850 
#    y -0.002930 1.692880 0.010800 
#    z -0.002850 0.010800 1.651480 
# 
# From -- ./inp_files/138196.got.cif
#   From: 2010.06.25/outbox.cif.g09.slc.cpg/sg2_70_cif.got.tgz:138196.got - 2010.06.27 13:26:56.
