data_PCOD8041763
_publ_section_title
;
Structure prediction by ZEFSAII (Michael W. Deem and Ramdas Pophale) SiO2 
 PCOD8041763
Probable space group: P -1
;
_chemical_formula_sum "Si O2"
_cell_formula_units_Z 14
_cell_length_a 17.111652
_cell_length_b 24.469019
_cell_length_c 11.647580
_cell_angle_alpha 30.454979
_cell_angle_beta 37.662638
_cell_angle_gamma 18.161513
_cell_volume 758.758936
_symmetry_space_group_name_H-M "P -1"
_symmetry_group_IT_number 2
_symmetry_cell_setting 'triclinic'
loop_
_space_group_symop_operation_xyz
x,y,z
-x,-y,-z
loop_
_atom_site_type_symbol
_atom_site_label
_atom_site_fract_x
_atom_site_fract_y
_atom_site_fract_z
Si Si1 0.755278 0.800327 0.417085
Si Si2 0.298524 0.010739 0.656182
Si Si3 0.572013 0.274852 0.813681
Si Si4 0.761655 0.937953 0.761625
Si Si5 0.915829 0.224099 0.526688
Si Si6 0.219730 0.314476 0.777388
Si Si7 0.388228 0.904481 0.114218
O O1 0.506702 0.905728 0.516392
O O2 0.001806 0.549822 0.555137
O O3 0.797775 0.823352 0.450363
O O4 0.727650 0.910361 0.153886
O O5 0.427307 0.823019 0.920634
O O6 0.059946 0.139350 0.631154
O O7 0.802845 0.186883 0.731045
O O8 0.303061 0.528481 0.682154
O O9 0.606708 0.206357 0.767660
O O10 0.891472 0.911725 0.558412
O O11 0.456836 0.142608 0.721825
O O12 0.889949 0.726334 0.006501
O O13 0.789853 0.981924 0.770881
O O14 0.323918 0.278768 0.845718
#
# Coordination Sequence:
#
# PCOD8041763 Si02
#       7
#     2   2   2   2   2   2   2
#     4  10  19  33  58  81 107 141 170 208 285 304
#     4  10  21  34  55  84 106 136 178 224 251 325
#     4  10  22  37  58  74 105 144 185 211 266 297
#     4   9  20  35  54  80 113 132 176 214 269 307
#     4  11  21  38  55  78 105 145 175 225 255 309
#     4   9  18  35  52  80 112 135 165 217 264 324
#     4   9  19  36  53  81 108 137 172 223 249 327
#
# _framework density 18.451183
#
# number of rings (size 3 to 8) (size 9 to 14) (size 15 to 20)
#    0.857    1.429    0.000    3.000    0.000    1.143 
#    2.571    5.714    0.000    1.714    0.000    0.000 
#    0.000    0.000    0.000    0.000    0.000    0.000 
#
# Total GULP energy -173555.463850 kJ/mol
# GULP energy per Si atom -12396.818846 kJ/mol
# Density = 1.840919 g / cm^3
# Si number density = 18.451183 Si / 1000 Ang^3
#
#
#
# Elastic Constant Matrix: (Units=GPa)
#
#
# Indices 1 2 3 4 5 6 
#
# 1 67.9891 16.1647 -13.3058 14.8434 -4.6195 -8.4476
# 2 16.1647 55.7112 10.6324 -5.3467 -2.6525 3.1249
# 3 -13.3058 10.6324 31.3201 -1.9455 -8.9235 8.3089
# 4 14.8434 -5.3467 -1.9455 19.3800 2.2469 3.1199
# 5 -4.6195 -2.6525 -8.9235 2.2469 27.7621 0.6418
# 6 -8.4476 3.1249 8.3089 3.1199 0.6418 23.3978
#
#
#
# Elastic Compliance Matrix: (Units=1/GPa)
#
#
# Indices 1 2 3 4 5 6 
#
# 1 0.029176 -0.014195 0.015810 -0.027543 0.010574 0.010198
# 2 -0.014195 0.026561 -0.013911 0.018430 -0.005647 -0.006035
# 3 0.015810 -0.013911 0.050440 -0.011547 0.018664 -0.009318
# 4 -0.027543 0.018430 -0.011547 0.081111 -0.012664 -0.018773
# 5 0.010574 -0.005647 0.018664 -0.012664 0.044301 -0.001583
# 6 0.010198 -0.006035 -0.009318 -0.018773 -0.001583 0.053083
#
#
# Mechanical properties :
#
#
# Convention : Reuss Voigt Hill
#
# Bulk Modulus (GPa) = 12.25693 20.22254 16.23974
# Shear Modulus (GPa) = 14.86075 23.54326 19.20201
#
# Velocity S-wave (km/s) = 2.84105 3.57596 3.22948
# Velocity P-wave (km/s) = 4.17366 5.29469 4.76724
#
# Compressibility (1/GPa) = 0.08158649
#
# Stress axis : x y z
#
# Youngs Moduli (GPa) = 34.27496 37.64852 19.82570
#
# Poissons Ratio (x) = 0.53441 -0.31344
# Poissons Ratio (y) = 0.48652 0.27579
# Poissons Ratio (z) = -0.54189 0.52371
#
# Static dielectric constant tensor:
#      x y z
#    x 3.477130 0.021540 -0.062860 
#    y 0.021540 3.172940 -0.024210 
#    z -0.062860 -0.024210 3.177250 
# 
# 
# High freq. dielectric constant tensor:
#      x y z
#    x 1.721810 0.005320 -0.000240 
#    y 0.005320 1.699140 -0.006900 
#    z -0.000240 -0.006900 1.710450 
# 
# From -- ./inp_files/458023.got.cif
#   From: 2010.06.25/outbox.cif.g09.slc.cpg/sg2_230_cif.got.tgz:458023.got - 2010.06.27 13:26:56.
