data_PCOD8041434
_publ_section_title
;
Structure prediction by ZEFSAII (Michael W. Deem and Ramdas Pophale) SiO2 
 PCOD8041434
Probable space group: P -1
;
_chemical_formula_sum "Si O2"
_cell_formula_units_Z 14
_cell_length_a 11.444664
_cell_length_b 15.618377
_cell_length_c 8.584382
_cell_angle_alpha 93.807230
_cell_angle_beta 57.094414
_cell_angle_gamma 138.347622
_cell_volume 679.452513
_symmetry_space_group_name_H-M "P -1"
_symmetry_group_IT_number 2
_symmetry_cell_setting 'triclinic'
loop_
_space_group_symop_operation_xyz
x,y,z
-x,-y,-z
loop_
_atom_site_type_symbol
_atom_site_label
_atom_site_fract_x
_atom_site_fract_y
_atom_site_fract_z
Si Si1 0.304541 0.077398 0.561674
Si Si2 0.068921 0.133096 0.723497
Si Si3 0.627884 0.566370 0.585975
Si Si4 0.716584 0.183571 0.410261
Si Si5 0.152348 0.765345 0.321783
Si Si6 0.921585 0.752749 0.963833
Si Si7 0.398346 0.079925 0.149436
O O1 0.213630 0.124724 0.681938
O O2 0.573063 0.198387 0.477844
O O3 0.389757 0.120595 0.326321
O O4 0.063079 0.884552 0.744083
O O5 0.240008 0.269659 0.479066
O O6 0.016735 0.172586 0.905656
O O7 0.784094 0.958758 0.838932
O O8 0.500000 0.500000 0.500000
O O9 0.391355 0.422574 0.861032
O O10 0.848762 0.609215 0.464935
O O11 0.820174 0.241666 0.517456
O O12 0.500000 0.000000 0.500000
O O13 0.960520 0.282807 0.134759
O O14 0.280567 0.923696 0.217544
O O15 0.303659 0.770864 0.113703
#
# Coordination Sequence:
#
# PCOD8041434 Si02
#       7
#     2   2   2   2   2   2   2
#     4  11  21  34  59  89 112 141 186 243 282 321
#     4  10  21  37  56  85 115 148 182 231 293 325
#     4   9  21  37  60  80 112 151 193 222 279 338
#     4  10  19  34  55  87 112 143 190 230 275 327
#     4  10  19  34  57  85 109 151 189 233 269 330
#     4  10  20  37  58  82 112 147 190 228 273 336
#     4  10  19  32  58  82 114 141 191 232 279 326
#
# _framework density 20.604825000000002
#
# number of rings (size 3 to 8) (size 9 to 14) (size 15 to 20)
#    0.000    2.000    2.857    2.571    6.000    0.571 
#    0.000    0.714    0.000    4.286    0.000    0.000 
#    0.000    0.000    0.000    0.000    0.000    0.000 
#
# Total GULP energy -173434.252213 kJ/mol
# GULP energy per Si atom -12388.160872 kJ/mol
# Density = 2.055793 g / cm^3
# Si number density = 20.604825 Si / 1000 Ang^3
#
#
#
# Elastic Constant Matrix: (Units=GPa)
#
#
# Indices 1 2 3 4 5 6 
#
# 1 137.0223 36.8870 67.4709 -0.0197 -35.9216 25.3227
# 2 36.8870 36.4179 42.9042 -2.6358 -7.7652 23.4299
# 3 67.4709 42.9042 161.1328 -4.4008 -28.5892 14.6834
# 4 -0.0197 -2.6358 -4.4008 32.7600 11.1412 -0.3286
# 5 -35.9216 -7.7652 -28.5892 11.1412 33.0062 -4.5070
# 6 25.3227 23.4299 14.6834 -0.3286 -4.5070 37.6391
#
#
#
# Elastic Compliance Matrix: (Units=1/GPa)
#
#
# Indices 1 2 3 4 5 6 
#
# 1 0.014477 -0.010069 -0.000848 -0.005835 0.014422 -0.001465
# 2 -0.010069 0.076669 -0.015085 0.008480 -0.013855 -0.036652
# 3 -0.000848 -0.015085 0.011129 -0.001932 0.006695 0.006404
# 4 -0.005835 0.008480 -0.001932 0.037378 -0.018993 -0.002548
# 5 0.014422 -0.013855 0.006695 -0.018993 0.055321 0.002769
# 6 -0.001465 -0.036652 0.006404 -0.002548 0.002769 0.048180
#
#
# Mechanical properties :
#
#
# Convention : Reuss Voigt Hill
#
# Bulk Modulus (GPa) = 19.89194 69.89970 44.89582
# Shear Modulus (GPa) = 16.02998 33.16848 24.59923
#
# Velocity S-wave (km/s) = 2.79224 4.01651 3.45897
# Velocity P-wave (km/s) = 4.48001 7.45033 6.14727
#
# Compressibility (1/GPa) = 0.05027161
#
# Stress axis : x y z
#
# Youngs Moduli (GPa) = 69.07529 13.04303 89.85409
#
# Poissons Ratio (x) = 0.13133 0.07618
# Poissons Ratio (y) = 0.69554 1.35543
# Poissons Ratio (z) = 0.05857 0.19675
#
# Static dielectric constant tensor:
#      x y z
#    x 3.994710 0.233090 -0.399830 
#    y 0.233090 3.380630 -0.276240 
#    z -0.399830 -0.276240 4.599000 
# 
# 
# High freq. dielectric constant tensor:
#      x y z
#    x 1.799330 0.028500 -0.021920 
#    y 0.028500 1.758490 0.005240 
#    z -0.021920 0.005240 1.819500 
# 
# From -- ./inp_files/168547.got.cif
#   From: 2010.06.25/outbox.cif.g09.slc.cpg/sg2_85_cif.got.tgz:168547.got - 2010.06.27 13:26:56.
