data_PCOD8041527
_publ_section_title
;
Structure prediction by ZEFSAII (Michael W. Deem and Ramdas Pophale) SiO2 
 PCOD8041527
Probable space group: P -1
;
_chemical_formula_sum "Si O2"
_cell_formula_units_Z 16
_cell_length_a 15.173038
_cell_length_b 15.748045
_cell_length_c 8.626558
_cell_angle_alpha 37.920669
_cell_angle_beta 118.029170
_cell_angle_gamma 138.660587
_cell_volume 797.823484
_symmetry_space_group_name_H-M "P -1"
_symmetry_group_IT_number 2
_symmetry_cell_setting 'triclinic'
loop_
_space_group_symop_operation_xyz
x,y,z
-x,-y,-z
loop_
_atom_site_type_symbol
_atom_site_label
_atom_site_fract_x
_atom_site_fract_y
_atom_site_fract_z
Si Si1 0.016485 0.327136 0.421440
Si Si2 0.485581 0.361671 0.870705
Si Si3 0.494909 0.684259 0.380004
Si Si4 0.362014 0.045628 0.620708
Si Si5 0.789605 0.576890 0.294697
Si Si6 0.367711 0.693533 0.714501
Si Si7 0.218182 0.115257 0.190809
Si Si8 0.804040 0.336598 0.130028
O O1 0.082348 0.367510 0.587264
O O2 0.921344 0.372021 0.278023
O O3 0.134359 0.465647 0.185194
O O4 0.927948 0.105051 0.631584
O O5 0.542587 0.571349 0.592538
O O6 0.507349 0.283701 0.850640
O O7 0.581293 0.399867 0.033378
O O8 0.319589 0.196047 0.009319
O O9 0.603677 0.890976 0.261634
O O10 0.343390 0.556363 0.511523
O O11 0.500393 0.122049 0.538493
O O12 0.304152 0.135017 0.377765
O O13 0.248297 0.814710 0.834748
O O14 0.762253 0.461611 0.283700
O O15 0.821242 0.763102 0.995634
O O16 0.320178 0.752352 0.724395
#
# Coordination Sequence:
#
# PCOD8041527 Si02
#       8
#     2   2   2   2   2   2   2   2
#     4  10  21  37  52  70 100 142 178 206 245 295
#     4   9  17  31  54  81 107 128 159 211 264 307
#     4   9  17  31  54  83 105 127 162 210 264 307
#     4   9  18  34  55  79 103 131 167 208 258 304
#     4  10  19  33  55  79 103 131 167 212 257 303
#     4  10  19  33  53  78 103 131 168 212 259 301
#     4   9  18  34  55  77 104 134 165 208 258 302
#     4  10  21  37  53  70 102 142 175 208 244 295
#
# _framework density 20.054559999999999
#
# number of rings (size 3 to 8) (size 9 to 14) (size 15 to 20)
#    0.000    2.500    0.000    2.250    0.000    3.500 
#    0.000   13.750    0.000    0.000    0.000    0.000 
#    0.000    0.000    0.000    0.000    0.000    0.000 
#
# Total GULP energy -198317.488320 kJ/mol
# GULP energy per Si atom -12394.843020 kJ/mol
# Density = 2.000891 g / cm^3
# Si number density = 20.054560 Si / 1000 Ang^3
#
#
#
# Elastic Constant Matrix: (Units=GPa)
#
#
# Indices 1 2 3 4 5 6 
#
# 1 51.9659 29.4977 9.8716 -2.8258 0.0684 -9.2353
# 2 29.4977 136.6733 33.9332 -2.3637 2.4324 -4.0136
# 3 9.8716 33.9332 62.9862 -11.2920 1.0852 1.2468
# 4 -2.8258 -2.3637 -11.2920 24.5758 1.7527 2.3655
# 5 0.0684 2.4324 1.0852 1.7527 21.8878 5.7457
# 6 -9.2353 -4.0136 1.2468 2.3655 5.7457 27.2846
#
#
#
# Elastic Compliance Matrix: (Units=1/GPa)
#
#
# Indices 1 2 3 4 5 6 
#
# 1 0.023423 -0.004495 -0.001173 0.001108 -0.001589 0.007559
# 2 -0.004495 0.009447 -0.004693 -0.001748 -0.000767 0.000396
# 3 -0.001173 -0.004693 0.020268 0.009021 -0.000496 -0.002691
# 4 0.001108 -0.001748 0.009021 0.045351 -0.002941 -0.003607
# 5 -0.001589 -0.000767 -0.000496 -0.002941 0.048835 -0.010657
# 6 0.007559 0.000396 -0.002691 -0.003607 -0.010657 0.041948
#
#
# Mechanical properties :
#
#
# Convention : Reuss Voigt Hill
#
# Bulk Modulus (GPa) = 30.84888 44.24783 37.54836
# Shear Modulus (GPa) = 22.64496 26.63782 24.64139
#
# Velocity S-wave (km/s) = 3.36395 3.64849 3.50911
# Velocity P-wave (km/s) = 5.52305 6.31350 5.93146
#
# Compressibility (1/GPa) = 0.03241609
#
# Stress axis : x y z
#
# Youngs Moduli (GPa) = 42.69242 105.85354 49.33958
#
# Poissons Ratio (x) = 0.47578 0.05789
# Poissons Ratio (y) = 0.19189 0.23155
# Poissons Ratio (z) = 0.05009 0.49677
#
# Static dielectric constant tensor:
#      x y z
#    x 3.435860 0.057940 -0.022910 
#    y 0.057940 3.672190 0.092760 
#    z -0.022910 0.092760 3.589610 
# 
# 
# High freq. dielectric constant tensor:
#      x y z
#    x 1.758630 0.005940 0.005560 
#    y 0.005940 1.785020 0.005560 
#    z 0.005560 0.005560 1.776740 
# 
# From -- ./inp_files/189383.got.cif
#   From: 2010.06.25/outbox.cif.g09.slc.cpg/sg2_95_cif.got.tgz:189383.got - 2010.06.27 13:26:56.
