data_PCOD8041699
_publ_section_title
;
Structure prediction by ZEFSAII (Michael W. Deem and Ramdas Pophale) SiO2 
 PCOD8041699
Probable space group: P -1
;
_chemical_formula_sum "Si O2"
_cell_formula_units_Z 12
_cell_length_a 10.618533
_cell_length_b 11.211658
_cell_length_c 9.669819
_cell_angle_alpha 39.683305
_cell_angle_beta 79.295641
_cell_angle_gamma 62.602821
_cell_volume 623.191744
_symmetry_space_group_name_H-M "P -1"
_symmetry_group_IT_number 2
_symmetry_cell_setting 'triclinic'
loop_
_space_group_symop_operation_xyz
x,y,z
-x,-y,-z
loop_
_atom_site_type_symbol
_atom_site_label
_atom_site_fract_x
_atom_site_fract_y
_atom_site_fract_z
Si Si1 0.239968 0.501797 0.420591
Si Si2 0.760686 0.909592 0.157929
Si Si3 0.468370 0.674017 0.647541
Si Si4 0.092590 0.877182 0.921855
Si Si5 0.762091 0.150263 0.696426
Si Si6 0.390467 0.784569 0.856539
O O1 0.186173 0.343379 0.635104
O O2 0.394577 0.350949 0.445547
O O3 0.269126 0.626343 0.426636
O O4 0.117142 0.667964 0.190058
O O5 0.899476 0.948801 0.129079
O O6 0.634186 0.026108 0.199662
O O7 0.700407 0.028212 0.916599
O O8 0.319049 0.800053 0.476845
O O9 0.445953 0.811755 0.670448
O O10 0.491020 0.442521 0.895362
O O11 0.230802 0.795426 0.860081
O O12 0.937195 0.989800 0.773380
#
# Coordination Sequence:
#
# PCOD8041699 Si02
#       6
#     2   2   2   2   2   2
#     4  10  19  33  57  75 104 138 165 211 256 298
#     4   9  19  34  55  77 101 134 178 200 252 311
#     4  10  19  35  55  75 105 135 170 212 254 300
#     4   8  19  35  53  77 102 135 172 207 250 304
#     4  11  20  33  54  81 105 128 170 219 252 294
#     4   8  19  37  53  74  99 143 173 198 257 309
#
# _framework density 19.255711000000002
#
# number of rings (size 3 to 8) (size 9 to 14) (size 15 to 20)
#    1.000    1.667    1.667    2.500    0.000    4.667 
#    0.000    0.000    0.000    1.000    0.000    0.000 
#    0.000    0.000    0.000    0.000    0.000    0.000 
#
# Total GULP energy -148678.623272 kJ/mol
# GULP energy per Si atom -12389.885273 kJ/mol
# Density = 1.921188 g / cm^3
# Si number density = 19.255711 Si / 1000 Ang^3
#
#
#
# Elastic Constant Matrix: (Units=GPa)
#
#
# Indices 1 2 3 4 5 6 
#
# 1 53.4532 12.9094 59.3583 -8.0225 11.9730 -3.9577
# 2 12.9094 46.4533 32.4347 -1.2376 0.7341 -9.8178
# 3 59.3583 32.4347 118.3988 -10.0488 3.8872 7.0441
# 4 -8.0225 -1.2376 -10.0488 26.4764 9.7228 -1.8469
# 5 11.9730 0.7341 3.8872 9.7228 40.7551 -14.4037
# 6 -3.9577 -9.8178 7.0441 -1.8469 -14.4037 19.0772
#
#
#
# Elastic Compliance Matrix: (Units=1/GPa)
#
#
# Indices 1 2 3 4 5 6 
#
# 1 0.056297 0.012624 -0.032158 0.009785 -0.006927 0.025767
# 2 0.012624 0.040648 -0.020623 -0.003965 0.012748 0.040394
# 3 -0.032158 -0.020623 0.032469 0.001246 -0.005290 -0.033147
# 4 0.009785 -0.003965 0.001246 0.046726 -0.017236 -0.008961
# 5 -0.006927 0.012748 -0.005290 -0.017236 0.044833 0.039259
# 6 0.025767 0.040394 -0.033147 -0.008961 0.039259 0.119565
#
#
# Mechanical properties :
#
#
# Convention : Reuss Voigt Hill
#
# Bulk Modulus (GPa) = 20.36584 47.52335 33.94460
# Shear Modulus (GPa) = 11.43593 24.83527 18.13560
#
# Velocity S-wave (km/s) = 2.43965 3.59522 3.07225
# Velocity P-wave (km/s) = 4.30527 6.47826 5.50014
#
# Compressibility (1/GPa) = 0.04910183
#
# Stress axis : x y z
#
# Youngs Moduli (GPa) = 17.76286 24.60153 30.79867
#
# Poissons Ratio (x) = -0.31057 0.99041
# Poissons Ratio (y) = -0.22424 0.63515
# Poissons Ratio (z) = 0.57121 0.50735
#
# Static dielectric constant tensor:
#      x y z
#    x 3.060830 -0.226570 0.002050 
#    y -0.226570 3.437410 -0.041600 
#    z 0.002050 -0.041600 3.374160 
# 
# 
# High freq. dielectric constant tensor:
#      x y z
#    x 1.713480 -0.026950 -0.000970 
#    y -0.026950 1.740090 -0.007920 
#    z -0.000970 -0.007920 1.746040 
# 
# From -- ./inp_files/251248.got.cif
#   From: 2010.06.25/outbox.cif.g09.slc.cpg/sg2_126_cif.got.tgz:251248.got - 2010.06.27 13:26:56.
