data_PCOD8041875
_publ_section_title
;
Structure prediction by ZEFSAII (Michael W. Deem and Ramdas Pophale) SiO2 
 PCOD8041875
Probable space group: P -1
;
_chemical_formula_sum "Si O2"
_cell_formula_units_Z 16
_cell_length_a 18.633341
_cell_length_b 14.677774
_cell_length_c 15.509211
_cell_angle_alpha 160.918537
_cell_angle_beta 136.673532
_cell_angle_gamma 51.063117
_cell_volume 917.939249
_symmetry_space_group_name_H-M "P -1"
_symmetry_group_IT_number 2
_symmetry_cell_setting 'triclinic'
loop_
_space_group_symop_operation_xyz
x,y,z
-x,-y,-z
loop_
_atom_site_type_symbol
_atom_site_label
_atom_site_fract_x
_atom_site_fract_y
_atom_site_fract_z
Si Si1 0.974866 0.815120 0.179327
Si Si2 0.723100 0.305834 0.801596
Si Si3 0.915968 0.325005 0.117491
Si Si4 0.396147 0.341370 0.879760
Si Si5 0.941490 0.037229 0.171684
Si Si6 0.773538 0.004213 0.856694
Si Si7 0.640053 0.453384 0.156725
Si Si8 0.109617 0.369561 0.883463
O O1 0.885401 0.688746 0.061869
O O2 0.917417 0.935837 0.158805
O O3 0.070624 0.069526 0.530093
O O4 0.026823 0.564703 0.966400
O O5 0.673648 0.974649 0.437645
O O6 0.819516 0.351390 0.994973
O O7 0.629193 0.430602 0.871491
O O8 0.770319 0.470953 0.902476
O O9 0.988200 0.637720 0.484337
O O10 0.869219 0.165794 0.021819
O O11 0.991284 0.155254 0.986903
O O12 0.363440 0.399881 0.807086
O O13 0.522812 0.364649 0.018887
O O14 0.825074 0.995639 0.988136
O O15 0.723544 0.677610 0.490091
O O16 0.678257 0.163900 0.919951
#
# Coordination Sequence:
#
# PCOD8041875 Si02
#       8
#     2   2   2   2   2   2   2   2
#     4  10  19  34  48  76 102 139 166 205 242 299
#     4  12  19  34  55  79 101 139 163 209 263 306
#     4  12  21  34  49  78 109 138 176 196 238 310
#     4  11  22  35  56  73 103 131 173 217 265 297
#     4  12  22  35  51  74 108 146 171 199 242 302
#     4  12  23  35  52  73 106 142 176 205 246 295
#     4  11  22  38  51  76  99 135 176 220 251 296
#     4  10  20  31  53  73 106 130 169 206 252 297
#
# _framework density 17.430347999999999
#
# number of rings (size 3 to 8) (size 9 to 14) (size 15 to 20)
#    0.000    0.750    5.000    4.500    0.000    2.000 
#    0.000    0.000    0.000    0.000    0.000    5.250 
#    0.000    0.000    0.000    0.000    0.000    0.000 
#
# Total GULP energy -198489.478386 kJ/mol
# GULP energy per Si atom -12405.592399 kJ/mol
# Density = 1.739068 g / cm^3
# Si number density = 17.430348 Si / 1000 Ang^3
#
#
#
# Elastic Constant Matrix: (Units=GPa)
#
#
# Indices 1 2 3 4 5 6 
#
# 1 81.8867 41.5130 18.4692 0.2711 10.0769 3.1121
# 2 41.5130 -14.2584 -26.7383 -30.6531 -6.2737 15.7690
# 3 18.4692 -26.7383 38.2258 -9.4524 -8.3760 7.3907
# 4 0.2711 -30.6531 -9.4524 17.2312 -7.7565 -4.5933
# 5 10.0769 -6.2737 -8.3760 -7.7565 25.9663 10.0406
# 6 3.1121 15.7690 7.3907 -4.5933 10.0406 26.8364
#
#
#
# Elastic Compliance Matrix: (Units=1/GPa)
#
#
# Indices 1 2 3 4 5 6 
#
# 1 0.009649 0.004349 0.001270 0.008044 0.001336 -0.003147
# 2 0.004349 -0.001829 -0.009864 -0.012285 -0.011036 0.005314
# 3 0.001270 -0.009864 0.016664 -0.008483 0.000136 -0.000443
# 4 0.008044 -0.012285 -0.008483 0.033425 -0.005130 0.016263
# 5 0.001336 -0.011036 0.000136 -0.005130 0.037114 -0.008472
# 6 -0.003147 0.005314 -0.000443 0.016263 -0.008472 0.040581
#
#
# Mechanical properties :
#
#
# Convention : Reuss Voigt Hill
#
# Bulk Modulus (GPa) = 62.52144 19.14909 40.83526
# Shear Modulus (GPa) = 33.46156 18.84746 26.15451
#
# Velocity S-wave (km/s) = 4.38623 3.29188 3.87785
# Velocity P-wave (km/s) = 7.84851 5.04565 6.59764
#
# Compressibility (1/GPa) = 0.01599451
#
# Stress axis : x y z
#
# Youngs Moduli (GPa) = 103.63508 -546.64280 60.00799
#
# Poissons Ratio (x) = 2.37741 -0.07623
# Poissons Ratio (y) = -0.45072 0.59194
# Poissons Ratio (z) = -0.13166 -5.39230
#
# Static dielectric constant tensor:
#      x y z
#    x 3.428470 0.088870 -0.033720 
#    y 0.088870 3.293900 0.179740 
#    z -0.033720 0.179740 3.283760 
# 
# 
# High freq. dielectric constant tensor:
#      x y z
#    x 1.674590 -0.002500 -0.010880 
#    y -0.002500 1.654770 0.025060 
#    z -0.010880 0.025060 1.680270 
# 
# From -- ./inp_files/74506.got.cif
#   From: 2010.06.25/outbox.cif.g09.slc.cpg/sg2_38_cif.got.tgz:74506.got - 2010.06.27 13:26:56.
