data_PCOD8041162
_publ_section_title
;
Structure prediction by ZEFSAII (Michael W. Deem and Ramdas Pophale) SiO2 
 PCOD8041162
Probable space group: P -1
;
_chemical_formula_sum "Si O2"
_cell_formula_units_Z 14
_cell_length_a 12.109751
_cell_length_b 19.001767
_cell_length_c 11.849323
_cell_angle_alpha 36.032935
_cell_angle_beta 141.911146
_cell_angle_gamma 151.755107
_cell_volume 731.235374
_symmetry_space_group_name_H-M "P -1"
_symmetry_group_IT_number 2
_symmetry_cell_setting 'triclinic'
loop_
_space_group_symop_operation_xyz
x,y,z
-x,-y,-z
loop_
_atom_site_type_symbol
_atom_site_label
_atom_site_fract_x
_atom_site_fract_y
_atom_site_fract_z
Si Si1 0.377794 0.707235 0.497393
Si Si2 0.191135 0.976145 0.260966
Si Si3 0.594273 0.564677 0.869087
Si Si4 0.920044 0.501678 0.250266
Si Si5 0.531780 0.004794 0.339442
Si Si6 0.680695 0.728182 0.124164
Si Si7 0.790372 0.356404 0.095310
O O1 0.597725 0.709150 0.657584
O O2 0.239987 0.616515 0.620971
O O3 0.199565 0.623003 0.355037
O O4 0.481849 0.889421 0.347214
O O5 0.366592 0.028701 0.435223
O O6 0.916725 0.809531 0.286373
O O7 0.282920 0.954201 0.247403
O O8 0.216472 0.130250 0.067773
O O9 0.395695 0.425475 0.802396
O O10 0.500000 0.500000 0.000000
O O11 0.847170 0.604170 0.015622
O O12 0.869979 0.392550 0.244388
O O13 0.728602 0.193548 0.218066
O O14 0.451528 0.673908 0.080328
O O15 0.000000 0.500000 0.000000
#
# Coordination Sequence:
#
# PCOD8041162 Si02
#       7
#     2   2   2   2   2   2   2
#     4  10  19  31  54  87 108 133 175 220 293 321
#     4   9  17  30  52  79 111 129 169 229 280 313
#     4   9  17  28  47  77 114 136 164 209 274 334
#     4   9  19  33  54  80 109 142 172 222 272 328
#     4  10  19  31  52  80 107 137 174 225 269 320
#     4   9  18  31  51  80 104 139 173 220 272 321
#     4  10  21  39  55  72 105 151 189 216 258 319
#
# _framework density 19.145681
#
# number of rings (size 3 to 8) (size 9 to 14) (size 15 to 20)
#    0.000    2.571    0.000    4.286    8.000    0.000 
#    2.571    1.429    0.000    3.429    0.000    0.000 
#    0.000    0.000    0.000    0.000    0.000    0.000 
#
# Total GULP energy -173448.908523 kJ/mol
# GULP energy per Si atom -12389.207752 kJ/mol
# Density = 1.910210 g / cm^3
# Si number density = 19.145681 Si / 1000 Ang^3
#
#
#
# Elastic Constant Matrix: (Units=GPa)
#
#
# Indices 1 2 3 4 5 6 
#
# 1 42.4004 39.8447 21.5217 -4.2605 8.5545 1.6881
# 2 39.8447 106.7180 43.1961 -5.4093 13.8404 -5.2762
# 3 21.5217 43.1961 64.2132 3.0059 21.3544 -4.8105
# 4 -4.2605 -5.4093 3.0059 32.4034 -4.3972 8.5861
# 5 8.5545 13.8404 21.3544 -4.3972 22.8385 -7.4611
# 6 1.6881 -5.2762 -4.8105 8.5861 -7.4611 31.9930
#
#
#
# Elastic Compliance Matrix: (Units=1/GPa)
#
#
# Indices 1 2 3 4 5 6 
#
# 1 0.038988 -0.012515 -0.003750 0.004588 -0.004938 -0.007068
# 2 -0.012515 0.017223 -0.008361 0.001776 0.003233 0.002521
# 3 -0.003750 -0.008361 0.030746 -0.007980 -0.023802 0.000033
# 4 0.004588 0.001776 -0.007980 0.036012 0.008733 -0.008777
# 5 -0.004938 0.003233 -0.023802 0.008733 0.071375 0.011517
# 6 -0.007068 0.002521 0.000033 -0.008777 0.011517 0.037092
#
#
# Mechanical properties :
#
#
# Convention : Reuss Voigt Hill
#
# Bulk Modulus (GPa) = 26.52224 46.93961 36.73092
# Shear Modulus (GPa) = 17.05002 24.69824 20.87413
#
# Velocity S-wave (km/s) = 2.98743 3.59558 3.30552
# Velocity P-wave (km/s) = 5.07766 6.46590 5.81337
#
# Compressibility (1/GPa) = 0.03770421
#
# Stress axis : x y z
#
# Youngs Moduli (GPa) = 25.64915 58.06326 32.52476
#
# Poissons Ratio (x) = 0.72667 0.12197
# Poissons Ratio (y) = 0.32100 0.27193
# Poissons Ratio (z) = 0.09619 0.48545
#
# Static dielectric constant tensor:
#      x y z
#    x 3.271450 -0.216820 0.550010 
#    y -0.216820 3.580440 0.158970 
#    z 0.550010 0.158970 3.687390 
# 
# 
# High freq. dielectric constant tensor:
#      x y z
#    x 1.697260 -0.023800 0.041120 
#    y -0.023800 1.743680 0.013770 
#    z 0.041120 0.013770 1.736170 
# 
# From -- ./inp_files/165057.got.cif
#   From: 2010.06.25/outbox.cif.g09.slc.cpg/sg2_83_cif.got.tgz:165057.got - 2010.06.27 13:26:56.
