data_PCOD8041764
_publ_section_title
;
Structure prediction by ZEFSAII (Michael W. Deem and Ramdas Pophale) SiO2 
 PCOD8041764
Probable space group: P -1
;
_chemical_formula_sum "Si O2"
_cell_formula_units_Z 16
_cell_length_a 8.559582
_cell_length_b 11.271714
_cell_length_c 12.234167
_cell_angle_alpha 128.196401
_cell_angle_beta 60.515721
_cell_angle_gamma 103.457571
_cell_volume 803.068973
_symmetry_space_group_name_H-M "P -1"
_symmetry_group_IT_number 2
_symmetry_cell_setting 'triclinic'
loop_
_space_group_symop_operation_xyz
x,y,z
-x,-y,-z
loop_
_atom_site_type_symbol
_atom_site_label
_atom_site_fract_x
_atom_site_fract_y
_atom_site_fract_z
Si Si1 0.489450 0.340585 0.967928
Si Si2 0.951695 0.707612 0.532266
Si Si3 0.367939 0.073620 0.730298
Si Si4 0.137719 0.006386 0.586905
Si Si5 0.210283 0.840066 0.119739
Si Si6 0.009185 0.853558 0.986246
Si Si7 0.876575 0.619524 0.752645
Si Si8 0.678560 0.914555 0.641625
O O1 0.323525 0.341501 0.109305
O O2 0.500000 0.500000 0.000000
O O3 0.671065 0.308141 0.959019
O O4 0.481589 0.215568 0.801521
O O5 0.067056 0.559757 0.361299
O O6 0.887926 0.682446 0.662678
O O7 0.767244 0.745021 0.544767
O O8 0.073425 0.847604 0.561204
O O9 0.331083 0.034548 0.593681
O O10 0.476261 0.924720 0.667324
O O11 0.817064 0.990465 0.555053
O O12 0.169370 0.118464 0.866230
O O13 0.985826 0.144013 0.745869
O O14 0.319098 0.985305 0.191500
O O15 0.183694 0.832665 0.993584
O O16 0.016178 0.702223 0.825105
O O17 0.000000 0.000000 0.000000
#
# Coordination Sequence:
#
# PCOD8041764 Si02
#       8
#     2   2   2   2   2   2   2   2
#     4  10  22  37  57  78 117 148 182 235 277 325
#     4  10  21  37  57  81 113 148 184 224 279 337
#     4   9  20  35  52  88 104 138 197 222 278 322
#     4  10  19  35  59  81 111 145 188 230 271 326
#     4   9  19  34  54  83 100 141 194 216 276 327
#     4  10  19  37  60  79 111 143 182 235 274 330
#     4  10  22  38  55  83 113 148 183 224 284 333
#     4  10  19  33  58  81 113 145 187 229 271 326
#
# _framework density 19.923566999999998
#
# number of rings (size 3 to 8) (size 9 to 14) (size 15 to 20)
#    0.000    2.250    0.000    4.125    5.250    1.000 
#    2.250    7.500    0.000    3.750    0.000    0.000 
#    0.000    0.000    0.000    0.000    0.000    0.000 
#
# Total GULP energy -198255.759651 kJ/mol
# GULP energy per Si atom -12390.984978 kJ/mol
# Density = 1.987822 g / cm^3
# Si number density = 19.923567 Si / 1000 Ang^3
#
#
#
# Elastic Constant Matrix: (Units=GPa)
#
#
# Indices 1 2 3 4 5 6 
#
# 1 146.6930 46.1910 41.3630 21.6007 -0.8008 -26.8816
# 2 46.1910 100.9029 35.2171 16.2228 4.3092 -19.8719
# 3 41.3630 35.2171 71.6001 18.7179 -0.0892 -10.6813
# 4 21.6007 16.2228 18.7179 21.3551 -8.6246 -7.4285
# 5 -0.8008 4.3092 -0.0892 -8.6246 29.0227 4.2463
# 6 -26.8816 -19.8719 -10.6813 -7.4285 4.2463 28.9775
#
#
#
# Elastic Compliance Matrix: (Units=1/GPa)
#
#
# Indices 1 2 3 4 5 6 
#
# 1 0.009932 -0.001458 -0.002751 -0.005175 -0.001957 0.006160
# 2 -0.001458 0.014255 -0.003704 -0.005883 -0.004832 0.006258
# 3 -0.002751 -0.003704 0.021111 -0.014585 -0.003722 -0.000505
# 4 -0.005175 -0.005883 -0.014585 0.079992 0.024051 0.002771
# 5 -0.001957 -0.004832 -0.003722 0.024051 0.043231 -0.006670
# 6 0.006160 0.006258 -0.000505 0.002771 -0.006670 0.046017
#
#
# Mechanical properties :
#
#
# Convention : Reuss Voigt Hill
#
# Bulk Modulus (GPa) = 33.93052 62.74869 48.33961
# Shear Modulus (GPa) = 20.81701 28.96606 24.89154
#
# Velocity S-wave (km/s) = 3.23591 3.81709 3.53845
# Velocity P-wave (km/s) = 5.57035 7.14073 6.40386
#
# Compressibility (1/GPa) = 0.02947199
#
# Stress axis : x y z
#
# Youngs Moduli (GPa) = 100.68614 70.14973 47.36915
#
# Poissons Ratio (x) = 0.10225 0.13033
# Poissons Ratio (y) = 0.14676 0.17546
# Poissons Ratio (z) = 0.27702 0.25984
#
# Static dielectric constant tensor:
#      x y z
#    x 4.172570 -0.199080 0.118280 
#    y -0.199080 3.320880 0.071450 
#    z 0.118280 0.071450 3.828780 
# 
# 
# High freq. dielectric constant tensor:
#      x y z
#    x 1.793370 -0.018800 -0.003230 
#    y -0.018800 1.745400 -0.003450 
#    z -0.003230 -0.003450 1.781940 
# 
# From -- ./inp_files/499373.got.cif
#   From: 2010.06.25/outbox.cif.g09.slc.cpg/sg2_250_cif.got.tgz:499373.got - 2010.06.27 13:26:56.
