data_PCOD8041864
_publ_section_title
;
Structure prediction by ZEFSAII (Michael W. Deem and Ramdas Pophale) SiO2 
 PCOD8041864
Probable space group: P -1
;
_chemical_formula_sum "Si O2"
_cell_formula_units_Z 16
_cell_length_a 14.829636
_cell_length_b 20.906507
_cell_length_c 9.150459
_cell_angle_alpha 109.097281
_cell_angle_beta 120.810388
_cell_angle_gamma 21.660454
_cell_volume 794.038668
_symmetry_space_group_name_H-M "P -1"
_symmetry_group_IT_number 2
_symmetry_cell_setting 'triclinic'
loop_
_space_group_symop_operation_xyz
x,y,z
-x,-y,-z
loop_
_atom_site_type_symbol
_atom_site_label
_atom_site_fract_x
_atom_site_fract_y
_atom_site_fract_z
Si Si1 0.484110 0.685016 0.453034
Si Si2 0.854107 0.749879 0.237575
Si Si3 0.156651 0.016524 0.389915
Si Si4 0.166999 0.657690 0.923497
Si Si5 0.304281 0.722584 0.039266
Si Si6 0.767484 0.282477 0.546152
Si Si7 0.698540 0.928739 0.509497
Si Si8 0.206069 0.106760 0.937871
O O1 0.362331 0.833746 0.495766
O O2 0.373247 0.733912 0.233429
O O3 0.352025 0.716388 0.491595
O O4 0.852356 0.464681 0.610886
O O5 0.711255 0.891257 0.332376
O O6 0.925913 0.749288 0.153101
O O7 0.569823 0.871881 0.058393
O O8 0.387834 0.938910 0.481990
O O9 0.893130 0.199097 0.422683
O O10 0.005905 0.077863 0.160223
O O11 0.426323 0.442598 0.983722
O O12 0.038278 0.728649 0.705806
O O13 0.307486 0.646755 0.061894
O O14 0.889864 0.814004 0.919917
O O15 0.500000 0.500000 0.500000
O O16 0.047538 0.134518 0.771578
O O17 0.500000 0.000000 0.500000
#
# Coordination Sequence:
#
# PCOD8041864 Si02
#       8
#     2   2   2   2   2   2   2   2
#     4  12  23  41  62  91 132 163 197 257 321 367
#     4  11  23  38  62  91 123 163 206 257 301 366
#     4  11  25  40  60  94 127 159 203 259 316 368
#     4  10  19  33  62  94 115 153 216 256 297 350
#     4  10  21  35  61  92 121 158 202 261 304 364
#     4  12  22  41  68  93 118 165 212 254 300 368
#     4  11  20  39  64  85 118 162 211 256 300 362
#     4  11  21  37  64  92 121 156 216 257 294 354
#
# _framework density 20.150154000000001
#
# number of rings (size 3 to 8) (size 9 to 14) (size 15 to 20)
#    0.000    1.000    6.250    1.500    1.750    0.000 
#    0.000    1.250    2.750    0.000    0.000    0.000 
#    0.000    0.000    0.000    0.000    0.000    0.000 
#
# Total GULP energy -198234.630701 kJ/mol
# GULP energy per Si atom -12389.664419 kJ/mol
# Density = 2.010429 g / cm^3
# Si number density = 20.150154 Si / 1000 Ang^3
#
#
#
# Elastic Constant Matrix: (Units=GPa)
#
#
# Indices 1 2 3 4 5 6 
#
# 1 118.7189 52.1270 24.0226 -10.9086 3.0118 4.4872
# 2 52.1270 86.2426 26.4666 -9.2992 0.5099 6.6734
# 3 24.0226 26.4666 96.1365 -9.0648 5.7811 1.8292
# 4 -10.9086 -9.2992 -9.0648 27.1450 -7.4750 -6.1204
# 5 3.0118 0.5099 5.7811 -7.4750 27.8166 -0.4185
# 6 4.4872 6.6734 1.8292 -6.1204 -0.4185 31.4158
#
#
#
# Elastic Compliance Matrix: (Units=1/GPa)
#
#
# Indices 1 2 3 4 5 6 
#
# 1 0.011686 -0.006577 -0.000893 0.002075 -0.000399 0.000179
# 2 -0.006577 0.016820 -0.002840 0.002136 0.001537 -0.002032
# 3 -0.000893 -0.002840 0.011708 0.002219 -0.001681 0.000459
# 4 0.002075 0.002136 0.002219 0.044003 0.011218 0.007843
# 5 -0.000399 0.001537 -0.001681 0.011218 0.039367 0.002538
# 6 0.000179 -0.002032 0.000459 0.007843 0.002538 0.033772
#
#
# Mechanical properties :
#
#
# Convention : Reuss Voigt Hill
#
# Bulk Modulus (GPa) = 51.03271 56.25896 53.64584
# Shear Modulus (GPa) = 27.09917 30.50760 28.80338
#
# Velocity S-wave (km/s) = 3.67121 3.89525 3.78489
# Velocity P-wave (km/s) = 6.58419 6.94342 6.76619
#
# Compressibility (1/GPa) = 0.01959527
#
# Stress axis : x y z
#
# Youngs Moduli (GPa) = 85.57430 59.45219 85.40876
#
# Poissons Ratio (x) = 0.39100 0.07629
# Poissons Ratio (y) = 0.56280 0.24253
# Poissons Ratio (z) = 0.07643 0.16882
#
# Static dielectric constant tensor:
#      x y z
#    x 3.751940 -0.254660 0.068030 
#    y -0.254660 3.504600 0.011440 
#    z 0.068030 0.011440 3.805420 
# 
# 
# High freq. dielectric constant tensor:
#      x y z
#    x 1.774260 -0.020550 -0.001470 
#    y -0.020550 1.761240 0.000910 
#    z -0.001470 0.000910 1.804920 
# 
# From -- ./inp_files/215518.got.cif
#   From: 2010.06.25/outbox.cif.g09.slc.cpg/sg2_108_cif.got.tgz:215518.got - 2010.06.27 13:26:56.
