data_PCOD8041388
_publ_section_title
;
Structure prediction by ZEFSAII (Michael W. Deem and Ramdas Pophale) SiO2 
 PCOD8041388
Probable space group: P -1
;
_chemical_formula_sum "Si O2"
_cell_formula_units_Z 14
_cell_length_a 18.954180
_cell_length_b 25.210279
_cell_length_c 5.124785
_cell_angle_alpha 115.190061
_cell_angle_beta 58.162073
_cell_angle_gamma 161.454965
_cell_volume 636.015626
_symmetry_space_group_name_H-M "P -1"
_symmetry_group_IT_number 2
_symmetry_cell_setting 'triclinic'
loop_
_space_group_symop_operation_xyz
x,y,z
-x,-y,-z
loop_
_atom_site_type_symbol
_atom_site_label
_atom_site_fract_x
_atom_site_fract_y
_atom_site_fract_z
Si Si1 0.461523 0.514289 0.353601
Si Si2 0.789684 0.184921 0.318442
Si Si3 0.046489 0.318722 0.586315
Si Si4 0.717114 0.804168 0.579442
Si Si5 0.531717 0.316105 0.659182
Si Si6 0.707583 0.304762 0.215996
Si Si7 0.787517 0.311811 0.572842
O O1 0.500000 0.500000 0.500000
O O2 0.184494 0.353649 0.507523
O O3 0.652950 0.695025 0.390558
O O4 0.500000 0.500000 0.000000
O O5 0.902106 0.324655 0.447861
O O6 0.892648 0.207941 0.384349
O O7 0.500000 0.000000 0.500000
O O8 0.859027 0.212956 0.952340
O O9 0.244718 0.499823 0.515507
O O10 0.680315 0.820719 0.432444
O O11 0.549144 0.711714 0.960806
O O12 0.000000 0.000000 0.500000
O O13 0.602375 0.295619 0.505454
O O14 0.638653 0.211330 0.379269
O O15 0.599484 0.209410 0.952554
O O16 0.000000 0.500000 0.000000
O O17 0.000000 0.500000 0.500000
#
# Coordination Sequence:
#
# PCOD8041388 Si02
#       7
#     2   2   2   2   2   2   2
#     4  11  23  43  69  95 123 167 218 269 324 390
#     4  12  24  40  60  90 129 168 209 262 313 368
#     4  11  22  41  65  89 121 170 218 253 310 396
#     4  11  24  43  66  97 129 162 208 271 332 382
#     4  11  21  39  66  94 123 169 214 254 314 392
#     4  10  19  32  55  87 117 150 199 250 286 343
#     4  10  19  34  55  80 115 158 199 243 292 353
#
# _framework density 22.012038
#
# number of rings (size 3 to 8) (size 9 to 14) (size 15 to 20)
#    0.000    1.143    0.000   10.286    0.000    0.000 
#    0.000    8.571    0.000    0.000    0.000    0.000 
#    0.000    0.000    0.000    0.000    0.000    0.000 
#
# Total GULP energy -173437.563024 kJ/mol
# GULP energy per Si atom -12388.397359 kJ/mol
# Density = 2.196194 g / cm^3
# Si number density = 22.012038 Si / 1000 Ang^3
#
#
#
# Elastic Constant Matrix: (Units=GPa)
#
#
# Indices 1 2 3 4 5 6 
#
# 1 161.2646 30.0668 56.0177 12.5476 6.2535 22.6066
# 2 30.0668 71.0224 31.8326 -2.8450 -1.5823 14.5929
# 3 56.0177 31.8326 168.5978 22.7099 17.8372 0.9739
# 4 12.5476 -2.8450 22.7099 32.2703 11.4449 -0.4789
# 5 6.2535 -1.5823 17.8372 11.4449 47.9530 10.4296
# 6 22.6066 14.5929 0.9739 -0.4789 10.4296 30.6993
#
#
#
# Elastic Compliance Matrix: (Units=1/GPa)
#
#
# Indices 1 2 3 4 5 6 
#
# 1 0.008188 -0.001276 -0.002300 -0.002330 0.001591 -0.005927
# 2 -0.001276 0.018323 -0.003801 0.003508 0.003239 -0.008695
# 3 -0.002300 -0.003801 0.008250 -0.004196 -0.002789 0.004121
# 4 -0.002330 0.003508 -0.004196 0.037985 -0.007832 0.003435
# 5 0.001591 0.003239 -0.002789 -0.007832 0.026192 -0.011643
# 6 -0.005927 -0.008695 0.004121 0.003435 -0.011643 0.044951
#
#
# Mechanical properties :
#
#
# Convention : Reuss Voigt Hill
#
# Bulk Modulus (GPa) = 49.97967 70.74656 60.36311
# Shear Modulus (GPa) = 30.24610 41.04903 35.64756
#
# Velocity S-wave (km/s) = 3.71087 4.32307 4.02861
# Velocity P-wave (km/s) = 6.41215 7.55833 7.00871
#
# Compressibility (1/GPa) = 0.02000813
#
# Stress axis : x y z
#
# Youngs Moduli (GPa) = 122.12645 54.57651 121.21921
#
# Poissons Ratio (x) = 0.06962 0.27880
# Poissons Ratio (y) = 0.15578 0.46071
# Poissons Ratio (z) = 0.28089 0.20743
#
# Static dielectric constant tensor:
#      x y z
#    x 4.505020 -0.086930 -0.379590 
#    y -0.086930 3.516780 -0.178900 
#    z -0.379590 -0.178900 3.591800 
# 
# 
# High freq. dielectric constant tensor:
#      x y z
#    x 1.891330 0.017730 0.015530 
#    y 0.017730 1.837100 0.018620 
#    z 0.015530 0.018620 1.878350 
# 
# From -- ./inp_files/112967.got.cif
#   From: 2010.06.25/outbox.cif.g09.slc.cpg/sg2_57_cif.got.tgz:112967.got - 2010.06.27 13:26:56.
