data_PCOD8041783
_publ_section_title
;
Structure prediction by ZEFSAII (Michael W. Deem and Ramdas Pophale) SiO2 
 PCOD8041783
Probable space group: P -1
;
_chemical_formula_sum "Si O2"
_cell_formula_units_Z 16
_cell_length_a 14.624555
_cell_length_b 14.256431
_cell_length_c 14.607292
_cell_angle_alpha 134.618074
_cell_angle_beta 19.612842
_cell_angle_gamma 139.469096
_cell_volume 663.042587
_symmetry_space_group_name_H-M "P -1"
_symmetry_group_IT_number 2
_symmetry_cell_setting 'triclinic'
loop_
_space_group_symop_operation_xyz
x,y,z
-x,-y,-z
loop_
_atom_site_type_symbol
_atom_site_label
_atom_site_fract_x
_atom_site_fract_y
_atom_site_fract_z
Si Si1 0.889383 0.620476 0.715153
Si Si2 0.519293 0.723386 0.252308
Si Si3 0.829012 0.718617 0.508452
Si Si4 0.723802 0.957592 0.076891
Si Si5 0.448300 0.386165 0.657540
Si Si6 0.383990 0.843919 0.954756
Si Si7 0.932792 0.156626 0.442450
Si Si8 0.795757 0.239760 0.133426
O O1 0.000000 0.500000 0.500000
O O2 0.185285 0.718131 0.562210
O O3 0.853403 0.695646 0.708087
O O4 0.589367 0.596952 0.042692
O O5 0.598740 0.708461 0.271104
O O6 0.733319 0.878090 0.109722
O O7 0.648246 0.555239 0.602255
O O8 0.097102 0.726536 0.196003
O O9 0.972738 0.828912 0.531862
O O10 0.631687 0.780532 0.680024
O O11 0.763809 0.122676 0.163721
O O12 0.408881 0.866065 0.260654
O O13 0.996857 0.967966 0.759537
O O14 0.590494 0.323491 0.403041
O O15 0.129563 0.364436 0.902850
O O16 0.304103 0.851533 0.929038
O O17 0.500000 0.000000 0.000000
#
# Coordination Sequence:
#
# PCOD8041783 Si02
#       8
#     2   2   2   2   2   2   2   2
#     4  10  19  33  58  89 129 170 212 264 315 378
#     4  10  22  39  60  93 131 174 222 259 317 382
#     4  12  25  43  68  99 137 169 213 270 325 398
#     4  10  22  41  66  95 130 172 222 280 319 366
#     4  12  27  43  66  98 136 181 215 256 323 401
#     4  12  27  47  74 100 124 164 218 279 337 384
#     4  10  20  37  63  94 126 165 212 272 333 369
#     4  12  26  45  67  94 131 173 223 270 323 390
#
# _framework density 24.131178999999999
#
# number of rings (size 3 to 8) (size 9 to 14) (size 15 to 20)
#    0.000    1.000    0.000    6.750    0.000    7.000 
#    0.000    0.000    0.000    0.000    0.000    0.000 
#    0.000    0.000    0.000    0.000    0.000    0.000 
#
# Total GULP energy -198323.329037 kJ/mol
# GULP energy per Si atom -12395.208065 kJ/mol
# Density = 2.407625 g / cm^3
# Si number density = 24.131179 Si / 1000 Ang^3
#
#
#
# Elastic Constant Matrix: (Units=GPa)
#
#
# Indices 1 2 3 4 5 6 
#
# 1 96.8138 15.2270 21.1434 -7.4341 0.9624 -3.8093
# 2 15.2270 79.6414 12.7746 0.9451 0.3881 -1.8171
# 3 21.1434 12.7746 81.7212 3.0833 4.3334 -24.0160
# 4 -7.4341 0.9451 3.0833 26.1870 -1.6982 3.4835
# 5 0.9624 0.3881 4.3334 -1.6982 30.3495 7.1322
# 6 -3.8093 -1.8171 -24.0160 3.4835 7.1322 14.5297
#
#
#
# Elastic Compliance Matrix: (Units=1/GPa)
#
#
# Indices 1 2 3 4 5 6 
#
# 1 0.011970 -0.001593 -0.006391 0.005851 0.003394 -0.010694
# 2 -0.001593 0.013243 -0.003083 0.000133 0.001405 -0.004579
# 3 -0.006391 -0.003083 0.040849 -0.019237 -0.026150 0.082907
# 4 0.005851 0.000133 -0.019237 0.049973 0.017272 -0.050706
# 5 0.003394 0.001405 -0.026150 0.017272 0.054716 -0.073158
# 6 -0.010694 -0.004579 0.082907 -0.050706 -0.073158 0.250554
#
#
# Mechanical properties :
#
#
# Convention : Reuss Voigt Hill
#
# Bulk Modulus (GPa) = 22.76519 39.60738 31.18629
# Shear Modulus (GPa) = 10.91503 28.14867 19.53185
#
# Velocity S-wave (km/s) = 2.12909 3.41909 2.84809
# Velocity P-wave (km/s) = 3.93681 5.66003 4.87516
#
# Compressibility (1/GPa) = 0.04392671
#
# Stress axis : x y z
#
# Youngs Moduli (GPa) = 83.53994 75.51412 24.48017
#
# Poissons Ratio (x) = 0.12033 0.15646
# Poissons Ratio (y) = 0.13312 0.07547
# Poissons Ratio (z) = 0.53394 0.23280
#
# Static dielectric constant tensor:
#      x y z
#    x 4.031720 -0.126220 0.345510 
#    y -0.126220 4.260970 0.013590 
#    z 0.345510 0.013590 3.377240 
# 
# 
# High freq. dielectric constant tensor:
#      x y z
#    x 1.947770 -0.006800 -0.010410 
#    y -0.006800 1.949150 -0.003120 
#    z -0.010410 -0.003120 1.979040 
# 
# From -- ./inp_files/534402.got.cif
#   From: 2010.06.25/outbox.cif.g09.slc.cpg/sg2_268_cif.got.tgz:534402.got - 2010.06.27 13:26:56.
