data_PCOD8041423
_publ_section_title
;
Structure prediction by ZEFSAII (Michael W. Deem and Ramdas Pophale) SiO2 
 PCOD8041423
Probable space group: P -1
;
_chemical_formula_sum "Si O2"
_cell_formula_units_Z 16
_cell_length_a 15.581020
_cell_length_b 8.951453
_cell_length_c 21.826491
_cell_angle_alpha 140.487157
_cell_angle_beta 29.039999
_cell_angle_gamma 143.181866
_cell_volume 858.331093
_symmetry_space_group_name_H-M "P -1"
_symmetry_group_IT_number 2
_symmetry_cell_setting 'triclinic'
loop_
_space_group_symop_operation_xyz
x,y,z
-x,-y,-z
loop_
_atom_site_type_symbol
_atom_site_label
_atom_site_fract_x
_atom_site_fract_y
_atom_site_fract_z
Si Si1 0.457533 0.023741 0.733837
Si Si2 0.577859 0.364943 0.271285
Si Si3 0.168992 0.730533 0.499882
Si Si4 0.647964 0.302683 0.503880
Si Si5 0.140207 0.786740 0.014466
Si Si6 0.121161 0.602712 0.733475
Si Si7 0.924801 0.790565 0.263011
Si Si8 0.867969 0.876988 0.984645
O O1 0.633351 0.201622 0.639145
O O2 0.532643 0.858999 0.680738
O O3 0.278559 0.828634 0.745441
O O4 0.361269 0.200829 0.883317
O O5 0.453622 0.500714 0.360049
O O6 0.747871 0.594592 0.272515
O O7 0.648222 0.215556 0.128471
O O8 0.198509 0.642837 0.520887
O O9 0.000000 0.500000 0.500000
O O10 0.114283 0.970076 0.615058
O O11 0.771993 0.402291 0.397142
O O12 0.500000 0.000000 0.500000
O O13 0.114861 0.879058 0.128103
O O14 0.078521 0.939160 0.049547
O O15 0.000000 0.500000 0.000000
O O16 0.047420 0.335761 0.731512
O O17 0.923502 0.642020 0.856622
O O18 0.000000 0.000000 0.000000
#
# Coordination Sequence:
#
# PCOD8041423 Si02
#       8
#     2   2   2   2   2   2   2   2
#     4   9  18  35  53  81 117 147 182 230 285 334
#     4   9  18  32  57  86 110 143 183 238 287 321
#     4  12  25  38  55  80 118 156 185 230 284 340
#     4  12  21  34  57  85 108 143 193 241 270 329
#     4   9  17  28  51  83 117 143 174 232 291 333
#     4  10  19  32  57  87 110 144 185 242 285 323
#     4  10  19  35  54  81 117 148 185 232 288 335
#     4   9  17  28  50  84 116 142 180 231 287 332
#
# _framework density 18.640825
#
# number of rings (size 3 to 8) (size 9 to 14) (size 15 to 20)
#    0.000    2.000    2.500    3.750    1.750    3.000 
#    0.000    2.500    0.000    9.750    0.000    0.000 
#    0.000    0.000    0.000    0.000    0.000    0.000 
#
# Total GULP energy -198216.594184 kJ/mol
# GULP energy per Si atom -12388.537137 kJ/mol
# Density = 1.859840 g / cm^3
# Si number density = 18.640825 Si / 1000 Ang^3
#
#
#
# Elastic Constant Matrix: (Units=GPa)
#
#
# Indices 1 2 3 4 5 6 
#
# 1 101.7150 47.4934 54.2178 7.1858 -4.2636 -34.7067
# 2 47.4934 49.1955 49.1290 1.3608 -2.7179 -23.9517
# 3 54.2178 49.1290 139.3728 2.0040 -6.8364 -29.8609
# 4 7.1858 1.3608 2.0040 16.2054 -19.7879 0.9418
# 5 -4.2636 -2.7179 -6.8364 -19.7879 32.7792 1.7293
# 6 -34.7067 -23.9517 -29.8609 0.9418 1.7293 35.6799
#
#
#
# Elastic Compliance Matrix: (Units=1/GPa)
#
#
# Indices 1 2 3 4 5 6 
#
# 1 0.023952 -0.015012 -0.001553 -0.034116 -0.019775 0.013781
# 2 -0.015012 0.048793 -0.009077 0.010275 0.005875 0.009999
# 3 -0.001553 -0.009077 0.011481 0.006059 0.005013 0.001602
# 4 -0.034116 0.010275 0.006059 0.292856 0.176446 -0.037498
# 5 -0.019775 0.005875 0.005013 0.176446 0.137165 -0.022401
# 6 0.013781 0.009999 0.001602 -0.037498 -0.022401 0.051560
#
#
# Mechanical properties :
#
#
# Convention : Reuss Voigt Hill
#
# Bulk Modulus (GPa) = 30.35623 65.77374 48.06498
# Shear Modulus (GPa) = 7.96087 26.22910 17.09499
#
# Velocity S-wave (km/s) = 2.06880 3.75517 3.03161
# Velocity P-wave (km/s) = 4.69327 7.35956 6.17211
#
# Compressibility (1/GPa) = 0.03294217
#
# Stress axis : x y z
#
# Youngs Moduli (GPa) = 41.75007 20.49469 87.10361
#
# Poissons Ratio (x) = 0.30767 0.13525
# Poissons Ratio (y) = 0.62676 0.79063
# Poissons Ratio (z) = 0.06483 0.18603
#
# Static dielectric constant tensor:
#      x y z
#    x 3.388010 -0.444530 0.028540 
#    y -0.444530 3.065120 0.169260 
#    z 0.028540 0.169260 4.341010 
# 
# 
# High freq. dielectric constant tensor:
#      x y z
#    x 1.705450 -0.052230 0.000080 
#    y -0.052230 1.679720 0.001010 
#    z 0.000080 0.001010 1.750830 
# 
# From -- ./inp_files/227503.got.cif
#   From: 2010.06.25/outbox.cif.g09.slc.cpg/sg2_114_cif.got.tgz:227503.got - 2010.06.27 13:26:56.
