data_PCOD8041584
_publ_section_title
;
Structure prediction by ZEFSAII (Michael W. Deem and Ramdas Pophale) SiO2 
 PCOD8041584
Probable space group: P -1
;
_chemical_formula_sum "Si O2"
_cell_formula_units_Z 16
_cell_length_a 16.176360
_cell_length_b 24.161694
_cell_length_c 6.584171
_cell_angle_alpha 62.616931
_cell_angle_beta 62.842767
_cell_angle_gamma 18.281788
_cell_volume 715.006216
_symmetry_space_group_name_H-M "P -1"
_symmetry_group_IT_number 2
_symmetry_cell_setting 'triclinic'
loop_
_space_group_symop_operation_xyz
x,y,z
-x,-y,-z
loop_
_atom_site_type_symbol
_atom_site_label
_atom_site_fract_x
_atom_site_fract_y
_atom_site_fract_z
Si Si1 0.411596 0.762557 0.907137
Si Si2 0.921595 0.808883 0.355231
Si Si3 0.759791 0.604251 0.074772
Si Si4 0.876926 0.729157 0.827499
Si Si5 0.779516 0.425682 0.960349
Si Si6 0.416621 0.922467 0.059949
Si Si7 0.086260 0.768594 0.626297
Si Si8 0.929180 0.083396 0.634045
O O1 0.191443 0.931857 0.728448
O O2 0.636444 0.672116 0.869896
O O3 0.528552 0.628824 0.886118
O O4 0.289626 0.817004 0.166127
O O5 0.779501 0.843675 0.588121
O O6 0.080788 0.754839 0.418040
O O7 0.129098 0.645771 0.248496
O O8 0.710734 0.982889 0.176882
O O9 0.531486 0.779131 0.174485
O O10 0.884174 0.458849 0.239112
O O11 0.000000 0.500000 0.000000
O O12 0.983822 0.691927 0.977868
O O13 0.642795 0.831732 0.992026
O O14 0.708475 0.405177 0.190207
O O15 0.206546 0.058591 0.244627
O O16 0.183449 0.778152 0.533928
O O17 0.000000 0.000000 0.500000
#
# Coordination Sequence:
#
# PCOD8041584 Si02
#       8
#     2   2   2   2   2   2   2   2
#     4  10  22  41  62  89 119 153 199 242 290 352
#     4  10  20  34  55  80 114 155 193 235 287 344
#     4   9  18  36  61  86 117 152 187 238 295 345
#     4   9  19  34  54  83 115 153 193 234 290 347
#     4   9  21  38  56  82 118 150 191 243 287 343
#     4  10  19  33  54  82 118 152 192 240 284 344
#     4  10  22  37  56  84 113 150 195 238 290 345
#     4  11  24  41  64  88 116 155 197 244 294 344
#
# _framework density 22.377427000000001
#
# number of rings (size 3 to 8) (size 9 to 14) (size 15 to 20)
#    0.000    2.250    0.000    1.875    0.000   13.000 
#    0.000    1.250    0.000   10.500    0.000    0.000 
#    0.000    0.000    0.000    0.000    0.000    0.000 
#
# Total GULP energy -198286.742261 kJ/mol
# GULP energy per Si atom -12392.921391 kJ/mol
# Density = 2.232649 g / cm^3
# Si number density = 22.377427 Si / 1000 Ang^3
#
#
#
# Elastic Constant Matrix: (Units=GPa)
#
#
# Indices 1 2 3 4 5 6 
#
# 1 112.9173 6.2065 28.3662 7.9447 9.2452 13.1442
# 2 6.2065 59.8347 1.6479 7.2364 7.4079 12.6368
# 3 28.3662 1.6479 74.9106 14.6534 12.0009 0.5984
# 4 7.9447 7.2364 14.6534 20.0124 11.5924 8.5587
# 5 9.2452 7.4079 12.0009 11.5924 28.3219 2.8366
# 6 13.1442 12.6368 0.5984 8.5587 2.8366 36.2051
#
#
#
# Elastic Compliance Matrix: (Units=1/GPa)
#
#
# Indices 1 2 3 4 5 6 
#
# 1 0.010335 -0.000094 -0.003871 0.001554 -0.001957 -0.003869
# 2 -0.000094 0.018647 0.000793 -0.002939 -0.003427 -0.005524
# 3 -0.003871 0.000793 0.017421 -0.012143 -0.001741 0.003848
# 4 0.001554 -0.002939 -0.012143 0.081664 -0.026359 -0.016578
# 5 -0.001957 -0.003427 -0.001741 -0.026359 0.047928 0.004411
# 6 -0.003869 -0.005524 0.003848 -0.016578 0.004411 0.034463
#
#
# Mechanical properties :
#
#
# Convention : Reuss Voigt Hill
#
# Bulk Modulus (GPa) = 24.96258 35.56710 30.26484
# Shear Modulus (GPa) = 21.72449 31.00402 26.36425
#
# Velocity S-wave (km/s) = 3.11918 3.72627 3.43616
# Velocity P-wave (km/s) = 4.91445 5.86875 5.41267
#
# Compressibility (1/GPa) = 0.04005997
#
# Stress axis : x y z
#
# Youngs Moduli (GPa) = 96.75891 53.62810 57.40168
#
# Poissons Ratio (x) = 0.00503 0.22220
# Poissons Ratio (y) = 0.00908 -0.04554
# Poissons Ratio (z) = 0.37455 -0.04254
#
# Static dielectric constant tensor:
#      x y z
#    x 4.443150 0.442870 -0.051120 
#    y 0.442870 4.233510 -0.143670 
#    z -0.051120 -0.143670 3.755150 
# 
# 
# High freq. dielectric constant tensor:
#      x y z
#    x 1.898230 0.021690 0.007810 
#    y 0.021690 1.881580 -0.006420 
#    z 0.007810 -0.006420 1.855160 
# 
# From -- ./inp_files/101056.got.cif
#   From: 2010.06.25/outbox.cif.g09.slc.cpg/sg2_51_cif.got.tgz:101056.got - 2010.06.27 13:26:56.
