data_PCOD8041351
_publ_section_title
;
Structure prediction by ZEFSAII (Michael W. Deem and Ramdas Pophale) SiO2 
 PCOD8041351
Probable space group: P -1
;
_chemical_formula_sum "Si O2"
_cell_formula_units_Z 12
_cell_length_a 24.544247
_cell_length_b 16.132771
_cell_length_c 11.658264
_cell_angle_alpha 149.792953
_cell_angle_beta 20.860664
_cell_angle_gamma 159.143276
_cell_volume 583.782938
_symmetry_space_group_name_H-M "P -1"
_symmetry_group_IT_number 2
_symmetry_cell_setting 'triclinic'
loop_
_space_group_symop_operation_xyz
x,y,z
-x,-y,-z
loop_
_atom_site_type_symbol
_atom_site_label
_atom_site_fract_x
_atom_site_fract_y
_atom_site_fract_z
Si Si1 0.238801 0.749667 0.342243
Si Si2 0.389367 0.168640 0.397325
Si Si3 0.246257 0.983853 0.804385
Si Si4 0.793262 0.937597 0.786906
Si Si5 0.956227 0.031651 0.347084
Si Si6 0.576650 0.600813 0.178158
O O1 0.273330 0.829833 0.503113
O O2 0.000000 0.500000 0.500000
O O3 0.273051 0.932427 0.411536
O O4 0.409580 0.738345 0.962885
O O5 0.211901 0.114581 0.599669
O O6 0.473886 0.372406 0.562132
O O7 0.436228 0.255355 0.714214
O O8 0.015960 0.892400 0.109113
O O9 0.260284 0.967502 0.895466
O O10 0.850267 0.055565 0.690391
O O11 0.590120 0.662570 0.846798
O O12 0.000000 0.000000 0.500000
O O13 0.178221 0.288415 0.174456
#
# Coordination Sequence:
#
# PCOD8041351 Si02
#       6
#     2   2   2   2   2   2
#     4  10  22  37  56  76 111 147 176 218 266 325
#     4  10  21  37  54  85 108 138 182 217 274 320
#     4   8  19  36  54  81 107 140 181 217 264 314
#     4  10  19  32  54  84 108 140 179 219 269 315
#     4   9  20  34  55  84 112 131 179 229 265 313
#     4   9  19  31  56  81 109 138 170 230 266 306
#
# _framework density 20.555586000000002
#
# number of rings (size 3 to 8) (size 9 to 14) (size 15 to 20)
#    1.000    1.667    0.000    1.000    4.667    2.000 
#    0.000    0.833    0.000    2.000    0.000    0.000 
#    0.000    0.000    0.000    0.000    0.000    0.000 
#
# Total GULP energy -148664.163865 kJ/mol
# GULP energy per Si atom -12388.680322 kJ/mol
# Density = 2.050880 g / cm^3
# Si number density = 20.555586 Si / 1000 Ang^3
#
#
#
# Elastic Constant Matrix: (Units=GPa)
#
#
# Indices 1 2 3 4 5 6 
#
# 1 64.0848 11.4026 45.9516 8.2226 27.7541 21.9686
# 2 11.4026 87.0591 55.0367 -9.8562 12.3374 24.7821
# 3 45.9516 55.0367 126.3336 -3.0837 46.6138 21.0343
# 4 8.2226 -9.8562 -3.0837 24.8317 11.2939 1.5958
# 5 27.7541 12.3374 46.6138 11.2939 42.9651 8.1535
# 6 21.9686 24.7821 21.0343 1.5958 8.1535 21.4546
#
#
#
# Elastic Compliance Matrix: (Units=1/GPa)
#
#
# Indices 1 2 3 4 5 6 
#
# 1 0.040007 0.015050 -0.009549 -0.000497 -0.011192 -0.044697
# 2 0.015050 0.028064 -0.011063 0.007482 -0.000670 -0.037283
# 3 -0.009549 -0.011063 0.022012 0.009400 -0.018386 0.007263
# 4 -0.000497 0.007482 0.009400 0.056532 -0.024567 -0.012218
# 5 -0.011192 -0.000670 -0.018386 -0.024567 0.054978 0.011193
# 6 -0.044697 -0.037283 0.007263 -0.012218 0.011193 0.124977
#
#
# Mechanical properties :
#
#
# Convention : Reuss Voigt Hill
#
# Bulk Modulus (GPa) = 12.66472 55.80660 34.23566
# Shear Modulus (GPa) = 13.73581 28.85604 21.29592
#
# Velocity S-wave (km/s) = 2.58781 3.75080 3.22221
# Velocity P-wave (km/s) = 3.88634 6.77983 5.52584
#
# Compressibility (1/GPa) = 0.07895950
#
# Stress axis : x y z
#
# Youngs Moduli (GPa) = 24.99587 35.63320 45.42927
#
# Poissons Ratio (x) = -0.53627 0.43378
# Poissons Ratio (y) = -0.37618 0.50257
# Poissons Ratio (z) = 0.23867 0.39420
#
# Static dielectric constant tensor:
#      x y z
#    x 3.755720 0.156260 0.666890 
#    y 0.156260 3.343100 -0.268040 
#    z 0.666890 -0.268040 5.614310 
# 
# 
# High freq. dielectric constant tensor:
#      x y z
#    x 1.789560 0.024750 0.038420 
#    y 0.024750 1.776830 -0.021230 
#    z 0.038420 -0.021230 1.804740 
# 
# From -- ./inp_files/213664.got.cif
#   From: 2010.06.25/outbox.cif.g09.slc.cpg/sg2_107_cif.got.tgz:213664.got - 2010.06.27 13:26:56.
