data_PCOD8041110
_publ_section_title
;
Structure prediction by ZEFSAII (Michael W. Deem and Ramdas Pophale) SiO2 
 PCOD8041110
Probable space group: P -1
;
_chemical_formula_sum "Si O2"
_cell_formula_units_Z 16
_cell_length_a 11.573101
_cell_length_b 14.232939
_cell_length_c 20.740805
_cell_angle_alpha 28.465756
_cell_angle_beta 28.039199
_cell_angle_gamma 29.967617
_cell_volume 700.404327
_symmetry_space_group_name_H-M "P -1"
_symmetry_group_IT_number 2
_symmetry_cell_setting 'triclinic'
loop_
_space_group_symop_operation_xyz
x,y,z
-x,-y,-z
loop_
_atom_site_type_symbol
_atom_site_label
_atom_site_fract_x
_atom_site_fract_y
_atom_site_fract_z
Si Si1 0.702299 0.864257 0.216085
Si Si2 0.377972 0.068096 0.137916
Si Si3 0.585969 0.492869 0.535198
Si Si4 0.875015 0.152306 0.686204
Si Si5 0.456502 0.605537 0.188194
Si Si6 0.767829 0.236843 0.178964
Si Si7 0.708841 0.254670 0.051872
Si Si8 0.885344 0.490156 0.148501
O O1 0.652295 0.701993 0.388673
O O2 0.506639 0.886401 0.238199
O O3 0.616525 0.097744 0.150013
O O4 0.007757 0.760130 0.104671
O O5 0.101655 0.246472 0.193896
O O6 0.328876 0.963787 0.158555
O O7 0.598504 0.170209 0.956550
O O8 0.500000 0.500000 0.500000
O O9 0.863549 0.282886 0.546116
O O10 0.347389 0.488806 0.699381
O O11 0.770216 0.341229 0.678236
O O12 0.149384 0.968232 0.689094
O O13 0.484352 0.413624 0.240912
O O14 0.756998 0.533413 0.113866
O O15 0.718087 0.173634 0.169934
O O16 0.990154 0.336771 0.001383
O O17 0.500000 0.500000 0.000000
#
# Coordination Sequence:
#
# PCOD8041110 Si02
#       8
#     2   2   2   2   2   2   2   2
#     4  11  25  44  62  91 125 163 214 254 304 370
#     4  11  18  36  60  93 129 159 194 251 311 371
#     4  11  23  38  58  94 135 168 196 245 314 383
#     4  11  21  34  61  94 129 162 191 248 320 370
#     4  10  19  30  54  93 127 150 196 247 302 366
#     4  11  20  38  62  93 124 159 207 257 302 361
#     4  11  25  46  69  86 115 167 219 264 302 356
#     4  10  20  33  57  95 132 156 197 246 314 376
#
# _framework density 22.843948999999999
#
# number of rings (size 3 to 8) (size 9 to 14) (size 15 to 20)
#    0.000    1.250    3.750    4.125    3.500    1.500 
#    2.250    0.625    0.000    3.750    0.000    0.000 
#    0.000    0.000    0.000    0.000    0.000    0.000 
#
# Total GULP energy -198255.093645 kJ/mol
# GULP energy per Si atom -12390.943353 kJ/mol
# Density = 2.279195 g / cm^3
# Si number density = 22.843949 Si / 1000 Ang^3
#
#
#
# Elastic Constant Matrix: (Units=GPa)
#
#
# Indices 1 2 3 4 5 6 
#
# 1 86.5568 30.8582 19.4483 -6.4820 24.4315 4.3005
# 2 30.8582 113.1868 39.5661 -22.8115 9.5541 3.3719
# 3 19.4483 39.5661 57.7125 -24.3923 22.0943 -5.6248
# 4 -6.4820 -22.8115 -24.3923 29.7796 -8.2175 13.5434
# 5 24.4315 9.5541 22.0943 -8.2175 28.2789 -5.8537
# 6 4.3005 3.3719 -5.6248 13.5434 -5.8537 36.6737
#
#
#
# Elastic Compliance Matrix: (Units=1/GPa)
#
#
# Indices 1 2 3 4 5 6 
#
# 1 0.017291 -0.004255 0.003277 0.000352 -0.016774 -0.003941
# 2 -0.004255 0.013613 -0.008138 0.006101 0.006544 -0.003209
# 3 0.003277 -0.008138 0.041703 0.024127 -0.026990 -0.006458
# 4 0.000352 0.006101 0.024127 0.066525 -0.006545 -0.022514
# 5 -0.016774 0.006544 -0.026990 -0.006545 0.069036 0.010662
# 6 -0.003941 -0.003209 -0.006458 -0.022514 0.010662 0.037050
#
#
# Mechanical properties :
#
#
# Convention : Reuss Voigt Hill
#
# Bulk Modulus (GPa) = 18.39136 48.57790 33.48463
# Shear Modulus (GPa) = 17.75729 30.11866 23.93798
#
# Velocity S-wave (km/s) = 2.79109 3.63499 3.24063
# Velocity P-wave (km/s) = 4.29596 6.23929 5.35649
#
# Compressibility (1/GPa) = 0.05437336
#
# Stress axis : x y z
#
# Youngs Moduli (GPa) = 57.83433 73.46151 23.97918
#
# Poissons Ratio (x) = 0.31260 -0.07858
# Poissons Ratio (y) = 0.24610 0.19514
# Poissons Ratio (z) = -0.18952 0.59783
#
# Static dielectric constant tensor:
#      x y z
#    x 4.222420 -0.027170 0.375270 
#    y -0.027170 4.307900 -0.394070 
#    z 0.375270 -0.394070 3.992960 
# 
# 
# High freq. dielectric constant tensor:
#      x y z
#    x 1.898860 0.005110 0.026530 
#    y 0.005110 1.914800 -0.025300 
#    z 0.026530 -0.025300 1.863770 
# 
# From -- ./inp_files/595613.got.cif
#   From: 2010.06.25/outbox.cif.g09.slc.cpg/sg2_298_cif.got.tgz:595613.got - 2010.06.27 13:26:56.
