data_PCOD8041997
_publ_section_title
;
Structure prediction by ZEFSAII (Michael W. Deem and Ramdas Pophale) SiO2 
 PCOD8041997
Probable space group: P -1
;
_chemical_formula_sum "Si O2"
_cell_formula_units_Z 14
_cell_length_a 11.524440
_cell_length_b 11.539039
_cell_length_c 11.404654
_cell_angle_alpha 138.144779
_cell_angle_beta 122.850481
_cell_angle_gamma 53.428819
_cell_volume 798.824409
_symmetry_space_group_name_H-M "P -1"
_symmetry_group_IT_number 2
_symmetry_cell_setting 'triclinic'
loop_
_space_group_symop_operation_xyz
x,y,z
-x,-y,-z
loop_
_atom_site_type_symbol
_atom_site_label
_atom_site_fract_x
_atom_site_fract_y
_atom_site_fract_z
Si Si1 0.050671 0.600412 0.390803
Si Si2 0.182113 0.836382 0.360271
Si Si3 0.078023 0.055445 0.254442
Si Si4 0.351416 0.530869 0.373894
Si Si5 0.118349 0.174869 0.121132
Si Si6 0.343311 0.152843 0.033247
Si Si7 0.103448 0.175736 0.732723
O O1 0.211655 0.592329 0.430485
O O2 0.043168 0.397954 0.263273
O O3 0.014196 0.744743 0.588498
O O4 0.929976 0.674931 0.277887
O O5 0.328854 0.673410 0.359290
O O6 0.040213 0.769045 0.219387
O O7 0.201748 0.934403 0.323652
O O8 0.140210 0.972929 0.549573
O O9 0.159523 0.091893 0.211632
O O10 0.980224 0.929656 0.073676
O O11 0.500000 0.500000 0.500000
O O12 0.372120 0.341234 0.180990
O O13 0.267030 0.128514 0.094130
O O14 0.245381 0.161655 0.873312
O O15 0.500000 0.000000 0.000000
#
# Coordination Sequence:
#
# PCOD8041997 Si02
#       7
#     2   2   2   2   2   2   2
#     4   9  20  34  56  78 108 134 176 229 255 315
#     4   9  17  31  54  75 106 132 175 218 259 315
#     4  10  19  34  56  77 110 140 169 227 251 315
#     4  10  21  32  52  81 104 142 173 215 276 310
#     4  10  21  33  53  82 105 141 182 204 269 314
#     4  11  22  33  53  76 112 136 172 227 257 320
#     4   9  17  31  52  79 100 136 170 219 273 294
#
# _framework density 17.525753000000002
#
# number of rings (size 3 to 8) (size 9 to 14) (size 15 to 20)
#    0.000    2.286    1.429    2.143    4.000    1.714 
#    0.000    0.000    0.000   16.286    0.000    0.000 
#    0.000    0.000    0.000    0.000    0.000    0.000 
#
# Total GULP energy -173440.110961 kJ/mol
# GULP energy per Si atom -12388.579354 kJ/mol
# Density = 1.748586 g / cm^3
# Si number density = 17.525753 Si / 1000 Ang^3
#
#
#
# Elastic Constant Matrix: (Units=GPa)
#
#
# Indices 1 2 3 4 5 6 
#
# 1 60.8513 64.8439 38.8287 -6.0169 -6.7993 5.7408
# 2 64.8439 164.5130 64.5140 -8.4403 0.5678 4.3978
# 3 38.8287 64.5140 103.2396 -2.7787 0.1879 2.2261
# 4 -6.0169 -8.4403 -2.7787 38.0680 -1.4173 5.0049
# 5 -6.7993 0.5678 0.1879 -1.4173 23.6122 -3.9725
# 6 5.7408 4.3978 2.2261 5.0049 -3.9725 30.0528
#
#
#
# Elastic Compliance Matrix: (Units=1/GPa)
#
#
# Indices 1 2 3 4 5 6 
#
# 1 0.033023 -0.010558 -0.005672 0.003294 0.009392 -0.003650
# 2 -0.010558 0.011540 -0.003222 0.000527 -0.003252 0.000049
# 3 -0.005672 -0.003222 0.013807 -0.000721 -0.001636 0.000436
# 4 0.003294 0.000527 -0.000721 0.027578 0.001753 -0.005014
# 5 0.009392 -0.003252 -0.001636 0.001753 0.046025 0.004595
# 6 -0.003650 0.000049 0.000436 -0.005014 0.004595 0.035375
#
#
# Mechanical properties :
#
#
# Convention : Reuss Voigt Hill
#
# Bulk Modulus (GPa) = 51.36937 73.88637 62.62787
# Shear Modulus (GPa) = 23.50288 29.04107 26.27198
#
# Velocity S-wave (km/s) = 3.66601 4.07511 3.87596
# Velocity P-wave (km/s) = 6.87705 8.02448 7.47282
#
# Compressibility (1/GPa) = 0.01946685
#
# Stress axis : x y z
#
# Youngs Moduli (GPa) = 30.28220 86.65335 72.42738
#
# Poissons Ratio (x) = 0.91485 0.41083
# Poissons Ratio (y) = 0.31971 0.23334
# Poissons Ratio (z) = 0.17177 0.27917
#
# Static dielectric constant tensor:
#      x y z
#    x 2.978650 0.183760 -0.101310 
#    y 0.183760 3.489400 0.140980 
#    z -0.101310 0.140980 3.386790 
# 
# 
# High freq. dielectric constant tensor:
#      x y z
#    x 1.636820 0.016210 -0.004010 
#    y 0.016210 1.689630 0.008360 
#    z -0.004010 0.008360 1.690630 
# 
# From -- ./inp_files/164363.got.cif
#   From: 2010.06.25/outbox.cif.g09.slc.cpg/sg2_83_cif.got.tgz:164363.got - 2010.06.27 13:26:56.
