data_PCOD8041744
_publ_section_title
;
Structure prediction by ZEFSAII (Michael W. Deem and Ramdas Pophale) SiO2 
 PCOD8041744
Probable space group: P -1
;
_chemical_formula_sum "Si O2"
_cell_formula_units_Z 16
_cell_length_a 11.442512
_cell_length_b 11.860377
_cell_length_c 9.489457
_cell_angle_alpha 103.914517
_cell_angle_beta 57.502800
_cell_angle_gamma 129.824716
_cell_volume 823.457985
_symmetry_space_group_name_H-M "P -1"
_symmetry_group_IT_number 2
_symmetry_cell_setting 'triclinic'
loop_
_space_group_symop_operation_xyz
x,y,z
-x,-y,-z
loop_
_atom_site_type_symbol
_atom_site_label
_atom_site_fract_x
_atom_site_fract_y
_atom_site_fract_z
Si Si1 0.313559 0.004994 0.995001
Si Si2 0.096699 0.208991 0.810539
Si Si3 0.209182 0.078931 0.495862
Si Si4 0.463999 0.838669 0.821675
Si Si5 0.692487 0.772152 0.075797
Si Si6 0.148723 0.203619 0.315221
Si Si7 0.664521 0.459196 0.282640
Si Si8 0.394145 0.502528 0.368745
O O1 0.354533 0.897883 0.880778
O O2 0.340038 0.106426 0.877087
O O3 0.105908 0.905177 0.142219
O O4 0.443212 0.106808 0.069462
O O5 0.221091 0.200482 0.621066
O O6 0.135299 0.172484 0.926848
O O7 0.158491 0.375198 0.817749
O O8 0.393451 0.104764 0.379793
O O9 0.179227 0.106220 0.363622
O O10 0.064166 0.912024 0.602222
O O11 0.327423 0.658604 0.842214
O O12 0.510485 0.624371 0.209523
O O13 0.734529 0.749431 0.885726
O O14 0.205025 0.357799 0.388691
O O15 0.491125 0.435716 0.334459
O O16 0.645859 0.431953 0.455708
#
# Coordination Sequence:
#
# PCOD8041744 Si02
#       8
#     2   2   2   2   2   2   2   2
#     4  11  23  39  58  88 119 157 195 232 297 347
#     4  11  22  38  65  88 119 149 193 254 286 339
#     4  11  19  35  61  88 110 153 196 244 277 340
#     4  11  22  38  60  86 119 157 194 238 284 358
#     4  11  21  35  59  89 122 149 190 248 294 337
#     4  11  19  32  60  89 117 146 199 242 288 339
#     4  10  19  36  57  87 116 151 197 235 298 341
#     4  10  19  33  57  88 121 147 189 251 292 337
#
# _framework density 19.430257999999998
#
# number of rings (size 3 to 8) (size 9 to 14) (size 15 to 20)
#    0.000    1.250    5.000    3.000    0.000    1.500 
#    0.000    2.500    0.000    0.750    0.000    0.000 
#    0.000    0.000    0.000    0.000    0.000    0.000 
#
# Total GULP energy -198304.395959 kJ/mol
# GULP energy per Si atom -12394.024747 kJ/mol
# Density = 1.938603 g / cm^3
# Si number density = 19.430258 Si / 1000 Ang^3
#
#
#
# Elastic Constant Matrix: (Units=GPa)
#
#
# Indices 1 2 3 4 5 6 
#
# 1 58.7712 44.1468 34.1897 1.6203 -2.3030 -10.5282
# 2 44.1468 153.5724 54.3034 3.9408 5.7540 -3.4504
# 3 34.1897 54.3034 92.9693 2.5729 6.2740 -18.2437
# 4 1.6203 3.9408 2.5729 39.4988 -4.4524 -2.1962
# 5 -2.3030 5.7540 6.2740 -4.4524 25.0926 4.0270
# 6 -10.5282 -3.4504 -18.2437 -2.1962 4.0270 24.2170
#
#
#
# Elastic Compliance Matrix: (Units=1/GPa)
#
#
# Indices 1 2 3 4 5 6 
#
# 1 0.025361 -0.005446 -0.005343 0.000627 0.004126 0.005595
# 2 -0.005446 0.009566 -0.004300 -0.000805 -0.001098 -0.004134
# 3 -0.005343 -0.004300 0.017901 -0.000547 -0.005921 0.011485
# 4 0.000627 -0.000805 -0.000547 0.026020 0.004785 0.001310
# 5 0.004126 -0.001098 -0.005921 0.004785 0.044380 -0.009769
# 6 0.005595 -0.004134 0.011485 0.001310 -0.009769 0.053532
#
#
# Mechanical properties :
#
#
# Convention : Reuss Voigt Hill
#
# Bulk Modulus (GPa) = 44.14988 63.39918 53.77453
# Shear Modulus (GPa) = 23.31116 29.27323 26.29219
#
# Velocity S-wave (km/s) = 3.46748 3.88568 3.68252
# Velocity P-wave (km/s) = 6.22919 7.26851 6.76883
#
# Compressibility (1/GPa) = 0.02265012
#
# Stress axis : x y z
#
# Youngs Moduli (GPa) = 39.43039 104.53176 55.86165
#
# Poissons Ratio (x) = 0.56928 0.29850
# Poissons Ratio (y) = 0.21474 0.24020
# Poissons Ratio (z) = 0.21070 0.44948
#
# Static dielectric constant tensor:
#      x y z
#    x 3.352760 0.084450 0.066020 
#    y 0.084450 3.769330 -0.026750 
#    z 0.066020 -0.026750 3.552860 
# 
# 
# High freq. dielectric constant tensor:
#      x y z
#    x 1.709150 0.017940 0.012410 
#    y 0.017940 1.775740 0.000410 
#    z 0.012410 0.000410 1.752350 
# 
# From -- ./inp_files/262798.got.cif
#   From: 2010.06.25/outbox.cif.g09.slc.cpg/sg2_132_cif.got.tgz:262798.got - 2010.06.27 13:26:56.
