data_PCOD8041765
_publ_section_title
;
Structure prediction by ZEFSAII (Michael W. Deem and Ramdas Pophale) SiO2 
 PCOD8041765
Probable space group: P -1
;
_chemical_formula_sum "Si O2"
_cell_formula_units_Z 16
_cell_length_a 14.692273
_cell_length_b 8.747746
_cell_length_c 14.555853
_cell_angle_alpha 72.322896
_cell_angle_beta 141.028836
_cell_angle_gamma 129.932152
_cell_volume 824.853249
_symmetry_space_group_name_H-M "P -1"
_symmetry_group_IT_number 2
_symmetry_cell_setting 'triclinic'
loop_
_space_group_symop_operation_xyz
x,y,z
-x,-y,-z
loop_
_atom_site_type_symbol
_atom_site_label
_atom_site_fract_x
_atom_site_fract_y
_atom_site_fract_z
Si Si1 0.532302 0.125573 0.734691
Si Si2 0.940629 0.143268 0.741576
Si Si3 0.129564 0.653888 0.489818
Si Si4 0.865493 0.956149 0.984639
Si Si5 0.066040 0.663282 0.939871
Si Si6 0.631979 0.989485 0.676377
Si Si7 0.631587 0.681311 0.494175
Si Si8 0.767975 0.456520 0.581030
O O1 0.493869 0.288153 0.671926
O O2 0.332542 0.880112 0.646771
O O3 0.611949 0.135058 0.694522
O O4 0.705159 0.210707 0.927345
O O5 0.992418 0.304789 0.671668
O O6 0.140570 0.206558 0.924168
O O7 0.816647 0.144263 0.723428
O O8 0.804443 0.900386 0.641887
O O9 0.168938 0.534645 0.475063
O O10 0.000000 0.500000 0.500000
O O11 0.959265 0.173459 0.075662
O O12 0.662201 0.862795 0.795847
O O13 0.000000 0.000000 0.000000
O O14 0.940061 0.543198 0.771460
O O15 0.000000 0.500000 0.000000
O O16 0.425220 0.798200 0.497041
O O17 0.500000 0.500000 0.500000
O O18 0.719135 0.608075 0.512019
#
# Coordination Sequence:
#
# PCOD8041765 Si02
#       8
#     2   2   2   2   2   2   2   2
#     4   9  22  37  56  83 122 151 187 235 296 353
#     4  10  19  33  58  81 119 156 191 234 296 345
#     4  10  24  43  62  78 108 164 221 243 272 335
#     4   9  19  33  49  84 123 158 178 226 288 363
#     4  11  22  33  55  92 127 148 180 229 304 369
#     4   9  19  34  55  85 122 155 183 225 296 375
#     4  11  19  30  53  89 122 144 176 229 302 367
#     4  11  22  36  59  89 117 152 192 241 294 352
#
# _framework density 19.397390000000001
#
# number of rings (size 3 to 8) (size 9 to 14) (size 15 to 20)
#    0.000    2.000    2.500    0.750    8.750    1.500 
#    0.000    3.125    0.000    6.750    0.000    0.000 
#    0.000    0.000    0.000    0.000    0.000    0.000 
#
# Total GULP energy -198272.041608 kJ/mol
# GULP energy per Si atom -12392.002601 kJ/mol
# Density = 1.935324 g / cm^3
# Si number density = 19.397390 Si / 1000 Ang^3
#
#
#
# Elastic Constant Matrix: (Units=GPa)
#
#
# Indices 1 2 3 4 5 6 
#
# 1 88.2405 55.9993 31.0772 -11.1762 0.6496 1.7966
# 2 55.9993 90.4888 38.3964 -15.6268 2.1993 2.7411
# 3 31.0772 38.3964 139.1997 -17.1837 9.5046 1.2309
# 4 -11.1762 -15.6268 -17.1837 33.8923 -9.2181 -0.3596
# 5 0.6496 2.1993 9.5046 -9.2181 20.9631 -4.9375
# 6 1.7966 2.7411 1.2309 -0.3596 -4.9375 35.4491
#
#
#
# Elastic Compliance Matrix: (Units=1/GPa)
#
#
# Indices 1 2 3 4 5 6 
#
# 1 0.018866 -0.011064 -0.001149 0.000963 0.001560 0.000166
# 2 -0.011064 0.019725 -0.002492 0.004510 0.001231 -0.000661
# 3 -0.001149 -0.002492 0.008576 0.002059 -0.002783 -0.000414
# 4 0.000963 0.004510 0.002059 0.037152 0.015383 0.002050
# 5 0.001560 0.001231 -0.002783 0.015383 0.057455 0.008081
# 6 0.000166 -0.000661 -0.000414 0.002050 0.008081 0.029413
#
#
# Mechanical properties :
#
#
# Convention : Reuss Voigt Hill
#
# Bulk Modulus (GPa) = 56.32057 63.20831 59.76444
# Shear Modulus (GPa) = 24.21113 30.89129 27.55121
#
# Velocity S-wave (km/s) = 3.53677 3.99500 3.77285
# Velocity P-wave (km/s) = 6.76583 7.34417 7.06092
#
# Compressibility (1/GPa) = 0.01775550
#
# Stress axis : x y z
#
# Youngs Moduli (GPa) = 53.00468 50.69756 116.60855
#
# Poissons Ratio (x) = 0.56094 0.13399
# Poissons Ratio (y) = 0.58647 0.29059
# Poissons Ratio (z) = 0.06091 0.12634
#
# Static dielectric constant tensor:
#      x y z
#    x 3.365010 -0.666140 0.040010 
#    y -0.666140 3.998580 0.392810 
#    z 0.040010 0.392810 5.071960 
# 
# 
# High freq. dielectric constant tensor:
#      x y z
#    x 1.717690 -0.053360 0.007330 
#    y -0.053360 1.733870 -0.014120 
#    z 0.007330 -0.014120 1.778340 
# 
# From -- ./inp_files/528417.got.cif
#   From: 2010.06.25/outbox.cif.g09.slc.cpg/sg2_265_cif.got.tgz:528417.got - 2010.06.27 13:26:56.
