data_PCOD8041590
_publ_section_title
;
Structure prediction by ZEFSAII (Michael W. Deem and Ramdas Pophale) SiO2 
 PCOD8041590
Probable space group: P -1
;
_chemical_formula_sum "Si O2"
_cell_formula_units_Z 16
_cell_length_a 10.057332
_cell_length_b 17.608357
_cell_length_c 15.799606
_cell_angle_alpha 23.037993
_cell_angle_beta 134.349886
_cell_angle_gamma 135.040040
_cell_volume 762.039762
_symmetry_space_group_name_H-M "P -1"
_symmetry_group_IT_number 2
_symmetry_cell_setting 'triclinic'
loop_
_space_group_symop_operation_xyz
x,y,z
-x,-y,-z
loop_
_atom_site_type_symbol
_atom_site_label
_atom_site_fract_x
_atom_site_fract_y
_atom_site_fract_z
Si Si1 0.723671 0.597252 0.303536
Si Si2 0.340795 0.863180 0.625998
Si Si3 0.421686 0.510421 0.121298
Si Si4 0.572449 0.722038 0.273344
Si Si5 0.852101 0.796283 0.777907
Si Si6 0.957560 0.323869 0.761220
Si Si7 0.755865 0.466649 0.205050
Si Si8 0.776283 0.084796 0.082192
O O1 0.515584 0.523759 0.241981
O O2 0.701714 0.728472 0.240590
O O3 0.789600 0.394774 0.564492
O O4 0.885353 0.732604 0.175366
O O5 0.211595 0.703908 0.668768
O O6 0.500000 0.000000 0.500000
O O7 0.216513 0.999822 0.474819
O O8 0.418953 0.737285 0.862290
O O9 0.213714 0.352052 0.181087
O O10 0.550823 0.414657 0.212286
O O11 0.500000 0.500000 0.500000
O O12 0.391218 0.807734 0.080393
O O13 0.692048 0.848387 0.273803
O O14 0.763827 0.674983 0.946541
O O15 0.080362 0.863852 0.826694
O O16 0.870794 0.147740 0.967590
O O17 0.073906 0.512883 0.673016
#
# Coordination Sequence:
#
# PCOD8041590 Si02
#       8
#     2   2   2   2   2   2   2   2
#     4  10  21  38  61  89 130 160 187 247 316 350
#     4  11  17  28  52  82 112 164 196 225 298 354
#     4  10  19  34  50  83 126 154 188 244 297 355
#     4  11  23  43  65  86 119 164 202 247 302 356
#     4  10  19  33  54  83 116 149 197 246 283 346
#     4   9  19  38  60  95 122 153 195 251 308 355
#     4   9  17  30  52  80 123 149 189 246 288 350
#     4  10  23  40  65  92 115 153 214 251 286 362
#
# _framework density 20.996281
#
# number of rings (size 3 to 8) (size 9 to 14) (size 15 to 20)
#    0.000    2.000    3.750    0.750    1.750    1.500 
#    2.250    0.625    0.000    1.500    0.000    0.000 
#    0.000    0.000    0.000    0.000    0.000    0.000 
#
# Total GULP energy -198270.868900 kJ/mol
# GULP energy per Si atom -12391.929306 kJ/mol
# Density = 2.094849 g / cm^3
# Si number density = 20.996281 Si / 1000 Ang^3
#
#
#
# Elastic Constant Matrix: (Units=GPa)
#
#
# Indices 1 2 3 4 5 6 
#
# 1 62.7920 12.4468 15.3739 -5.7204 10.3344 -0.2906
# 2 12.4468 136.6510 54.0050 9.0318 7.1787 15.1253
# 3 15.3739 54.0050 108.9542 -7.1820 7.5367 3.2523
# 4 -5.7204 9.0318 -7.1820 32.0083 -1.1456 -0.7848
# 5 10.3344 7.1787 7.5367 -1.1456 20.9213 -1.3527
# 6 -0.2906 15.1253 3.2523 -0.7848 -1.3527 25.8562
#
#
#
# Elastic Compliance Matrix: (Units=1/GPa)
#
#
# Indices 1 2 3 4 5 6 
#
# 1 0.018011 -0.000953 -0.001349 0.002918 -0.007885 0.000606
# 2 -0.000953 0.010413 -0.005018 -0.004443 -0.001907 -0.005706
# 3 -0.001349 -0.005018 0.012187 0.003883 -0.001698 0.001416
# 4 0.002918 -0.004443 0.003883 0.033994 0.000754 0.003214
# 5 -0.007885 -0.001907 -0.001698 0.000754 0.053262 0.004050
# 6 0.000606 -0.005706 0.001416 0.003214 0.004050 0.042151
#
#
# Mechanical properties :
#
#
# Convention : Reuss Voigt Hill
#
# Bulk Modulus (GPa) = 38.50434 52.44985 45.47709
# Shear Modulus (GPa) = 25.86454 30.86193 28.36323
#
# Velocity S-wave (km/s) = 3.51360 3.83806 3.67940
# Velocity P-wave (km/s) = 5.90245 6.68399 6.30534
#
# Compressibility (1/GPa) = 0.02597110
#
# Stress axis : x y z
#
# Youngs Moduli (GPa) = 55.52111 96.03397 82.05641
#
# Poissons Ratio (x) = 0.09151 0.11073
# Poissons Ratio (y) = 0.05290 0.41172
# Poissons Ratio (z) = 0.07492 0.48185
#
# Static dielectric constant tensor:
#      x y z
#    x 3.626620 0.083060 0.108060 
#    y 0.083060 4.178100 -0.044390 
#    z 0.108060 -0.044390 3.789430 
# 
# 
# High freq. dielectric constant tensor:
#      x y z
#    x 1.786060 0.009920 0.007030 
#    y 0.009920 1.833760 0.004790 
#    z 0.007030 0.004790 1.810450 
# 
# From -- ./inp_files/451405.got.cif
#   From: 2010.06.25/outbox.cif.g09.slc.cpg/sg2_226_cif.got.tgz:451405.got - 2010.06.27 13:26:56.
