data_PCOD8041564
_publ_section_title
;
Structure prediction by ZEFSAII (Michael W. Deem and Ramdas Pophale) SiO2 
 PCOD8041564
Probable space group: P -1
;
_chemical_formula_sum "Si O2"
_cell_formula_units_Z 16
_cell_length_a 13.424339
_cell_length_b 14.339274
_cell_length_c 11.536478
_cell_angle_alpha 122.386730
_cell_angle_beta 149.222013
_cell_angle_gamma 47.917939
_cell_volume 838.666204
_symmetry_space_group_name_H-M "P -1"
_symmetry_group_IT_number 2
_symmetry_cell_setting 'triclinic'
loop_
_space_group_symop_operation_xyz
x,y,z
-x,-y,-z
loop_
_atom_site_type_symbol
_atom_site_label
_atom_site_fract_x
_atom_site_fract_y
_atom_site_fract_z
Si Si1 0.153798 0.844545 0.170384
Si Si2 0.826727 0.375958 0.328058
Si Si3 0.695479 0.752930 0.323149
Si Si4 0.025120 0.870285 0.548429
Si Si5 0.931621 0.894759 0.214348
Si Si6 0.538695 0.969533 0.152099
Si Si7 0.454461 0.640225 0.161178
Si Si8 0.745752 0.942787 0.660270
O O1 0.346772 0.716518 0.221925
O O2 0.115279 0.820875 0.250307
O O3 0.226522 0.951312 0.311214
O O4 0.920372 0.890542 0.903933
O O5 0.661449 0.506038 0.315196
O O6 0.069848 0.368337 0.560246
O O7 0.836379 0.258537 0.328859
O O8 0.728953 0.380194 0.104847
O O9 0.563216 0.835274 0.133087
O O10 0.536708 0.717231 0.212858
O O11 0.785810 0.831712 0.539887
O O12 0.019740 0.826221 0.380519
O O13 0.776041 0.959431 0.411465
O O14 0.137673 0.957812 0.733792
O O15 0.687833 0.913789 0.941777
O O16 0.500000 0.000000 0.000000
O O17 0.500000 0.000000 0.500000
#
# Coordination Sequence:
#
# PCOD8041564 Si02
#       8
#     2   2   2   2   2   2   2   2
#     4  11  22  33  50  80 108 137 170 212 267 316
#     4  10  21  37  53  74 103 140 180 219 252 306
#     4  11  19  34  54  76 104 139 176 213 260 317
#     4   9  19  35  54  77 101 135 174 212 258 310
#     4  10  19  33  54  78 106 132 167 215 264 315
#     4   9  18  30  49  75 102 132 165 207 257 304
#     4  11  22  35  52  76 107 138 177 217 258 305
#     4  11  21  32  50  75 110 136 164 207 269 315
#
# _framework density 19.077912999999999
#
# number of rings (size 3 to 8) (size 9 to 14) (size 15 to 20)
#    0.000    1.750    2.500    3.375    3.500    0.000 
#    0.000    0.625    0.000    0.000    0.000    0.875 
#    0.000    0.000    0.000    0.000    0.000    0.000 
#
# Total GULP energy -198214.912836 kJ/mol
# GULP energy per Si atom -12388.432052 kJ/mol
# Density = 1.903449 g / cm^3
# Si number density = 19.077913 Si / 1000 Ang^3
#
#
#
# Elastic Constant Matrix: (Units=GPa)
#
#
# Indices 1 2 3 4 5 6 
#
# 1 103.8855 26.3140 26.1518 -13.1876 -0.8729 -16.2032
# 2 26.3140 70.3511 20.9313 -12.3732 -3.1940 -14.6091
# 3 26.1518 20.9313 58.5041 -12.2467 4.9734 -8.6891
# 4 -13.1876 -12.3732 -12.2467 26.4183 -0.1741 4.5791
# 5 -0.8729 -3.1940 4.9734 -0.1741 26.3744 -2.6783
# 6 -16.2032 -14.6091 -8.6891 4.5791 -2.6783 27.9151
#
#
#
# Elastic Compliance Matrix: (Units=1/GPa)
#
#
# Indices 1 2 3 4 5 6 
#
# 1 0.012087 -0.001984 -0.003570 0.002669 0.001313 0.004555
# 2 -0.001984 0.018588 -0.004078 0.004654 0.003686 0.006897
# 3 -0.003570 -0.004078 0.022030 0.006286 -0.004605 0.001178
# 4 0.002669 0.004654 0.006286 0.044518 -0.000381 -0.001398
# 5 0.001313 0.003686 -0.004605 -0.000381 0.039793 0.005138
# 6 0.004555 0.006897 0.001178 -0.001398 0.005138 0.043165
#
#
# Mechanical properties :
#
#
# Convention : Reuss Voigt Hill
#
# Bulk Modulus (GPa) = 29.90341 42.17055 36.03698
# Shear Modulus (GPa) = 23.74253 26.76448 25.25351
#
# Velocity S-wave (km/s) = 3.53158 3.74960 3.64222
# Velocity P-wave (km/s) = 5.68663 6.39518 6.05129
#
# Compressibility (1/GPa) = 0.03344101
#
# Stress axis : x y z
#
# Youngs Moduli (GPa) = 82.73035 53.79822 45.39299
#
# Poissons Ratio (x) = 0.10675 0.16204
# Poissons Ratio (y) = 0.16416 0.18512
# Poissons Ratio (z) = 0.29533 0.21940
#
# Static dielectric constant tensor:
#      x y z
#    x 3.781810 -0.133080 0.218160 
#    y -0.133080 3.457930 -0.174760 
#    z 0.218160 -0.174760 3.678150 
# 
# 
# High freq. dielectric constant tensor:
#      x y z
#    x 1.753350 -0.001460 0.018040 
#    y -0.001460 1.701960 -0.016550 
#    z 0.018040 -0.016550 1.747980 
# 
# From -- ./inp_files/455011.got.cif
#   From: 2010.06.25/outbox.cif.g09.slc.cpg/sg2_228_cif.got.tgz:455011.got - 2010.06.27 13:26:56.
