data_PCOD8041704
_publ_section_title
;
Structure prediction by ZEFSAII (Michael W. Deem and Ramdas Pophale) SiO2 
 PCOD8041704
Probable space group: P -1
;
_chemical_formula_sum "Si O2"
_cell_formula_units_Z 16
_cell_length_a 19.993933
_cell_length_b 16.503188
_cell_length_c 8.395731
_cell_angle_alpha 43.565368
_cell_angle_beta 36.785727
_cell_angle_gamma 30.520634
_cell_volume 836.983554
_symmetry_space_group_name_H-M "P -1"
_symmetry_group_IT_number 2
_symmetry_cell_setting 'triclinic'
loop_
_space_group_symop_operation_xyz
x,y,z
-x,-y,-z
loop_
_atom_site_type_symbol
_atom_site_label
_atom_site_fract_x
_atom_site_fract_y
_atom_site_fract_z
Si Si1 0.885927 0.423248 0.749391
Si Si2 0.392114 0.536567 0.797597
Si Si3 0.777293 0.170047 0.072170
Si Si4 0.263721 0.067238 0.035744
Si Si5 0.527098 0.026311 0.589022
Si Si6 0.941468 0.866766 0.384337
Si Si7 0.588430 0.218903 0.079079
Si Si8 0.163232 0.280139 0.633990
O O1 0.812307 0.597526 0.583552
O O2 0.984794 0.302734 0.587045
O O3 0.995983 0.364935 0.772267
O O4 0.754191 0.426418 0.048926
O O5 0.500000 0.500000 0.500000
O O6 0.338387 0.689189 0.780384
O O7 0.472350 0.392162 0.974440
O O8 0.702564 0.211073 0.982928
O O9 0.826956 0.007340 0.275193
O O10 0.927295 0.138940 0.803516
O O11 0.148968 0.100495 0.333702
O O12 0.174777 0.222519 0.872001
O O13 0.399811 0.042547 0.905338
O O14 0.322599 0.914110 0.039533
O O15 0.702306 0.869257 0.524158
O O16 0.500000 0.000000 0.500000
O O17 0.502844 0.185212 0.406779
#
# Coordination Sequence:
#
# PCOD8041704 Si02
#       8
#     2   2   2   2   2   2   2   2
#     4  10  20  36  54  74 110 140 168 212 262 309
#     4  11  22  36  55  77 103 137 177 217 255 301
#     4  10  22  37  53  74 106 142 173 209 260 307
#     4  10  19  33  57  81 104 133 174 214 255 309
#     4   8  16  32  55  77 101 132 169 210 260 306
#     4  10  21  36  52  77 108 139 171 213 258 303
#     4  10  19  36  56  75 104 138 172 214 258 306
#     4   9  18  34  56  79 100 138 174 208 261 310
#
# _framework density 19.116267000000001
#
# number of rings (size 3 to 8) (size 9 to 14) (size 15 to 20)
#    0.000    2.500    0.000    4.875    0.000    2.000 
#    0.000    5.000    0.000    0.000    0.000    0.000 
#    0.000    0.000    0.000    0.000    0.000    0.000 
#
# Total GULP energy -198323.916394 kJ/mol
# GULP energy per Si atom -12395.244775 kJ/mol
# Density = 1.907276 g / cm^3
# Si number density = 19.116267 Si / 1000 Ang^3
#
#
#
# Elastic Constant Matrix: (Units=GPa)
#
#
# Indices 1 2 3 4 5 6 
#
# 1 57.9327 28.9250 35.8771 3.2128 -12.8480 -5.6871
# 2 28.9250 101.6655 48.4569 -5.0192 -4.7090 -7.0236
# 3 35.8771 48.4569 115.8301 15.1584 3.4151 8.6770
# 4 3.2128 -5.0192 15.1584 29.4537 4.3176 0.6101
# 5 -12.8480 -4.7090 3.4151 4.3176 18.7769 -0.5882
# 6 -5.6871 -7.0236 8.6770 0.6101 -0.5882 27.2538
#
#
#
# Elastic Compliance Matrix: (Units=1/GPa)
#
#
# Indices 1 2 3 4 5 6 
#
# 1 0.030466 -0.002633 -0.009372 -0.002474 0.022748 0.009209
# 2 -0.002633 0.014322 -0.006345 0.005623 0.001810 0.005075
# 3 -0.009372 -0.006345 0.016007 -0.006702 -0.009648 -0.008745
# 4 -0.002474 0.005623 -0.006702 0.039782 -0.008149 0.002000
# 5 0.022748 0.001810 -0.009648 -0.008149 0.073219 0.010048
# 6 0.009209 0.005075 -0.008745 0.002000 0.010048 0.042878
#
#
# Mechanical properties :
#
#
# Convention : Reuss Voigt Hill
#
# Bulk Modulus (GPa) = 41.50309 55.77183 48.63746
# Shear Modulus (GPa) = 19.12741 25.90818 22.51779
#
# Velocity S-wave (km/s) = 3.16663 3.68543 3.43583
# Velocity P-wave (km/s) = 5.92689 6.88101 6.42169
#
# Compressibility (1/GPa) = 0.02409459
#
# Stress axis : x y z
#
# Youngs Moduli (GPa) = 32.82350 69.82404 62.47214
#
# Poissons Ratio (x) = 0.18388 0.58546
# Poissons Ratio (y) = 0.08644 0.39639
# Poissons Ratio (z) = 0.30761 0.44304
#
# Static dielectric constant tensor:
#      x y z
#    x 3.399540 -0.131670 -0.457930 
#    y -0.131670 3.779970 0.050260 
#    z -0.457930 0.050260 3.783820 
# 
# 
# High freq. dielectric constant tensor:
#      x y z
#    x 1.731190 -0.008760 -0.027220 
#    y -0.008760 1.755450 -0.008170 
#    z -0.027220 -0.008170 1.736560 
# 
# From -- ./inp_files/348210.got.cif
#   From: 2010.06.25/outbox.cif.g09.slc.cpg/sg2_175_cif.got.tgz:348210.got - 2010.06.27 13:26:56.
