data_PCOD8041803
_publ_section_title
;
Structure prediction by ZEFSAII (Michael W. Deem and Ramdas Pophale) SiO2 
 PCOD8041803
Probable space group: P -1
;
_chemical_formula_sum "Si O2"
_cell_formula_units_Z 14
_cell_length_a 14.853046
_cell_length_b 21.624671
_cell_length_c 7.971660
_cell_angle_alpha 143.369221
_cell_angle_beta 37.123010
_cell_angle_gamma 152.544962
_cell_volume 669.692745
_symmetry_space_group_name_H-M "P -1"
_symmetry_group_IT_number 2
_symmetry_cell_setting 'triclinic'
loop_
_space_group_symop_operation_xyz
x,y,z
-x,-y,-z
loop_
_atom_site_type_symbol
_atom_site_label
_atom_site_fract_x
_atom_site_fract_y
_atom_site_fract_z
Si Si1 0.511581 0.430561 0.109586
Si Si2 0.257026 0.003202 0.349291
Si Si3 0.118378 0.262631 0.813858
Si Si4 0.743741 0.048961 0.396478
Si Si5 0.500870 0.352914 0.308011
Si Si6 0.136396 0.172597 0.928738
Si Si7 0.526147 0.149834 0.942809
O O1 0.750914 0.566932 0.002320
O O2 0.509203 0.346207 0.079915
O O3 0.399147 0.486753 0.446888
O O4 0.376297 0.316909 0.915385
O O5 0.128606 0.047998 0.628789
O O6 0.350590 0.031608 0.458569
O O7 0.433135 0.086978 0.129171
O O8 0.091723 0.831405 0.186196
O O9 0.263658 0.241042 0.476589
O O10 0.048541 0.197344 0.960334
O O11 0.711550 0.157294 0.660056
O O12 0.636115 0.939614 0.162979
O O13 0.985172 0.132276 0.218882
O O14 0.610946 0.308337 0.140270
#
# Coordination Sequence:
#
# PCOD8041803 Si02
#       7
#     2   2   2   2   2   2   2
#     4   9  20  34  59  89 113 149 193 241 289 337
#     4  12  21  38  63  88 116 150 196 242 290 337
#     4  10  19  33  59  86 116 143 187 244 286 332
#     4  11  25  35  59  87 122 151 195 237 292 344
#     4   9  18  36  58  80 117 150 189 238 287 338
#     4  12  20  36  59  92 115 147 199 244 281 344
#     4  11  22  42  55  87 120 158 188 240 290 347
#
# _framework density 20.905110000000001
#
# number of rings (size 3 to 8) (size 9 to 14) (size 15 to 20)
#    0.857    0.571    2.857    4.286    0.000    0.000 
#    0.000    0.714    0.000    0.857    0.000    0.000 
#    0.000    0.000    0.000    0.000    0.000    0.000 
#
# Total GULP energy -173468.644220 kJ/mol
# GULP energy per Si atom -12390.617444 kJ/mol
# Density = 2.085753 g / cm^3
# Si number density = 20.905110 Si / 1000 Ang^3
#
#
#
# Elastic Constant Matrix: (Units=GPa)
#
#
# Indices 1 2 3 4 5 6 
#
# 1 64.0391 22.9856 14.6798 -6.7267 20.5364 -19.9197
# 2 22.9856 70.5322 23.2304 4.5365 1.4327 -4.2514
# 3 14.6798 23.2304 58.2492 -6.9630 -5.0012 -6.2031
# 4 -6.7267 4.5365 -6.9630 17.5048 0.9506 4.4341
# 5 20.5364 1.4327 -5.0012 0.9506 30.0221 -0.5230
# 6 -19.9197 -4.2514 -6.2031 4.4341 -0.5230 35.7287
#
#
#
# Elastic Compliance Matrix: (Units=1/GPa)
#
#
# Indices 1 2 3 4 5 6 
#
# 1 0.032600 -0.008703 -0.003825 0.010737 -0.022603 0.014812
# 2 -0.008703 0.019749 -0.006864 -0.010840 0.004170 -0.002287
# 3 -0.003825 -0.006864 0.022479 0.008918 0.006405 -0.000060
# 4 0.010737 -0.010840 0.008918 0.068624 -0.007556 -0.002383
# 5 -0.022603 0.004170 0.006405 -0.007556 0.049715 -0.009328
# 6 0.014812 -0.002287 -0.000060 -0.002383 -0.009328 0.036124
#
#
# Mechanical properties :
#
#
# Convention : Reuss Voigt Hill
#
# Bulk Modulus (GPa) = 27.74383 34.95692 31.35038
# Shear Modulus (GPa) = 17.85150 25.44610 21.64880
#
# Velocity S-wave (km/s) = 2.92538 3.49265 3.22153
# Velocity P-wave (km/s) = 4.97097 5.74655 5.37277
#
# Compressibility (1/GPa) = 0.03604405
#
# Stress axis : x y z
#
# Youngs Moduli (GPa) = 30.67528 50.63423 44.48648
#
# Poissons Ratio (x) = 0.44065 0.17015
# Poissons Ratio (y) = 0.26696 0.30537
# Poissons Ratio (z) = 0.11733 0.34757
#
# Static dielectric constant tensor:
#      x y z
#    x 3.624650 -0.215660 0.140000 
#    y -0.215660 3.554290 0.050040 
#    z 0.140000 0.050040 3.553350 
# 
# 
# High freq. dielectric constant tensor:
#      x y z
#    x 1.811920 -0.024230 0.019360 
#    y -0.024230 1.800760 0.005560 
#    z 0.019360 0.005560 1.796720 
# 
# From -- ./inp_files/319082.got.cif
#   From: 2010.06.25/outbox.cif.g09.slc.cpg/sg2_160_cif.got.tgz:319082.got - 2010.06.27 13:26:56.
