data_PCOD8041934
_publ_section_title
;
Structure prediction by ZEFSAII (Michael W. Deem and Ramdas Pophale) SiO2 
 PCOD8041934
Probable space group: P -1
;
_chemical_formula_sum "Si O2"
_cell_formula_units_Z 14
_cell_length_a 19.085163
_cell_length_b 15.085697
_cell_length_c 10.076407
_cell_angle_alpha 71.442849
_cell_angle_beta 120.998685
_cell_angle_gamma 160.316366
_cell_volume 683.949050
_symmetry_space_group_name_H-M "P -1"
_symmetry_group_IT_number 2
_symmetry_cell_setting 'triclinic'
loop_
_space_group_symop_operation_xyz
x,y,z
-x,-y,-z
loop_
_atom_site_type_symbol
_atom_site_label
_atom_site_fract_x
_atom_site_fract_y
_atom_site_fract_z
Si Si1 0.301301 0.073754 0.253132
Si Si2 0.740142 0.950756 0.473283
Si Si3 0.668053 0.242139 0.818453
Si Si4 0.137055 0.349763 0.201121
Si Si5 0.885711 0.312914 0.360562
Si Si6 0.934471 0.820167 0.517004
Si Si7 0.206174 0.765659 0.241041
O O1 0.196224 0.991724 0.334681
O O2 0.606707 0.448439 0.338383
O O3 0.336816 0.998892 0.328702
O O4 0.083695 0.873933 0.026222
O O5 0.401494 0.577916 0.296391
O O6 0.893992 0.212399 0.446242
O O7 0.873197 0.011698 0.491930
O O8 0.716540 0.395201 0.721391
O O9 0.567393 0.049058 0.710234
O O10 0.438145 0.005990 0.822401
O O11 0.970894 0.548454 0.020299
O O12 0.988064 0.138602 0.282790
O O13 0.000000 0.500000 0.500000
O O14 0.065765 0.532160 0.304003
O O15 0.000000 0.000000 0.500000
#
# Coordination Sequence:
#
# PCOD8041934 Si02
#       7
#     2   2   2   2   2   2   2
#     4  10  22  39  62  89 119 156 199 241 294 354
#     4  10  22  41  59  88 123 156 193 246 292 345
#     4   9  20  34  53  81 118 153 187 230 276 338
#     4   9  21  42  61  87 122 156 194 242 296 352
#     4  11  20  31  53  85 114 150 185 222 277 343
#     4  11  25  43  63  87 115 151 201 255 304 350
#     4  10  19  34  54  81 116 155 191 228 275 338
#
# _framework density 20.469360000000002
#
# number of rings (size 3 to 8) (size 9 to 14) (size 15 to 20)
#    0.000    2.000    1.429    1.286    2.000    4.571 
#    0.000    1.429    0.000    0.000    0.000    0.000 
#    0.000    0.000    0.000    0.000    0.000    0.000 
#
# Total GULP energy -173477.472067 kJ/mol
# GULP energy per Si atom -12391.248005 kJ/mol
# Density = 2.042277 g / cm^3
# Si number density = 20.469360 Si / 1000 Ang^3
#
#
#
# Elastic Constant Matrix: (Units=GPa)
#
#
# Indices 1 2 3 4 5 6 
#
# 1 209.1623 121.7149 11.4173 -20.5891 3.9688 31.7665
# 2 121.7149 167.3322 0.1855 -26.6401 11.5336 29.7141
# 3 11.4173 0.1855 127.7584 5.3349 -10.0859 -13.0314
# 4 -20.5891 -26.6401 5.3349 36.2781 -3.5399 -13.3878
# 5 3.9688 11.5336 -10.0859 -3.5399 20.5354 2.9245
# 6 31.7665 29.7141 -13.0314 -13.3878 2.9245 41.1971
#
#
#
# Elastic Compliance Matrix: (Units=1/GPa)
#
#
# Indices 1 2 3 4 5 6 
#
# 1 0.008675 -0.005940 -0.000927 -0.000211 0.001578 -0.002878
# 2 -0.005940 0.011640 -0.000240 0.003925 -0.004504 -0.002296
# 3 -0.000927 -0.000240 0.008568 -0.000396 0.004000 0.003185
# 4 -0.000211 0.003925 -0.000396 0.033541 0.002292 0.007943
# 5 0.001578 -0.004504 0.004000 0.002292 0.053243 0.000262
# 6 -0.002878 -0.002296 0.003185 0.007943 0.000262 0.031719
#
#
# Mechanical properties :
#
#
# Convention : Reuss Voigt Hill
#
# Bulk Modulus (GPa) = 68.16929 85.65426 76.91177
# Shear Modulus (GPa) = 30.03221 44.33112 37.18166
#
# Velocity S-wave (km/s) = 3.83453 4.65879 4.26661
# Velocity P-wave (km/s) = 7.27875 8.41873 7.86941
#
# Compressibility (1/GPa) = 0.01466936
#
# Stress axis : x y z
#
# Youngs Moduli (GPa) = 115.27987 85.91051 116.71847
#
# Poissons Ratio (x) = 0.51030 0.10817
# Poissons Ratio (y) = 0.68475 0.02798
# Poissons Ratio (z) = 0.10684 0.02059
#
# Static dielectric constant tensor:
#      x y z
#    x 4.162210 0.314180 -0.026600 
#    y 0.314180 3.874450 0.144060 
#    z -0.026600 0.144060 3.559220 
# 
# 
# High freq. dielectric constant tensor:
#      x y z
#    x 1.797720 0.009870 0.005710 
#    y 0.009870 1.798470 0.001360 
#    z 0.005710 0.001360 1.799070 
# 
# From -- ./inp_files/44085.got.cif
#   From: 2010.06.25/outbox.cif.g09.slc.cpg/sg2_23_cif.got.tgz:44085.got - 2010.06.27 13:26:56.
