data_PCOD8041524
_publ_section_title
;
Structure prediction by ZEFSAII (Michael W. Deem and Ramdas Pophale) SiO2 
 PCOD8041524
Probable space group: P -1
;
_chemical_formula_sum "Si O2"
_cell_formula_units_Z 14
_cell_length_a 12.271144
_cell_length_b 8.575625
_cell_length_c 17.265961
_cell_angle_alpha 137.501445
_cell_angle_beta 49.197267
_cell_angle_gamma 99.881896
_cell_volume 738.730589
_symmetry_space_group_name_H-M "P -1"
_symmetry_group_IT_number 2
_symmetry_cell_setting 'triclinic'
loop_
_space_group_symop_operation_xyz
x,y,z
-x,-y,-z
loop_
_atom_site_type_symbol
_atom_site_label
_atom_site_fract_x
_atom_site_fract_y
_atom_site_fract_z
Si Si1 0.318103 0.531087 0.592146
Si Si2 0.787888 0.932147 0.956914
Si Si3 0.373585 0.319022 0.321847
Si Si4 0.096517 0.960885 0.643958
Si Si5 0.083545 0.443939 0.756711
Si Si6 0.162477 0.184592 0.283123
Si Si7 0.985974 0.859081 0.082642
O O1 0.500000 0.500000 0.500000
O O2 0.294866 0.417960 0.480869
O O3 0.277119 0.374939 0.618834
O O4 0.162691 0.869602 0.801958
O O5 0.788860 0.815906 0.829102
O O6 0.926641 0.655844 0.845360
O O7 0.837302 0.152019 0.004492
O O8 0.588063 0.132944 0.158380
O O9 0.271108 0.620848 0.430896
O O10 0.331509 0.104786 0.227903
O O11 0.904601 0.012020 0.742087
O O12 0.110820 0.141250 0.636880
O O13 0.094598 0.092452 0.776204
O O14 0.027383 0.577721 0.918506
O O15 0.000000 0.500000 0.500000
#
# Coordination Sequence:
#
# PCOD8041524 Si02
#       7
#     2   2   2   2   2   2   2
#     4  10  19  33  53  77 103 137 173 207 252 311
#     4  10  19  33  56  78  98 135 177 208 249 309
#     4  10  19  36  54  74 104 141 172 204 252 314
#     4   9  20  34  52  77 105 135 172 214 257 298
#     4  11  19  33  53  79 104 133 172 220 256 290
#     4   9  18  36  56  74 101 140 174 204 251 314
#     4   9  18  33  52  73 105 141 169 203 259 316
#
# _framework density 18.951429999999998
#
# number of rings (size 3 to 8) (size 9 to 14) (size 15 to 20)
#    0.000    2.286    0.000    6.857    0.000    0.000 
#    0.000   19.286    0.000    0.000    0.000    0.000 
#    0.000    0.000    0.000    0.000    0.000    0.000 
#
# Total GULP energy -173472.330796 kJ/mol
# GULP energy per Si atom -12390.880771 kJ/mol
# Density = 1.890830 g / cm^3
# Si number density = 18.951430 Si / 1000 Ang^3
#
#
#
# Elastic Constant Matrix: (Units=GPa)
#
#
# Indices 1 2 3 4 5 6 
#
# 1 90.4226 26.7166 20.4563 2.0331 -0.5863 10.0962
# 2 26.7166 109.4965 27.8473 6.9929 -7.0984 15.6712
# 3 20.4563 27.8473 68.8705 -7.8562 -4.2534 7.3299
# 4 2.0331 6.9929 -7.8562 19.3661 4.5531 -1.2011
# 5 -0.5863 -7.0984 -4.2534 4.5531 37.1913 -8.3752
# 6 10.0962 15.6712 7.3299 -1.2011 -8.3752 19.6141
#
#
#
# Elastic Compliance Matrix: (Units=1/GPa)
#
#
# Indices 1 2 3 4 5 6 
#
# 1 0.012781 -0.001644 -0.002915 -0.001925 -0.001302 -0.004849
# 2 -0.001644 0.012169 -0.004362 -0.006671 0.000986 -0.007233
# 3 -0.002915 -0.004362 0.018344 0.009291 -0.000233 -0.001400
# 4 -0.001925 -0.006671 0.009291 0.059828 -0.006748 0.003632
# 5 -0.001302 0.000986 -0.000233 -0.006748 0.030708 0.012669
# 6 -0.004849 -0.007233 -0.001400 0.003632 0.012669 0.065415
#
#
# Mechanical properties :
#
#
# Convention : Reuss Voigt Hill
#
# Bulk Modulus (GPa) = 39.29279 46.53666 42.91472
# Shear Modulus (GPa) = 22.16596 28.15227 25.15912
#
# Velocity S-wave (km/s) = 3.42368 3.85839 3.64752
# Velocity P-wave (km/s) = 6.03384 6.66773 6.35869
#
# Compressibility (1/GPa) = 0.02544996
#
# Stress axis : x y z
#
# Youngs Moduli (GPa) = 78.24180 82.17928 54.51344
#
# Poissons Ratio (x) = 0.13514 0.15892
# Poissons Ratio (y) = 0.12867 0.23779
# Poissons Ratio (z) = 0.22809 0.35847
#
# Static dielectric constant tensor:
#      x y z
#    x 5.819840 0.864120 0.506090 
#    y 0.864120 3.561640 -0.047080 
#    z 0.506090 -0.047080 3.460710 
# 
# 
# High freq. dielectric constant tensor:
#      x y z
#    x 1.742810 0.008700 0.012330 
#    y 0.008700 1.711680 -0.020730 
#    z 0.012330 -0.020730 1.728820 
# 
# From -- ./inp_files/169476.got.cif
#   From: 2010.06.25/outbox.cif.g09.slc.cpg/sg2_85_cif.got.tgz:169476.got - 2010.06.27 13:26:56.
