data_PCOD8041377
_publ_section_title
;
Structure prediction by ZEFSAII (Michael W. Deem and Ramdas Pophale) SiO2 
 PCOD8041377
Probable space group: P -1
;
_chemical_formula_sum "Si O2"
_cell_formula_units_Z 16
_cell_length_a 14.254355
_cell_length_b 11.888776
_cell_length_c 8.854398
_cell_angle_alpha 122.745911
_cell_angle_beta 116.522787
_cell_angle_gamma 41.189052
_cell_volume 829.008408
_symmetry_space_group_name_H-M "P -1"
_symmetry_group_IT_number 2
_symmetry_cell_setting 'triclinic'
loop_
_space_group_symop_operation_xyz
x,y,z
-x,-y,-z
loop_
_atom_site_type_symbol
_atom_site_label
_atom_site_fract_x
_atom_site_fract_y
_atom_site_fract_z
Si Si1 0.604445 0.440177 0.808017
Si Si2 0.575077 0.056644 0.674259
Si Si3 0.259526 0.927723 0.435867
Si Si4 0.707101 0.916438 0.142638
Si Si5 0.424500 0.240488 0.997676
Si Si6 0.298189 0.706160 0.892590
Si Si7 0.175771 0.111803 0.086818
Si Si8 0.990157 0.144531 0.190857
O O1 0.681970 0.271136 0.623704
O O2 0.433305 0.566022 0.779621
O O3 0.641477 0.557923 0.862841
O O4 0.670342 0.353837 0.955536
O O5 0.619457 0.125873 0.631752
O O6 0.467711 0.214215 0.833286
O O7 0.500000 0.000000 0.500000
O O8 0.717712 0.882859 0.738486
O O9 0.249043 0.031866 0.647237
O O10 0.102338 0.056134 0.343710
O O11 0.693806 0.772944 0.076676
O O12 0.835331 0.821488 0.042663
O O13 0.558677 0.095392 0.096356
O O14 0.170873 0.713412 0.755413
O O15 0.251293 0.900740 0.986276
O O16 0.024914 0.232078 0.155428
O O17 0.000000 0.000000 0.000000
#
# Coordination Sequence:
#
# PCOD8041377 Si02
#       8
#     2   2   2   2   2   2   2   2
#     4  11  18  32  57  86 105 134 177 233 268 308
#     4  10  15  28  49  78 101 131 182 219 247 306
#     4  11  20  31  56  86 107 135 186 225 259 316
#     4  10  20  34  50  79 114 147 173 213 264 333
#     4  10  20  33  51  75 117 144 169 215 283 310
#     4  10  17  32  56  79 106 135 178 224 273 308
#     4   9  17  33  51  75 107 141 176 216 260 316
#     4   9  17  34  55  81 102 143 182 222 262 318
#
# _framework density 19.300165
#
# number of rings (size 3 to 8) (size 9 to 14) (size 15 to 20)
#    0.000    2.000    7.500    0.750    0.000    0.500 
#    0.000    2.500    0.000    1.500    0.000    0.000 
#    0.000    0.000    0.000    0.000    0.000    0.000 
#
# Total GULP energy -198235.334079 kJ/mol
# GULP energy per Si atom -12389.708380 kJ/mol
# Density = 1.925624 g / cm^3
# Si number density = 19.300165 Si / 1000 Ang^3
#
#
#
# Elastic Constant Matrix: (Units=GPa)
#
#
# Indices 1 2 3 4 5 6 
#
# 1 127.6012 45.1553 60.1710 -2.3932 18.2788 1.2947
# 2 45.1553 49.3467 26.1830 4.1675 11.8454 0.4135
# 3 60.1710 26.1830 112.0637 -9.2850 18.0357 0.1420
# 4 -2.3932 4.1675 -9.2850 15.4836 2.1659 6.0502
# 5 18.2788 11.8454 18.0357 2.1659 29.0440 -5.3800
# 6 1.2947 0.4135 0.1420 6.0502 -5.3800 28.6357
#
#
#
# Elastic Compliance Matrix: (Units=1/GPa)
#
#
# Indices 1 2 3 4 5 6 
#
# 1 0.013920 -0.010031 -0.004483 0.003115 -0.002410 -0.001573
# 2 -0.010031 0.032847 -0.002605 -0.012038 -0.004246 0.001738
# 3 -0.004483 -0.002605 0.013768 0.010334 -0.006019 -0.003142
# 4 0.003115 -0.012038 0.010334 0.084362 -0.013535 -0.020385
# 5 -0.002410 -0.004246 -0.006019 -0.013535 0.044543 0.011428
# 6 -0.001573 0.001738 -0.003142 -0.020385 0.011428 0.041437
#
#
# Mechanical properties :
#
#
# Convention : Reuss Voigt Hill
#
# Bulk Modulus (GPa) = 38.02498 61.33668 49.68083
# Shear Modulus (GPa) = 18.25623 25.13281 21.69452
#
# Velocity S-wave (km/s) = 3.07890 3.61253 3.35634
# Velocity P-wave (km/s) = 5.69071 7.01782 6.38882
#
# Compressibility (1/GPa) = 0.02629850
#
# Stress axis : x y z
#
# Youngs Moduli (GPa) = 71.83973 30.44420 72.63294
#
# Poissons Ratio (x) = 0.30537 0.32558
# Poissons Ratio (y) = 0.72059 0.18920
# Poissons Ratio (z) = 0.32203 0.07931
#
# Static dielectric constant tensor:
#      x y z
#    x 4.380870 -0.076820 0.245090 
#    y -0.076820 3.403200 -0.104060 
#    z 0.245090 -0.104060 3.475920 
# 
# 
# High freq. dielectric constant tensor:
#      x y z
#    x 1.763940 0.006950 0.014820 
#    y 0.006950 1.704050 -0.012800 
#    z 0.014820 -0.012800 1.733380 
# 
# From -- ./inp_files/308365.got.cif
#   From: 2010.06.25/outbox.cif.g09.slc.cpg/sg2_155_cif.got.tgz:308365.got - 2010.06.27 13:26:56.
