data_PCOD8041503
_publ_section_title
;
Structure prediction by ZEFSAII (Michael W. Deem and Ramdas Pophale) SiO2 
 PCOD8041503
Probable space group: P -1
;
_chemical_formula_sum "Si O2"
_cell_formula_units_Z 16
_cell_length_a 14.320588
_cell_length_b 9.919532
_cell_length_c 17.171014
_cell_angle_alpha 114.144977
_cell_angle_beta 146.406710
_cell_angle_gamma 90.092857
_cell_volume 905.164065
_symmetry_space_group_name_H-M "P -1"
_symmetry_group_IT_number 2
_symmetry_cell_setting 'triclinic'
loop_
_space_group_symop_operation_xyz
x,y,z
-x,-y,-z
loop_
_atom_site_type_symbol
_atom_site_label
_atom_site_fract_x
_atom_site_fract_y
_atom_site_fract_z
Si Si1 0.197030 0.538281 0.697275
Si Si2 0.406189 0.874993 0.045654
Si Si3 0.092277 0.917694 0.591944
Si Si4 0.929467 0.906475 0.081056
Si Si5 0.791342 0.619957 0.791579
Si Si6 0.622178 0.802577 0.621902
Si Si7 0.316060 0.125047 0.955041
Si Si8 0.767896 0.093762 0.918977
O O1 0.000000 0.500000 0.500000
O O2 0.105121 0.323260 0.605633
O O3 0.252866 0.660185 0.844687
O O4 0.435890 0.659912 0.844584
O O5 0.342364 0.851526 0.086941
O O6 0.674363 0.000883 0.264906
O O7 0.367294 0.000718 0.001189
O O8 0.145940 0.997993 0.735635
O O9 0.000000 0.000000 0.500000
O O10 0.830687 0.851793 0.086806
O O11 0.832947 0.699892 0.926967
O O12 0.206638 0.066906 0.301367
O O13 0.844138 0.000269 0.000175
O O14 0.699052 0.703976 0.699005
O O15 0.628419 0.381009 0.628777
O O16 0.020370 0.699712 0.926999
O O17 0.604664 0.933188 0.698699
#
# Coordination Sequence:
#
# PCOD8041503 Si02
#       8
#     2   2   2   2   2   2   2   2
#     4  11  19  35  55  74  99 135 175 214 257 303
#     4  10  19  33  52  76 104 133 175 217 251 303
#     4  11  23  37  53  75 105 137 171 215 264 306
#     4   8  15  25  39  64  97 130 161 204 248 290
#     4   8  13  23  36  61  93 131 164 194 242 304
#     4   8  13  23  38  59  99 128 157 199 251 292
#     4  10  19  33  52  76 104 133 175 217 251 303
#     4   8  15  25  39  64  97 130 161 204 248 290
#
# _framework density 17.676354
#
# number of rings (size 3 to 8) (size 9 to 14) (size 15 to 20)
#    0.000    2.750    2.500    2.250    0.000    4.000 
#    4.500    0.000    0.000    0.000    0.000    3.500 
#    0.000   10.000    0.000    0.000    0.000    0.000 
#
# Total GULP energy -198238.704714 kJ/mol
# GULP energy per Si atom -12389.919045 kJ/mol
# Density = 1.763612 g / cm^3
# Si number density = 17.676354 Si / 1000 Ang^3
#
#
#
# Elastic Constant Matrix: (Units=GPa)
#
#
# Indices 1 2 3 4 5 6 
#
# 1 193.2257 35.3182 82.7458 24.0389 -0.0217 -13.6722
# 2 35.3182 66.4143 46.8395 12.2012 0.5042 3.6040
# 3 82.7458 46.8395 132.7841 41.4822 4.9501 -2.6920
# 4 24.0389 12.2012 41.4822 33.2337 2.1835 0.1498
# 5 -0.0217 0.5042 4.9501 2.1835 10.7774 8.3868
# 6 -13.6722 3.6040 -2.6920 0.1498 8.3868 -7.7583
#
#
#
# Elastic Compliance Matrix: (Units=1/GPa)
#
#
# Indices 1 2 3 4 5 6 
#
# 1 0.006818 -0.000257 -0.004651 0.000624 0.005547 -0.004512
# 2 -0.000257 0.019382 -0.007016 0.002057 -0.004012 0.007595
# 3 -0.004651 -0.007016 0.018032 -0.016432 -0.001825 -0.003610
# 4 0.000624 0.002057 -0.016432 0.049658 -0.004170 0.002007
# 5 0.005547 -0.004012 -0.001825 -0.004170 0.056101 0.049561
# 6 -0.004512 0.007595 -0.003610 0.002007 0.049561 -0.062547
#
#
# Mechanical properties :
#
#
# Convention : Reuss Voigt Hill
#
# Bulk Modulus (GPa) = 49.05762 80.24789 64.65275
# Shear Modulus (GPa) = 42.34135 22.41859 32.37997
#
# Velocity S-wave (km/s) = 4.89956 3.56516 4.28462
# Velocity P-wave (km/s) = 7.73441 7.90216 7.81873
#
# Compressibility (1/GPa) = 0.02038419
#
# Stress axis : x y z
#
# Youngs Moduli (GPa) = 146.67556 51.59358 55.45565
#
# Poissons Ratio (x) = 0.01327 0.25793
# Poissons Ratio (y) = 0.03774 0.38906
# Poissons Ratio (z) = 0.68221 0.36197
#
# Static dielectric constant tensor:
#      x y z
#    x 3.742140 -0.063350 0.010470 
#    y -0.063350 2.815510 0.341780 
#    z 0.010470 0.341780 3.247210 
# 
# 
# High freq. dielectric constant tensor:
#      x y z
#    x 1.693020 -0.004010 0.002040 
#    y -0.004010 1.631400 0.028180 
#    z 0.002040 0.028180 1.684560 
# 
# From -- ./inp_files/215699.got.cif
#   From: 2010.06.25/outbox.cif.g09.slc.cpg/sg2_108_cif.got.tgz:215699.got - 2010.06.27 13:26:56.
