data_PCOD8041060
_publ_section_title
;
Structure prediction by ZEFSAII (Michael W. Deem and Ramdas Pophale) SiO2 
 PCOD8041060
Probable space group: P -1
;
_chemical_formula_sum "Si O2"
_cell_formula_units_Z 16
_cell_length_a 9.404758
_cell_length_b 19.995173
_cell_length_c 12.178396
_cell_angle_alpha 52.742974
_cell_angle_beta 45.429318
_cell_angle_gamma 88.658697
_cell_volume 917.018948
_symmetry_space_group_name_H-M "P -1"
_symmetry_group_IT_number 2
_symmetry_cell_setting 'triclinic'
loop_
_space_group_symop_operation_xyz
x,y,z
-x,-y,-z
loop_
_atom_site_type_symbol
_atom_site_label
_atom_site_fract_x
_atom_site_fract_y
_atom_site_fract_z
Si Si1 0.885587 0.088062 0.605233
Si Si2 0.021595 0.170849 0.218272
Si Si3 0.031344 0.954596 0.921267
Si Si4 0.097760 0.781746 0.107013
Si Si5 0.535991 0.767956 0.217892
Si Si6 0.327275 0.367634 0.692092
Si Si7 0.256693 0.832510 0.211692
Si Si8 0.682684 0.924723 0.560542
O O1 0.907303 0.147896 0.645835
O O2 0.966307 0.172850 0.374436
O O3 0.111579 0.081139 0.488119
O O4 0.571320 0.958085 0.887566
O O5 0.290530 0.188985 0.033961
O O6 0.085076 0.274278 0.008858
O O7 0.752328 0.040880 0.445153
O O8 0.737368 0.871819 0.096016
O O9 0.116774 0.886082 0.971605
O O10 0.000000 0.000000 0.000000
O O11 0.279262 0.068685 0.598558
O O12 0.363293 0.811189 0.882339
O O13 0.079927 0.762219 0.267011
O O14 0.821172 0.661222 0.316689
O O15 0.459510 0.649853 0.416289
O O16 0.271118 0.749623 0.356253
O O17 0.500000 0.500000 0.500000
#
# Coordination Sequence:
#
# PCOD8041060 Si02
#       8
#     2   2   2   2   2   2   2   2
#     4  11  19  29  49  81 116 146 160 202 257 338
#     4   9  17  31  52  73 105 136 169 209 257 300
#     4  10  19  30  45  76 115 143 165 203 259 315
#     4  11  21  31  54  80 106 140 173 217 259 314
#     4   8  18  34  50  74 102 140 175 206 259 301
#     4   9  20  39  58  74  95 134 187 229 261 292
#     4  11  20  30  50  82 113 143 169 198 268 319
#     4  11  18  31  48  79 117 134 171 205 266 315
#
# _framework density 17.447839999999999
#
# number of rings (size 3 to 8) (size 9 to 14) (size 15 to 20)
#    0.750    1.250    5.000    2.250    1.750    0.000 
#    0.000    0.625    0.000    1.500    0.000    0.000 
#    0.000    0.000    0.000    0.000    0.000    0.000 
#
# Total GULP energy -198216.496708 kJ/mol
# GULP energy per Si atom -12388.531044 kJ/mol
# Density = 1.740813 g / cm^3
# Si number density = 17.447840 Si / 1000 Ang^3
#
#
#
# Elastic Constant Matrix: (Units=GPa)
#
#
# Indices 1 2 3 4 5 6 
#
# 1 105.6846 49.5779 28.4890 -1.5628 4.9616 14.4602
# 2 49.5779 104.7897 44.4172 -0.8442 3.7710 22.3046
# 3 28.4890 44.4172 39.7005 -1.7352 5.0208 8.8036
# 4 -1.5628 -0.8442 -1.7352 26.0930 3.4308 7.2184
# 5 4.9616 3.7710 5.0208 3.4308 17.2634 7.0766
# 6 14.4602 22.3046 8.8036 7.2184 7.0766 26.8244
#
#
#
# Elastic Compliance Matrix: (Units=1/GPa)
#
#
# Indices 1 2 3 4 5 6 
#
# 1 0.012732 -0.003563 -0.004435 0.001161 -0.000775 -0.002553
# 2 -0.003563 0.022216 -0.020405 0.001600 0.006732 -0.012061
# 3 -0.004435 -0.020405 0.051763 0.002757 -0.011816 0.004744
# 4 0.001161 0.001600 0.002757 0.042882 -0.004602 -0.013186
# 5 -0.000775 0.006732 -0.011816 -0.004602 0.068458 -0.018124
# 6 -0.002553 -0.012061 0.004744 -0.013186 -0.018124 0.055457
#
#
# Mechanical properties :
#
#
# Convention : Reuss Voigt Hill
#
# Bulk Modulus (GPa) = 33.43990 55.01587 44.22788
# Shear Modulus (GPa) = 15.61116 22.54887 19.08001
#
# Velocity S-wave (km/s) = 2.99445 3.59884 3.31047
# Velocity P-wave (km/s) = 5.58238 6.99063 6.32581
#
# Compressibility (1/GPa) = 0.02990440
#
# Stress axis : x y z
#
# Youngs Moduli (GPa) = 78.54185 45.01310 19.31876
#
# Poissons Ratio (x) = 0.16039 0.08568
# Poissons Ratio (y) = 0.27987 0.39420
# Poissons Ratio (z) = 0.34834 0.91849
#
# Static dielectric constant tensor:
#      x y z
#    x 3.426950 0.140900 0.126790 
#    y 0.140900 3.193620 0.211950 
#    z 0.126790 0.211950 2.810580 
# 
# 
# High freq. dielectric constant tensor:
#      x y z
#    x 1.683930 0.001480 0.013130 
#    y 0.001480 1.660220 0.025070 
#    z 0.013130 0.025070 1.615270 
# 
# From -- ./inp_files/180500.got.cif
#   From: 2010.06.25/outbox.cif.g09.slc.cpg/sg2_91_cif.got.tgz:180500.got - 2010.06.27 13:26:56.
