data_PCOD8041254
_publ_section_title
;
Structure prediction by ZEFSAII (Michael W. Deem and Ramdas Pophale) SiO2 
 PCOD8041254
Probable space group: P -1
;
_chemical_formula_sum "Si O2"
_cell_formula_units_Z 14
_cell_length_a 15.956908
_cell_length_b 12.305420
_cell_length_c 5.278756
_cell_angle_alpha 72.141503
_cell_angle_beta 116.899469
_cell_angle_gamma 122.633574
_cell_volume 775.727648
_symmetry_space_group_name_H-M "P -1"
_symmetry_group_IT_number 2
_symmetry_cell_setting 'triclinic'
loop_
_space_group_symop_operation_xyz
x,y,z
-x,-y,-z
loop_
_atom_site_type_symbol
_atom_site_label
_atom_site_fract_x
_atom_site_fract_y
_atom_site_fract_z
Si Si1 0.187410 0.448374 0.979495
Si Si2 0.078713 0.410239 0.350276
Si Si3 0.426821 0.346867 0.972051
Si Si4 0.372125 0.871586 0.161372
Si Si5 0.850280 0.342778 0.011879
Si Si6 0.523236 0.160664 0.173559
Si Si7 0.623070 0.603970 0.631163
O O1 0.134165 0.382907 0.687086
O O2 0.194456 0.590345 0.893805
O O3 0.114882 0.363252 0.178346
O O4 0.305375 0.464759 0.156969
O O5 0.951134 0.330815 0.267170
O O6 0.113448 0.564566 0.256247
O O7 0.343490 0.318774 0.645480
O O8 0.500000 0.500000 0.000000
O O9 0.498203 0.279577 0.049936
O O10 0.364382 0.297945 0.189463
O O11 0.416451 0.827388 0.491291
O O12 0.413796 0.025239 0.111641
O O13 0.244097 0.801093 0.066245
O O14 0.405122 0.828711 0.977302
O O15 0.500000 0.500000 0.500000
#
# Coordination Sequence:
#
# PCOD8041254 Si02
#       7
#     2   2   2   2   2   2   2
#     4  10  19  32  49  72 113 130 163 220 260 306
#     4   9  20  32  49  78 107 129 171 220 258 322
#     4  10  21  31  50  69 106 132 175 208 248 295
#     4  10  22  34  57  73 106 144 173 212 266 308
#     4   9  21  30  55  75 105 134 175 207 275 304
#     4  10  22  38  48  79 107 141 180 210 250 326
#     4  10  21  31  46  77  97 139 171 198 261 307
#
# _framework density 18.047571000000001
#
# number of rings (size 3 to 8) (size 9 to 14) (size 15 to 20)
#    0.857    1.429    0.000    2.143   10.000    0.000 
#    0.000    0.000    0.000    0.000    0.000    6.000 
#    0.000    0.000    0.000    0.000    0.000    0.000 
#
# Total GULP energy -173439.696871 kJ/mol
# GULP energy per Si atom -12388.549777 kJ/mol
# Density = 1.800649 g / cm^3
# Si number density = 18.047571 Si / 1000 Ang^3
#
#
#
# Elastic Constant Matrix: (Units=GPa)
#
#
# Indices 1 2 3 4 5 6 
#
# 1 59.4869 22.4164 30.0979 -12.8569 19.5040 16.8088
# 2 22.4164 63.9640 17.0987 1.5219 14.1475 10.8177
# 3 30.0979 17.0987 116.4884 -23.7602 2.0297 22.3383
# 4 -12.8569 1.5219 -23.7602 2.8087 9.6973 18.2383
# 5 19.5040 14.1475 2.0297 9.6973 42.8019 0.1135
# 6 16.8088 10.8177 22.3383 18.2383 0.1135 21.1570
#
#
#
# Elastic Compliance Matrix: (Units=1/GPa)
#
#
# Indices 1 2 3 4 5 6 
#
# 1 0.019103 -0.004535 -0.008250 -0.013104 -0.003865 0.007170
# 2 -0.004535 0.019059 -0.001064 -0.001258 -0.003887 -0.003913
# 3 -0.008250 -0.001064 0.008657 -0.006828 0.005238 0.003817
# 4 -0.013104 -0.001258 -0.006828 -0.018198 0.010744 0.033892
# 5 -0.003865 -0.003887 0.005238 0.010744 0.023753 -0.009861
# 6 0.007170 -0.003913 0.003817 0.033892 -0.009861 0.010377
#
#
# Mechanical properties :
#
#
# Convention : Reuss Voigt Hill
#
# Bulk Modulus (GPa) = 52.30331 42.12948 47.21640
# Shear Modulus (GPa) = 51.64030 24.70861 38.17445
#
# Velocity S-wave (km/s) = 5.35496 3.70413 4.60413
# Velocity P-wave (km/s) = 8.20230 6.45665 7.38126
#
# Compressibility (1/GPa) = 0.01911925
#
# Stress axis : x y z
#
# Youngs Moduli (GPa) = 52.34786 52.46813 115.51954
#
# Poissons Ratio (x) = 0.23795 0.95308
# Poissons Ratio (y) = 0.23741 0.12294
# Poissons Ratio (z) = 0.43189 0.05584
#
# Static dielectric constant tensor:
#      x y z
#    x 2.789450 0.070280 0.666360 
#    y 0.070280 2.964490 0.016740 
#    z 0.666360 0.016740 2.077210 
# 
# 
# High freq. dielectric constant tensor:
#      x y z
#    x 1.700370 0.001170 -0.016030 
#    y 0.001170 1.634320 0.000020 
#    z -0.016030 0.000020 1.716860 
# 
# From -- ./inp_files/108008.got.cif
#   From: 2010.06.25/outbox.cif.g09.slc.cpg/sg2_55_cif.got.tgz:108008.got - 2010.06.27 13:26:56.
