data_PCOD8041296
_publ_section_title
;
Structure prediction by ZEFSAII (Michael W. Deem and Ramdas Pophale) SiO2 
 PCOD8041296
Probable space group: P -1
;
_chemical_formula_sum "Si O2"
_cell_formula_units_Z 16
_cell_length_a 15.942625
_cell_length_b 8.373727
_cell_length_c 11.791265
_cell_angle_alpha 123.437032
_cell_angle_beta 42.405844
_cell_angle_gamma 100.368158
_cell_volume 810.668318
_symmetry_space_group_name_H-M "P -1"
_symmetry_group_IT_number 2
_symmetry_cell_setting 'triclinic'
loop_
_space_group_symop_operation_xyz
x,y,z
-x,-y,-z
loop_
_atom_site_type_symbol
_atom_site_label
_atom_site_fract_x
_atom_site_fract_y
_atom_site_fract_z
Si Si1 0.181159 0.750184 0.990582
Si Si2 0.354834 0.671380 0.990969
Si Si3 0.892609 0.238820 0.186014
Si Si4 0.019424 0.423721 0.824134
Si Si5 0.786235 0.504522 0.765994
Si Si6 0.343847 0.478067 0.324716
Si Si7 0.755665 0.860610 0.648247
Si Si8 0.087759 0.212753 0.309120
O O1 0.187544 0.695793 0.829564
O O2 0.322211 0.699369 0.898628
O O3 0.107672 0.634983 0.096361
O O4 0.094268 0.995444 0.173538
O O5 0.257564 0.571644 0.104977
O O6 0.329844 0.890912 0.164110
O O7 0.511404 0.517842 0.788502
O O8 0.772012 0.308504 0.425703
O O9 0.976888 0.384357 0.179889
O O10 0.000000 0.000000 0.000000
O O11 0.158618 0.215070 0.583784
O O12 0.000000 0.500000 0.000000
O O13 0.670932 0.525567 0.797282
O O14 0.809451 0.719073 0.843208
O O15 0.929889 0.355886 0.510157
O O16 0.341312 0.264327 0.294509
O O17 0.870259 0.789798 0.603138
#
# Coordination Sequence:
#
# PCOD8041296 Si02
#       8
#     2   2   2   2   2   2   2   2
#     4  10  20  34  54  80 105 134 175 217 266 312
#     4  11  21  33  54  79 110 142 172 217 262 315
#     4  10  21  37  58  77 103 139 176 221 265 312
#     4   9  18  33  53  80 105 132 175 219 261 307
#     4  10  19  32  52  78 108 137 174 219 265 308
#     4  10  21  36  52  76 108 145 179 209 259 321
#     4   9  18  33  53  77 106 139 175 216 263 310
#     4   9  18  32  53  80 104 135 175 223 268 303
#
# _framework density 19.736799999999999
#
# number of rings (size 3 to 8) (size 9 to 14) (size 15 to 20)
#    0.000    2.250    0.000    3.000    0.000    6.500 
#    0.000    0.000    0.000    3.000    0.000    0.000 
#    0.000    0.000    0.000    0.000    0.000    0.000 
#
# Total GULP energy -198226.692072 kJ/mol
# GULP energy per Si atom -12389.168254 kJ/mol
# Density = 1.969188 g / cm^3
# Si number density = 19.736800 Si / 1000 Ang^3
#
#
#
# Elastic Constant Matrix: (Units=GPa)
#
#
# Indices 1 2 3 4 5 6 
#
# 1 77.8814 15.9890 20.0707 -2.9570 -6.2220 0.3946
# 2 15.9890 91.6151 31.3273 7.9651 -3.1162 7.9709
# 3 20.0707 31.3273 72.3136 5.4636 -2.1186 0.3730
# 4 -2.9570 7.9651 5.4636 26.3762 -1.1455 2.2752
# 5 -6.2220 -3.1162 -2.1186 -1.1455 28.4723 0.3946
# 6 0.3946 7.9709 0.3730 2.2752 0.3946 24.1542
#
#
#
# Elastic Compliance Matrix: (Units=1/GPa)
#
#
# Indices 1 2 3 4 5 6 
#
# 1 0.014378 -0.001471 -0.003490 0.002904 0.002839 -0.000016
# 2 -0.001471 0.013585 -0.005223 -0.002798 0.000721 -0.004126
# 3 -0.003490 -0.005223 0.017238 -0.002544 -0.000178 0.001757
# 4 0.002904 -0.002798 -0.002544 0.039936 0.001786 -0.002876
# 5 0.002839 0.000721 -0.000178 0.001786 0.035894 -0.001036
# 6 -0.000016 -0.004126 0.001757 -0.002876 -0.001036 0.043023
#
#
# Mechanical properties :
#
#
# Convention : Reuss Voigt Hill
#
# Bulk Modulus (GPa) = 40.26734 41.84269 41.05502
# Shear Modulus (GPa) = 25.94716 27.42875 26.68795
#
# Velocity S-wave (km/s) = 3.62976 3.73195 3.68121
# Velocity P-wave (km/s) = 6.16549 6.31001 6.23817
#
# Compressibility (1/GPa) = 0.02483402
#
# Stress axis : x y z
#
# Youngs Moduli (GPa) = 69.54886 73.61212 58.01171
#
# Poissons Ratio (x) = 0.10825 0.20245
# Poissons Ratio (y) = 0.10228 0.30300
# Poissons Ratio (z) = 0.24271 0.38448
#
# Static dielectric constant tensor:
#      x y z
#    x 3.503380 0.228630 0.121260 
#    y 0.228630 3.990630 -0.021400 
#    z 0.121260 -0.021400 3.353070 
# 
# 
# High freq. dielectric constant tensor:
#      x y z
#    x 1.765500 0.010330 0.009270 
#    y 0.010330 1.775040 0.000000 
#    z 0.009270 0.000000 1.742260 
# 
# From -- ./inp_files/253003.got.cif
#   From: 2010.06.25/outbox.cif.g09.slc.cpg/sg2_127_cif.got.tgz:253003.got - 2010.06.27 13:26:56.
