data_PCOD8041547
_publ_section_title
;
Structure prediction by ZEFSAII (Michael W. Deem and Ramdas Pophale) SiO2 
 PCOD8041547
Probable space group: P -1
;
_chemical_formula_sum "Si O2"
_cell_formula_units_Z 16
_cell_length_a 11.723153
_cell_length_b 12.966796
_cell_length_c 5.414954
_cell_angle_alpha 90.327584
_cell_angle_beta 69.808733
_cell_angle_gamma 83.787269
_cell_volume 767.195270
_symmetry_space_group_name_H-M "P -1"
_symmetry_group_IT_number 2
_symmetry_cell_setting 'triclinic'
loop_
_space_group_symop_operation_xyz
x,y,z
-x,-y,-z
loop_
_atom_site_type_symbol
_atom_site_label
_atom_site_fract_x
_atom_site_fract_y
_atom_site_fract_z
Si Si1 0.482959 0.565624 0.763565
Si Si2 0.589096 0.099461 0.008318
Si Si3 0.657817 0.897750 0.218845
Si Si4 0.786710 0.021286 0.498840
Si Si5 0.884361 0.225946 0.429110
Si Si6 0.841817 0.814513 0.712220
Si Si7 0.381569 0.240421 0.339672
Si Si8 0.743749 0.269578 0.045029
O O1 0.500000 0.500000 0.500000
O O2 0.585647 0.643975 0.670677
O O3 0.348495 0.625808 0.881124
O O4 0.500000 0.500000 0.000000
O O5 0.458474 0.172587 0.061547
O O6 0.670664 0.168435 0.123438
O O7 0.568847 0.985264 0.133190
O O8 0.661204 0.082763 0.698821
O O9 0.575930 0.833296 0.456770
O O10 0.753732 0.966675 0.274175
O O11 0.749623 0.811498 0.009406
O O12 0.883703 0.102756 0.389097
O O13 0.849414 0.934480 0.639140
O O14 0.827764 0.280087 0.223544
O O15 0.025796 0.247400 0.341032
O O16 0.818881 0.267571 0.731800
O O17 0.765943 0.756364 0.562812
#
# Coordination Sequence:
#
# PCOD8041547 Si02
#       8
#     2   2   2   2   2   2   2   2
#     4  11  25  47  75  97 117 146 199 268 324 376
#     4   9  18  35  53  85 125 163 206 254 295 361
#     4  10  19  33  53  87 124 169 205 242 302 348
#     4   9  19  33  51  84 122 176 217 246 286 335
#     4  11  21  38  61  87 133 166 216 245 280 362
#     4  10  23  34  53  86 127 177 204 246 295 350
#     4  10  23  37  59  89 122 158 203 249 322 372
#     4  10  22  39  66  94 118 163 205 254 307 353
#
# _framework density 20.855186
#
# number of rings (size 3 to 8) (size 9 to 14) (size 15 to 20)
#    0.000    2.000    1.250    1.500    5.250    6.000 
#    0.000    0.000    0.000    4.500    0.000    0.000 
#    0.000    0.000    0.000    0.000    0.000    0.000 
#
# Total GULP energy -198287.000886 kJ/mol
# GULP energy per Si atom -12392.937555 kJ/mol
# Density = 2.080772 g / cm^3
# Si number density = 20.855186 Si / 1000 Ang^3
#
#
#
# Elastic Constant Matrix: (Units=GPa)
#
#
# Indices 1 2 3 4 5 6 
#
# 1 137.3847 51.8093 46.0051 -5.6562 -11.8013 -14.5196
# 2 51.8093 112.5408 46.3662 -0.0733 1.2336 1.3453
# 3 46.0051 46.3662 91.3024 -0.9757 9.2604 -10.6607
# 4 -5.6562 -0.0733 -0.9757 26.4452 -4.6300 0.6364
# 5 -11.8013 1.2336 9.2604 -4.6300 32.5263 -0.7171
# 6 -14.5196 1.3453 -10.6607 0.6364 -0.7171 26.7640
#
#
#
# Elastic Compliance Matrix: (Units=1/GPa)
#
#
# Indices 1 2 3 4 5 6 
#
# 1 0.011022 -0.003677 -0.003676 0.003100 0.005732 0.004780
# 2 -0.003677 0.012748 -0.005115 -0.000932 -0.000597 -0.004667
# 3 -0.003676 -0.005115 0.016542 -0.001343 -0.005936 0.004725
# 4 0.003100 -0.000932 -0.001343 0.039675 0.007200 0.000443
# 5 0.005732 -0.000597 -0.005936 0.007200 0.035596 0.001557
# 6 0.004780 -0.004667 0.004725 0.000443 0.001557 0.042104
#
#
# Mechanical properties :
#
#
# Convention : Reuss Voigt Hill
#
# Bulk Modulus (GPa) = 65.04451 69.95435 67.49943
# Shear Modulus (GPa) = 26.63134 30.28360 28.45747
#
# Velocity S-wave (km/s) = 3.57734 3.81476 3.69796
# Velocity P-wave (km/s) = 6.95122 7.28141 7.11823
#
# Compressibility (1/GPa) = 0.01537409
#
# Stress axis : x y z
#
# Youngs Moduli (GPa) = 90.72942 78.44558 60.45210
#
# Poissons Ratio (x) = 0.28847 0.22224
# Poissons Ratio (y) = 0.33364 0.30922
# Poissons Ratio (z) = 0.33355 0.40126
#
# Static dielectric constant tensor:
#      x y z
#    x 3.715210 0.023520 0.210700 
#    y 0.023520 3.465720 0.057410 
#    z 0.210700 0.057410 3.736530 
# 
# 
# High freq. dielectric constant tensor:
#      x y z
#    x 1.822310 0.003510 0.010930 
#    y 0.003510 1.776320 0.002370 
#    z 0.010930 0.002370 1.822450 
# 
# From -- ./inp_files/70283.got.cif
#   From: 2010.06.25/outbox.cif.g09.slc.cpg/sg2_36_cif.got.tgz:70283.got - 2010.06.27 13:26:56.
