data_PCOD8041733
_publ_section_title
;
Structure prediction by ZEFSAII (Michael W. Deem and Ramdas Pophale) SiO2 
 PCOD8041733
Probable space group: P -1
;
_chemical_formula_sum "Si O2"
_cell_formula_units_Z 16
_cell_length_a 24.319569
_cell_length_b 8.591808
_cell_length_c 24.841424
_cell_angle_alpha 46.115160
_cell_angle_beta 11.799593
_cell_angle_gamma 46.154733
_cell_volume 761.467619
_symmetry_space_group_name_H-M "P -1"
_symmetry_group_IT_number 2
_symmetry_cell_setting 'triclinic'
loop_
_space_group_symop_operation_xyz
x,y,z
-x,-y,-z
loop_
_atom_site_type_symbol
_atom_site_label
_atom_site_fract_x
_atom_site_fract_y
_atom_site_fract_z
Si Si1 0.381941 0.102550 0.785751
Si Si2 0.174974 0.970527 0.710779
Si Si3 0.901700 0.038815 0.711678
Si Si4 0.529397 0.879442 0.807764
Si Si5 0.632536 0.385071 0.806044
Si Si6 0.778951 0.859770 0.269419
Si Si7 0.551183 0.428604 0.407691
Si Si8 0.926230 0.779890 0.650174
O O1 0.359398 0.359869 0.759484
O O2 0.561889 0.035196 0.577301
O O3 0.510753 0.971601 0.743730
O O4 0.085588 0.031091 0.076220
O O5 0.153684 0.180462 0.721238
O O6 0.207836 0.766348 0.770836
O O7 0.788673 0.253057 0.736017
O O8 0.202021 0.062577 0.435757
O O9 0.917016 0.818226 0.714122
O O10 0.720407 0.012090 0.944201
O O11 0.527404 0.621813 0.870068
O O12 0.837103 0.399483 0.555041
O O13 0.370686 0.267050 0.071043
O O14 0.722643 0.641195 0.342796
O O15 0.500000 0.000000 0.500000
O O16 0.000000 0.000000 0.000000
O O17 0.500000 0.500000 0.500000
O O18 0.000000 0.000000 0.500000
#
# Coordination Sequence:
#
# PCOD8041733 Si02
#       8
#     2   2   2   2   2   2   2   2
#     4  11  23  39  56  82 117 154 189 234 291 345
#     4  10  20  38  59  81 111 152 192 236 281 342
#     4  11  21  39  61  87 116 154 199 249 293 346
#     4  12  24  38  58  88 123 156 195 246 296 351
#     4  11  21  38  62  88 116 156 198 241 295 357
#     4  10  19  33  57  87 110 137 185 237 277 327
#     4   9  19  36  61  86 111 146 188 233 283 338
#     4  10  20  37  62  89 115 149 198 250 294 348
#
# _framework density 21.012055
#
# number of rings (size 3 to 8) (size 9 to 14) (size 15 to 20)
#    0.000    1.500    0.000    8.625    0.000    3.000 
#    0.000    3.750    0.000    0.000    0.000    0.000 
#    0.000    0.000    0.000    0.000    0.000    0.000 
#
# Total GULP energy -198271.028434 kJ/mol
# GULP energy per Si atom -12391.939277 kJ/mol
# Density = 2.096423 g / cm^3
# Si number density = 21.012055 Si / 1000 Ang^3
#
#
#
# Elastic Constant Matrix: (Units=GPa)
#
#
# Indices 1 2 3 4 5 6 
#
# 1 188.4901 -29.2323 154.8005 37.8772 -56.5053 -5.4720
# 2 -29.2323 -145.1672 -28.5226 81.9216 -10.2609 -17.2188
# 3 154.8005 -28.5226 299.6882 46.7789 -71.0206 -16.4016
# 4 37.8772 81.9216 46.7789 -18.2057 6.4025 10.8019
# 5 -56.5053 -10.2609 -71.0206 6.4025 67.9812 8.6204
# 6 -5.4720 -17.2188 -16.4016 10.8019 8.6204 35.0667
#
#
#
# Elastic Compliance Matrix: (Units=1/GPa)
#
#
# Indices 1 2 3 4 5 6 
#
# 1 0.010009 -0.003066 -0.004095 -0.003169 0.004117 -0.001895
# 2 -0.003066 0.010143 -0.003303 0.026372 -0.006499 -0.003569
# 3 -0.004095 -0.003303 0.006663 -0.004295 0.003289 0.001370
# 4 -0.003169 0.026372 -0.004295 0.042998 -0.007055 -0.001065
# 5 0.004117 -0.006499 0.003289 -0.007055 0.021783 -0.004192
# 6 -0.001895 -0.003569 0.001370 -0.001065 -0.004192 0.028468
#
#
# Mechanical properties :
#
#
# Convention : Reuss Voigt Hill
#
# Bulk Modulus (GPa) = 169.87638 59.67804 114.77721
# Shear Modulus (GPa) = 34.97620 33.36613 34.17117
#
# Velocity S-wave (km/s) = 4.08435 3.98923 4.03707
# Velocity P-wave (km/s) = 10.16195 7.04855 8.74492
#
# Compressibility (1/GPa) = 0.00588663
#
# Stress axis : x y z
#
# Youngs Moduli (GPa) = 99.90716 98.59194 150.09330
#
# Poissons Ratio (x) = 0.30225 0.61467
# Poissons Ratio (y) = 0.30628 0.49577
# Poissons Ratio (z) = 0.40914 0.32566
#
# Static dielectric constant tensor:
#      x y z
#    x 4.490410 0.873600 -0.028620 
#    y 0.873600 4.488610 0.024690 
#    z -0.028620 0.024690 4.012800 
# 
# 
# High freq. dielectric constant tensor:
#      x y z
#    x 1.834070 0.034370 -0.005730 
#    y 0.034370 1.792490 0.006090 
#    z -0.005730 0.006090 1.837500 
# 
# From -- ./inp_files/621141.got.cif
#   From: 2010.06.25/outbox.cif.g09.slc.cpg/sg2_311_cif.got.tgz:621141.got - 2010.06.27 13:26:56.
