data_PCOD8041881
_publ_section_title
;
Structure prediction by ZEFSAII (Michael W. Deem and Ramdas Pophale) SiO2 
 PCOD8041881
Probable space group: P -1
;
_chemical_formula_sum "Si O2"
_cell_formula_units_Z 16
_cell_length_a 12.980661
_cell_length_b 11.927873
_cell_length_c 16.089800
_cell_angle_alpha 119.692000
_cell_angle_beta 26.039196
_cell_angle_gamma 128.121294
_cell_volume 847.555969
_symmetry_space_group_name_H-M "P -1"
_symmetry_group_IT_number 2
_symmetry_cell_setting 'triclinic'
loop_
_space_group_symop_operation_xyz
x,y,z
-x,-y,-z
loop_
_atom_site_type_symbol
_atom_site_label
_atom_site_fract_x
_atom_site_fract_y
_atom_site_fract_z
Si Si1 0.865283 0.887112 0.175558
Si Si2 0.046482 0.199925 0.094424
Si Si3 0.279694 0.682790 0.540935
Si Si4 0.949997 0.632779 0.610561
Si Si5 0.731510 0.996000 0.932640
Si Si6 0.438953 0.313605 0.991139
Si Si7 0.007132 0.358474 0.596659
Si Si8 0.849435 0.068322 0.688102
O O1 0.578718 0.788320 0.382995
O O2 0.077095 0.903102 0.097831
O O3 0.909990 0.802517 0.035457
O O4 0.879523 0.038954 0.192675
O O5 0.329359 0.276175 0.963056
O O6 0.888426 0.293672 0.255228
O O7 0.183967 0.728122 0.540182
O O8 0.240410 0.517104 0.506939
O O9 0.958391 0.706628 0.541887
O O10 0.000000 0.500000 0.500000
O O11 0.669354 0.585870 0.844486
O O12 0.876374 0.048555 0.758915
O O13 0.678047 0.831888 0.922702
O O14 0.458521 0.007356 0.141491
O O15 0.751928 0.388390 0.789859
O O16 0.982601 0.241240 0.639689
O O17 0.000000 0.000000 0.500000
#
# Coordination Sequence:
#
# PCOD8041881 Si02
#       8
#     2   2   2   2   2   2   2   2
#     4  10  19  34  51  73 105 132 167 202 236 297
#     4   9  19  32  51  74 100 140 169 195 239 287
#     4  10  20  31  48  76 107 135 163 197 242 298
#     4   9  18  29  46  74 104 136 164 193 241 292
#     4   9  20  35  54  76  95 127 167 212 256 288
#     4   9  17  32  50  73 104 130 167 209 242 292
#     4  10  20  32  51  76 101 134 167 205 257 296
#     4  10  20  37  58  76  95 122 168 218 257 298
#
# _framework density 18.87781
#
# number of rings (size 3 to 8) (size 9 to 14) (size 15 to 20)
#    0.000    2.500    0.000    1.875    0.000    8.500 
#    0.000    0.625    0.000    1.500    0.000    0.000 
#    0.000    0.000    0.000    0.000    0.000    0.000 
#
# Total GULP energy -198352.948514 kJ/mol
# GULP energy per Si atom -12397.059282 kJ/mol
# Density = 1.883484 g / cm^3
# Si number density = 18.877810 Si / 1000 Ang^3
#
#
#
# Elastic Constant Matrix: (Units=GPa)
#
#
# Indices 1 2 3 4 5 6 
#
# 1 70.0360 0.2492 12.2815 12.5491 7.4104 10.2021
# 2 0.2492 42.8648 3.0233 12.3759 -5.7289 10.0470
# 3 12.2815 3.0233 74.6680 19.4871 -0.6699 11.4633
# 4 12.5491 12.3759 19.4871 33.0080 8.0435 1.2626
# 5 7.4104 -5.7289 -0.6699 8.0435 27.9740 -1.2508
# 6 10.2021 10.0470 11.4633 1.2626 -1.2508 16.2919
#
#
#
# Elastic Compliance Matrix: (Units=1/GPa)
#
#
# Indices 1 2 3 4 5 6 
#
# 1 0.017984 0.005677 0.001433 -0.008812 -0.001714 -0.015220
# 2 0.005677 0.037967 0.008249 -0.022971 0.011729 -0.030093
# 3 0.001433 0.008249 0.019863 -0.016023 0.005575 -0.018291
# 4 -0.008812 -0.022971 -0.016023 0.054996 -0.017433 0.025358
# 5 -0.001714 0.011729 0.005575 -0.017433 0.043509 -0.005391
# 6 -0.015220 -0.030093 -0.018291 0.025358 -0.005391 0.099959
#
#
# Mechanical properties :
#
#
# Convention : Reuss Voigt Hill
#
# Bulk Modulus (GPa) = 9.38684 24.29743 16.84213
# Shear Modulus (GPa) = 17.91656 26.92243 22.41950
#
# Velocity S-wave (km/s) = 3.08406 3.78053 3.44991
# Velocity P-wave (km/s) = 4.20299 5.65290 4.98099
#
# Compressibility (1/GPa) = 0.10653218
#
# Stress axis : x y z
#
# Youngs Moduli (GPa) = 55.60428 26.33845 50.34567
#
# Poissons Ratio (x) = -0.14952 -0.07215
# Poissons Ratio (y) = -0.31566 -0.41530
# Poissons Ratio (z) = -0.07968 -0.21727
#
# Static dielectric constant tensor:
#      x y z
#    x 3.695300 0.023500 0.358430 
#    y 0.023500 3.365710 0.053660 
#    z 0.358430 0.053660 3.758660 
# 
# 
# High freq. dielectric constant tensor:
#      x y z
#    x 1.712350 0.004870 0.012050 
#    y 0.004870 1.725440 0.003850 
#    z 0.012050 0.003850 1.742330 
# 
# From -- ./inp_files/118592.got.cif
#   From: 2010.06.25/outbox.cif.g09.slc.cpg/sg2_60_cif.got.tgz:118592.got - 2010.06.27 13:26:56.
