data_PCOD8041432
_publ_section_title
;
Structure prediction by ZEFSAII (Michael W. Deem and Ramdas Pophale) SiO2 
 PCOD8041432
Probable space group: P -1
;
_chemical_formula_sum "Si O2"
_cell_formula_units_Z 14
_cell_length_a 11.745861
_cell_length_b 11.530526
_cell_length_c 8.560724
_cell_angle_alpha 90.442830
_cell_angle_beta 36.979114
_cell_angle_gamma 110.604003
_cell_volume 570.691705
_symmetry_space_group_name_H-M "P -1"
_symmetry_group_IT_number 2
_symmetry_cell_setting 'triclinic'
loop_
_space_group_symop_operation_xyz
x,y,z
-x,-y,-z
loop_
_atom_site_type_symbol
_atom_site_label
_atom_site_fract_x
_atom_site_fract_y
_atom_site_fract_z
Si Si1 0.955964 0.193245 0.670375
Si Si2 0.515508 0.638701 0.939159
Si Si3 0.109483 0.849970 0.618319
Si Si4 0.633761 0.667579 0.326448
Si Si5 0.104285 0.567659 0.219298
Si Si6 0.688731 0.310251 0.537329
Si Si7 0.100682 0.089681 0.737863
O O1 0.222560 0.241425 0.385390
O O2 0.881758 0.067749 0.875718
O O3 0.868351 0.161553 0.591699
O O4 0.910388 0.301141 0.797675
O O5 0.500000 0.500000 0.000000
O O6 0.366890 0.613580 0.943915
O O7 0.438171 0.692479 0.166876
O O8 0.289186 0.821686 0.496195
O O9 0.209215 0.014833 0.532608
O O10 0.848397 0.735120 0.967462
O O11 0.500000 0.500000 0.500000
O O12 0.444579 0.691403 0.467792
O O13 0.720954 0.747349 0.398151
O O14 0.000000 0.500000 0.500000
O O15 0.954753 0.451786 0.248453
O O16 0.000000 0.000000 0.000000
#
# Coordination Sequence:
#
# PCOD8041432 Si02
#       7
#     2   2   2   2   2   2   2
#     4  12  20  40  71  95 126 176 225 276 324 390
#     4  11  19  33  62 104 135 160 209 287 329 374
#     4  11  23  44  69  97 133 174 225 275 326 394
#     4  11  25  44  68  98 135 178 221 270 332 400
#     4  10  19  32  58 107 138 152 208 284 338 366
#     4  11  21  37  65  97 135 172 220 271 333 384
#     4  10  26  47  65  92 138 183 215 268 340 401
#
# _framework density 24.531634
#
# number of rings (size 3 to 8) (size 9 to 14) (size 15 to 20)
#    0.000    1.143    7.143    1.286    0.000    1.143 
#    0.000    6.429    0.000    0.000    0.000    0.000 
#    0.000    0.000    0.000    0.000    0.000    0.000 
#
# Total GULP energy -173438.154872 kJ/mol
# GULP energy per Si atom -12388.439634 kJ/mol
# Density = 2.447580 g / cm^3
# Si number density = 24.531634 Si / 1000 Ang^3
#
#
#
# Elastic Constant Matrix: (Units=GPa)
#
#
# Indices 1 2 3 4 5 6 
#
# 1 155.2993 49.0341 8.3953 6.0664 -9.5812 -39.6536
# 2 49.0341 166.1369 1.8340 9.1848 1.3710 -34.5096
# 3 8.3953 1.8340 39.9803 -5.1738 -6.4711 -12.6135
# 4 6.0664 9.1848 -5.1738 24.6422 -10.3878 -7.4324
# 5 -9.5812 1.3710 -6.4711 -10.3878 39.5406 2.3180
# 6 -39.6536 -34.5096 -12.6135 -7.4324 2.3180 56.3778
#
#
#
# Elastic Compliance Matrix: (Units=1/GPa)
#
#
# Indices 1 2 3 4 5 6 
#
# 1 0.008258 -0.001466 0.000390 0.000994 0.002081 0.005044
# 2 -0.001466 0.007247 0.000640 -0.001668 -0.001138 0.003375
# 3 0.000390 0.000640 0.030442 0.011927 0.007676 0.008734
# 4 0.000994 -0.001668 0.011927 0.052633 0.015571 0.008645
# 5 0.002081 -0.001138 0.007676 0.015571 0.030990 0.003263
# 6 0.005044 0.003375 0.008734 0.008645 0.003263 0.026311
#
#
# Mechanical properties :
#
#
# Convention : Reuss Voigt Hill
#
# Bulk Modulus (GPa) = 22.18454 53.32702 37.75578
# Shear Modulus (GPa) = 29.10707 44.25566 36.68136
#
# Velocity S-wave (km/s) = 3.44831 4.25199 3.87106
# Velocity P-wave (km/s) = 4.99173 6.77430 5.95015
#
# Compressibility (1/GPa) = 0.04507643
#
# Stress axis : x y z
#
# Youngs Moduli (GPa) = 121.08757 137.97922 32.84897
#
# Poissons Ratio (x) = 0.20230 -0.01281
# Poissons Ratio (y) = 0.17753 -0.02103
# Poissons Ratio (z) = -0.04721 -0.08835
#
# Static dielectric constant tensor:
#      x y z
#    x 3.512960 3.164910 3.567730 
#    y 3.164910 5.927660 -4.384680 
#    z 3.567730 -4.384680 -0.339230 
# 
# 
# High freq. dielectric constant tensor:
#      x y z
#    x 1.996100 -0.017300 0.005660 
#    y -0.017300 1.978690 0.007300 
#    z 0.005660 0.007300 1.954410 
# 
# From -- ./inp_files/258430.got.cif
#   From: 2010.06.25/outbox.cif.g09.slc.cpg/sg2_130_cif.got.tgz:258430.got - 2010.06.27 13:26:56.
