data_PCOD8041496
_publ_section_title
;
Structure prediction by ZEFSAII (Michael W. Deem and Ramdas Pophale) SiO2 
 PCOD8041496
Probable space group: P -1
;
_chemical_formula_sum "Si O2"
_cell_formula_units_Z 16
_cell_length_a 11.842029
_cell_length_b 11.856421
_cell_length_c 14.888795
_cell_angle_alpha 44.779671
_cell_angle_beta 35.372786
_cell_angle_gamma 58.008556
_cell_volume 846.230377
_symmetry_space_group_name_H-M "P -1"
_symmetry_group_IT_number 2
_symmetry_cell_setting 'triclinic'
loop_
_space_group_symop_operation_xyz
x,y,z
-x,-y,-z
loop_
_atom_site_type_symbol
_atom_site_label
_atom_site_fract_x
_atom_site_fract_y
_atom_site_fract_z
Si Si1 0.812533 0.462757 0.827877
Si Si2 0.154715 0.604713 0.615444
Si Si3 0.537284 0.920822 0.612864
Si Si4 0.923668 0.671666 0.035211
Si Si5 0.096304 0.853059 0.982412
Si Si6 0.525615 0.517505 0.315959
Si Si7 0.250367 0.769120 0.625106
Si Si8 0.552164 0.560524 0.792181
O O1 0.933858 0.306925 0.844718
O O2 0.717165 0.473248 0.786164
O O3 0.980404 0.614871 0.650386
O O4 0.653452 0.466962 0.007295
O O5 0.068566 0.481554 0.819439
O O6 0.345290 0.553337 0.473379
O O7 0.201593 0.768935 0.549774
O O8 0.623894 0.752090 0.635714
O O9 0.500000 0.000000 0.500000
O O10 0.693475 0.042670 0.497073
O O11 0.330032 0.895755 0.810816
O O12 0.704261 0.658619 0.142622
O O13 0.996369 0.825306 0.964452
O O14 0.075459 0.680238 0.849710
O O15 0.000000 0.000000 0.000000
O O16 0.570641 0.337587 0.414202
O O17 0.471418 0.519794 0.244711
#
# Coordination Sequence:
#
# PCOD8041496 Si02
#       8
#     2   2   2   2   2   2   2   2
#     4   9  20  39  57  80 104 147 188 217 263 324
#     4  10  21  32  52  81 109 141 178 226 275 318
#     4  11  20  33  53  86 109 142 178 224 273 311
#     4  10  19  33  51  79 107 146 180 219 271 315
#     4  10  21  33  56  83 114 139 172 226 278 324
#     4  11  20  31  54  81 111 140 177 230 271 318
#     4  11  19  33  53  78 113 140 184 224 265 324
#     4  10  20  38  59  78 108 145 188 218 262 329
#
# _framework density 18.907381000000001
#
# number of rings (size 3 to 8) (size 9 to 14) (size 15 to 20)
#    0.000    1.750    2.500    5.250    5.250    0.500 
#    0.000    0.625    0.000    0.750    0.000    0.000 
#    0.000    0.000    0.000    0.000    0.000    0.000 
#
# Total GULP energy -198244.993606 kJ/mol
# GULP energy per Si atom -12390.312100 kJ/mol
# Density = 1.886435 g / cm^3
# Si number density = 18.907381 Si / 1000 Ang^3
#
#
#
# Elastic Constant Matrix: (Units=GPa)
#
#
# Indices 1 2 3 4 5 6 
#
# 1 135.5895 53.2615 35.0289 0.8467 -15.6019 14.5326
# 2 53.2615 87.3890 27.4909 5.8368 -3.9790 12.2263
# 3 35.0289 27.4909 69.4459 -1.5536 -16.3115 10.3263
# 4 0.8467 5.8368 -1.5536 20.7666 4.3915 -1.6351
# 5 -15.6019 -3.9790 -16.3115 4.3915 27.5473 -3.3813
# 6 14.5326 12.2263 10.3263 -1.6351 -3.3813 27.8990
#
#
#
# Elastic Compliance Matrix: (Units=1/GPa)
#
#
# Indices 1 2 3 4 5 6 
#
# 1 0.010683 -0.005412 -0.002058 -0.000030 0.003813 -0.001971
# 2 -0.005412 0.016707 -0.004112 -0.004470 -0.002814 -0.003583
# 3 -0.002058 -0.004112 0.019790 0.000457 0.009484 -0.003275
# 4 -0.000030 -0.004470 0.000457 0.051466 -0.008126 0.003837
# 5 0.003813 -0.002814 0.009484 -0.008126 0.045054 0.000721
# 6 -0.001971 -0.003583 -0.003275 0.003837 0.000721 0.039965
#
#
# Mechanical properties :
#
#
# Convention : Reuss Voigt Hill
#
# Bulk Modulus (GPa) = 41.63895 58.22077 49.92986
# Shear Modulus (GPa) = 23.27362 27.01878 25.14620
#
# Velocity S-wave (km/s) = 3.51226 3.78432 3.65083
# Velocity P-wave (km/s) = 6.20632 7.06783 6.65104
#
# Compressibility (1/GPa) = 0.02401597
#
# Stress axis : x y z
#
# Youngs Moduli (GPa) = 93.60573 59.85510 50.52977
#
# Poissons Ratio (x) = 0.32395 0.10400
# Poissons Ratio (y) = 0.50662 0.20777
# Poissons Ratio (z) = 0.19265 0.24611
#
# Static dielectric constant tensor:
#      x y z
#    x 3.681720 0.248700 -0.098590 
#    y 0.248700 3.290720 0.016560 
#    z -0.098590 0.016560 3.332210 
# 
# 
# High freq. dielectric constant tensor:
#      x y z
#    x 1.735290 0.033150 -0.018750 
#    y 0.033150 1.708240 0.007150 
#    z -0.018750 0.007150 1.732790 
# 
# From -- ./inp_files/254678.got.cif
#   From: 2010.06.25/outbox.cif.g09.slc.cpg/sg2_128_cif.got.tgz:254678.got - 2010.06.27 13:26:56.
