data_PCOD8041009
_publ_section_title
;
Structure prediction by ZEFSAII (Michael W. Deem and Ramdas Pophale) SiO2 
 PCOD8041009
Probable space group: P -1
;
_chemical_formula_sum "Si O2"
_cell_formula_units_Z 16
_cell_length_a 11.137287
_cell_length_b 9.810997
_cell_length_c 11.898670
_cell_angle_alpha 126.151655
_cell_angle_beta 49.835591
_cell_angle_gamma 138.755692
_cell_volume 640.656619
_symmetry_space_group_name_H-M "P -1"
_symmetry_group_IT_number 2
_symmetry_cell_setting 'triclinic'
loop_
_space_group_symop_operation_xyz
x,y,z
-x,-y,-z
loop_
_atom_site_type_symbol
_atom_site_label
_atom_site_fract_x
_atom_site_fract_y
_atom_site_fract_z
Si Si1 0.241136 0.248113 0.880800
Si Si2 0.521054 0.714443 0.630838
Si Si3 0.899481 0.759076 0.411862
Si Si4 0.401254 0.094916 0.550319
Si Si5 0.182607 0.163210 0.120382
Si Si6 0.983257 0.677449 0.551815
Si Si7 0.213397 0.562511 0.918391
Si Si8 0.257681 0.943734 0.146078
O O1 0.404179 0.253898 0.712435
O O2 0.227944 0.435162 0.945923
O O3 0.303092 0.277604 0.988895
O O4 0.035481 0.025684 0.875771
O O5 0.660235 0.637659 0.486215
O O6 0.474097 0.774970 0.571275
O O7 0.307737 0.547267 0.738722
O O8 0.642137 0.918363 0.736825
O O9 0.923547 0.637391 0.437398
O O10 0.016945 0.776268 0.236000
O O11 0.000000 0.000000 0.500000
O O12 0.500000 0.000000 0.500000
O O13 0.183033 0.910832 0.553604
O O14 0.180703 0.330000 0.279677
O O15 0.288537 0.083633 0.087650
O O16 0.000000 0.500000 0.500000
O O17 0.340520 0.809581 0.002556
O O18 0.000000 0.500000 0.000000
#
# Coordination Sequence:
#
# PCOD8041009 Si02
#       8
#     2   2   2   2   2   2   2   2
#     4  10  24  43  63  98 140 184 225 276 352 411
#     4  11  24  44  74  99 132 186 236 292 340 408
#     4  10  18  41  71  96 132 175 232 277 340 403
#     4  11  25  46  66  98 144 184 230 283 355 419
#     4  10  20  41  68  90 139 181 214 273 354 411
#     4  11  22  39  71 106 133 179 230 287 343 406
#     4  12  27  43  68 107 140 178 234 287 343 417
#     4  11  21  44  73 101 132 181 229 282 347 413
#
# _framework density 24.974378000000002
#
# number of rings (size 3 to 8) (size 9 to 14) (size 15 to 20)
#    0.000    1.250    6.250    1.125    3.500    2.500 
#    0.000    0.625    0.000    0.000    0.000    0.000 
#    0.000    0.000    0.000    0.000    0.000    0.000 
#
# Total GULP energy -198453.606732 kJ/mol
# GULP energy per Si atom -12403.350421 kJ/mol
# Density = 2.491754 g / cm^3
# Si number density = 24.974378 Si / 1000 Ang^3
#
#
#
# Elastic Constant Matrix: (Units=GPa)
#
#
# Indices 1 2 3 4 5 6 
#
# 1 129.2080 50.4586 58.8719 -14.1772 4.7289 -52.3727
# 2 50.4586 102.9284 55.8735 -7.4998 0.9420 -36.0976
# 3 58.8719 55.8735 179.6055 -5.5108 6.8529 -37.3935
# 4 -14.1772 -7.4998 -5.5108 45.3038 -17.4980 -3.9648
# 5 4.7289 0.9420 6.8529 -17.4980 38.6066 -12.5078
# 6 -52.3727 -36.0976 -37.3935 -3.9648 -12.5078 67.4170
#
#
#
# Elastic Compliance Matrix: (Units=1/GPa)
#
#
# Indices 1 2 3 4 5 6 
#
# 1 0.013970 -0.001831 -0.001884 0.006644 0.004964 0.010139
# 2 -0.001831 0.014257 -0.002708 0.003376 0.003700 0.005594
# 3 -0.001884 -0.002708 0.007239 -0.000418 -0.000882 0.000913
# 4 0.006644 0.003376 -0.000418 0.032592 0.017825 0.011961
# 5 0.004964 0.003700 -0.000882 0.017825 0.037783 0.013406
# 6 0.010139 0.005594 0.000913 0.011961 0.013406 0.029402
#
#
# Mechanical properties :
#
#
# Convention : Reuss Voigt Hill
#
# Bulk Modulus (GPa) = 44.21024 82.46110 63.33567
# Shear Modulus (GPa) = 32.12765 46.70132 39.41448
#
# Velocity S-wave (km/s) = 3.59057 4.32901 3.97696
# Velocity P-wave (km/s) = 5.91018 7.62083 6.81936
#
# Compressibility (1/GPa) = 0.02261919
#
# Stress axis : x y z
#
# Youngs Moduli (GPa) = 71.58206 70.13945 138.14632
#
# Poissons Ratio (x) = 0.12845 0.26029
# Poissons Ratio (y) = 0.13110 0.37408
# Poissons Ratio (z) = 0.13487 0.18993
#
# Static dielectric constant tensor:
#      x y z
#    x 4.244600 0.289080 0.223300 
#    y 0.289080 4.691300 -0.219640 
#    z 0.223300 -0.219640 4.708530 
# 
# 
# High freq. dielectric constant tensor:
#      x y z
#    x 1.993570 0.011090 0.003540 
#    y 0.011090 2.010200 0.007620 
#    z 0.003540 0.007620 2.019310 
# 
# From -- ./inp_files/419697.got.cif
#   From: 2010.06.25/outbox.cif.g09.slc.cpg/sg2_210_cif.got.tgz:419697.got - 2010.06.27 13:26:56.
