data_PCOD8041917
_publ_section_title
;
Structure prediction by ZEFSAII (Michael W. Deem and Ramdas Pophale) SiO2 
 PCOD8041917
Probable space group: P -1
;
_chemical_formula_sum "Si O2"
_cell_formula_units_Z 14
_cell_length_a 5.218840
_cell_length_b 19.762182
_cell_length_c 8.463851
_cell_angle_alpha 58.788745
_cell_angle_beta 77.633572
_cell_angle_gamma 52.469987
_cell_volume 585.395135
_symmetry_space_group_name_H-M "P -1"
_symmetry_group_IT_number 2
_symmetry_cell_setting 'triclinic'
loop_
_space_group_symop_operation_xyz
x,y,z
-x,-y,-z
loop_
_atom_site_type_symbol
_atom_site_label
_atom_site_fract_x
_atom_site_fract_y
_atom_site_fract_z
Si Si1 0.241395 0.694038 0.492933
Si Si2 0.188375 0.027155 0.101454
Si Si3 0.899676 0.918213 0.294344
Si Si4 0.208668 0.098664 0.334662
Si Si5 0.312721 0.372287 0.758233
Si Si6 0.572431 0.190498 0.141429
Si Si7 0.943215 0.590231 0.581536
O O1 0.035522 0.806557 0.438877
O O2 0.333864 0.682577 0.307809
O O3 0.574557 0.630631 0.629418
O O4 0.033571 0.651764 0.595619
O O5 0.361367 0.029158 0.238415
O O6 0.801291 0.118825 0.052680
O O7 0.306571 0.045898 0.892148
O O8 0.186828 0.931192 0.212882
O O9 0.730058 0.966796 0.433542
O O10 0.813977 0.173106 0.273297
O O11 0.330576 0.165649 0.260655
O O12 0.049640 0.394885 0.628750
O O13 0.199966 0.474942 0.728462
O O14 0.341693 0.302946 0.976731
#
# Coordination Sequence:
#
# PCOD8041917 Si02
#       7
#     2   2   2   2   2   2   2
#     4  10  19  34  53  93 115 158 199 255 297 372
#     4   9  22  43  63  97 118 174 204 255 300 381
#     4  11  21  42  67  91 131 161 209 256 312 355
#     4  10  24  43  59  94 127 168 201 259 300 373
#     4   9  19  34  61  87 119 162 199 255 299 374
#     4  10  22  40  63  87 129 156 215 244 310 364
#     4   9  20  31  58  91 120 149 213 246 309 354
#
# _framework density 23.915469999999999
#
# number of rings (size 3 to 8) (size 9 to 14) (size 15 to 20)
#    1.714    0.571    1.429    0.857    4.000    1.714 
#    5.143    1.429    0.000    5.143    0.000    0.000 
#    0.000    0.000    0.000    0.000    0.000    0.000 
#
# Total GULP energy -173526.921573 kJ/mol
# GULP energy per Si atom -12394.780112 kJ/mol
# Density = 2.386104 g / cm^3
# Si number density = 23.915470 Si / 1000 Ang^3
#
#
#
# Elastic Constant Matrix: (Units=GPa)
#
#
# Indices 1 2 3 4 5 6 
#
# 1 164.0617 40.9642 70.8866 -10.8694 0.8966 22.5997
# 2 40.9642 100.1442 47.3627 -12.7751 -4.1599 13.8644
# 3 70.8866 47.3627 152.8222 -8.2669 5.4085 5.1727
# 4 -10.8694 -12.7751 -8.2669 37.6872 -4.0465 -14.6347
# 5 0.8966 -4.1599 5.4085 -4.0465 29.8868 -5.7192
# 6 22.5997 13.8644 5.1727 -14.6347 -5.7192 25.8801
#
#
#
# Elastic Compliance Matrix: (Units=1/GPa)
#
#
# Indices 1 2 3 4 5 6 
#
# 1 0.008874 -0.001177 -0.003532 -0.001791 -0.001519 -0.007761
# 2 -0.001177 0.012866 -0.003278 0.002142 0.002030 -0.003550
# 3 -0.003532 -0.003278 0.009185 0.001042 -0.001236 0.003320
# 4 -0.001791 0.002142 0.001042 0.037051 0.009636 0.023289
# 5 -0.001519 0.002030 -0.001236 0.009636 0.038061 0.014346
# 6 -0.007761 -0.003550 0.003320 0.023289 0.014346 0.062995
#
#
# Mechanical properties :
#
#
# Convention : Reuss Voigt Hill
#
# Bulk Modulus (GPa) = 66.87498 81.71724 74.29611
# Shear Modulus (GPa) = 26.31734 35.87847 31.09790
#
# Velocity S-wave (km/s) = 3.32087 3.87747 3.60992
# Velocity P-wave (km/s) = 6.53667 7.36816 6.96483
#
# Compressibility (1/GPa) = 0.01495327
#
# Stress axis : x y z
#
# Youngs Moduli (GPa) = 112.69076 77.72401 108.86928
#
# Poissons Ratio (x) = 0.09144 0.38452
# Poissons Ratio (y) = 0.13258 0.35682
# Poissons Ratio (z) = 0.39802 0.25474
#
# Static dielectric constant tensor:
#      x y z
#    x 4.271220 -0.040090 0.124500 
#    y -0.040090 4.062790 0.084460 
#    z 0.124500 0.084460 4.074760 
# 
# 
# High freq. dielectric constant tensor:
#      x y z
#    x 1.966380 -0.009440 0.011730 
#    y -0.009440 1.943170 0.001640 
#    z 0.011730 0.001640 1.932480 
# 
# From -- ./inp_files/140547.got.cif
#   From: 2010.06.25/outbox.cif.g09.slc.cpg/sg2_71_cif.got.tgz:140547.got - 2010.06.27 13:26:56.
