data_PCOD8041924
_publ_section_title
;
Structure prediction by ZEFSAII (Michael W. Deem and Ramdas Pophale) SiO2 
 PCOD8041924
Probable space group: P -1
;
_chemical_formula_sum "Si O2"
_cell_formula_units_Z 16
_cell_length_a 9.022339
_cell_length_b 14.796291
_cell_length_c 14.703274
_cell_angle_alpha 119.462255
_cell_angle_beta 119.585773
_cell_angle_gamma 29.825019
_cell_volume 839.738673
_symmetry_space_group_name_H-M "P -1"
_symmetry_group_IT_number 2
_symmetry_cell_setting 'triclinic'
loop_
_space_group_symop_operation_xyz
x,y,z
-x,-y,-z
loop_
_atom_site_type_symbol
_atom_site_label
_atom_site_fract_x
_atom_site_fract_y
_atom_site_fract_z
Si Si1 0.112886 0.735296 0.085773
Si Si2 0.819154 0.497122 0.485608
Si Si3 0.855600 0.143506 0.601430
Si Si4 0.834939 0.297609 0.280271
Si Si5 0.828773 0.554679 0.722037
Si Si6 0.123645 0.648660 0.238048
Si Si7 0.851527 0.067373 0.235376
Si Si8 0.180391 0.588333 0.851321
O O1 0.030650 0.701391 0.129549
O O2 0.458767 0.598938 0.128740
O O3 0.045516 0.704438 0.959787
O O4 0.900418 0.944161 0.122669
O O5 0.495452 0.672094 0.429341
O O6 0.955857 0.318027 0.403767
O O7 0.809214 0.503852 0.595105
O O8 0.000000 0.500000 0.500000
O O9 0.003438 0.184753 0.666811
O O10 0.000000 0.000000 0.500000
O O11 0.914607 0.062110 0.675813
O O12 0.479705 0.469998 0.266344
O O13 0.958311 0.119713 0.245207
O O14 0.935657 0.283106 0.203530
O O15 0.985961 0.400249 0.768398
O O16 0.494388 0.758078 0.749928
O O17 0.050706 0.539448 0.773137
#
# Coordination Sequence:
#
# PCOD8041924 Si02
#       8
#     2   2   2   2   2   2   2   2
#     4   9  20  40  59  79 108 145 180 228 275 322
#     4  11  21  35  55  79 115 147 178 220 269 322
#     4  10  19  34  54  77 109 146 178 217 265 318
#     4   9  19  35  55  80 110 148 182 212 269 336
#     4  11  21  34  57  84 108 144 185 224 267 322
#     4   8  19  34  54  79 109 141 184 216 267 330
#     4  10  21  36  56  81 110 143 186 223 266 322
#     4  10  20  38  61  79 108 146 182 223 277 323
#
# _framework density 19.053546999999998
#
# number of rings (size 3 to 8) (size 9 to 14) (size 15 to 20)
#    0.000    2.250    2.500    0.750    1.750    3.000 
#    0.000    4.375    0.000    0.000    0.000    0.000 
#    0.000    0.000    0.000    0.000    0.000    0.000 
#
# Total GULP energy -198327.320808 kJ/mol
# GULP energy per Si atom -12395.457550 kJ/mol
# Density = 1.901018 g / cm^3
# Si number density = 19.053547 Si / 1000 Ang^3
#
#
#
# Elastic Constant Matrix: (Units=GPa)
#
#
# Indices 1 2 3 4 5 6 
#
# 1 101.0553 28.2685 20.2542 -10.2077 -7.2639 31.9474
# 2 28.2685 57.5715 31.7663 7.5867 -6.6352 26.0558
# 3 20.2542 31.7663 101.6547 3.4301 -12.8262 16.0524
# 4 -10.2077 7.5867 3.4301 21.2525 -5.1115 2.0316
# 5 -7.2639 -6.6352 -12.8262 -5.1115 23.6128 -0.7896
# 6 31.9474 26.0558 16.0524 2.0316 -0.7896 34.3754
#
#
#
# Elastic Compliance Matrix: (Units=1/GPa)
#
#
# Indices 1 2 3 4 5 6 
#
# 1 0.016786 -0.002750 0.000180 0.011956 0.006604 -0.014155
# 2 -0.002750 0.031643 -0.005891 -0.009408 0.002205 -0.018072
# 3 0.000180 -0.005891 0.012522 0.001638 0.005505 -0.001519
# 4 0.011956 -0.009408 0.001638 0.060184 0.014686 -0.007965
# 5 0.006604 0.002205 0.005505 0.014686 0.050833 -0.010080
# 6 -0.014155 -0.018072 -0.001519 -0.007965 -0.010080 0.056893
#
#
# Mechanical properties :
#
#
# Convention : Reuss Voigt Hill
#
# Bulk Modulus (GPa) = 22.71215 46.76217 34.73716
# Shear Modulus (GPa) = 19.19689 27.84764 23.52227
#
# Velocity S-wave (km/s) = 3.17759 3.82716 3.51741
# Velocity P-wave (km/s) = 5.04072 6.64269 5.89636
#
# Compressibility (1/GPa) = 0.04402930
#
# Stress axis : x y z
#
# Youngs Moduli (GPa) = 59.57313 31.60237 79.86216
#
# Poissons Ratio (x) = 0.08689 -0.01435
# Poissons Ratio (y) = 0.16380 0.47047
# Poissons Ratio (z) = -0.01071 0.18617
#
# Static dielectric constant tensor:
#      x y z
#    x 2.507990 1.563530 0.955550 
#    y 1.563530 2.332490 -0.743510 
#    z 0.955550 -0.743510 2.977780 
# 
# 
# High freq. dielectric constant tensor:
#      x y z
#    x 1.736640 0.018060 -0.004910 
#    y 0.018060 1.724450 0.010630 
#    z -0.004910 0.010630 1.748630 
# 
# From -- ./inp_files/187905.got.cif
#   From: 2010.06.25/outbox.cif.g09.slc.cpg/sg2_94_cif.got.tgz:187905.got - 2010.06.27 13:26:56.
