data_PCOD8041197
_publ_section_title
;
Structure prediction by ZEFSAII (Michael W. Deem and Ramdas Pophale) SiO2 
 PCOD8041197
Probable space group: P -1
;
_chemical_formula_sum "Si O2"
_cell_formula_units_Z 16
_cell_length_a 9.172740
_cell_length_b 25.874109
_cell_length_c 20.877160
_cell_angle_alpha 19.499108
_cell_angle_beta 29.761447
_cell_angle_gamma 36.951046
_cell_volume 815.476072
_symmetry_space_group_name_H-M "P -1"
_symmetry_group_IT_number 2
_symmetry_cell_setting 'triclinic'
loop_
_space_group_symop_operation_xyz
x,y,z
-x,-y,-z
loop_
_atom_site_type_symbol
_atom_site_label
_atom_site_fract_x
_atom_site_fract_y
_atom_site_fract_z
Si Si1 0.869317 0.289631 0.848563
Si Si2 0.792552 0.183116 0.209267
Si Si3 0.901589 0.365764 0.243902
Si Si4 0.209728 0.352978 0.522170
Si Si5 0.376452 0.151552 0.289188
Si Si6 0.248771 0.277367 0.833421
Si Si7 0.841675 0.505379 0.871341
Si Si8 0.112311 0.626135 0.505163
O O1 0.795306 0.465504 0.674997
O O2 0.982338 0.256583 0.772002
O O3 0.147011 0.248137 0.833379
O O4 0.568859 0.189434 0.106435
O O5 0.544048 0.223218 0.205563
O O6 0.679612 0.035294 0.467892
O O7 0.906591 0.327389 0.043229
O O8 0.071405 0.151853 0.095190
O O9 0.548547 0.315067 0.441415
O O10 0.061837 0.219003 0.330142
O O11 0.017917 0.431789 0.190107
O O12 0.000000 0.500000 0.000000
O O13 0.090430 0.309602 0.547269
O O14 0.174390 0.450781 0.673862
O O15 0.587791 0.257753 0.738915
O O16 0.962804 0.630482 0.625785
O O17 0.500000 0.500000 0.000000
#
# Coordination Sequence:
#
# PCOD8041197 Si02
#       8
#     2   2   2   2   2   2   2   2
#     4   9  17  31  52  81 110 147 186 229 274 343
#     4   9  19  35  61  82 110 150 187 236 272 340
#     4  12  22  35  57  87 117 149 182 238 284 337
#     4  10  19  31  54  82 112 147 189 230 284 326
#     4  10  19  37  58  84 118 147 188 228 289 329
#     4   8  15  30  52  78 103 136 188 229 273 313
#     4  11  20  34  57  85 111 142 192 232 278 324
#     4   9  17  31  53  80 108 138 185 240 269 321
#
# _framework density 19.620439999999999
#
# number of rings (size 3 to 8) (size 9 to 14) (size 15 to 20)
#    0.000    2.250    2.500    2.250    0.000    3.000 
#    0.000    0.625    2.750    3.750    0.000    0.000 
#    0.000    0.000    0.000    0.000    0.000    0.000 
#
# Total GULP energy -198241.766429 kJ/mol
# GULP energy per Si atom -12390.110402 kJ/mol
# Density = 1.957578 g / cm^3
# Si number density = 19.620440 Si / 1000 Ang^3
#
#
#
# Elastic Constant Matrix: (Units=GPa)
#
#
# Indices 1 2 3 4 5 6 
#
# 1 129.9674 48.4306 48.4363 28.9989 6.1345 -0.4073
# 2 48.4306 71.7886 43.1036 31.1172 3.8903 -11.6921
# 3 48.4363 43.1036 113.9566 34.9980 19.1904 -3.0762
# 4 28.9989 31.1172 34.9980 34.5860 1.1475 -4.3820
# 5 6.1345 3.8903 19.1904 1.1475 33.4533 13.3423
# 6 -0.4073 -11.6921 -3.0762 -4.3820 13.3423 28.3721
#
#
#
# Elastic Compliance Matrix: (Units=1/GPa)
#
#
# Indices 1 2 3 4 5 6 
#
# 1 0.011113 -0.005812 -0.002078 -0.002465 0.001290 -0.003449
# 2 -0.005812 0.028603 -0.001847 -0.017404 -0.005071 0.011200
# 3 -0.002078 -0.001847 0.015596 -0.011624 -0.009348 0.003501
# 4 -0.002465 -0.017404 -0.011624 0.057658 0.008606 -0.003610
# 5 0.001290 -0.005071 -0.009348 0.008606 0.044327 -0.022601
# 6 -0.003449 0.011200 0.003501 -0.003610 -0.022601 0.050262
#
#
# Mechanical properties :
#
#
# Convention : Reuss Voigt Hill
#
# Bulk Modulus (GPa) = 27.90457 66.18376 47.04417
# Shear Modulus (GPa) = 20.92229 30.99842 25.96036
#
# Velocity S-wave (km/s) = 3.26905 3.97911 3.64143
# Velocity P-wave (km/s) = 5.33872 7.41056 6.45826
#
# Compressibility (1/GPa) = 0.03583642
#
# Stress axis : x y z
#
# Youngs Moduli (GPa) = 89.98487 34.96147 64.12004
#
# Poissons Ratio (x) = 0.20321 0.13326
# Poissons Ratio (y) = 0.52302 0.11843
# Poissons Ratio (z) = 0.18702 0.06457
#
# Static dielectric constant tensor:
#      x y z
#    x 3.458050 -0.236030 0.228060 
#    y -0.236030 3.204020 0.541690 
#    z 0.228060 0.541690 3.604270 
# 
# 
# High freq. dielectric constant tensor:
#      x y z
#    x 1.761640 -0.004540 0.010820 
#    y -0.004540 1.734860 0.037970 
#    z 0.010820 0.037970 1.759830 
# 
# From -- ./inp_files/336788.got.cif
#   From: 2010.06.25/outbox.cif.g09.slc.cpg/sg2_169_cif.got.tgz:336788.got - 2010.06.27 13:26:56.
