data_PCOD8041364
_publ_section_title
;
Structure prediction by ZEFSAII (Michael W. Deem and Ramdas Pophale) SiO2 
 PCOD8041364
Probable space group: P -1
;
_chemical_formula_sum "Si O2"
_cell_formula_units_Z 16
_cell_length_a 20.321220
_cell_length_b 11.729951
_cell_length_c 6.208996
_cell_angle_alpha 95.746764
_cell_angle_beta 110.267485
_cell_angle_gamma 132.715069
_cell_volume 891.405281
_symmetry_space_group_name_H-M "P -1"
_symmetry_group_IT_number 2
_symmetry_cell_setting 'triclinic'
loop_
_space_group_symop_operation_xyz
x,y,z
-x,-y,-z
loop_
_atom_site_type_symbol
_atom_site_label
_atom_site_fract_x
_atom_site_fract_y
_atom_site_fract_z
Si Si1 0.730961 0.416421 0.956541
Si Si2 0.650261 0.115993 0.121239
Si Si3 0.997252 0.444492 0.216064
Si Si4 0.928826 0.070637 0.547872
Si Si5 0.862566 0.738218 0.447927
Si Si6 0.911469 0.656723 0.874114
Si Si7 0.157381 0.808524 0.692253
Si Si8 0.441398 0.860305 0.594803
O O1 0.836153 0.516173 0.954442
O O2 0.635411 0.325897 0.655870
O O3 0.700838 0.271151 0.044176
O O4 0.757935 0.558963 0.164956
O O5 0.728932 0.105029 0.231850
O O6 0.633562 0.150289 0.344445
O O7 0.534522 0.921978 0.865103
O O8 0.071470 0.422763 0.295558
O O9 0.050250 0.611572 0.445496
O O10 0.872952 0.249873 0.100712
O O11 0.000000 0.500000 0.000000
O O12 0.846738 0.065027 0.363474
O O13 0.025154 0.168311 0.506596
O O14 0.855513 0.866138 0.452965
O O15 0.975918 0.162685 0.853252
O O16 0.858021 0.694162 0.685094
O O17 0.500000 0.000000 0.500000
#
# Coordination Sequence:
#
# PCOD8041364 Si02
#       8
#     2   2   2   2   2   2   2   2
#     4  10  19  32  55  78 101 134 175 212 258 303
#     4  10  20  34  55  79 107 130 164 213 266 315
#     4  11  20  30  47  73 109 141 166 202 251 310
#     4  10  21  34  47  72 106 144 181 214 247 292
#     4  10  20  34  50  70 103 144 184 216 244 293
#     4  11  19  33  51  74 104 143 178 210 249 303
#     4  11  21  32  49  75 108 140 169 205 258 308
#     4   9  19  36  54  79 103 129 165 214 264 316
#
# _framework density 17.949186999999998
#
# number of rings (size 3 to 8) (size 9 to 14) (size 15 to 20)
#    0.000    1.750    2.500    3.375    3.500    1.000 
#    0.000    0.000    0.000    0.750    0.000   12.250 
#    0.000    0.000    0.000    0.000    0.000    0.000 
#
# Total GULP energy -198242.682103 kJ/mol
# GULP energy per Si atom -12390.167631 kJ/mol
# Density = 1.790833 g / cm^3
# Si number density = 17.949187 Si / 1000 Ang^3
#
#
#
# Elastic Constant Matrix: (Units=GPa)
#
#
# Indices 1 2 3 4 5 6 
#
# 1 91.5401 49.3989 27.6167 -7.8397 9.1618 -3.5500
# 2 49.3989 85.3636 41.3443 -6.4233 2.3202 -12.5863
# 3 27.6167 41.3443 90.7998 2.7399 2.4843 -6.1018
# 4 -7.8397 -6.4233 2.7399 32.6160 3.1121 -4.9164
# 5 9.1618 2.3202 2.4843 3.1121 25.4182 -4.0609
# 6 -3.5500 -12.5863 -6.1018 -4.9164 -4.0609 30.8628
#
#
#
# Elastic Compliance Matrix: (Units=1/GPa)
#
#
# Indices 1 2 3 4 5 6 
#
# 1 0.016979 -0.009360 -0.000981 0.002514 -0.005866 -0.002430
# 2 -0.009360 0.021634 -0.006690 0.003410 0.002808 0.007336
# 3 -0.000981 -0.006690 0.014417 -0.002818 -0.000174 -0.000463
# 4 0.002514 0.003410 -0.002818 0.033454 -0.004093 0.005914
# 5 -0.005866 0.002808 -0.000174 -0.004093 0.042579 0.005386
# 6 -0.002430 0.007336 -0.000463 0.005914 0.005386 0.036673
#
#
# Mechanical properties :
#
#
# Convention : Reuss Voigt Hill
#
# Bulk Modulus (GPa) = 52.72436 56.04704 54.38570
# Shear Modulus (GPa) = 24.25762 27.73564 25.99663
#
# Velocity S-wave (km/s) = 3.68021 3.93521 3.80984
# Velocity P-wave (km/s) = 6.89178 7.20701 7.05116
#
# Compressibility (1/GPa) = 0.01896657
#
# Stress axis : x y z
#
# Youngs Moduli (GPa) = 58.89455 46.22432 69.36466
#
# Poissons Ratio (x) = 0.43268 0.06803
# Poissons Ratio (y) = 0.55128 0.46407
# Poissons Ratio (z) = 0.05776 0.30926
#
# Static dielectric constant tensor:
#      x y z
#    x 2.971800 -0.021030 0.034570 
#    y -0.021030 3.476460 0.006490 
#    z 0.034570 0.006490 3.668160 
# 
# 
# High freq. dielectric constant tensor:
#      x y z
#    x 1.667460 0.012310 -0.021730 
#    y 0.012310 1.684660 -0.012800 
#    z -0.021730 -0.012800 1.701230 
# 
# From -- ./inp_files/67226.got.cif
#   From: 2010.06.25/outbox.cif.g09.slc.cpg/sg2_34_cif.got.tgz:67226.got - 2010.06.27 13:26:56.
