data_PCOD8041458
_publ_section_title
;
Structure prediction by ZEFSAII (Michael W. Deem and Ramdas Pophale) SiO2 
 PCOD8041458
Probable space group: P -1
;
_chemical_formula_sum "Si O2"
_cell_formula_units_Z 16
_cell_length_a 19.160542
_cell_length_b 10.352168
_cell_length_c 9.249145
_cell_angle_alpha 71.267923
_cell_angle_beta 120.808078
_cell_angle_gamma 146.583399
_cell_volume 845.560601
_symmetry_space_group_name_H-M "P -1"
_symmetry_group_IT_number 2
_symmetry_cell_setting 'triclinic'
loop_
_space_group_symop_operation_xyz
x,y,z
-x,-y,-z
loop_
_atom_site_type_symbol
_atom_site_label
_atom_site_fract_x
_atom_site_fract_y
_atom_site_fract_z
Si Si1 0.155059 0.348669 0.601155
Si Si2 0.544494 0.603124 0.669831
Si Si3 0.898698 0.034923 0.262730
Si Si4 0.863289 0.644458 0.089604
Si Si5 0.380110 0.897825 0.013754
Si Si6 0.857012 0.946256 0.926347
Si Si7 0.469486 0.729409 0.741282
Si Si8 0.612153 0.795164 0.122772
O O1 0.147954 0.395604 0.737957
O O2 0.313451 0.580491 0.621573
O O3 0.044196 0.284159 0.409247
O O4 0.123836 0.146441 0.636961
O O5 0.500000 0.500000 0.500000
O O6 0.714795 0.833582 0.784932
O O7 0.503284 0.703112 0.632735
O O8 0.464165 0.383080 0.762397
O O9 0.759438 0.928240 0.188576
O O10 0.927039 0.079753 0.106250
O O11 0.754702 0.385934 0.998223
O O12 0.817093 0.730889 0.956597
O O13 0.027667 0.848468 0.144551
O O14 0.432344 0.008121 0.194091
O O15 0.500000 0.000000 0.000000
O O16 0.340605 0.985808 0.860940
O O17 0.495380 0.642976 0.920377
#
# Coordination Sequence:
#
# PCOD8041458 Si02
#       8
#     2   2   2   2   2   2   2   2
#     4  10  19  32  60  85 117 148 195 248 289 339
#     4  12  23  35  60  90 119 147 200 252 294 341
#     4  10  19  34  57  87 114 153 197 245 295 344
#     4  10  20  36  59  87 116 153 193 242 299 353
#     4  10  19  35  65  85 112 161 205 237 282 364
#     4  10  21  37  58  84 119 153 191 247 304 348
#     4  10  20  36  62  85 113 156 200 240 289 352
#     4  10  20  36  62  82 115 155 201 237 287 356
#
# _framework density 18.922357000000002
#
# number of rings (size 3 to 8) (size 9 to 14) (size 15 to 20)
#    0.750    1.000    3.750    2.625    1.750    2.000 
#    0.000    3.125    2.750    2.250    0.000    0.000 
#    0.000    0.000    0.000    0.000    0.000    0.000 
#
# Total GULP energy -198245.716601 kJ/mol
# GULP energy per Si atom -12390.357288 kJ/mol
# Density = 1.887929 g / cm^3
# Si number density = 18.922357 Si / 1000 Ang^3
#
#
#
# Elastic Constant Matrix: (Units=GPa)
#
#
# Indices 1 2 3 4 5 6 
#
# 1 125.1267 65.1780 27.7794 8.8840 -7.8797 4.0874
# 2 65.1780 114.1409 11.8314 17.7623 2.5646 -12.6491
# 3 27.7794 11.8314 87.6505 29.9155 -16.1801 18.5588
# 4 8.8840 17.7623 29.9155 26.1185 -0.0509 5.4173
# 5 -7.8797 2.5646 -16.1801 -0.0509 37.8370 2.3880
# 6 4.0874 -12.6491 18.5588 5.4173 2.3880 46.4515
#
#
#
# Elastic Compliance Matrix: (Units=1/GPa)
#
#
# Indices 1 2 3 4 5 6 
#
# 1 0.013059 -0.008388 -0.004622 0.007075 0.001478 -0.002488
# 2 -0.008388 0.015836 0.003587 -0.013113 -0.001634 0.005230
# 3 -0.004622 0.003587 0.025171 -0.028462 0.009890 -0.005862
# 4 0.007075 -0.013113 -0.028462 0.077667 -0.009617 -0.001385
# 5 0.001478 -0.001634 0.009890 -0.009617 0.031381 -0.005018
# 6 -0.002488 0.005230 -0.005862 -0.001385 -0.005018 0.025933
#
#
# Mechanical properties :
#
#
# Convention : Reuss Voigt Hill
#
# Bulk Modulus (GPa) = 28.39188 59.61061 44.00124
# Shear Modulus (GPa) = 22.76539 36.89002 29.82771
#
# Velocity S-wave (km/s) = 3.47233 4.42016 3.97460
# Velocity P-wave (km/s) = 5.57791 7.59088 6.66088
#
# Compressibility (1/GPa) = 0.03522134
#
# Stress axis : x y z
#
# Youngs Moduli (GPa) = 76.57345 63.14667 39.72892
#
# Poissons Ratio (x) = 0.52968 0.18362
# Poissons Ratio (y) = 0.64231 -0.14253
# Poissons Ratio (z) = 0.35390 -0.22654
#
# Static dielectric constant tensor:
#      x y z
#    x 3.626100 -0.095850 0.139810 
#    y -0.095850 2.936750 0.638150 
#    z 0.139810 0.638150 3.136980 
# 
# 
# High freq. dielectric constant tensor:
#      x y z
#    x 1.747010 0.012060 -0.005280 
#    y 0.012060 1.715340 0.023460 
#    z -0.005280 0.023460 1.716080 
# 
# From -- ./inp_files/344576.got.cif
#   From: 2010.06.25/outbox.cif.g09.slc.cpg/sg2_173_cif.got.tgz:344576.got - 2010.06.27 13:26:56.
