data_PCOD8041007
_publ_section_title
;
Structure prediction by ZEFSAII (Michael W. Deem and Ramdas Pophale) SiO2 
 PCOD8041007
Probable space group: P -1
;
_chemical_formula_sum "Si O2"
_cell_formula_units_Z 14
_cell_length_a 13.206614
_cell_length_b 19.205507
_cell_length_c 8.664055
_cell_angle_alpha 36.762185
_cell_angle_beta 133.638766
_cell_angle_gamma 152.725624
_cell_volume 600.769820
_symmetry_space_group_name_H-M "P -1"
_symmetry_group_IT_number 2
_symmetry_cell_setting 'triclinic'
loop_
_space_group_symop_operation_xyz
x,y,z
-x,-y,-z
loop_
_atom_site_type_symbol
_atom_site_label
_atom_site_fract_x
_atom_site_fract_y
_atom_site_fract_z
Si Si1 0.486943 0.136336 0.569318
Si Si2 0.474133 0.060967 0.214426
Si Si3 0.036573 0.224651 0.805035
Si Si4 0.941536 0.992472 0.623730
Si Si5 0.238186 0.599309 0.901726
Si Si6 0.132257 0.537926 0.427339
Si Si7 0.243494 0.352725 0.464388
O O1 0.241551 0.025507 0.527933
O O2 0.602355 0.273327 0.301883
O O3 0.618883 0.250890 0.664976
O O4 0.476255 0.989509 0.791885
O O5 0.651456 0.280093 0.036414
O O6 0.500000 0.000000 0.500000
O O7 0.227551 0.952343 0.136511
O O8 0.138741 0.402359 0.682423
O O9 0.099387 0.272340 0.608763
O O10 0.141332 0.176503 0.075129
O O11 0.000000 0.000000 0.500000
O O12 0.163570 0.186247 0.588543
O O13 0.997090 0.503930 0.789158
O O14 0.203182 0.439798 0.162919
O O15 0.000000 0.500000 0.500000
O O16 0.500000 0.500000 0.500000
#
# Coordination Sequence:
#
# PCOD8041007 Si02
#       7
#     2   2   2   2   2   2   2
#     4  10  22  45  68  98 141 178 221 281 345 396
#     4  10  18  41  71 102 129 178 219 279 339 400
#     4  12  24  46  74  96 143 179 230 279 344 407
#     4  12  30  47  68  99 137 188 231 277 344 410
#     4  10  21  41  74 104 135 169 234 275 342 404
#     4  10  21  40  72 104 132 173 223 286 343 388
#     4  12  27  46  68 104 140 184 228 280 337 413
#
# _framework density 23.303432000000001
#
# number of rings (size 3 to 8) (size 9 to 14) (size 15 to 20)
#    0.000    1.143    4.286    3.857    6.000    1.143 
#    0.000    1.429    0.000    0.000    0.000    0.000 
#    0.000    0.000    0.000    0.000    0.000    0.000 
#
# Total GULP energy -173614.436318 kJ/mol
# GULP energy per Si atom -12401.031166 kJ/mol
# Density = 2.325039 g / cm^3
# Si number density = 23.303432 Si / 1000 Ang^3
#
#
#
# Elastic Constant Matrix: (Units=GPa)
#
#
# Indices 1 2 3 4 5 6 
#
# 1 128.9150 60.7261 29.4738 -8.9241 16.7288 -8.1786
# 2 60.7261 165.8937 20.0568 2.1284 18.6277 -17.3602
# 3 29.4738 20.0568 90.0296 -12.0574 17.1547 -4.2601
# 4 -8.9241 2.1284 -12.0574 23.4085 -1.3967 15.1633
# 5 16.7288 18.6277 17.1547 -1.3967 33.2336 -3.6985
# 6 -8.1786 -17.3602 -4.2601 15.1633 -3.6985 50.8882
#
#
#
# Elastic Compliance Matrix: (Units=1/GPa)
#
#
# Indices 1 2 3 4 5 6 
#
# 1 0.010272 -0.003449 -0.001682 0.003864 -0.002316 -0.000986
# 2 -0.003449 0.008041 -0.000712 -0.004734 -0.002226 0.003378
# 3 -0.001682 -0.000712 0.013833 0.007507 -0.005803 -0.002014
# 4 0.003864 -0.004734 0.007507 0.060339 -0.002694 -0.018541
# 5 -0.002316 -0.002226 -0.005803 -0.002694 0.035583 0.001771
# 6 -0.000986 0.003378 -0.002014 -0.018541 0.001771 0.026129
#
#
# Mechanical properties :
#
#
# Convention : Reuss Voigt Hill
#
# Bulk Modulus (GPa) = 48.88043 67.26130 58.07087
# Shear Modulus (GPa) = 28.95134 39.81150 34.38142
#
# Velocity S-wave (km/s) = 3.52854 4.13776 3.84523
# Velocity P-wave (km/s) = 6.13368 7.19402 6.68491
#
# Compressibility (1/GPa) = 0.02045808
#
# Stress axis : x y z
#
# Youngs Moduli (GPa) = 97.35202 124.36398 72.29311
#
# Poissons Ratio (x) = 0.42899 0.12161
# Poissons Ratio (y) = 0.33581 0.05148
# Poissons Ratio (z) = 0.16377 0.08855
#
# Static dielectric constant tensor:
#      x y z
#    x 14.551730 -7.740880 5.999420 
#    y -7.740880 10.300560 -3.996220 
#    z 5.999420 -3.996220 7.426630 
# 
# 
# High freq. dielectric constant tensor:
#      x y z
#    x 1.924090 -0.010000 0.012980 
#    y -0.010000 1.935410 -0.003750 
#    z 0.012980 -0.003750 1.913230 
# 
# From -- ./inp_files/278848.got.cif
#   From: 2010.06.25/outbox.cif.g09.slc.cpg/sg2_140_cif.got.tgz:278848.got - 2010.06.27 13:26:56.
