data_PCOD8041754
_publ_section_title
;
Structure prediction by ZEFSAII (Michael W. Deem and Ramdas Pophale) SiO2 
 PCOD8041754
Probable space group: P -1
;
_chemical_formula_sum "Si O2"
_cell_formula_units_Z 14
_cell_length_a 8.859014
_cell_length_b 13.757444
_cell_length_c 11.144081
_cell_angle_alpha 119.070169
_cell_angle_beta 101.868935
_cell_angle_gamma 127.594679
_cell_volume 647.824144
_symmetry_space_group_name_H-M "P -1"
_symmetry_group_IT_number 2
_symmetry_cell_setting 'triclinic'
loop_
_space_group_symop_operation_xyz
x,y,z
-x,-y,-z
loop_
_atom_site_type_symbol
_atom_site_label
_atom_site_fract_x
_atom_site_fract_y
_atom_site_fract_z
Si Si1 0.221060 0.652661 0.522214
Si Si2 0.184520 0.720664 0.165329
Si Si3 0.964710 0.823212 0.789693
Si Si4 0.404204 0.233963 0.168775
Si Si5 0.681633 0.609290 0.372815
Si Si6 0.205575 0.860359 0.496627
Si Si7 0.135957 0.413083 0.188783
O O1 0.501993 0.774855 0.701183
O O2 0.240861 0.793862 0.572863
O O3 0.177511 0.563863 0.333827
O O4 0.000000 0.500000 0.500000
O O5 0.130135 0.759038 0.297949
O O6 0.515967 0.898216 0.319186
O O7 0.000000 0.500000 0.000000
O O8 0.088152 0.731828 0.040077
O O9 0.822888 0.810663 0.862202
O O10 0.760396 0.694534 0.569187
O O11 0.993807 0.720567 0.793646
O O12 0.264021 0.058491 0.951179
O O13 0.634125 0.445386 0.263688
O O14 0.417986 0.527432 0.248740
O O15 0.945974 0.787055 0.436895
#
# Coordination Sequence:
#
# PCOD8041754 Si02
#       7
#     2   2   2   2   2   2   2
#     4  12  20  36  64  97 125 159 199 250 312 372
#     4  11  25  46  66  85 121 172 212 257 303 362
#     4  10  19  34  59  91 125 163 197 243 315 364
#     4  10  19  33  57  92 127 163 192 241 315 372
#     4  11  21  40  61  94 127 157 204 263 307 365
#     4  11  25  42  66  91 123 162 214 256 305 367
#     4  11  21  40  64  86 129 166 203 256 306 364
#
# _framework density 21.610802
#
# number of rings (size 3 to 8) (size 9 to 14) (size 15 to 20)
#    0.000    1.143    5.714    1.714    0.000    2.857 
#    0.000    3.571    0.000    0.000    0.000    0.000 
#    0.000    0.000    0.000    0.000    0.000    0.000 
#
# Total GULP energy -173479.803210 kJ/mol
# GULP energy per Si atom -12391.414515 kJ/mol
# Density = 2.156161 g / cm^3
# Si number density = 21.610802 Si / 1000 Ang^3
#
#
#
# Elastic Constant Matrix: (Units=GPa)
#
#
# Indices 1 2 3 4 5 6 
#
# 1 59.4277 15.8628 23.8055 11.9676 1.0371 16.7524
# 2 15.8628 55.3128 26.7272 10.8092 -2.7100 20.3235
# 3 23.8055 26.7272 120.8730 14.6265 6.9893 3.0781
# 4 11.9676 10.8092 14.6265 40.7131 -10.2723 4.4141
# 5 1.0371 -2.7100 6.9893 -10.2723 14.5316 6.4739
# 6 16.7524 20.3235 3.0781 4.4141 6.4739 27.1805
#
#
#
# Elastic Compliance Matrix: (Units=1/GPa)
#
#
# Indices 1 2 3 4 5 6 
#
# 1 0.023221 0.002902 -0.004970 -0.002003 0.007614 -0.017407
# 2 0.002902 0.035447 -0.009816 0.004647 0.030043 -0.035093
# 3 -0.004970 -0.009816 0.013016 -0.007058 -0.019257 0.014661
# 4 -0.002003 0.004647 -0.007058 0.038083 0.038844 -0.016878
# 5 0.007614 0.030043 -0.019257 0.038844 0.139316 -0.064467
# 6 -0.017407 -0.035093 0.014661 -0.016878 -0.064467 0.090195
#
#
# Mechanical properties :
#
#
# Convention : Reuss Voigt Hill
#
# Bulk Modulus (GPa) = 20.86858 40.93384 30.90121
# Shear Modulus (GPa) = 13.19201 27.76625 20.47913
#
# Velocity S-wave (km/s) = 2.47338 3.58834 3.08171
# Velocity P-wave (km/s) = 4.22307 6.01255 5.19544
#
# Compressibility (1/GPa) = 0.04791894
#
# Stress axis : x y z
#
# Youngs Moduli (GPa) = 43.06514 28.21085 76.82562
#
# Poissons Ratio (x) = -0.08188 0.38179
# Poissons Ratio (y) = -0.12499 0.75408
# Poissons Ratio (z) = 0.21402 0.27690
#
# Static dielectric constant tensor:
#      x y z
#    x 3.799190 -0.141830 0.038360 
#    y -0.141830 3.979050 0.292850 
#    z 0.038360 0.292850 4.388700 
# 
# 
# High freq. dielectric constant tensor:
#      x y z
#    x 1.836760 0.000470 0.002760 
#    y 0.000470 1.827730 0.009920 
#    z 0.002760 0.009920 1.862940 
# 
# From -- ./inp_files/397665.got.cif
#   From: 2010.06.25/outbox.cif.g09.slc.cpg/sg2_199_cif.got.tgz:397665.got - 2010.06.27 13:26:56.
