data_PCOD8041566
_publ_section_title
;
Structure prediction by ZEFSAII (Michael W. Deem and Ramdas Pophale) SiO2 
 PCOD8041566
Probable space group: P -1
;
_chemical_formula_sum "Si O2"
_cell_formula_units_Z 12
_cell_length_a 5.121917
_cell_length_b 10.268597
_cell_length_c 18.522176
_cell_angle_alpha 134.250645
_cell_angle_beta 74.636523
_cell_angle_gamma 84.363851
_cell_volume 613.747136
_symmetry_space_group_name_H-M "P -1"
_symmetry_group_IT_number 2
_symmetry_cell_setting 'triclinic'
loop_
_space_group_symop_operation_xyz
x,y,z
-x,-y,-z
loop_
_atom_site_type_symbol
_atom_site_label
_atom_site_fract_x
_atom_site_fract_y
_atom_site_fract_z
Si Si1 0.049092 0.001263 0.587372
Si Si2 0.206109 0.281396 0.875433
Si Si3 0.504468 0.557695 0.372677
Si Si4 0.419180 0.233975 0.678744
Si Si5 0.951346 0.600258 0.620964
Si Si6 0.832361 0.050495 0.780552
O O1 0.245626 0.124489 0.608001
O O2 0.770567 0.079431 0.581596
O O3 0.873921 0.067846 0.700172
O O4 0.238051 0.768043 0.491317
O O5 0.306773 0.293710 0.790769
O O6 0.485964 0.191493 0.874111
O O7 0.036754 0.136820 0.841501
O O8 0.000000 0.500000 0.000000
O O9 0.630695 0.566640 0.286525
O O10 0.760261 0.518970 0.397950
O O11 0.353636 0.400166 0.324512
O O12 0.000000 0.500000 0.500000
O O13 0.911835 0.826388 0.711932
#
# Coordination Sequence:
#
# PCOD8041566 Si02
#       6
#     2   2   2   2   2   2
#     4  10  19  33  54  79 114 147 184 229 272 333
#     4  10  21  39  64  83 105 141 188 249 289 317
#     4  12  22  34  55  79 120 156 183 221 274 334
#     4  10  21  35  54  84 111 144 189 234 284 325
#     4  12  24  36  55  81 121 160 188 213 263 345
#     4  10  21  36  57  84 112 142 191 229 275 329
#
# _framework density 19.552023999999999
#
# number of rings (size 3 to 8) (size 9 to 14) (size 15 to 20)
#    0.000    1.333    1.667    5.000    4.667    0.000 
#    0.000    0.000    0.000    6.000    0.000    0.000 
#    0.000    0.000    0.000    0.000    0.000    0.000 
#
# Total GULP energy -148768.760303 kJ/mol
# GULP energy per Si atom -12397.396692 kJ/mol
# Density = 1.950752 g / cm^3
# Si number density = 19.552024 Si / 1000 Ang^3
#
#
#
# Elastic Constant Matrix: (Units=GPa)
#
#
# Indices 1 2 3 4 5 6 
#
# 1 148.2380 69.2714 34.1493 -2.6183 -15.1450 3.7119
# 2 69.2714 111.2253 34.5726 14.5173 0.5873 14.8120
# 3 34.1493 34.5726 91.6371 12.1999 -8.5621 3.1301
# 4 -2.6183 14.5173 12.1999 18.5824 0.2622 -1.8271
# 5 -15.1450 0.5873 -8.5621 0.2622 24.7960 10.9609
# 6 3.7119 14.8120 3.1301 -1.8271 10.9609 42.9632
#
#
#
# Elastic Compliance Matrix: (Units=1/GPa)
#
#
# Indices 1 2 3 4 5 6 
#
# 1 0.011740 -0.008013 -0.002018 0.009218 0.006262 0.000690
# 2 -0.008013 0.016951 -0.001786 -0.013605 -0.003711 -0.004653
# 3 -0.002018 -0.001786 0.013912 -0.008254 0.004458 -0.001712
# 4 0.009218 -0.013605 -0.008254 0.071948 -0.001125 0.007842
# 5 0.006262 -0.003711 0.004458 -0.001125 0.051431 -0.012755
# 6 0.000690 -0.004653 -0.001712 0.007842 -0.012755 0.028533
#
#
# Mechanical properties :
#
#
# Convention : Reuss Voigt Hill
#
# Bulk Modulus (GPa) = 52.71289 69.67632 61.19461
# Shear Modulus (GPa) = 22.27446 31.47545 26.87495
#
# Velocity S-wave (km/s) = 3.37893 4.01662 3.71150
# Velocity P-wave (km/s) = 6.49936 7.56470 7.05218
#
# Compressibility (1/GPa) = 0.01897069
#
# Stress axis : x y z
#
# Youngs Moduli (GPa) = 85.17572 58.99247 71.87920
#
# Poissons Ratio (x) = 0.47270 0.14504
# Poissons Ratio (y) = 0.68250 0.12837
# Poissons Ratio (z) = 0.17187 0.10535
#
# Static dielectric constant tensor:
#      x y z
#    x 4.351350 0.096180 -0.170460 
#    y 0.096180 3.738860 -0.072590 
#    z -0.170460 -0.072590 3.272990 
# 
# 
# High freq. dielectric constant tensor:
#      x y z
#    x 1.791080 0.007480 -0.015720 
#    y 0.007480 1.768930 0.000970 
#    z -0.015720 0.000970 1.724510 
# 
# From -- ./inp_files/36252.got.cif
#   From: 2010.06.25/outbox.cif.g09.slc.cpg/sg2_19_cif.got.tgz:36252.got - 2010.06.27 13:26:56.
