data_PCOD8041365
_publ_section_title
;
Structure prediction by ZEFSAII (Michael W. Deem and Ramdas Pophale) SiO2 
 PCOD8041365
Probable space group: P -1
;
_chemical_formula_sum "Si O2"
_cell_formula_units_Z 16
_cell_length_a 15.144538
_cell_length_b 8.432838
_cell_length_c 16.176445
_cell_angle_alpha 51.439965
_cell_angle_beta 28.601444
_cell_angle_gamma 57.817429
_cell_volume 772.748420
_symmetry_space_group_name_H-M "P -1"
_symmetry_group_IT_number 2
_symmetry_cell_setting 'triclinic'
loop_
_space_group_symop_operation_xyz
x,y,z
-x,-y,-z
loop_
_atom_site_type_symbol
_atom_site_label
_atom_site_fract_x
_atom_site_fract_y
_atom_site_fract_z
Si Si1 0.605468 0.185510 0.895167
Si Si2 0.502476 0.562758 0.236375
Si Si3 0.980775 0.825804 0.887156
Si Si4 0.889173 0.432336 0.378211
Si Si5 0.881570 0.415501 0.004501
Si Si6 0.996654 0.683448 0.506002
Si Si7 0.597376 0.964243 0.130530
Si Si8 0.214436 0.971224 0.502591
O O1 0.528764 0.392238 0.850876
O O2 0.819870 0.172582 0.699076
O O3 0.500000 0.000000 0.000000
O O4 0.587722 0.166878 0.015192
O O5 0.309076 0.478369 0.462689
O O6 0.567267 0.770727 0.159329
O O7 0.663067 0.402383 0.166312
O O8 0.931098 0.618128 0.948563
O O9 0.124690 0.963237 0.669971
O O10 0.796904 0.951499 0.013912
O O11 0.073296 0.779838 0.914183
O O12 0.020366 0.404549 0.358731
O O13 0.861364 0.214636 0.429545
O O14 0.994728 0.588801 0.178696
O O15 0.000000 0.500000 0.500000
O O16 0.826741 0.822035 0.578789
O O17 0.437004 0.967446 0.330327
#
# Coordination Sequence:
#
# PCOD8041365 Si02
#       8
#     2   2   2   2   2   2   2   2
#     4   9  17  31  53  77 108 143 178 223 269 326
#     4   8  16  27  44  76 107 134 173 226 270 313
#     4   9  17  30  46  79 113 135 179 236 277 309
#     4   9  19  32  52  78 104 144 187 220 268 337
#     4   9  17  28  50  76 108 143 177 230 277 318
#     4  11  22  36  54  83 120 145 177 236 284 325
#     4   9  16  28  48  75 104 138 180 221 267 325
#     4  10  19  32  55  78 104 150 187 219 276 335
#
# _framework density 20.705317999999998
#
# number of rings (size 3 to 8) (size 9 to 14) (size 15 to 20)
#    0.000    2.750    1.250    1.125    3.500    1.000 
#    0.000    5.625    0.000    0.750    0.000    4.375 
#    0.000    0.000    0.000    0.000    0.000    0.000 
#
# Total GULP energy -198301.375641 kJ/mol
# GULP energy per Si atom -12393.835978 kJ/mol
# Density = 2.065819 g / cm^3
# Si number density = 20.705318 Si / 1000 Ang^3
#
#
#
# Elastic Constant Matrix: (Units=GPa)
#
#
# Indices 1 2 3 4 5 6 
#
# 1 109.3395 48.8695 80.3258 7.0646 12.3529 -53.4463
# 2 48.8695 36.6824 41.1366 10.8979 -3.9644 -25.4067
# 3 80.3258 41.1366 156.1474 19.1706 5.4224 -39.5305
# 4 7.0646 10.8979 19.1706 15.9904 -11.6175 -6.8548
# 5 12.3529 -3.9644 5.4224 -11.6175 28.9645 0.4030
# 6 -53.4463 -25.4067 -39.5305 -6.8548 0.4030 40.9635
#
#
#
# Elastic Compliance Matrix: (Units=1/GPa)
#
#
# Indices 1 2 3 4 5 6 
#
# 1 0.058245 -0.046779 -0.008266 0.017079 -0.023432 0.042092
# 2 -0.046779 0.097020 0.000483 -0.034768 0.019283 -0.006402
# 3 -0.008266 0.000483 0.012312 -0.015502 -0.004915 -0.001149
# 4 0.017079 -0.034768 -0.015502 0.132316 0.043827 0.007470
# 5 -0.023432 0.019283 -0.004915 0.043827 0.065888 -0.016670
# 6 0.042092 -0.006402 -0.001149 0.007470 -0.016670 0.075665
#
#
# Mechanical properties :
#
#
# Convention : Reuss Voigt Hill
#
# Bulk Modulus (GPa) = 17.10781 71.42589 44.26685
# Shear Modulus (GPa) = 8.77108 25.97283 17.37196
#
# Velocity S-wave (km/s) = 2.06042 3.54560 2.89971
# Velocity P-wave (km/s) = 3.73375 7.16470 5.71288
#
# Compressibility (1/GPa) = 0.05845283
#
# Stress axis : x y z
#
# Youngs Moduli (GPa) = 17.16874 10.30718 81.22199
#
# Poissons Ratio (x) = 0.48216 0.67136
# Poissons Ratio (y) = 0.80314 -0.03924
# Poissons Ratio (z) = 0.14191 -0.00498
#
# Static dielectric constant tensor:
#      x y z
#    x 3.863590 -0.486420 0.018060 
#    y -0.486420 3.192300 -0.028150 
#    z 0.018060 -0.028150 3.921290 
# 
# 
# High freq. dielectric constant tensor:
#      x y z
#    x 1.796700 -0.030980 -0.002470 
#    y -0.030980 1.757180 0.003720 
#    z -0.002470 0.003720 1.817220 
# 
# From -- ./inp_files/270074.got.cif
#   From: 2010.06.25/outbox.cif.g09.slc.cpg/sg2_136_cif.got.tgz:270074.got - 2010.06.27 13:26:56.
