data_PCOD8041980
_publ_section_title
;
Structure prediction by ZEFSAII (Michael W. Deem and Ramdas Pophale) SiO2 
 PCOD8041980
Probable space group: P -1
;
_chemical_formula_sum "Si O2"
_cell_formula_units_Z 16
_cell_length_a 14.458060
_cell_length_b 7.839977
_cell_length_c 13.796784
_cell_angle_alpha 60.400322
_cell_angle_beta 138.344982
_cell_angle_gamma 131.677552
_cell_volume 776.329674
_symmetry_space_group_name_H-M "P -1"
_symmetry_group_IT_number 2
_symmetry_cell_setting 'triclinic'
loop_
_space_group_symop_operation_xyz
x,y,z
-x,-y,-z
loop_
_atom_site_type_symbol
_atom_site_label
_atom_site_fract_x
_atom_site_fract_y
_atom_site_fract_z
Si Si1 0.279971 0.469262 0.896757
Si Si2 0.088797 0.996184 0.975251
Si Si3 0.021209 0.561785 0.387579
Si Si4 0.851143 0.904510 0.657791
Si Si5 0.589011 0.555300 0.192257
Si Si6 0.396839 0.047612 0.264126
Si Si7 0.527887 0.770864 0.519988
Si Si8 0.771295 0.628215 0.495910
O O1 0.201476 0.258267 0.965190
O O2 0.292844 0.388604 0.821634
O O3 0.158869 0.567914 0.766783
O O4 0.458437 0.631403 0.038550
O O5 0.213282 0.905973 0.117624
O O6 0.963557 0.854322 0.830993
O O7 0.000000 0.000000 0.000000
O O8 0.128039 0.480291 0.437941
O O9 0.000000 0.500000 0.500000
O O10 0.103846 0.834865 0.366924
O O11 0.662626 0.729689 0.587044
O O12 0.880892 0.852035 0.585032
O O13 0.506844 0.286210 0.227807
O O14 0.694100 0.698184 0.327215
O O15 0.381271 0.073810 0.359398
O O16 0.481635 0.896861 0.365205
O O17 0.367949 0.546200 0.492639
#
# Coordination Sequence:
#
# PCOD8041980 Si02
#       8
#     2   2   2   2   2   2   2   2
#     4   9  19  33  58  83 112 151 196 234 283 347
#     4  10  19  34  55  84 115 155 191 234 294 345
#     4  11  22  39  61  87 117 155 192 238 293 348
#     4  11  23  39  60  87 119 155 193 243 290 346
#     4   9  17  35  56  85 112 151 195 236 284 343
#     4   9  17  31  59  81 112 153 192 237 285 339
#     4  10  19  34  56  86 116 150 196 242 282 342
#     4  11  23  38  60  89 119 152 196 241 291 345
#
# _framework density 20.609801999999998
#
# number of rings (size 3 to 8) (size 9 to 14) (size 15 to 20)
#    0.000    2.000    2.500    2.625    1.750    0.500 
#    0.000    1.875    0.000    0.750    0.000    0.000 
#    0.000    0.000    0.000    0.000    0.000    0.000 
#
# Total GULP energy -198238.108773 kJ/mol
# GULP energy per Si atom -12389.881798 kJ/mol
# Density = 2.056289 g / cm^3
# Si number density = 20.609802 Si / 1000 Ang^3
#
#
#
# Elastic Constant Matrix: (Units=GPa)
#
#
# Indices 1 2 3 4 5 6 
#
# 1 103.0385 28.8410 53.1651 13.3013 -0.5523 -0.1664
# 2 28.8410 22.4724 18.6698 2.6292 -3.0849 -4.2197
# 3 53.1651 18.6698 174.3905 15.8063 10.3031 -12.5775
# 4 13.3013 2.6292 15.8063 25.2993 3.4180 -9.9806
# 5 -0.5523 -3.0849 10.3031 3.4180 39.9915 0.2845
# 6 -0.1664 -4.2197 -12.5775 -9.9806 0.2845 30.8773
#
#
#
# Elastic Compliance Matrix: (Units=1/GPa)
#
#
# Indices 1 2 3 4 5 6 
#
# 1 0.018240 -0.021156 -0.003048 -0.008137 0.000148 -0.006666
# 2 -0.021156 0.075130 -0.001796 0.008527 0.005151 0.012130
# 3 -0.003048 -0.001796 0.007276 -0.001631 -0.001931 0.002192
# 4 -0.008137 0.008527 -0.001631 0.051126 -0.003525 0.017015
# 5 0.000148 0.005151 -0.001931 -0.003525 0.026214 -0.001463
# 6 -0.006666 0.012130 0.002192 0.017015 -0.001463 0.040415
#
#
# Mechanical properties :
#
#
# Convention : Reuss Voigt Hill
#
# Bulk Modulus (GPa) = 20.55666 55.69482 38.12574
# Shear Modulus (GPa) = 17.44500 32.51533 24.98016
#
# Velocity S-wave (km/s) = 2.91252 3.97629 3.48523
# Velocity P-wave (km/s) = 4.61587 6.93998 5.89362
#
# Compressibility (1/GPa) = 0.04864603
#
# Stress axis : x y z
#
# Youngs Moduli (GPa) = 54.82522 13.31025 137.44429
#
# Poissons Ratio (x) = 0.28160 0.41889
# Poissons Ratio (y) = 1.15990 0.24682
# Poissons Ratio (z) = 0.16709 0.02390
#
# Static dielectric constant tensor:
#      x y z
#    x 3.814330 0.250880 0.228790 
#    y 0.250880 3.307230 0.118580 
#    z 0.228790 0.118580 4.645350 
# 
# 
# High freq. dielectric constant tensor:
#      x y z
#    x 1.808830 0.033590 0.006400 
#    y 0.033590 1.750200 -0.000630 
#    z 0.006400 -0.000630 1.835950 
# 
# From -- ./inp_files/311830.got.cif
#   From: 2010.06.25/outbox.cif.g09.slc.cpg/sg2_156_cif.got.tgz:311830.got - 2010.06.27 13:26:56.
