data_PCOD8041338
_publ_section_title
;
Structure prediction by ZEFSAII (Michael W. Deem and Ramdas Pophale) SiO2 
 PCOD8041338
Probable space group: P -1
;
_chemical_formula_sum "Si O2"
_cell_formula_units_Z 16
_cell_length_a 20.482185
_cell_length_b 6.937830
_cell_length_c 5.278402
_cell_angle_alpha 96.367489
_cell_angle_beta 107.098230
_cell_angle_gamma 74.414884
_cell_volume 690.145067
_symmetry_space_group_name_H-M "P -1"
_symmetry_group_IT_number 2
_symmetry_cell_setting 'triclinic'
loop_
_space_group_symop_operation_xyz
x,y,z
-x,-y,-z
loop_
_atom_site_type_symbol
_atom_site_label
_atom_site_fract_x
_atom_site_fract_y
_atom_site_fract_z
Si Si1 0.665803 0.091384 0.953361
Si Si2 0.321775 0.377673 0.107989
Si Si3 0.742278 0.055223 0.541280
Si Si4 0.977615 0.325338 0.104077
Si Si5 0.094958 0.960777 0.276172
Si Si6 0.914014 0.399141 0.539086
Si Si7 0.245745 0.404849 0.528120
Si Si8 0.546416 0.451883 0.796079
O O1 0.707927 0.157681 0.775929
O O2 0.585551 0.217958 0.841269
O O3 0.667596 0.859818 0.912940
O O4 0.699886 0.156874 0.258740
O O5 0.283989 0.478603 0.340052
O O6 0.397579 0.415373 0.149953
O O7 0.272719 0.476259 0.831921
O O8 0.822078 0.067351 0.632379
O O9 0.735961 0.830755 0.500322
O O10 0.938362 0.468822 0.309244
O O11 0.930841 0.160107 0.000318
O O12 0.968327 0.444594 0.831236
O O13 0.056414 0.197687 0.255436
O O14 0.077730 0.842560 0.490420
O O15 0.837644 0.511134 0.565328
O O16 0.500000 0.500000 0.500000
O O17 0.500000 0.500000 0.000000
#
# Coordination Sequence:
#
# PCOD8041338 Si02
#       8
#     2   2   2   2   2   2   2   2
#     4  10  24  42  61  90 121 154 192 236 295 336
#     4  10  23  42  62  86 128 152 186 248 281 337
#     4  10  22  37  59  84 114 152 194 244 288 344
#     4   9  20  32  50  77 111 148 194 238 301 343
#     4   9  21  32  55  76 112 146 196 242 291 345
#     4  10  19  32  54  77 107 148 194 237 288 348
#     4  10  21  38  57  86 113 153 195 237 299 336
#     4  12  26  41  66  97 119 154 197 226 277 356
#
# _framework density 23.183530999999999
#
# number of rings (size 3 to 8) (size 9 to 14) (size 15 to 20)
#    0.750    1.250    0.000    2.625    5.250    1.000 
#    0.000    1.250    0.000    0.000    0.000    0.000 
#    0.000    0.000    0.000    0.000    0.000    0.000 
#
# Total GULP energy -198304.249772 kJ/mol
# GULP energy per Si atom -12394.015611 kJ/mol
# Density = 2.313076 g / cm^3
# Si number density = 23.183531 Si / 1000 Ang^3
#
#
#
# Elastic Constant Matrix: (Units=GPa)
#
#
# Indices 1 2 3 4 5 6 
#
# 1 158.7179 28.6956 94.9498 -4.6402 -15.8642 -11.7539
# 2 28.6956 47.8848 34.7808 -22.7463 -15.2109 -18.5744
# 3 94.9498 34.7808 193.2923 -16.1436 -24.8316 -18.0121
# 4 -4.6402 -22.7463 -16.1436 27.5415 -4.5570 3.6907
# 5 -15.8642 -15.2109 -24.8316 -4.5570 53.4162 -2.0649
# 6 -11.7539 -18.5744 -18.0121 3.6907 -2.0649 40.4544
#
#
#
# Elastic Compliance Matrix: (Units=1/GPa)
#
#
# Indices 1 2 3 4 5 6 
#
# 1 0.009783 -0.007405 -0.004516 -0.007174 -0.001993 -0.002015
# 2 -0.007405 0.069447 0.001509 0.057460 0.024201 0.026400
# 3 -0.004516 0.001509 0.008294 0.005562 0.003525 0.002746
# 4 -0.007174 0.057460 0.005562 0.087267 0.025039 0.020091
# 5 -0.001993 0.024201 0.003525 0.025039 0.029232 0.011310
# 6 -0.002015 0.026400 0.002746 0.020091 0.011310 0.036222
#
#
# Mechanical properties :
#
#
# Convention : Reuss Voigt Hill
#
# Bulk Modulus (GPa) = 14.99242 79.63860 47.31551
# Shear Modulus (GPa) = 17.64904 40.38033 29.01469
#
# Velocity S-wave (km/s) = 2.76211 4.17798 3.54152
# Velocity P-wave (km/s) = 4.08084 7.59605 6.09726
#
# Compressibility (1/GPa) = 0.06670036
#
# Stress axis : x y z
#
# Youngs Moduli (GPa) = 102.22089 14.39940 120.57537
#
# Poissons Ratio (x) = 0.10662 0.54453
# Poissons Ratio (y) = 0.75692 -0.18198
# Poissons Ratio (z) = 0.46164 -0.02173
#
# Static dielectric constant tensor:
#      x y z
#    x 4.218690 0.245910 -0.050380 
#    y 0.245910 4.344250 -0.109180 
#    z -0.050380 -0.109180 4.645960 
# 
# 
# High freq. dielectric constant tensor:
#      x y z
#    x 1.923080 0.016610 -0.000370 
#    y 0.016610 1.930390 -0.005460 
#    z -0.000370 -0.005460 1.934140 
# 
# From -- ./inp_files/107233.got.cif
#   From: 2010.06.25/outbox.cif.g09.slc.cpg/sg2_54_cif.got.tgz:107233.got - 2010.06.27 13:26:56.
