data_PCOD8041801
_publ_section_title
;
Structure prediction by ZEFSAII (Michael W. Deem and Ramdas Pophale) SiO2 
 PCOD8041801
Probable space group: P -1
;
_chemical_formula_sum "Si O2"
_cell_formula_units_Z 14
_cell_length_a 18.576748
_cell_length_b 21.130152
_cell_length_c 18.213494
_cell_angle_alpha 18.490480
_cell_angle_beta 150.020848
_cell_angle_gamma 161.198213
_cell_volume 695.056562
_symmetry_space_group_name_H-M "P -1"
_symmetry_group_IT_number 2
_symmetry_cell_setting 'triclinic'
loop_
_space_group_symop_operation_xyz
x,y,z
-x,-y,-z
loop_
_atom_site_type_symbol
_atom_site_label
_atom_site_fract_x
_atom_site_fract_y
_atom_site_fract_z
Si Si1 0.888636 0.246997 0.244161
Si Si2 0.528934 0.561385 0.631993
Si Si3 0.263032 0.789560 0.385535
Si Si4 0.324358 0.697365 0.231248
Si Si5 0.776528 0.818420 0.085148
Si Si6 0.555752 0.992898 0.852458
Si Si7 0.305504 0.433454 0.866813
O O1 0.681877 0.143277 0.213757
O O2 0.068101 0.398369 0.300533
O O3 0.792776 0.930240 0.476288
O O4 0.000000 0.500000 0.000000
O O5 0.422512 0.580464 0.452575
O O6 0.368314 0.439851 0.693925
O O7 0.519696 0.321934 0.864523
O O8 0.396630 0.764695 0.579772
O O9 0.000000 0.500000 0.500000
O O10 0.282742 0.780052 0.325128
O O11 0.350921 0.109556 0.127074
O O12 0.306733 0.797008 0.183157
O O13 0.500000 0.000000 0.000000
O O14 0.750798 0.658244 0.167348
O O15 0.048844 0.132094 0.009561
O O16 0.500000 0.500000 0.000000
#
# Coordination Sequence:
#
# PCOD8041801 Si02
#       7
#     2   2   2   2   2   2   2
#     4  11  22  41  59  87 123 156 200 255 301 357
#     4  10  22  39  60  85 121 161 200 245 301 362
#     4   9  19  39  59  83 122 156 191 243 292 351
#     4  11  22  41  60  88 120 154 204 255 300 357
#     4   9  20  37  54  82 119 154 196 245 294 351
#     4  10  22  40  64  89 119 162 201 245 307 354
#     4  10  19  33  59  86 113 156 198 240 298 351
#
# _framework density 20.142244999999999
#
# number of rings (size 3 to 8) (size 9 to 14) (size 15 to 20)
#    0.000    2.000    2.857    1.714    0.000    5.143 
#    0.000    7.143    0.000    0.000    0.000    0.000 
#    0.000    0.000    0.000    0.000    0.000    0.000 
#
# Total GULP energy -173454.261423 kJ/mol
# GULP energy per Si atom -12389.590102 kJ/mol
# Density = 2.009640 g / cm^3
# Si number density = 20.142245 Si / 1000 Ang^3
#
#
#
# Elastic Constant Matrix: (Units=GPa)
#
#
# Indices 1 2 3 4 5 6 
#
# 1 70.2632 26.0483 21.0955 -3.2705 -4.5591 4.4513
# 2 26.0483 143.3154 55.0049 10.5470 5.9910 -14.2512
# 3 21.0955 55.0049 129.8352 12.7347 -1.6209 -0.5784
# 4 -3.2705 10.5470 12.7347 30.6129 5.3458 1.8952
# 5 -4.5591 5.9910 -1.6209 5.3458 34.7293 -4.5165
# 6 4.4513 -14.2512 -0.5784 1.8952 -4.5165 24.8363
#
#
#
# Elastic Compliance Matrix: (Units=1/GPa)
#
#
# Indices 1 2 3 4 5 6 
#
# 1 0.016475 -0.003145 -0.001700 0.003596 0.001447 -0.004808
# 2 -0.003145 0.009648 -0.003321 -0.002464 -0.001071 0.006016
# 3 -0.001700 -0.003321 0.009713 -0.003227 0.001181 -0.000914
# 4 0.003596 -0.002464 -0.003227 0.036599 -0.005662 -0.005956
# 5 0.001447 -0.001071 0.001181 -0.005662 0.030769 0.005181
# 6 -0.004808 0.006016 -0.000914 -0.005956 0.005181 0.045953
#
#
# Mechanical properties :
#
#
# Convention : Reuss Voigt Hill
#
# Bulk Modulus (GPa) = 51.27705 60.85678 56.06692
# Shear Modulus (GPa) = 29.07132 34.12003 31.59568
#
# Velocity S-wave (km/s) = 3.80320 4.12023 3.96489
# Velocity P-wave (km/s) = 6.69317 7.27421 6.98973
#
# Compressibility (1/GPa) = 0.01950190
#
# Stress axis : x y z
#
# Youngs Moduli (GPa) = 60.69986 103.64538 102.95773
#
# Poissons Ratio (x) = 0.32596 0.17508
# Poissons Ratio (y) = 0.19090 0.34197
# Poissons Ratio (z) = 0.10322 0.34425
#
# Static dielectric constant tensor:
#      x y z
#    x 3.745910 0.198130 0.105770 
#    y 0.198130 3.369550 0.013980 
#    z 0.105770 0.013980 4.526940 
# 
# 
# High freq. dielectric constant tensor:
#      x y z
#    x 1.786100 0.011720 -0.001860 
#    y 0.011720 1.758990 0.000390 
#    z -0.001860 0.000390 1.816150 
# 
# From -- ./inp_files/533653.got.cif
#   From: 2010.06.25/outbox.cif.g09.slc.cpg/sg2_267_cif.got.tgz:533653.got - 2010.06.27 13:26:56.
