data_PCOD8041666
_publ_section_title
;
Structure prediction by ZEFSAII (Michael W. Deem and Ramdas Pophale) SiO2 
 PCOD8041666
Probable space group: P -1
;
_chemical_formula_sum "Si O2"
_cell_formula_units_Z 16
_cell_length_a 10.919100
_cell_length_b 12.689667
_cell_length_c 12.678008
_cell_angle_alpha 142.541097
_cell_angle_beta 75.864956
_cell_angle_gamma 73.064845
_cell_volume 589.144412
_symmetry_space_group_name_H-M "P -1"
_symmetry_group_IT_number 2
_symmetry_cell_setting 'triclinic'
loop_
_space_group_symop_operation_xyz
x,y,z
-x,-y,-z
loop_
_atom_site_type_symbol
_atom_site_label
_atom_site_fract_x
_atom_site_fract_y
_atom_site_fract_z
Si Si1 0.098528 0.701203 0.133347
Si Si2 0.290668 0.141080 0.609095
Si Si3 0.231709 0.292871 0.163798
Si Si4 0.434282 0.676212 0.337103
Si Si5 0.213421 0.379239 0.473663
Si Si6 0.618142 0.109623 0.833755
Si Si7 0.482381 0.353547 0.461096
Si Si8 0.073932 0.756398 0.430670
O O1 0.054998 0.741111 0.299108
O O2 0.090078 0.509557 0.943656
O O3 0.339194 0.512129 0.912583
O O4 0.917451 0.041952 0.388397
O O5 0.500000 0.000000 0.500000
O O6 0.246156 0.011796 0.584134
O O7 0.353923 0.023600 0.385264
O O8 0.197302 0.422005 0.386248
O O9 0.268936 0.411161 0.165179
O O10 0.006030 0.456254 0.300820
O O11 0.397108 0.944229 0.857426
O O12 0.433759 0.705050 0.485947
O O13 0.422460 0.480234 0.160941
O O14 0.236738 0.542624 0.656950
O O15 0.411670 0.010790 0.165996
O O16 0.842899 0.960192 0.697341
O O17 0.500000 0.500000 0.500000
#
# Coordination Sequence:
#
# PCOD8041666 Si02
#       8
#     2   2   2   2   2   2   2   2
#     4   9  18  35  57  85 121 162 203 254 320 372
#     4  10  19  33  56  84 115 156 204 254 311 379
#     4  10  22  42  68  98 130 172 222 261 322 391
#     4  10  21  37  58  88 125 169 216 262 320 385
#     4  10  22  43  68  93 130 174 213 272 326 378
#     4  10  20  37  60  86 124 170 212 263 326 379
#     4  12  25  43  66  96 132 169 217 271 324 386
#     4   9  19  36  59  88 123 163 211 262 312 388
#
# _framework density 27.158026
#
# number of rings (size 3 to 8) (size 9 to 14) (size 15 to 20)
#    0.000    2.000    0.000    3.750    0.000    3.000 
#    0.000    8.750    0.000    0.000    0.000    0.000 
#    0.000    0.000    0.000    0.000    0.000    0.000 
#
# Total GULP energy -198366.468083 kJ/mol
# GULP energy per Si atom -12397.904255 kJ/mol
# Density = 2.709621 g / cm^3
# Si number density = 27.158026 Si / 1000 Ang^3
#
#
#
# Elastic Constant Matrix: (Units=GPa)
#
#
# Indices 1 2 3 4 5 6 
#
# 1 158.5534 68.6055 62.8441 26.7582 38.6625 39.0134
# 2 68.6055 197.5665 63.7923 21.0502 25.4116 24.8483
# 3 62.8441 63.7923 138.5038 33.6609 26.8917 17.2401
# 4 26.7582 21.0502 33.6609 53.2964 -8.0703 11.4498
# 5 38.6625 25.4116 26.8917 -8.0703 50.5762 2.7540
# 6 39.0134 24.8483 17.2401 11.4498 2.7540 56.4311
#
#
#
# Elastic Compliance Matrix: (Units=1/GPa)
#
#
# Indices 1 2 3 4 5 6 
#
# 1 0.011421 -0.001385 -0.001288 -0.004334 -0.007735 -0.005636
# 2 -0.001385 0.006511 -0.001809 -0.000682 -0.001297 -0.001155
# 3 -0.001288 -0.001809 0.011218 -0.006456 -0.005091 -0.000182
# 4 -0.004334 -0.000682 -0.006456 0.027197 0.011472 -0.000809
# 5 -0.007735 -0.001297 -0.005091 0.011472 0.030676 0.003649
# 6 -0.005636 -0.001155 -0.000182 -0.000809 0.003649 0.022167
#
#
# Mechanical properties :
#
#
# Convention : Reuss Voigt Hill
#
# Bulk Modulus (GPa) = 49.53735 98.34526 73.94131
# Shear Modulus (GPa) = 40.03778 52.01953 46.02866
#
# Velocity S-wave (km/s) = 3.84376 4.38132 4.12132
# Velocity P-wave (km/s) = 6.16274 7.86673 7.06629
#
# Compressibility (1/GPa) = 0.02018679
#
# Stress axis : x y z
#
# Youngs Moduli (GPa) = 87.55902 153.57548 89.14472
#
# Poissons Ratio (x) = 0.21265 0.11478
# Poissons Ratio (y) = 0.12124 0.16130
# Poissons Ratio (z) = 0.11274 0.27788
#
# Static dielectric constant tensor:
#      x y z
#    x 6.157400 0.324560 -0.176810 
#    y 0.324560 5.038490 0.869080 
#    z -0.176810 0.869080 5.776380 
# 
# 
# High freq. dielectric constant tensor:
#      x y z
#    x 2.173010 0.027960 -0.028150 
#    y 0.027960 2.092980 0.038750 
#    z -0.028150 0.038750 2.109310 
# 
# From -- ./inp_files/429071.got.cif
#   From: 2010.06.25/outbox.cif.g09.slc.cpg/sg2_215_cif.got.tgz:429071.got - 2010.06.27 13:26:56.
