data_PCOD8041410
_publ_section_title
;
Structure prediction by ZEFSAII (Michael W. Deem and Ramdas Pophale) SiO2 
 PCOD8041410
Probable space group: P -1
;
_chemical_formula_sum "Si O2"
_cell_formula_units_Z 16
_cell_length_a 13.577642
_cell_length_b 12.063027
_cell_length_c 13.621473
_cell_angle_alpha 44.801322
_cell_angle_beta 31.216236
_cell_angle_gamma 66.718572
_cell_volume 664.104105
_symmetry_space_group_name_H-M "P -1"
_symmetry_group_IT_number 2
_symmetry_cell_setting 'triclinic'
loop_
_space_group_symop_operation_xyz
x,y,z
-x,-y,-z
loop_
_atom_site_type_symbol
_atom_site_label
_atom_site_fract_x
_atom_site_fract_y
_atom_site_fract_z
Si Si1 0.258233 0.308911 0.948153
Si Si2 0.593686 0.074643 0.115189
Si Si3 0.244941 0.442965 0.142415
Si Si4 0.327730 0.537536 0.229214
Si Si5 0.193973 0.738308 0.571779
Si Si6 0.778087 0.064893 0.758446
Si Si7 0.227329 0.390840 0.712983
Si Si8 0.907518 0.294011 0.879039
O O1 0.199303 0.263762 0.910277
O O2 0.515665 0.507381 0.616727
O O3 0.071640 0.331956 0.145548
O O4 0.257181 0.135940 0.105582
O O5 0.548395 0.238947 0.044129
O O6 0.740810 0.091485 0.885777
O O7 0.733660 0.105073 0.078914
O O8 0.345405 0.863871 0.459381
O O9 0.238385 0.415516 0.282399
O O10 0.043368 0.239667 0.396429
O O11 0.220944 0.614673 0.023976
O O12 0.484711 0.489002 0.863682
O O13 0.112203 0.465080 0.529907
O O14 0.341646 0.887704 0.258404
O O15 0.196804 0.554273 0.674282
O O16 0.026218 0.251039 0.892739
#
# Coordination Sequence:
#
# PCOD8041410 Si02
#       8
#     2   2   2   2   2   2   2   2
#     4  11  27  44  65  92 129 167 217 263 312 373
#     4  11  21  38  62  97 133 162 202 265 318 371
#     4  10  19  33  57  93 127 162 201 255 308 375
#     4  10  19  32  56  91 133 161 196 253 320 365
#     4  12  24  42  70  93 125 167 213 263 318 372
#     4  12  21  39  64  99 126 158 211 265 313 368
#     4  11  25  46  67  89 127 173 214 258 312 381
#     4  11  21  39  62  92 129 168 204 255 319 371
#
# _framework density 24.092607999999998
#
# number of rings (size 3 to 8) (size 9 to 14) (size 15 to 20)
#    0.000    1.000    5.000    2.625    3.500    0.000 
#    0.000    1.250    0.000    0.000    0.000    0.000 
#    0.000    0.000    0.000    0.000    0.000    0.000 
#
# Total GULP energy -198359.364155 kJ/mol
# GULP energy per Si atom -12397.460260 kJ/mol
# Density = 2.403777 g / cm^3
# Si number density = 24.092608 Si / 1000 Ang^3
#
#
#
# Elastic Constant Matrix: (Units=GPa)
#
#
# Indices 1 2 3 4 5 6 
#
# 1 111.9336 16.5553 8.0411 -2.3017 -17.0662 3.5617
# 2 16.5553 71.6386 28.3144 11.6340 -9.4939 3.4575
# 3 8.0411 28.3144 39.7358 8.1784 -6.1767 -0.6043
# 4 -2.3017 11.6340 8.1784 30.8049 -2.5617 -5.0511
# 5 -17.0662 -9.4939 -6.1767 -2.5617 30.6369 1.2649
# 6 3.5617 3.4575 -0.6043 -5.0511 1.2649 25.1150
#
#
#
# Elastic Compliance Matrix: (Units=1/GPa)
#
#
# Indices 1 2 3 4 5 6 
#
# 1 0.010080 -0.001720 -0.000384 0.001755 0.005197 -0.001111
# 2 -0.001720 0.020923 -0.013191 -0.004981 0.002618 -0.004088
# 3 -0.000384 -0.013191 0.035902 -0.004076 0.002522 0.001788
# 4 0.001755 -0.004981 -0.004076 0.036934 0.001383 0.007697
# 5 0.005197 0.002618 0.002522 0.001383 0.037079 -0.002626
# 6 -0.001111 -0.004088 0.001788 0.007697 -0.002626 0.042260
#
#
# Mechanical properties :
#
#
# Convention : Reuss Voigt Hill
#
# Bulk Modulus (GPa) = 27.53804 36.56997 32.05400
# Shear Modulus (GPa) = 22.13628 28.67118 25.40373
#
# Velocity S-wave (km/s) = 3.03446 3.45344 3.25071
# Velocity P-wave (km/s) = 4.87157 5.57795 5.23668
#
# Compressibility (1/GPa) = 0.03631341
#
# Stress axis : x y z
#
# Youngs Moduli (GPa) = 99.20960 47.79351 27.85391
#
# Poissons Ratio (x) = 0.08221 0.01070
# Poissons Ratio (y) = 0.17065 0.36743
# Poissons Ratio (z) = 0.03813 0.63045
#
# Static dielectric constant tensor:
#      x y z
#    x 4.828830 0.194720 -0.424300 
#    y 0.194720 4.122510 0.115500 
#    z -0.424300 0.115500 4.309070 
# 
# 
# High freq. dielectric constant tensor:
#      x y z
#    x 1.966150 0.011260 -0.030430 
#    y 0.011260 1.943360 0.019320 
#    z -0.030430 0.019320 1.938470 
# 
# From -- ./inp_files/532394.got.cif
#   From: 2010.06.25/outbox.cif.g09.slc.cpg/sg2_267_cif.got.tgz:532394.got - 2010.06.27 13:26:56.
