data_PCOD8041307
_publ_section_title
;
Structure prediction by ZEFSAII (Michael W. Deem and Ramdas Pophale) SiO2 
 PCOD8041307
Probable space group: P -1
;
_chemical_formula_sum "Si O2"
_cell_formula_units_Z 16
_cell_length_a 8.681950
_cell_length_b 22.665119
_cell_length_c 13.958347
_cell_angle_alpha 21.205561
_cell_angle_beta 112.113641
_cell_angle_gamma 103.003805
_cell_volume 852.959988
_symmetry_space_group_name_H-M "P -1"
_symmetry_group_IT_number 2
_symmetry_cell_setting 'triclinic'
loop_
_space_group_symop_operation_xyz
x,y,z
-x,-y,-z
loop_
_atom_site_type_symbol
_atom_site_label
_atom_site_fract_x
_atom_site_fract_y
_atom_site_fract_z
Si Si1 0.869642 0.188007 0.716425
Si Si2 0.150455 0.947709 0.781232
Si Si3 0.313987 0.993212 0.936597
Si Si4 0.961863 0.342745 0.334330
Si Si5 0.671880 0.368238 0.843012
Si Si6 0.070541 0.664423 0.878735
Si Si7 0.288011 0.420164 0.636995
Si Si8 0.022165 0.252076 0.841936
O O1 0.823378 0.315129 0.420409
O O2 0.971899 0.263003 0.702693
O O3 0.699543 0.162840 0.763096
O O4 0.000000 0.000000 0.000000
O O5 0.309705 0.933543 0.915298
O O6 0.225384 0.811083 0.919771
O O7 0.988268 0.919101 0.847174
O O8 0.072720 0.141574 0.424044
O O9 0.155421 0.183052 0.627133
O O10 0.500000 0.000000 0.000000
O O11 0.873820 0.352993 0.193713
O O12 0.980750 0.524287 0.092683
O O13 0.469686 0.382550 0.795954
O O14 0.673113 0.537969 0.526965
O O15 0.756350 0.369792 0.963722
O O16 0.125294 0.586929 0.383437
O O17 0.222418 0.256698 0.882380
#
# Coordination Sequence:
#
# PCOD8041307 Si02
#       8
#     2   2   2   2   2   2   2   2
#     4   9  17  30  51  76  97 126 162 201 248 293
#     4   9  19  33  50  74 101 135 169 200 247 304
#     4   9  18  32  54  80 103 125 159 214 261 290
#     4   9  19  33  52  74  98 136 175 199 240 306
#     4  10  19  32  53  76  99 126 168 213 251 295
#     4  10  19  33  51  71 103 140 172 202 242 296
#     4   9  19  32  52  79  96 123 163 212 261 295
#     4   9  17  33  52  72 103 126 157 209 258 300
#
# _framework density 18.758206000000001
#
# number of rings (size 3 to 8) (size 9 to 14) (size 15 to 20)
#    0.000    2.750    0.000    1.875    0.000    6.000 
#    0.000    0.625    0.000   22.500    0.000    0.000 
#    0.000    0.000    0.000    0.000    0.000    0.000 
#
# Total GULP energy -198272.054617 kJ/mol
# GULP energy per Si atom -12392.003414 kJ/mol
# Density = 1.871551 g / cm^3
# Si number density = 18.758206 Si / 1000 Ang^3
#
#
#
# Elastic Constant Matrix: (Units=GPa)
#
#
# Indices 1 2 3 4 5 6 
#
# 1 102.8994 54.4922 35.8860 16.3194 -13.1025 25.8135
# 2 54.4922 103.7484 30.3302 25.0793 -11.6797 26.1236
# 3 35.8860 30.3302 74.3097 9.6150 -21.7546 12.5695
# 4 16.3194 25.0793 9.6150 30.6940 3.1531 -0.3407
# 5 -13.1025 -11.6797 -21.7546 3.1531 23.2083 1.9690
# 6 25.8135 26.1236 12.5695 -0.3407 1.9690 29.8672
#
#
#
# Elastic Compliance Matrix: (Units=1/GPa)
#
#
# Indices 1 2 3 4 5 6 
#
# 1 0.017110 -0.002453 -0.001392 -0.007749 0.009255 -0.012755
# 2 -0.002453 0.021215 0.002895 -0.018807 0.016166 -0.018934
# 3 -0.001392 0.002895 0.024587 -0.012202 0.026526 -0.013564
# 4 -0.007749 -0.018807 -0.012202 0.059944 -0.036081 0.031345
# 5 0.009255 0.016166 0.026526 -0.036081 0.089577 -0.039620
# 6 -0.012755 -0.018934 -0.013564 0.031345 -0.039620 0.069744
#
#
# Mechanical properties :
#
#
# Convention : Reuss Voigt Hill
#
# Bulk Modulus (GPa) = 16.39052 58.04159 37.21606
# Shear Modulus (GPa) = 16.42503 27.43718 21.93110
#
# Velocity S-wave (km/s) = 2.96229 3.82864 3.42299
# Velocity P-wave (km/s) = 4.52294 7.11012 5.95864
#
# Compressibility (1/GPa) = 0.06101088
#
# Stress axis : x y z
#
# Youngs Moduli (GPa) = 58.44585 47.13691 40.67215
#
# Poissons Ratio (x) = 0.11563 0.05661
# Poissons Ratio (y) = 0.14337 -0.11773
# Poissons Ratio (z) = 0.08135 -0.13644
#
# Static dielectric constant tensor:
#      x y z
#    x 3.685790 0.019040 -0.522070 
#    y 0.019040 3.570890 -0.108080 
#    z -0.522070 -0.108080 3.535360 
# 
# 
# High freq. dielectric constant tensor:
#      x y z
#    x 1.710190 0.000250 -0.025000 
#    y 0.000250 1.739690 -0.012810 
#    z -0.025000 -0.012810 1.710480 
# 
# From -- ./inp_files/180165.got.cif
#   From: 2010.06.25/outbox.cif.g09.slc.cpg/sg2_91_cif.got.tgz:180165.got - 2010.06.27 13:26:56.
