data_PCOD8041099
_publ_section_title
;
Structure prediction by ZEFSAII (Michael W. Deem and Ramdas Pophale) SiO2 
 PCOD8041099
Probable space group: P -1
;
_chemical_formula_sum "Si O2"
_cell_formula_units_Z 16
_cell_length_a 20.250835
_cell_length_b 8.673999
_cell_length_c 12.349703
_cell_angle_alpha 106.696027
_cell_angle_beta 39.709624
_cell_angle_gamma 76.230128
_cell_volume 877.920232
_symmetry_space_group_name_H-M "P -1"
_symmetry_group_IT_number 2
_symmetry_cell_setting 'triclinic'
loop_
_space_group_symop_operation_xyz
x,y,z
-x,-y,-z
loop_
_atom_site_type_symbol
_atom_site_label
_atom_site_fract_x
_atom_site_fract_y
_atom_site_fract_z
Si Si1 0.496845 0.598828 0.355964
Si Si2 0.399612 0.357050 0.489655
Si Si3 0.838127 0.778022 0.751888
Si Si4 0.587725 0.369658 0.972740
Si Si5 0.224723 0.514424 0.933361
Si Si6 0.080189 0.040130 0.475076
Si Si7 0.669434 0.956757 0.214310
Si Si8 0.549362 0.065531 0.042249
O O1 0.469109 0.456999 0.418085
O O2 0.665771 0.475100 0.149642
O O3 0.353829 0.884062 0.628133
O O4 0.497953 0.574757 0.220340
O O5 0.231178 0.537538 0.798272
O O6 0.403438 0.268332 0.349394
O O7 0.503780 0.132942 0.398342
O O8 0.854700 0.916496 0.688687
O O9 0.000000 0.500000 0.500000
O O10 0.791850 0.876444 0.953222
O O11 0.700123 0.834107 0.877979
O O12 0.770554 0.206768 0.698784
O O13 0.500000 0.500000 0.000000
O O14 0.589333 0.179105 0.952022
O O15 0.279690 0.272964 0.849153
O O16 0.044180 0.738873 0.240576
O O17 0.000000 0.000000 0.500000
O O18 0.500000 0.000000 0.000000
#
# Coordination Sequence:
#
# PCOD8041099 Si02
#       8
#     2   2   2   2   2   2   2   2
#     4  10  19  34  54  80 110 145 183 226 269 324
#     4   9  19  32  53  81 111 144 182 224 271 322
#     4  10  20  36  53  84 115 138 176 230 276 322
#     4  10  22  38  57  79 109 146 188 226 268 330
#     4  11  19  31  54  83 114 139 180 227 277 325
#     4  11  22  35  56  85 113 143 183 227 281 322
#     4  10  19  30  52  82 111 140 180 220 275 323
#     4   9  20  36  58  77 106 146 187 220 267 326
#
# _framework density 18.224889999999998
#
# number of rings (size 3 to 8) (size 9 to 14) (size 15 to 20)
#    0.000    2.000    2.500    3.750    1.750    4.000 
#    0.000    0.000    2.750    3.750    0.000    0.000 
#    0.000    0.000    0.000    0.000    0.000    0.000 
#
# Total GULP energy -198211.673587 kJ/mol
# GULP energy per Si atom -12388.229599 kJ/mol
# Density = 1.818341 g / cm^3
# Si number density = 18.224890 Si / 1000 Ang^3
#
#
#
# Elastic Constant Matrix: (Units=GPa)
#
#
# Indices 1 2 3 4 5 6 
#
# 1 125.1914 45.2007 65.0286 4.5269 19.1766 -1.0318
# 2 45.2007 73.1262 56.1043 -0.1516 4.8677 -8.4354
# 3 65.0286 56.1043 146.5766 -6.8669 20.1199 -4.2965
# 4 4.5269 -0.1516 -6.8669 32.9785 -1.5877 0.9016
# 5 19.1766 4.8677 20.1199 -1.5877 28.1327 3.3773
# 6 -1.0318 -8.4354 -4.2965 0.9016 3.3773 24.8940
#
#
#
# Elastic Compliance Matrix: (Units=1/GPa)
#
#
# Indices 1 2 3 4 5 6 
#
# 1 0.012243 -0.005108 -0.002875 -0.002540 -0.005443 -0.000889
# 2 -0.005108 0.022351 -0.006648 -0.000562 0.003648 0.005740
# 3 -0.002875 -0.006648 0.011445 0.002504 -0.004957 0.000185
# 4 -0.002540 -0.000562 0.002504 0.031319 0.001958 -0.001263
# 5 -0.005443 0.003648 -0.004957 0.001958 0.042970 -0.005745
# 6 -0.000889 0.005740 0.000185 -0.001263 -0.005745 0.042936
#
#
# Mechanical properties :
#
#
# Convention : Reuss Voigt Hill
#
# Bulk Modulus (GPa) = 59.59884 75.28458 67.44171
# Shear Modulus (GPa) = 25.23756 29.10508 27.17132
#
# Velocity S-wave (km/s) = 3.72531 4.00058 3.86539
# Velocity P-wave (km/s) = 7.16078 7.92072 7.55032
#
# Compressibility (1/GPa) = 0.01677885
#
# Stress axis : x y z
#
# Youngs Moduli (GPa) = 81.67665 44.74129 87.37183
#
# Poissons Ratio (x) = 0.22853 0.25116
# Poissons Ratio (y) = 0.41720 0.58083
# Poissons Ratio (z) = 0.23479 0.29743
#
# Static dielectric constant tensor:
#      x y z
#    x 6.470950 -2.207570 -6.387650 
#    y -2.207570 4.808540 4.330060 
#    z -6.387650 4.330060 22.164730 
# 
# 
# High freq. dielectric constant tensor:
#      x y z
#    x 1.672380 0.008240 0.027100 
#    y 0.008240 1.705020 -0.012950 
#    z 0.027100 -0.012950 1.721420 
# 
# From -- ./inp_files/333133.got.cif
#   From: 2010.06.25/outbox.cif.g09.slc.cpg/sg2_167_cif.got.tgz:333133.got - 2010.06.27 13:26:56.
