data_PCOD8041752
_publ_section_title
;
Structure prediction by ZEFSAII (Michael W. Deem and Ramdas Pophale) SiO2 
 PCOD8041752
Probable space group: P -1
;
_chemical_formula_sum "Si O2"
_cell_formula_units_Z 16
_cell_length_a 12.600623
_cell_length_b 7.851467
_cell_length_c 17.573086
_cell_angle_alpha 80.728506
_cell_angle_beta 27.449349
_cell_angle_gamma 91.755891
_cell_volume 731.086629
_symmetry_space_group_name_H-M "P -1"
_symmetry_group_IT_number 2
_symmetry_cell_setting 'triclinic'
loop_
_space_group_symop_operation_xyz
x,y,z
-x,-y,-z
loop_
_atom_site_type_symbol
_atom_site_label
_atom_site_fract_x
_atom_site_fract_y
_atom_site_fract_z
Si Si1 0.970992 0.559857 0.931034
Si Si2 0.688390 0.082828 0.785512
Si Si3 0.087087 0.604756 0.254902
Si Si4 0.570680 0.456919 0.078692
Si Si5 0.212964 0.966056 0.695646
Si Si6 0.224319 0.359049 0.677034
Si Si7 0.765185 0.866645 0.878290
Si Si8 0.016721 0.342423 0.445304
O O1 0.106295 0.783580 0.828851
O O2 0.072137 0.441167 0.821069
O O3 0.000000 0.500000 0.000000
O O4 0.689421 0.504823 0.084467
O O5 0.809074 0.254420 0.753350
O O6 0.803117 0.144599 0.623288
O O7 0.767599 0.920278 0.783110
O O8 0.387331 0.028906 0.983336
O O9 0.986074 0.395422 0.372552
O O10 0.856382 0.636981 0.359807
O O11 0.296877 0.642217 0.053495
O O12 0.284727 0.326607 0.283869
O O13 0.598968 0.647893 0.004632
O O14 0.045554 0.920834 0.727889
O O15 0.500000 0.000000 0.500000
O O16 0.194673 0.148679 0.733817
O O17 0.500000 0.500000 0.500000
O O18 0.000000 0.500000 0.500000
#
# Coordination Sequence:
#
# PCOD8041752 Si02
#       8
#     2   2   2   2   2   2   2   2
#     4  10  24  41  63  92 125 163 209 264 317 360
#     4  10  20  36  61  88 120 156 200 243 309 363
#     4  10  20  36  60  86 117 158 198 252 303 368
#     4  10  20  36  61  83 120 155 203 245 311 373
#     4  11  22  40  65  92 125 167 213 257 308 382
#     4  11  22  41  64  93 120 167 215 254 310 377
#     4  10  20  36  58  87 120 159 199 246 308 371
#     4  10  19  33  57  91 114 155 197 246 304 367
#
# _framework density 21.88523
#
# number of rings (size 3 to 8) (size 9 to 14) (size 15 to 20)
#    0.000    1.750    5.000    0.375    0.000    3.500 
#    0.000    0.625    0.000    0.000    0.000    0.000 
#    0.000    0.000    0.000    0.000    0.000    0.000 
#
# Total GULP energy -198234.943693 kJ/mol
# GULP energy per Si atom -12389.683981 kJ/mol
# Density = 2.183542 g / cm^3
# Si number density = 21.885230 Si / 1000 Ang^3
#
#
#
# Elastic Constant Matrix: (Units=GPa)
#
#
# Indices 1 2 3 4 5 6 
#
# 1 104.7963 30.4788 45.1183 -3.9956 -1.5747 -28.6201
# 2 30.4788 110.4074 12.3553 -12.3971 -2.6298 -18.0676
# 3 45.1183 12.3553 105.1920 -2.0008 -9.3600 -20.9531
# 4 -3.9956 -12.3971 -2.0008 21.5810 -8.9258 2.0335
# 5 -1.5747 -2.6298 -9.3600 -8.9258 36.2450 -1.1363
# 6 -28.6201 -18.0676 -20.9531 2.0335 -1.1363 37.4295
#
#
#
# Elastic Compliance Matrix: (Units=1/GPa)
#
#
# Indices 1 2 3 4 5 6 
#
# 1 0.014024 -0.002208 -0.004359 0.000065 -0.000435 0.007200
# 2 -0.002208 0.011020 0.000772 0.006747 0.002683 0.003778
# 3 -0.004359 0.000772 0.012450 0.001936 0.003685 0.004016
# 4 0.000065 0.006747 0.001936 0.056416 0.014942 0.001780
# 5 -0.000435 0.002683 0.003685 0.014942 0.032497 0.003200
# 6 0.007200 0.003778 0.004016 0.001780 0.003200 0.036295
#
#
# Mechanical properties :
#
#
# Convention : Reuss Voigt Hill
#
# Bulk Modulus (GPa) = 38.60308 55.14450 46.87379
# Shear Modulus (GPa) = 27.33339 34.54733 30.94036
#
# Velocity S-wave (km/s) = 3.53787 3.97743 3.76407
# Velocity P-wave (km/s) = 5.86224 6.80772 6.35260
#
# Compressibility (1/GPa) = 0.02590467
#
# Stress axis : x y z
#
# Youngs Moduli (GPa) = 71.30880 90.74128 80.32217
#
# Poissons Ratio (x) = 0.20038 0.35010
# Poissons Ratio (y) = 0.15747 -0.06205
# Poissons Ratio (z) = 0.31082 -0.07009
#
# Static dielectric constant tensor:
#      x y z
#    x 0.020050 0.281370 1.087800 
#    y 0.281370 4.229420 -0.457860 
#    z 1.087800 -0.457860 3.917180 
# 
# 
# High freq. dielectric constant tensor:
#      x y z
#    x 1.845890 -0.020360 -0.015760 
#    y -0.020360 1.875880 -0.002170 
#    z -0.015760 -0.002170 1.846580 
# 
# From -- ./inp_files/566680.got.cif
#   From: 2010.06.25/outbox.cif.g09.slc.cpg/sg2_284_cif.got.tgz:566680.got - 2010.06.27 13:26:56.
