data_PCOD8041081
_publ_section_title
;
Structure prediction by ZEFSAII (Michael W. Deem and Ramdas Pophale) SiO2 
 PCOD8041081
Probable space group: P -1
;
_chemical_formula_sum "Si O2"
_cell_formula_units_Z 14
_cell_length_a 13.667295
_cell_length_b 11.737396
_cell_length_c 13.900702
_cell_angle_alpha 64.992915
_cell_angle_beta 21.815818
_cell_angle_gamma 64.116035
_cell_volume 744.545262
_symmetry_space_group_name_H-M "P -1"
_symmetry_group_IT_number 2
_symmetry_cell_setting 'triclinic'
loop_
_space_group_symop_operation_xyz
x,y,z
-x,-y,-z
loop_
_atom_site_type_symbol
_atom_site_label
_atom_site_fract_x
_atom_site_fract_y
_atom_site_fract_z
Si Si1 0.686759 0.338815 0.476511
Si Si2 0.078441 0.918517 0.103418
Si Si3 0.136843 0.790430 0.821705
Si Si4 0.462765 0.136200 0.440485
Si Si5 0.644596 0.126920 0.729143
Si Si6 0.157919 0.979284 0.221381
Si Si7 0.824081 0.582979 0.206892
O O1 0.884246 0.245776 0.259260
O O2 0.639718 0.270595 0.644162
O O3 0.771905 0.477862 0.373396
O O4 0.435325 0.355717 0.631763
O O5 0.134410 0.906041 0.169979
O O6 0.844471 0.832993 0.321893
O O7 0.346260 0.859993 0.827423
O O8 0.998343 0.065269 0.092083
O O9 0.436911 0.772299 0.600594
O O10 0.975461 0.697586 0.066011
O O11 0.500000 0.000000 0.500000
O O12 0.717169 0.123141 0.776949
O O13 0.863080 0.036300 0.502170
O O14 0.353416 0.086519 0.993115
O O15 0.000000 0.500000 0.000000
#
# Coordination Sequence:
#
# PCOD8041081 Si02
#       7
#     2   2   2   2   2   2   2
#     4  10  19  32  51  72 104 134 166 208 254 304
#     4  11  20  33  49  73 106 137 167 204 245 296
#     4  10  19  30  49  69 103 137 161 208 247 298
#     4  10  22  31  47  75 100 137 175 196 246 306
#     4  10  20  33  52  76 101 136 170 203 254 302
#     4  10  20  33  51  76 102 136 172 202 249 304
#     4   9  20  32  47  74  99 131 173 202 258 305
#
# _framework density 18.803424
#
# number of rings (size 3 to 8) (size 9 to 14) (size 15 to 20)
#    0.000    2.000    1.429    3.429   10.000    0.000 
#    0.000    0.000    0.000    0.000    0.000    2.000 
#    0.000    0.000    0.000    0.000    0.000    0.000 
#
# Total GULP energy -173454.951807 kJ/mol
# GULP energy per Si atom -12389.639415 kJ/mol
# Density = 1.876063 g / cm^3
# Si number density = 18.803424 Si / 1000 Ang^3
#
#
#
# Elastic Constant Matrix: (Units=GPa)
#
#
# Indices 1 2 3 4 5 6 
#
# 1 98.3393 25.3419 26.8305 -27.5967 7.9617 -1.6199
# 2 25.3419 62.1198 19.1478 -32.7864 -0.2843 -10.8021
# 3 26.8305 19.1478 95.5394 -22.4932 -0.7902 -0.0961
# 4 -27.5967 -32.7864 -22.4932 38.7970 3.7597 4.2440
# 5 7.9617 -0.2843 -0.7902 3.7597 26.6692 -8.0432
# 6 -1.6199 -10.8021 -0.0961 4.2440 -8.0432 23.2529
#
#
#
# Elastic Compliance Matrix: (Units=1/GPa)
#
#
# Indices 1 2 3 4 5 6 
#
# 1 0.013894 -0.000977 -0.001615 0.009127 -0.006523 -0.003415
# 2 -0.000977 0.031205 -0.000215 0.024433 0.000201 0.010037
# 3 -0.001615 -0.000215 0.012382 0.006044 -0.000432 -0.001414
# 4 0.009127 0.024433 0.006044 0.057761 -0.011148 -0.002387
# 5 -0.006523 0.000201 -0.000432 -0.011148 0.046343 0.017702
# 6 -0.003415 0.010037 -0.001414 -0.002387 0.017702 0.053983
#
#
# Mechanical properties :
#
#
# Convention : Reuss Voigt Hill
#
# Bulk Modulus (GPa) = 19.28024 44.29320 31.78672
# Shear Modulus (GPa) = 20.96683 30.05570 25.51126
#
# Velocity S-wave (km/s) = 3.34287 4.00236 3.68738
# Velocity P-wave (km/s) = 5.01752 6.70564 5.92204
#
# Compressibility (1/GPa) = 0.05186656
#
# Stress axis : x y z
#
# Youngs Moduli (GPa) = 71.97174 32.04619 80.76511
#
# Poissons Ratio (x) = 0.03131 0.13042
# Poissons Ratio (y) = 0.07031 0.01740
# Poissons Ratio (z) = 0.11622 0.00691
#
# Static dielectric constant tensor:
#      x y z
#    x 3.530580 0.045620 -0.278400 
#    y 0.045620 3.503940 -0.413110 
#    z -0.278400 -0.413110 3.975260 
# 
# 
# High freq. dielectric constant tensor:
#      x y z
#    x 1.706500 0.003960 -0.007840 
#    y 0.003960 1.690120 -0.007780 
#    z -0.007840 -0.007780 1.759330 
# 
# From -- ./inp_files/63829.got.cif
#   From: 2010.06.25/outbox.cif.g09.slc.cpg/sg2_32_cif.got.tgz:63829.got - 2010.06.27 13:26:56.
