data_PCOD8041136
_publ_section_title
;
Structure prediction by ZEFSAII (Michael W. Deem and Ramdas Pophale) SiO2 
 PCOD8041136
Probable space group: P -1
;
_chemical_formula_sum "Si O2"
_cell_formula_units_Z 16
_cell_length_a 17.811674
_cell_length_b 10.745576
_cell_length_c 7.975317
_cell_angle_alpha 55.712922
_cell_angle_beta 131.130413
_cell_angle_gamma 149.597032
_cell_volume 581.828651
_symmetry_space_group_name_H-M "P -1"
_symmetry_group_IT_number 2
_symmetry_cell_setting 'triclinic'
loop_
_space_group_symop_operation_xyz
x,y,z
-x,-y,-z
loop_
_atom_site_type_symbol
_atom_site_label
_atom_site_fract_x
_atom_site_fract_y
_atom_site_fract_z
Si Si1 0.150611 0.612391 0.037254
Si Si2 0.185881 0.163474 0.744490
Si Si3 0.603178 0.956667 0.542838
Si Si4 0.462152 0.290125 0.671631
Si Si5 0.416579 0.170254 0.036545
Si Si6 0.071102 0.854137 0.115361
Si Si7 0.902431 0.084002 0.526354
Si Si8 0.777278 0.450500 0.485825
O O1 0.241565 0.605485 0.302225
O O2 0.000000 0.500000 0.000000
O O3 0.086628 0.443186 0.910397
O O4 0.274091 0.892974 0.963840
O O5 0.345836 0.250996 0.909201
O O6 0.092465 0.041016 0.517070
O O7 0.254190 0.410226 0.701828
O O8 0.069853 0.971126 0.872056
O O9 0.765977 0.051969 0.725184
O O10 0.649881 0.186731 0.404041
O O11 0.492356 0.771913 0.363004
O O12 0.508768 0.814286 0.692275
O O13 0.500000 0.500000 0.500000
O O14 0.544013 0.344652 0.931936
O O15 0.272188 0.048215 0.621772
O O16 0.943245 0.075158 0.781766
O O17 0.039314 0.368120 0.451887
#
# Coordination Sequence:
#
# PCOD8041136 Si02
#       8
#     2   2   2   2   2   2   2   2
#     4  11  16  31  49  75 108 141 163 208 257 310
#     4  10  19  35  46  76 115 141 166 201 252 320
#     4   9  20  34  53  82 103 131 172 213 265 308
#     4  10  21  36  55  78 101 131 183 225 249 295
#     4   9  19  34  55  74 106 142 164 209 270 296
#     4  10  19  31  49  72 110 141 170 200 253 315
#     4  10  21  32  51  76 104 144 165 207 263 301
#     4  11  20  32  53  79 116 133 166 209 252 327
#
# _framework density 27.499504999999999
#
# number of rings (size 3 to 8) (size 9 to 14) (size 15 to 20)
#    0.000    2.000    5.000    1.125    1.750    2.000 
#    0.000    0.000    0.000    3.000    0.000   21.875 
#    0.000    0.000    0.000    0.000    0.000    0.000 
#
# Total GULP energy -198235.347117 kJ/mol
# GULP energy per Si atom -12389.709195 kJ/mol
# Density = 2.743691 g / cm^3
# Si number density = 27.499505 Si / 1000 Ang^3
#
#
#
# Elastic Constant Matrix: (Units=GPa)
#
#
# Indices 1 2 3 4 5 6 
#
# 1 118.5715 47.8205 60.9471 -8.7308 -38.0760 -31.5238
# 2 47.8205 91.1889 38.6837 -28.5892 -13.1378 -27.0284
# 3 60.9471 38.6837 143.2216 -23.6382 -39.8457 -26.4157
# 4 -8.7308 -28.5892 -23.6382 46.6278 -7.5675 -4.0982
# 5 -38.0760 -13.1378 -39.8457 -7.5675 55.9406 1.8670
# 6 -31.5238 -27.0284 -26.4157 -4.0982 1.8670 45.6060
#
#
#
# Elastic Compliance Matrix: (Units=1/GPa)
#
#
# Indices 1 2 3 4 5 6 
#
# 1 0.015597 -0.003210 -0.001460 0.002345 0.008876 0.007880
# 2 -0.003210 0.021349 0.002316 0.015804 0.006184 0.012942
# 3 -0.001460 0.002316 0.012896 0.010009 0.009812 0.008330
# 4 0.002345 0.015804 0.010009 0.041204 0.017351 0.019777
# 5 0.008876 0.006184 0.009812 0.017351 0.034184 0.015644
# 6 0.007880 0.012942 0.008330 0.019777 0.015644 0.041006
#
#
# Mechanical properties :
#
#
# Convention : Reuss Voigt Hill
#
# Bulk Modulus (GPa) = 22.15668 71.98717 47.07193
# Shear Modulus (GPa) = 26.88323 43.33692 35.11008
#
# Velocity S-wave (km/s) = 3.13003 3.97409 3.57704
# Velocity P-wave (km/s) = 4.59755 6.87694 5.84935
#
# Compressibility (1/GPa) = 0.04513311
#
# Stress axis : x y z
#
# Youngs Moduli (GPa) = 64.11445 46.84045 77.54225
#
# Poissons Ratio (x) = 0.15036 0.11323
# Poissons Ratio (y) = 0.20581 -0.17956
# Poissons Ratio (z) = 0.09362 -0.10846
#
# Static dielectric constant tensor:
#      x y z
#    x 5.588120 -0.190340 -0.811900 
#    y -0.190340 5.178090 0.169980 
#    z -0.811900 0.169980 5.533680 
# 
# 
# High freq. dielectric constant tensor:
#      x y z
#    x 2.098530 -0.001580 -0.010000 
#    y -0.001580 2.108760 -0.003730 
#    z -0.010000 -0.003730 2.122080 
# 
# From -- ./inp_files/345966.got.cif
#   From: 2010.06.25/outbox.cif.g09.slc.cpg/sg2_173_cif.got.tgz:345966.got - 2010.06.27 13:26:56.
