data_PCOD8041534
_publ_section_title
;
Structure prediction by ZEFSAII (Michael W. Deem and Ramdas Pophale) SiO2 
 PCOD8041534
Probable space group: P -1
;
_chemical_formula_sum "Si O2"
_cell_formula_units_Z 16
_cell_length_a 20.796481
_cell_length_b 22.394981
_cell_length_c 14.866308
_cell_angle_alpha 151.335157
_cell_angle_beta 19.672412
_cell_angle_gamma 162.150529
_cell_volume 702.398121
_symmetry_space_group_name_H-M "P -1"
_symmetry_group_IT_number 2
_symmetry_cell_setting 'triclinic'
loop_
_space_group_symop_operation_xyz
x,y,z
-x,-y,-z
loop_
_atom_site_type_symbol
_atom_site_label
_atom_site_fract_x
_atom_site_fract_y
_atom_site_fract_z
Si Si1 0.799216 0.813051 0.730201
Si Si2 0.899730 0.773149 0.166934
Si Si3 0.683814 0.264376 0.004674
Si Si4 0.744116 0.769686 0.551344
Si Si5 0.676826 0.005061 0.598791
Si Si6 0.325769 0.713747 0.325831
Si Si7 0.380356 0.640714 0.599524
Si Si8 0.517276 0.965790 0.560941
O O1 0.756314 0.713701 0.561261
O O2 0.478610 0.680437 0.023843
O O3 0.954047 0.017497 0.762137
O O4 0.997633 0.841856 0.579902
O O5 0.789058 0.690592 0.307431
O O6 0.594046 0.625215 0.310569
O O7 0.154249 0.803307 0.842607
O O8 0.043566 0.425006 0.738373
O O9 0.524033 0.053303 0.905695
O O10 0.579302 0.321842 0.151679
O O11 0.580290 0.248799 0.220044
O O12 0.000000 0.000000 0.500000
O O13 0.479918 0.780373 0.571905
O O14 0.708924 0.036361 0.491123
O O15 0.527952 0.851858 0.330114
O O16 0.000000 0.500000 0.500000
O O17 0.307913 0.829622 0.443089
#
# Coordination Sequence:
#
# PCOD8041534 Si02
#       8
#     2   2   2   2   2   2   2   2
#     4   9  19  34  55  83 112 147 187 228 278 330
#     4   8  16  34  55  80 116 148 181 227 276 330
#     4  10  19  33  53  80 117 156 194 222 266 335
#     4   9  16  31  57  82 113 153 183 222 278 329
#     4  11  21  34  56  83 112 144 186 236 281 328
#     4  10  22  42  62  80 108 145 188 236 281 333
#     4   9  20  34  51  81 118 154 185 229 277 324
#     4  10  22  38  61  86 107 146 192 227 279 343
#
# _framework density 22.779105000000001
#
# number of rings (size 3 to 8) (size 9 to 14) (size 15 to 20)
#    0.000    2.500    0.000    3.375    0.000    4.500 
#    0.000    0.625    0.000    7.500    0.000    0.000 
#    0.000    0.000    0.000    0.000    0.000    0.000 
#
# Total GULP energy -198280.168022 kJ/mol
# GULP energy per Si atom -12392.510501 kJ/mol
# Density = 2.272726 g / cm^3
# Si number density = 22.779105 Si / 1000 Ang^3
#
#
#
# Elastic Constant Matrix: (Units=GPa)
#
#
# Indices 1 2 3 4 5 6 
#
# 1 165.8081 32.2719 39.6085 -8.0000 5.2999 10.0446
# 2 32.2719 45.4253 24.4758 -9.4502 -0.4394 2.6685
# 3 39.6085 24.4758 70.8707 -23.1474 12.1818 -9.7433
# 4 -8.0000 -9.4502 -23.1474 36.5730 7.4668 -2.8492
# 5 5.2999 -0.4394 12.1818 7.4668 28.6330 -2.3206
# 6 10.0446 2.6685 -9.7433 -2.8492 -2.3206 18.7714
#
#
#
# Elastic Compliance Matrix: (Units=1/GPa)
#
#
# Indices 1 2 3 4 5 6 
#
# 1 0.008295 -0.002907 -0.006107 -0.003671 0.001361 -0.007584
# 2 -0.002907 0.030549 -0.011767 -0.002047 0.005860 -0.008481
# 3 -0.006107 -0.011767 0.036211 0.024329 -0.018765 0.025109
# 4 -0.003671 -0.002047 0.024329 0.047094 -0.020402 0.019509
# 5 0.001361 0.005860 -0.018765 -0.020402 0.047375 -0.008541
# 6 -0.007584 -0.008481 0.025109 0.019509 -0.008541 0.073474
#
#
# Mechanical properties :
#
#
# Convention : Reuss Voigt Hill
#
# Bulk Modulus (GPa) = 29.85854 52.75738 41.30796
# Shear Modulus (GPa) = 16.90761 29.17871 23.04316
#
# Velocity S-wave (km/s) = 2.72737 3.58291 3.18400
# Velocity P-wave (km/s) = 4.80150 6.35035 5.62945
#
# Compressibility (1/GPa) = 0.03349125
#
# Stress axis : x y z
#
# Youngs Moduli (GPa) = 120.55985 32.73432 27.61580
#
# Poissons Ratio (x) = 0.09516 0.16866
# Poissons Ratio (y) = 0.35048 0.32496
# Poissons Ratio (z) = 0.73629 0.38520
#
# Static dielectric constant tensor:
#      x y z
#    x 4.417330 0.159820 0.046430 
#    y 0.159820 3.875950 -0.077690 
#    z 0.046430 -0.077690 4.244420 
# 
# 
# High freq. dielectric constant tensor:
#      x y z
#    x 1.897160 0.004360 -0.002890 
#    y 0.004360 1.891510 -0.006500 
#    z -0.002890 -0.006500 1.881600 
# 
# From -- ./inp_files/541768.got.cif
#   From: 2010.06.25/outbox.cif.g09.slc.cpg/sg2_271_cif.got.tgz:541768.got - 2010.06.27 13:26:56.
