data_PCOD8041387
_publ_section_title
;
Structure prediction by ZEFSAII (Michael W. Deem and Ramdas Pophale) SiO2 
 PCOD8041387
Probable space group: P -1
;
_chemical_formula_sum "Si O2"
_cell_formula_units_Z 16
_cell_length_a 18.561676
_cell_length_b 11.448876
_cell_length_c 14.470386
_cell_angle_alpha 37.924405
_cell_angle_beta 152.598177
_cell_angle_gamma 149.601144
_cell_volume 712.616509
_symmetry_space_group_name_H-M "P -1"
_symmetry_group_IT_number 2
_symmetry_cell_setting 'triclinic'
loop_
_space_group_symop_operation_xyz
x,y,z
-x,-y,-z
loop_
_atom_site_type_symbol
_atom_site_label
_atom_site_fract_x
_atom_site_fract_y
_atom_site_fract_z
Si Si1 0.544536 0.288959 0.596151
Si Si2 0.882551 0.627285 0.150610
Si Si3 0.384222 0.983158 0.020282
Si Si4 0.212359 0.822078 0.736554
Si Si5 0.984140 0.914099 0.922056
Si Si6 0.412457 0.138230 0.338884
Si Si7 0.220031 0.208770 0.410446
Si Si8 0.502834 0.450698 0.927008
O O1 0.424025 0.163432 0.446322
O O2 0.398486 0.261765 0.522331
O O3 0.710434 0.561087 0.594927
O O4 0.642598 0.169580 0.825631
O O5 0.937129 0.444830 0.304576
O O6 0.833871 0.694493 0.953429
O O7 0.710154 0.514813 0.096190
O O8 0.046976 0.877835 0.225887
O O9 0.586466 0.095694 0.130044
O O10 0.356167 0.179850 0.902377
O O11 0.222729 0.825002 0.858121
O O12 0.144183 0.984886 0.528130
O O13 0.197926 0.002414 0.139357
O O14 0.948139 0.842807 0.818568
O O15 0.542829 0.392596 0.281820
O O16 0.500000 0.000000 0.500000
O O17 0.500000 0.500000 0.000000
#
# Coordination Sequence:
#
# PCOD8041387 Si02
#       8
#     2   2   2   2   2   2   2   2
#     4  10  19  33  57  84 113 147 188 227 273 335
#     4   9  18  33  55  81 111 146 181 225 277 328
#     4   9  17  30  50  78 113 150 185 228 272 322
#     4   9  17  29  49  81 116 144 181 229 279 326
#     4  10  20  36  56  82 116 148 187 234 282 329
#     4  11  23  39  58  81 110 150 194 235 280 337
#     4  10  19  32  55  87 115 145 183 230 281 332
#     4  10  19  33  54  80 113 148 184 225 274 331
#
# _framework density 22.452468
#
# number of rings (size 3 to 8) (size 9 to 14) (size 15 to 20)
#    0.000    2.250    0.000    4.500    0.000    6.500 
#    0.000    5.625    0.000    1.500    0.000   13.125 
#    0.000    0.000    0.000    0.000    0.000    0.000 
#
# Total GULP energy -198218.218035 kJ/mol
# GULP energy per Si atom -12388.638627 kJ/mol
# Density = 2.240137 g / cm^3
# Si number density = 22.452468 Si / 1000 Ang^3
#
#
#
# Elastic Constant Matrix: (Units=GPa)
#
#
# Indices 1 2 3 4 5 6 
#
# 1 58.7121 36.3365 34.5871 -4.6772 -18.2838 -12.3394
# 2 36.3365 138.6301 49.7037 -26.0921 -1.3969 -21.2869
# 3 34.5871 49.7037 111.2499 -5.6842 -25.5093 -7.0984
# 4 -4.6772 -26.0921 -5.6842 42.8359 -2.4480 -6.2394
# 5 -18.2838 -1.3969 -25.5093 -2.4480 25.7205 -4.4434
# 6 -12.3394 -21.2869 -7.0984 -6.2394 -4.4434 27.6263
#
#
#
# Elastic Compliance Matrix: (Units=1/GPa)
#
#
# Indices 1 2 3 4 5 6 
#
# 1 0.031449 -0.004531 -0.001068 0.004102 0.024045 0.015075
# 2 -0.004531 0.012426 -0.004466 0.007246 -0.005037 0.007229
# 3 -0.001068 -0.004466 0.014656 0.000214 0.013923 0.002135
# 4 0.004102 0.007246 0.000214 0.031091 0.009242 0.015979
# 5 0.024045 -0.005037 0.013923 0.009242 0.074624 0.024526
# 6 0.015075 0.007229 0.002135 0.015979 0.024526 0.056604
#
#
# Mechanical properties :
#
#
# Convention : Reuss Voigt Hill
#
# Bulk Modulus (GPa) = 26.04178 61.09409 43.56793
# Shear Modulus (GPa) = 19.70218 31.76753 25.73485
#
# Velocity S-wave (km/s) = 2.96549 3.76557 3.38922
# Velocity P-wave (km/s) = 4.83211 6.79526 5.89596
#
# Compressibility (1/GPa) = 0.03839984
#
# Stress axis : x y z
#
# Youngs Moduli (GPa) = 31.79784 80.47937 68.23189
#
# Poissons Ratio (x) = 0.36465 0.07287
# Poissons Ratio (y) = 0.14408 0.30474
# Poissons Ratio (z) = 0.03396 0.35944
#
# Static dielectric constant tensor:
#      x y z
#    x 3.820250 -0.201880 -0.453910 
#    y -0.201880 4.592710 -0.378410 
#    z -0.453910 -0.378410 4.181540 
# 
# 
# High freq. dielectric constant tensor:
#      x y z
#    x 1.854520 -0.019250 -0.030720 
#    y -0.019250 1.898360 -0.021890 
#    z -0.030720 -0.021890 1.858050 
# 
# From -- ./inp_files/540815.got.cif
#   From: 2010.06.25/outbox.cif.g09.slc.cpg/sg2_271_cif.got.tgz:540815.got - 2010.06.27 13:26:56.
