data_PCOD8041267
_publ_section_title
;
Structure prediction by ZEFSAII (Michael W. Deem and Ramdas Pophale) SiO2 
 PCOD8041267
Probable space group: P -1
;
_chemical_formula_sum "Si O2"
_cell_formula_units_Z 14
_cell_length_a 12.766257
_cell_length_b 21.583090
_cell_length_c 9.228129
_cell_angle_alpha 37.818656
_cell_angle_beta 140.771000
_cell_angle_gamma 153.880774
_cell_volume 665.958728
_symmetry_space_group_name_H-M "P -1"
_symmetry_group_IT_number 2
_symmetry_cell_setting 'triclinic'
loop_
_space_group_symop_operation_xyz
x,y,z
-x,-y,-z
loop_
_atom_site_type_symbol
_atom_site_label
_atom_site_fract_x
_atom_site_fract_y
_atom_site_fract_z
Si Si1 0.178747 0.279412 0.762153
Si Si2 0.355240 0.135642 0.670662
Si Si3 0.682225 0.742902 0.327402
Si Si4 0.924526 0.814737 0.865342
Si Si5 0.107126 0.588380 0.301657
Si Si6 0.267539 0.416510 0.131973
Si Si7 0.144392 0.478211 0.277879
O O1 0.185958 0.193427 0.806645
O O2 0.447583 0.428534 0.838071
O O3 0.044638 0.317906 0.474994
O O4 0.027639 0.171415 0.936610
O O5 0.320624 0.157812 0.760764
O O6 0.265594 0.180377 0.379461
O O7 0.633644 0.234301 0.738510
O O8 0.187087 0.959927 0.803896
O O9 0.808923 0.708972 0.613036
O O10 0.405509 0.587008 0.278733
O O11 0.813277 0.658881 0.975755
O O12 0.170437 0.520995 0.394793
O O13 0.000000 0.500000 0.500000
O O14 0.902244 0.564164 0.047448
O O15 0.000000 0.500000 0.000000
#
# Coordination Sequence:
#
# PCOD8041267 Si02
#       7
#     2   2   2   2   2   2   2
#     4  11  19  32  56  81 102 135 178 214 256 309
#     4   9  21  37  52  75 106 142 171 210 264 303
#     4   9  19  34  53  75 103 136 172 212 259 309
#     4  10  20  36  54  73 107 141 174 212 253 314
#     4  11  20  32  53  78 104 133 174 217 255 308
#     4  10  19  33  52  78 105 134 170 215 264 303
#     4  10  19  32  50  77 108 132 164 218 267 299
#
# _framework density 21.022324000000001
#
# number of rings (size 3 to 8) (size 9 to 14) (size 15 to 20)
#    0.000    2.000    0.000    6.429    0.000    1.143 
#    0.000    0.000    0.000    7.714    0.000    0.000 
#    0.000    0.000    0.000    0.000    0.000    0.000 
#
# Total GULP energy -173467.119661 kJ/mol
# GULP energy per Si atom -12390.508547 kJ/mol
# Density = 2.097448 g / cm^3
# Si number density = 21.022324 Si / 1000 Ang^3
#
#
#
# Elastic Constant Matrix: (Units=GPa)
#
#
# Indices 1 2 3 4 5 6 
#
# 1 89.8903 8.7715 25.4097 -1.0307 -13.5885 3.8048
# 2 8.7715 61.7451 22.0275 1.1817 3.0550 13.3339
# 3 25.4097 22.0275 82.9327 12.5046 4.2947 11.0853
# 4 -1.0307 1.1817 12.5046 20.5814 1.3085 3.9102
# 5 -13.5885 3.0550 4.2947 1.3085 32.9564 6.1494
# 6 3.8048 13.3339 11.0853 3.9102 6.1494 27.0302
#
#
#
# Elastic Compliance Matrix: (Units=1/GPa)
#
#
# Indices 1 2 3 4 5 6 
#
# 1 0.013569 -0.000237 -0.004710 0.003493 0.006433 -0.001830
# 2 -0.000237 0.019549 -0.004499 0.003159 0.000089 -0.008242
# 3 -0.004710 -0.004499 0.016526 -0.009478 -0.002957 -0.001851
# 4 0.003493 0.003159 -0.009478 0.055487 0.001394 -0.006507
# 5 0.006433 0.000089 -0.002957 0.001394 0.034782 -0.007851
# 6 -0.001830 -0.008242 -0.001851 -0.006507 -0.007851 0.044806
#
#
# Mechanical properties :
#
#
# Convention : Reuss Voigt Hill
#
# Bulk Modulus (GPa) = 32.51792 38.55395 35.53593
# Shear Modulus (GPa) = 23.37946 28.00422 25.69184
#
# Velocity S-wave (km/s) = 3.33847 3.65378 3.49968
# Velocity P-wave (km/s) = 5.51021 6.01494 5.76810
#
# Compressibility (1/GPa) = 0.03075227
#
# Stress axis : x y z
#
# Youngs Moduli (GPa) = 73.69638 51.15236 60.51212
#
# Poissons Ratio (x) = 0.01214 0.28499
# Poissons Ratio (y) = 0.01749 0.27224
# Poissons Ratio (z) = 0.34708 0.23013
#
# Static dielectric constant tensor:
#      x y z
#    x 3.886950 -0.123710 -0.008100 
#    y -0.123710 3.581980 0.131930 
#    z -0.008100 0.131930 3.722490 
# 
# 
# High freq. dielectric constant tensor:
#      x y z
#    x 1.827970 -0.007750 -0.006660 
#    y -0.007750 1.790790 0.009570 
#    z -0.006660 0.009570 1.815670 
# 
# From -- ./inp_files/167726.got.cif
#   From: 2010.06.25/outbox.cif.g09.slc.cpg/sg2_84_cif.got.tgz:167726.got - 2010.06.27 13:26:56.
