data_PCOD8041705
_publ_section_title
;
Structure prediction by ZEFSAII (Michael W. Deem and Ramdas Pophale) SiO2 
 PCOD8041705
Probable space group: P -1
;
_chemical_formula_sum "Si O2"
_cell_formula_units_Z 14
_cell_length_a 9.225636
_cell_length_b 6.390555
_cell_length_c 22.656010
_cell_angle_alpha 92.098410
_cell_angle_beta 141.366636
_cell_angle_gamma 67.223556
_cell_volume 682.039222
_symmetry_space_group_name_H-M "P -1"
_symmetry_group_IT_number 2
_symmetry_cell_setting 'triclinic'
loop_
_space_group_symop_operation_xyz
x,y,z
-x,-y,-z
loop_
_atom_site_type_symbol
_atom_site_label
_atom_site_fract_x
_atom_site_fract_y
_atom_site_fract_z
Si Si1 0.110867 0.579805 0.748907
Si Si2 0.283629 0.726163 0.103482
Si Si3 0.793346 0.495565 0.025465
Si Si4 0.790553 0.162964 0.113073
Si Si5 0.209091 0.610776 0.203443
Si Si6 0.387282 0.477468 0.381390
Si Si7 0.714376 0.077939 0.571299
O O1 0.420592 0.327382 0.827125
O O2 0.112421 0.695449 0.813343
O O3 0.890041 0.503911 0.683087
O O4 0.019934 0.806842 0.674174
O O5 0.331418 0.680444 0.188662
O O6 0.240694 0.521405 0.056121
O O7 0.000000 0.000000 0.000000
O O8 0.794893 0.258340 0.049818
O O9 0.075255 0.473662 0.130825
O O10 0.520374 0.759762 0.966695
O O11 0.986062 0.859116 0.173694
O O12 0.433919 0.434606 0.324576
O O13 0.674107 0.233022 0.499809
O O14 0.352527 0.736830 0.392349
O O15 0.500000 0.000000 0.500000
#
# Coordination Sequence:
#
# PCOD8041705 Si02
#       7
#     2   2   2   2   2   2   2
#     4  10  20  39  59  85 118 154 188 238 285 341
#     4  11  24  39  53  83 130 161 186 228 288 334
#     4  10  21  36  52  79 116 158 196 234 272 334
#     4  10  19  33  57  81 111 150 200 238 275 325
#     4  12  21  35  57  86 113 153 192 238 280 337
#     4  10  20  35  65  91 105 146 200 239 287 341
#     4   9  19  38  63  89 112 137 192 252 293 335
#
# _framework density 20.526679000000001
#
# number of rings (size 3 to 8) (size 9 to 14) (size 15 to 20)
#    0.000    1.714    4.286    0.857    0.000    1.143 
#    2.571    0.714    0.000    7.714    0.000    0.000 
#    0.000    0.000    0.000    0.000    0.000    0.000 
#
# Total GULP energy -173448.877771 kJ/mol
# GULP energy per Si atom -12389.205555 kJ/mol
# Density = 2.047996 g / cm^3
# Si number density = 20.526679 Si / 1000 Ang^3
#
#
#
# Elastic Constant Matrix: (Units=GPa)
#
#
# Indices 1 2 3 4 5 6 
#
# 1 81.6898 22.1105 35.3706 -0.8985 -23.4947 -9.7481
# 2 22.1105 66.9170 21.4026 5.2198 -1.6057 -1.0275
# 3 35.3706 21.4026 87.4177 2.0367 -18.9327 -5.5861
# 4 -0.8985 5.2198 2.0367 40.9139 -2.4040 -0.3722
# 5 -23.4947 -1.6057 -18.9327 -2.4040 33.9744 3.4682
# 6 -9.7481 -1.0275 -5.5861 -0.3722 3.4682 19.4660
#
#
#
# Elastic Compliance Matrix: (Units=1/GPa)
#
#
# Indices 1 2 3 4 5 6 
#
# 1 0.018944 -0.004810 -0.003923 0.001880 0.010174 0.006330
# 2 -0.004810 0.017675 -0.003381 -0.002465 -0.004374 -0.001714
# 3 -0.003923 -0.003381 0.015107 -0.000078 0.005415 0.001226
# 4 0.001880 -0.002465 -0.000078 0.024974 0.002830 0.000763
# 5 0.010174 -0.004374 0.005415 0.002830 0.039539 -0.000572
# 6 0.006330 -0.001714 0.001226 0.000763 -0.000572 0.054920
#
#
# Mechanical properties :
#
#
# Convention : Reuss Voigt Hill
#
# Bulk Modulus (GPa) = 36.36506 43.75467 40.05986
# Shear Modulus (GPa) = 24.44328 29.34690 26.89509
#
# Velocity S-wave (km/s) = 3.45455 3.78523 3.62367
# Velocity P-wave (km/s) = 5.80227 6.36131 6.08821
#
# Compressibility (1/GPa) = 0.02749893
#
# Stress axis : x y z
#
# Youngs Moduli (GPa) = 52.78641 56.57552 66.19239
#
# Poissons Ratio (x) = 0.27213 0.25970
# Poissons Ratio (y) = 0.25390 0.22378
# Poissons Ratio (z) = 0.20710 0.19127
#
# Static dielectric constant tensor:
#      x y z
#    x 3.544200 -0.033300 -0.409320 
#    y -0.033300 3.667740 -0.123380 
#    z -0.409320 -0.123380 4.204360 
# 
# 
# High freq. dielectric constant tensor:
#      x y z
#    x 1.770850 0.002250 -0.029480 
#    y 0.002250 1.798030 0.007760 
#    z -0.029480 0.007760 1.809560 
# 
# From -- ./inp_files/32032.got.cif
#   From: 2010.06.25/outbox.cif.g09.slc.cpg/sg2_17_cif.got.tgz:32032.got - 2010.06.27 13:26:56.
