data_PCOD8041398
_publ_section_title
;
Structure prediction by ZEFSAII (Michael W. Deem and Ramdas Pophale) SiO2 
 PCOD8041398
Probable space group: P -1
;
_chemical_formula_sum "Si O2"
_cell_formula_units_Z 16
_cell_length_a 11.194575
_cell_length_b 15.036372
_cell_length_c 15.096028
_cell_angle_alpha 30.113831
_cell_angle_beta 69.128591
_cell_angle_gamma 49.700235
_cell_volume 823.868966
_symmetry_space_group_name_H-M "P -1"
_symmetry_group_IT_number 2
_symmetry_cell_setting 'triclinic'
loop_
_space_group_symop_operation_xyz
x,y,z
-x,-y,-z
loop_
_atom_site_type_symbol
_atom_site_label
_atom_site_fract_x
_atom_site_fract_y
_atom_site_fract_z
Si Si1 0.121965 0.038037 0.666206
Si Si2 0.708543 0.452962 0.416562
Si Si3 0.474712 0.889811 0.751704
Si Si4 0.577548 0.194364 0.663356
Si Si5 0.525601 0.230963 0.454494
Si Si6 0.630116 0.498005 0.912262
Si Si7 0.290257 0.330286 0.947982
Si Si8 0.075277 0.115968 0.407980
O O1 0.150434 0.038474 0.554346
O O2 0.915727 0.296834 0.527032
O O3 0.272472 0.003972 0.707873
O O4 0.162343 0.789368 0.891823
O O5 0.703029 0.244008 0.598392
O O6 0.566445 0.679620 0.327428
O O7 0.665530 0.581661 0.221308
O O8 0.609170 0.702598 0.794621
O O9 0.441319 0.128086 0.539061
O O10 0.568802 0.759002 0.934450
O O11 0.462822 0.339429 0.477496
O O12 0.694042 0.893747 0.889341
O O13 0.439641 0.445537 0.219276
O O14 0.750035 0.005894 0.593337
O O15 0.500000 0.500000 0.000000
O O16 0.083025 0.576493 0.825238
O O17 0.000000 0.000000 0.500000
#
# Coordination Sequence:
#
# PCOD8041398 Si02
#       8
#     2   2   2   2   2   2   2   2
#     4  10  21  36  57  85 112 154 196 231 291 351
#     4  10  22  43  64  81 119 151 204 255 284 342
#     4  10  21  35  56  89 116 155 184 233 308 344
#     4  10  23  40  63  88 111 159 201 243 301 335
#     4  11  21  36  56  86 122 146 193 244 282 359
#     4  10  19  32  56  82 118 155 182 224 298 354
#     4  10  22  38  64  87 117 156 196 241 294 354
#     4  11  21  34  59  90 120 156 193 237 292 350
#
# _framework density 19.420563999999999
#
# number of rings (size 3 to 8) (size 9 to 14) (size 15 to 20)
#    0.000    1.750    2.500    3.000    5.250    3.000 
#    2.250    3.125    0.000    0.000    0.000    0.000 
#    0.000    0.000    0.000    0.000    0.000    0.000 
#
# Total GULP energy -198288.654093 kJ/mol
# GULP energy per Si atom -12393.040881 kJ/mol
# Density = 1.937636 g / cm^3
# Si number density = 19.420564 Si / 1000 Ang^3
#
#
#
# Elastic Constant Matrix: (Units=GPa)
#
#
# Indices 1 2 3 4 5 6 
#
# 1 96.5298 21.6403 38.3279 -5.0103 5.6665 6.1685
# 2 21.6403 62.9319 29.4714 9.4166 4.9793 5.5438
# 3 38.3279 29.4714 101.5542 1.0293 13.9194 1.3787
# 4 -5.0103 9.4166 1.0293 31.1200 8.9325 -2.9106
# 5 5.6665 4.9793 13.9194 8.9325 31.4895 0.9886
# 6 6.1685 5.5438 1.3787 -2.9106 0.9886 22.7147
#
#
#
# Elastic Compliance Matrix: (Units=1/GPa)
#
#
# Indices 1 2 3 4 5 6 
#
# 1 0.012903 -0.002802 -0.003927 0.003132 -0.000964 -0.002139
# 2 -0.002802 0.020632 -0.005026 -0.007497 0.001747 -0.005006
# 3 -0.003927 -0.005026 0.013438 0.002090 -0.005093 0.001967
# 4 0.003132 -0.007497 0.002090 0.038725 -0.011485 0.006315
# 5 -0.000964 0.001747 -0.005093 -0.011485 0.037256 -0.002949
# 6 -0.002139 -0.005006 0.001967 0.006315 -0.002949 0.046645
#
#
# Mechanical properties :
#
#
# Convention : Reuss Voigt Hill
#
# Bulk Modulus (GPa) = 42.61947 48.87724 45.74836
# Shear Modulus (GPa) = 24.88463 28.50325 26.69394
#
# Velocity S-wave (km/s) = 3.58349 3.83519 3.71147
# Velocity P-wave (km/s) = 6.25420 6.69582 6.47877
#
# Compressibility (1/GPa) = 0.02346346
#
# Stress axis : x y z
#
# Youngs Moduli (GPa) = 77.50321 48.46906 74.41716
#
# Poissons Ratio (x) = 0.13579 0.29225
# Poissons Ratio (y) = 0.21714 0.37399
# Poissons Ratio (z) = 0.30437 0.24358
#
# Static dielectric constant tensor:
#      x y z
#    x 3.527610 0.217590 -0.152450 
#    y 0.217590 3.662160 -0.145820 
#    z -0.152450 -0.145820 4.041350 
# 
# 
# High freq. dielectric constant tensor:
#      x y z
#    x 1.750800 0.011950 -0.003500 
#    y 0.011950 1.741770 0.009300 
#    z -0.003500 0.009300 1.766260 
# 
# From -- ./inp_files/213580.got.cif
#   From: 2010.06.25/outbox.cif.g09.slc.cpg/sg2_107_cif.got.tgz:213580.got - 2010.06.27 13:26:56.
