data_PCOD8041894
_publ_section_title
;
Structure prediction by ZEFSAII (Michael W. Deem and Ramdas Pophale) SiO2 
 PCOD8041894
Probable space group: P -1
;
_chemical_formula_sum "Si O2"
_cell_formula_units_Z 16
_cell_length_a 17.250653
_cell_length_b 15.580585
_cell_length_c 15.148611
_cell_angle_alpha 161.280578
_cell_angle_beta 127.520270
_cell_angle_gamma 44.747351
_cell_volume 882.689974
_symmetry_space_group_name_H-M "P -1"
_symmetry_group_IT_number 2
_symmetry_cell_setting 'triclinic'
loop_
_space_group_symop_operation_xyz
x,y,z
-x,-y,-z
loop_
_atom_site_type_symbol
_atom_site_label
_atom_site_fract_x
_atom_site_fract_y
_atom_site_fract_z
Si Si1 0.046588 0.055302 0.895288
Si Si2 0.454464 0.603487 0.969139
Si Si3 0.913464 0.537463 0.555152
Si Si4 0.211691 0.444341 0.806570
Si Si5 0.691757 0.218909 0.689510
Si Si6 0.027382 0.162319 0.797637
Si Si7 0.117283 0.124656 0.641004
Si Si8 0.697454 0.676315 0.437436
O O1 0.101662 0.008663 0.789983
O O2 0.033969 0.773501 0.650486
O O3 0.108737 0.162940 0.111876
O O4 0.921572 0.337589 0.057826
O O5 0.553636 0.413927 0.779765
O O6 0.352245 0.551832 0.819753
O O7 0.500000 0.500000 0.000000
O O8 0.409153 0.969332 0.285770
O O9 0.789243 0.601166 0.504634
O O10 0.000000 0.500000 0.500000
O O11 0.227822 0.395247 0.666581
O O12 0.261208 0.111063 0.556789
O O13 0.280312 0.586643 0.034690
O O14 0.754466 0.144196 0.564825
O O15 0.117845 0.121970 0.745473
O O16 0.974259 0.952447 0.534446
O O17 0.923086 0.528357 0.085548
#
# Coordination Sequence:
#
# PCOD8041894 Si02
#       8
#     2   2   2   2   2   2   2   2
#     4  12  22  37  55  83 107 154 181 215 273 329
#     4  12  23  36  56  77 106 149 184 220 271 322
#     4  12  26  37  56  78 109 148 191 225 265 316
#     4  12  21  32  57  78 113 143 182 220 257 322
#     4  12  21  34  54  84 109 148 178 214 272 331
#     4  10  20  33  56  79 115 141 174 218 276 331
#     4  10  19  34  52  85 112 141 171 223 273 330
#     4  12  24  39  50  78 111 143 187 231 255 310
#
# _framework density 18.126408999999999
#
# number of rings (size 3 to 8) (size 9 to 14) (size 15 to 20)
#    0.000    0.500    6.250    3.750    1.750    0.000 
#    0.000    0.000    0.000    0.000    0.000    5.250 
#    0.000    0.000    0.000    0.000    0.000    0.000 
#
# Total GULP energy -198320.610503 kJ/mol
# GULP energy per Si atom -12395.038156 kJ/mol
# Density = 1.808515 g / cm^3
# Si number density = 18.126409 Si / 1000 Ang^3
#
#
#
# Elastic Constant Matrix: (Units=GPa)
#
#
# Indices 1 2 3 4 5 6 
#
# 1 82.1952 34.0525 13.0707 2.0051 -6.5427 16.9893
# 2 34.0525 70.9743 15.1394 -11.3269 1.4076 7.0903
# 3 13.0707 15.1394 86.2363 -5.3481 14.1292 10.3101
# 4 2.0051 -11.3269 -5.3481 49.3228 -8.2101 3.6813
# 5 -6.5427 1.4076 14.1292 -8.2101 34.2461 -3.6979
# 6 16.9893 7.0903 10.3101 3.6813 -3.6979 36.3127
#
#
#
# Elastic Compliance Matrix: (Units=1/GPa)
#
#
# Indices 1 2 3 4 5 6 
#
# 1 0.016968 -0.007655 -0.001152 -0.001648 0.003027 -0.005642
# 2 -0.007655 0.018861 -0.001795 0.004378 -0.000456 -0.000082
# 3 -0.001152 -0.001795 0.013527 0.000367 -0.006028 -0.003602
# 4 -0.001648 0.004378 0.000367 0.022281 0.004481 -0.001991
# 5 0.003027 -0.000456 -0.006028 0.004481 0.033722 0.003364
# 6 -0.005642 -0.000082 -0.003602 -0.001991 0.003364 0.031761
#
#
# Mechanical properties :
#
#
# Convention : Reuss Voigt Hill
#
# Bulk Modulus (GPa) = 35.51980 40.43680 37.97830
# Shear Modulus (GPa) = 29.81393 35.78587 32.79990
#
# Velocity S-wave (km/s) = 4.05999 4.44806 4.25845
# Velocity P-wave (km/s) = 6.45106 6.98119 6.72135
#
# Compressibility (1/GPa) = 0.02815331
#
# Stress axis : x y z
#
# Youngs Moduli (GPa) = 58.93525 53.01940 73.92730
#
# Poissons Ratio (x) = 0.40584 0.08514
# Poissons Ratio (y) = 0.45113 0.13269
# Poissons Ratio (z) = 0.06787 0.09516
#
# Static dielectric constant tensor:
#      x y z
#    x 3.397630 0.212630 0.020330 
#    y 0.212630 3.399030 -0.269800 
#    z 0.020330 -0.269800 3.595790 
# 
# 
# High freq. dielectric constant tensor:
#      x y z
#    x 1.698770 0.007590 0.010530 
#    y 0.007590 1.669430 -0.011570 
#    z 0.010530 -0.011570 1.725640 
# 
# From -- ./inp_files/367002.got.cif
#   From: 2010.06.25/outbox.cif.g09.slc.cpg/sg2_184_cif.got.tgz:367002.got - 2010.06.27 13:26:56.
