data_PCOD8041501
_publ_section_title
;
Structure prediction by ZEFSAII (Michael W. Deem and Ramdas Pophale) SiO2 
 PCOD8041501
Probable space group: P -1
;
_chemical_formula_sum "Si O2"
_cell_formula_units_Z 14
_cell_length_a 14.841536
_cell_length_b 8.390616
_cell_length_c 7.289873
_cell_angle_alpha 100.246875
_cell_angle_beta 53.615762
_cell_angle_gamma 72.279058
_cell_volume 615.425704
_symmetry_space_group_name_H-M "P -1"
_symmetry_group_IT_number 2
_symmetry_cell_setting 'triclinic'
loop_
_space_group_symop_operation_xyz
x,y,z
-x,-y,-z
loop_
_atom_site_type_symbol
_atom_site_label
_atom_site_fract_x
_atom_site_fract_y
_atom_site_fract_z
Si Si1 0.585050 0.960338 0.203698
Si Si2 0.776238 0.048609 0.160010
Si Si3 0.683544 0.559230 0.047760
Si Si4 0.439798 0.567020 0.382645
Si Si5 0.653630 0.694095 0.534557
Si Si6 0.927631 0.178477 0.751818
Si Si7 0.101101 0.288468 0.777379
O O1 0.661400 0.741967 0.997205
O O2 0.500000 0.000000 0.500000
O O3 0.695048 0.016924 0.095124
O O4 0.474976 0.102764 0.224874
O O5 0.669817 0.211609 0.454037
O O6 0.860011 0.852211 0.125848
O O7 0.864600 0.125709 0.985012
O O8 0.567875 0.527468 0.109171
O O9 0.677015 0.623268 0.280270
O O10 0.819367 0.364074 0.809659
O O11 0.500000 0.500000 0.500000
O O12 0.371585 0.456540 0.359905
O O13 0.776060 0.708069 0.458254
O O14 0.037889 0.220479 0.689938
O O15 0.000000 0.000000 0.500000
O O16 0.000000 0.500000 0.000000
#
# Coordination Sequence:
#
# PCOD8041501 Si02
#       7
#     2   2   2   2   2   2   2
#     4  10  15  28  57  95 109 131 186 272 296 323
#     4  12  19  35  62  89 113 153 205 247 293 339
#     4  10  16  33  54  84 114 146 192 243 289 337
#     4  10  15  28  59  94 110 135 191 268 289 329
#     4  10  16  29  55  90 111 134 188 258 296 315
#     4  12  26  40  54  82 129 170 192 229 298 369
#     4  12  22  38  59  85 120 154 208 253 273 340
#
# _framework density 22.748483
#
# number of rings (size 3 to 8) (size 9 to 14) (size 15 to 20)
#    0.000    1.143   11.429    0.429    0.000    0.000 
#    0.000    2.857    0.000    6.857    0.000    0.000 
#    0.000    0.000    0.000    0.000    0.000    0.000 
#
# Total GULP energy -173443.049325 kJ/mol
# GULP energy per Si atom -12388.789237 kJ/mol
# Density = 2.269671 g / cm^3
# Si number density = 22.748483 Si / 1000 Ang^3
#
#
#
# Elastic Constant Matrix: (Units=GPa)
#
#
# Indices 1 2 3 4 5 6 
#
# 1 122.8182 66.7935 56.0471 11.4951 -48.9421 45.3964
# 2 66.7935 160.0823 55.0669 44.7224 -32.5741 23.3129
# 3 56.0471 55.0669 84.7208 41.8800 -27.2256 3.6195
# 4 11.4951 44.7224 41.8800 51.0732 -1.7096 -14.4625
# 5 -48.9421 -32.5741 -27.2256 -1.7096 33.9387 -3.6963
# 6 45.3964 23.3129 3.6195 -14.4625 -3.6963 50.1994
#
#
#
# Elastic Compliance Matrix: (Units=1/GPa)
#
#
# Indices 1 2 3 4 5 6 
#
# 1 0.203427 0.061227 0.045262 -0.194322 0.351880 -0.245736
# 2 0.061227 0.034393 0.021761 -0.082307 0.125095 -0.087412
# 3 0.045262 0.021761 0.050740 -0.087223 0.114693 -0.071380
# 4 -0.194322 -0.082307 -0.087223 0.270353 -0.386202 0.269693
# 5 0.351880 0.125095 0.114693 -0.386202 0.680977 -0.445700
# 6 -0.245736 -0.087412 -0.071380 0.269693 -0.445700 0.332766
#
#
# Mechanical properties :
#
#
# Convention : Reuss Voigt Hill
#
# Bulk Modulus (GPa) = 1.83465 80.38179 41.10822
# Shear Modulus (GPa) = 3.33814 39.68986 21.51400
#
# Velocity S-wave (km/s) = 1.21268 4.18152 3.07861
# Velocity P-wave (km/s) = 1.66404 7.66324 5.54501
#
# Compressibility (1/GPa) = 0.54506210
#
# Stress axis : x y z
#
# Youngs Moduli (GPa) = 4.91576 29.07567 19.70851
#
# Poissons Ratio (x) = -1.78023 -0.89205
# Poissons Ratio (y) = -0.30098 -0.42889
# Poissons Ratio (z) = -0.22250 -0.63273
#
# Static dielectric constant tensor:
#      x y z
#    x 4.003870 0.379100 -0.610070 
#    y 0.379100 4.986190 0.309790 
#    z -0.610070 0.309790 3.821200 
# 
# 
# High freq. dielectric constant tensor:
#      x y z
#    x 1.880850 0.027080 -0.041140 
#    y 0.027080 1.919260 0.027770 
#    z -0.041140 0.027770 1.863400 
# 
# From -- ./inp_files/295961.got.cif
#   From: 2010.06.25/outbox.cif.g09.slc.cpg/sg2_148_cif.got.tgz:295961.got - 2010.06.27 13:26:56.
