data_PCOD8041545
_publ_section_title
;
Structure prediction by ZEFSAII (Michael W. Deem and Ramdas Pophale) SiO2 
 PCOD8041545
Probable space group: P -1
;
_chemical_formula_sum "Si O2"
_cell_formula_units_Z 16
_cell_length_a 5.002734
_cell_length_b 14.172111
_cell_length_c 14.904725
_cell_angle_alpha 137.486844
_cell_angle_beta 83.259863
_cell_angle_gamma 97.383694
_cell_volume 707.772846
_symmetry_space_group_name_H-M "P -1"
_symmetry_group_IT_number 2
_symmetry_cell_setting 'triclinic'
loop_
_space_group_symop_operation_xyz
x,y,z
-x,-y,-z
loop_
_atom_site_type_symbol
_atom_site_label
_atom_site_fract_x
_atom_site_fract_y
_atom_site_fract_z
Si Si1 0.209987 0.663094 0.386721
Si Si2 0.296203 0.874886 0.390054
Si Si3 0.164442 0.977219 0.287759
Si Si4 0.699326 0.133441 0.334139
Si Si5 0.741627 0.531918 0.215413
Si Si6 0.273331 0.008868 0.942495
Si Si7 0.473390 0.239728 0.967267
Si Si8 0.637028 0.646865 0.125376
O O1 0.143934 0.805371 0.433849
O O2 0.192176 0.712767 0.526521
O O3 0.506980 0.618865 0.326086
O O4 0.989559 0.539805 0.281636
O O5 0.094100 0.934276 0.364527
O O6 0.434866 0.748445 0.248595
O O7 0.500000 0.000000 0.500000
O O8 0.395056 0.104972 0.363946
O O9 0.289078 0.850712 0.141378
O O10 0.886754 0.012362 0.276977
O O11 0.708249 0.123396 0.218792
O O12 0.629692 0.373671 0.099100
O O13 0.845890 0.604958 0.166863
O O14 0.500000 0.000000 0.000000
O O15 0.300937 0.155323 0.990312
O O16 0.000000 0.000000 0.000000
O O17 0.266637 0.281379 0.923004
O O18 0.500000 0.500000 0.000000
#
# Coordination Sequence:
#
# PCOD8041545 Si02
#       8
#     2   2   2   2   2   2   2   2
#     4  11  23  36  57  87 125 165 200 242 300 362
#     4  10  19  33  53  86 125 166 209 248 290 357
#     4  10  21  35  58  88 119 163 203 247 301 353
#     4  11  22  39  59  86 122 153 194 253 316 363
#     4  10  22  39  60  90 126 170 204 236 287 370
#     4  11  24  42  66  93 116 149 201 267 324 361
#     4   9  20  41  65  88 123 160 207 254 304 361
#     4   8  17  36  56  86 125 167 205 243 291 358
#
# _framework density 22.606123
#
# number of rings (size 3 to 8) (size 9 to 14) (size 15 to 20)
#    0.000    2.000    1.250    2.250    1.750    7.500 
#    0.000   22.500    0.000    4.500    0.000    0.000 
#    0.000    0.000    0.000    0.000    0.000    0.000 
#
# Total GULP energy -198235.686049 kJ/mol
# GULP energy per Si atom -12389.730378 kJ/mol
# Density = 2.255467 g / cm^3
# Si number density = 22.606123 Si / 1000 Ang^3
#
#
#
# Elastic Constant Matrix: (Units=GPa)
#
#
# Indices 1 2 3 4 5 6 
#
# 1 79.0033 26.7557 18.8259 -18.2536 14.1430 2.9981
# 2 26.7557 97.1437 34.6115 -16.8960 9.1490 5.1799
# 3 18.8259 34.6115 142.2731 -8.8991 34.7298 -0.8775
# 4 -18.2536 -16.8960 -8.8991 37.1326 -5.1920 2.0512
# 5 14.1430 9.1490 34.7298 -5.1920 21.8096 -3.3515
# 6 2.9981 5.1799 -0.8775 2.0512 -3.3515 25.3154
#
#
#
# Elastic Compliance Matrix: (Units=1/GPa)
#
#
# Indices 1 2 3 4 5 6 
#
# 1 0.016780 -0.002923 0.001599 0.005904 -0.011305 -0.003309
# 2 -0.002923 0.012815 -0.002921 0.004077 0.001762 -0.002474
# 3 0.001599 -0.002921 0.012328 -0.000256 -0.019775 -0.001762
# 4 0.005904 0.004077 -0.000256 0.032109 0.001915 -0.003890
# 5 -0.011305 0.001762 -0.019775 0.001915 0.086162 0.011545
# 6 -0.003309 -0.002474 -0.001762 -0.003890 0.011545 0.042182
#
#
# Mechanical properties :
#
#
# Convention : Reuss Voigt Hill
#
# Bulk Modulus (GPa) = 29.91097 53.20068 41.55583
# Shear Modulus (GPa) = 22.52134 32.73330 27.62732
#
# Velocity S-wave (km/s) = 3.15977 3.80937 3.49967
# Velocity P-wave (km/s) = 5.15483 6.55234 5.89514
#
# Compressibility (1/GPa) = 0.03343255
#
# Stress axis : x y z
#
# Youngs Moduli (GPa) = 59.59445 78.03308 81.11655
#
# Poissons Ratio (x) = 0.22813 -0.12973
# Poissons Ratio (y) = 0.17422 0.23695
# Poissons Ratio (z) = -0.09531 0.22794
#
# Static dielectric constant tensor:
#      x y z
#    x 3.811340 -0.158720 0.173990 
#    y -0.158720 4.151230 -0.215920 
#    z 0.173990 -0.215920 4.563990 
# 
# 
# High freq. dielectric constant tensor:
#      x y z
#    x 1.882380 -0.006680 0.012290 
#    y -0.006680 1.842010 0.001330 
#    z 0.012290 0.001330 1.923380 
# 
# From -- ./inp_files/484477.got.cif
#   From: 2010.06.25/outbox.cif.g09.slc.cpg/sg2_243_cif.got.tgz:484477.got - 2010.06.27 13:26:56.
