data_PCOD8041164
_publ_section_title
;
Structure prediction by ZEFSAII (Michael W. Deem and Ramdas Pophale) SiO2 
 PCOD8041164
Probable space group: P -1
;
_chemical_formula_sum "Si O2"
_cell_formula_units_Z 16
_cell_length_a 21.195791
_cell_length_b 11.323998
_cell_length_c 21.768340
_cell_angle_alpha 31.898051
_cell_angle_beta 17.544442
_cell_angle_gamma 30.944181
_cell_volume 793.280798
_symmetry_space_group_name_H-M "P -1"
_symmetry_group_IT_number 2
_symmetry_cell_setting 'triclinic'
loop_
_space_group_symop_operation_xyz
x,y,z
-x,-y,-z
loop_
_atom_site_type_symbol
_atom_site_label
_atom_site_fract_x
_atom_site_fract_y
_atom_site_fract_z
Si Si1 0.821966 0.717412 0.941459
Si Si2 0.952789 0.850773 0.887136
Si Si3 0.251512 0.642143 0.159547
Si Si4 0.883131 0.480257 0.535458
Si Si5 0.375227 0.995811 0.434847
Si Si6 0.381361 0.800772 0.385035
Si Si7 0.039727 0.959840 0.409657
Si Si8 0.220054 0.376690 0.748977
O O1 0.963636 0.796955 0.828326
O O2 0.002214 0.462005 0.868720
O O3 0.590268 0.714768 0.183220
O O4 0.795485 0.896834 0.829898
O O5 0.183849 0.881936 0.680532
O O6 0.766374 0.100352 0.962550
O O7 0.883956 0.649714 0.076096
O O8 0.121067 0.670408 0.332789
O O9 0.124111 0.514000 0.288831
O O10 0.500000 0.500000 0.000000
O O11 0.848918 0.319530 0.581745
O O12 0.693145 0.729554 0.605457
O O13 0.424986 0.956556 0.332419
O O14 0.593330 0.870626 0.328770
O O15 0.351657 0.565961 0.544820
O O16 0.186783 0.952193 0.456135
O O17 0.000000 0.000000 0.500000
#
# Coordination Sequence:
#
# PCOD8041164 Si02
#       8
#     2   2   2   2   2   2   2   2
#     4  11  22  35  54  83 115 146 190 225 272 335
#     4  11  19  29  48  84 118 150 174 210 269 351
#     4  10  19  31  52  81 119 147 172 217 286 345
#     4  10  21  35  52  80 113 145 185 228 276 340
#     4  11  20  32  53  86 121 147 172 219 290 344
#     4  11  22  35  56  85 117 149 182 230 280 332
#     4  11  24  42  59  78 107 151 200 241 273 314
#     4  11  21  32  53  85 125 150 173 215 281 352
#
# _framework density 20.169402000000002
#
# number of rings (size 3 to 8) (size 9 to 14) (size 15 to 20)
#    0.000    1.250    5.000    3.750    1.750    0.500 
#    0.000    0.000    0.000    3.000    0.000   15.750 
#    0.000    0.000    0.000    0.000    0.000    0.000 
#
# Total GULP energy -198212.562768 kJ/mol
# GULP energy per Si atom -12388.285173 kJ/mol
# Density = 2.012350 g / cm^3
# Si number density = 20.169402 Si / 1000 Ang^3
#
#
#
# Elastic Constant Matrix: (Units=GPa)
#
#
# Indices 1 2 3 4 5 6 
#
# 1 50.8883 34.7225 24.7838 -10.7363 16.5763 8.1649
# 2 34.7225 121.9072 44.9561 8.2427 4.4361 -8.7275
# 3 24.7838 44.9561 115.3754 -3.0424 15.6551 -6.2269
# 4 -10.7363 8.2427 -3.0424 37.8480 -12.0673 -5.2576
# 5 16.5763 4.4361 15.6551 -12.0673 20.3114 4.3048
# 6 8.1649 -8.7275 -6.2269 -5.2576 4.3048 17.7170
#
#
#
# Elastic Compliance Matrix: (Units=1/GPa)
#
#
# Indices 1 2 3 4 5 6 
#
# 1 0.038921 -0.011110 -0.001922 0.003907 -0.021798 -0.017629
# 2 -0.011110 0.013153 -0.003005 -0.003637 0.004580 0.008351
# 3 -0.001922 -0.003005 0.011654 -0.000903 -0.008412 0.005277
# 4 0.003907 -0.003637 -0.000903 0.034344 0.018318 0.001831
# 5 -0.021798 0.004580 -0.008412 0.018318 0.084615 -0.005778
# 6 -0.017629 0.008351 0.005277 0.001831 -0.005778 0.072483
#
#
# Mechanical properties :
#
#
# Convention : Reuss Voigt Hill
#
# Bulk Modulus (GPa) = 31.59274 55.23287 43.41280
# Shear Modulus (GPa) = 16.79008 27.42252 22.10630
#
# Velocity S-wave (km/s) = 2.88836 3.69129 3.31423
# Velocity P-wave (km/s) = 5.17892 6.75362 6.01800
#
# Compressibility (1/GPa) = 0.03165284
#
# Stress axis : x y z
#
# Youngs Moduli (GPa) = 25.69301 76.03017 85.81023
#
# Poissons Ratio (x) = 0.84469 0.16495
# Poissons Ratio (y) = 0.28545 0.25786
# Poissons Ratio (z) = 0.04939 0.22847
#
# Static dielectric constant tensor:
#      x y z
#    x 2.966980 -0.220880 -0.011910 
#    y -0.220880 4.124840 0.005290 
#    z -0.011910 0.005290 3.946570 
# 
# 
# High freq. dielectric constant tensor:
#      x y z
#    x 1.690050 -0.022280 -0.000530 
#    y -0.022280 1.812790 0.004250 
#    z -0.000530 0.004250 1.814690 
# 
# From -- ./inp_files/438600.got.cif
#   From: 2010.06.25/outbox.cif.g09.slc.cpg/sg2_220_cif.got.tgz:438600.got - 2010.06.27 13:26:56.
