data_PCOD8041595
_publ_section_title
;
Structure prediction by ZEFSAII (Michael W. Deem and Ramdas Pophale) SiO2 
 PCOD8041595
Probable space group: P -1
;
_chemical_formula_sum "Si O2"
_cell_formula_units_Z 16
_cell_length_a 9.546930
_cell_length_b 20.756057
_cell_length_c 13.284273
_cell_angle_alpha 38.861625
_cell_angle_beta 41.101773
_cell_angle_gamma 72.068514
_cell_volume 800.026203
_symmetry_space_group_name_H-M "P -1"
_symmetry_group_IT_number 2
_symmetry_cell_setting 'triclinic'
loop_
_space_group_symop_operation_xyz
x,y,z
-x,-y,-z
loop_
_atom_site_type_symbol
_atom_site_label
_atom_site_fract_x
_atom_site_fract_y
_atom_site_fract_z
Si Si1 0.306472 0.835714 0.198030
Si Si2 0.310402 0.152726 0.163252
Si Si3 0.348744 0.091547 0.422805
Si Si4 0.276652 0.708988 0.682049
Si Si5 0.210111 0.826578 0.764249
Si Si6 0.041840 0.583544 0.755524
Si Si7 0.747107 0.951052 0.002775
Si Si8 0.583372 0.642588 0.303490
O O1 0.028742 0.674453 0.573972
O O2 0.553121 0.893858 0.077637
O O3 0.441108 0.845284 0.008349
O O4 0.204306 0.918256 0.142416
O O5 0.354788 0.182162 0.223745
O O6 0.349058 0.273465 0.938868
O O7 0.000000 0.000000 0.500000
O O8 0.618533 0.193339 0.228447
O O9 0.369809 0.988534 0.479646
O O10 0.054394 0.000714 0.756019
O O11 0.198991 0.773808 0.722988
O O12 0.047749 0.632494 0.805905
O O13 0.596781 0.833691 0.313970
O O14 0.234501 0.581929 0.910104
O O15 0.882358 0.736444 0.090258
O O16 0.339624 0.617314 0.532798
O O17 0.500000 0.500000 0.500000
#
# Coordination Sequence:
#
# PCOD8041595 Si02
#       8
#     2   2   2   2   2   2   2   2
#     4   9  18  31  55  82 113 145 193 251 285 335
#     4  11  19  35  61  87 114 150 204 243 292 341
#     4  11  23  38  56  90 127 157 190 251 294 358
#     4  10  19  33  56  82 112 154 189 239 288 346
#     4  11  22  37  60  87 126 155 197 239 310 345
#     4   9  19  35  55  88 117 141 196 248 290 341
#     4  10  19  33  54  85 115 148 198 240 287 341
#     4  11  21  37  63  93 113 150 198 253 288 351
#
# _framework density 19.999343
#
# number of rings (size 3 to 8) (size 9 to 14) (size 15 to 20)
#    0.000    1.750    3.750    2.250    0.000    1.500 
#    0.000    1.875    0.000    0.750    0.000    0.000 
#    0.000    0.000    0.000    0.000    0.000    0.000 
#
# Total GULP energy -198288.564916 kJ/mol
# GULP energy per Si atom -12393.035307 kJ/mol
# Density = 1.995382 g / cm^3
# Si number density = 19.999343 Si / 1000 Ang^3
#
#
#
# Elastic Constant Matrix: (Units=GPa)
#
#
# Indices 1 2 3 4 5 6 
#
# 1 81.7701 24.1539 49.1075 4.2717 -0.2540 -4.1857
# 2 24.1539 103.3230 44.2910 -6.2696 5.7247 -1.8816
# 3 49.1075 44.2910 139.7193 -6.0730 25.9832 -7.3351
# 4 4.2717 -6.2696 -6.0730 29.0576 -4.9984 7.8269
# 5 -0.2540 5.7247 25.9832 -4.9984 21.1487 -2.6261
# 6 -4.1857 -1.8816 -7.3351 7.8269 -2.6261 18.1973
#
#
#
# Elastic Compliance Matrix: (Units=1/GPa)
#
#
# Indices 1 2 3 4 5 6 
#
# 1 0.017550 -0.001640 -0.007326 -0.003941 0.009213 0.003939
# 2 -0.001640 0.011533 -0.003292 0.002668 0.001352 -0.001464
# 3 -0.007326 -0.003292 0.013817 0.000194 -0.015983 0.001154
# 4 -0.003941 0.002668 0.000194 0.041442 0.006623 -0.017421
# 5 0.009213 0.001352 -0.015983 0.006623 0.068587 0.002866
# 6 0.003939 -0.001464 0.001154 -0.017421 0.002866 0.064079
#
#
# Mechanical properties :
#
#
# Convention : Reuss Voigt Hill
#
# Bulk Modulus (GPa) = 54.39554 62.21300 58.30427
# Shear Modulus (GPa) = 20.18958 27.49807 23.84383
#
# Velocity S-wave (km/s) = 3.18073 3.71205 3.45662
# Velocity P-wave (km/s) = 6.38334 7.03900 6.71917
#
# Compressibility (1/GPa) = 0.01838386
#
# Stress axis : x y z
#
# Youngs Moduli (GPa) = 56.98063 86.70587 72.37411
#
# Poissons Ratio (x) = 0.14220 0.53023
# Poissons Ratio (y) = 0.09345 0.23825
# Poissons Ratio (z) = 0.41746 0.28542
#
# Static dielectric constant tensor:
#      x y z
#    x 3.391640 -0.053690 0.275880 
#    y -0.053690 3.808170 -0.064370 
#    z 0.275880 -0.064370 4.010920 
# 
# 
# High freq. dielectric constant tensor:
#      x y z
#    x 1.727750 -0.007460 0.020690 
#    y -0.007460 1.786080 0.004380 
#    z 0.020690 0.004380 1.788530 
# 
# From -- ./inp_files/357320.got.cif
#   From: 2010.06.25/outbox.cif.g09.slc.cpg/sg2_179_cif.got.tgz:357320.got - 2010.06.27 13:26:56.
