data_PCOD8041401
_publ_section_title
;
Structure prediction by ZEFSAII (Michael W. Deem and Ramdas Pophale) SiO2 
 PCOD8041401
Probable space group: P -1
;
_chemical_formula_sum "Si O2"
_cell_formula_units_Z 16
_cell_length_a 13.285878
_cell_length_b 15.127855
_cell_length_c 10.087714
_cell_angle_alpha 92.690398
_cell_angle_beta 147.614569
_cell_angle_gamma 65.282341
_cell_volume 766.649889
_symmetry_space_group_name_H-M "P -1"
_symmetry_group_IT_number 2
_symmetry_cell_setting 'triclinic'
loop_
_space_group_symop_operation_xyz
x,y,z
-x,-y,-z
loop_
_atom_site_type_symbol
_atom_site_label
_atom_site_fract_x
_atom_site_fract_y
_atom_site_fract_z
Si Si1 0.289206 0.435346 0.271824
Si Si2 0.109077 0.684968 0.663370
Si Si3 0.247148 0.352596 0.754790
Si Si4 0.525262 0.492771 0.717598
Si Si5 0.039502 0.936878 0.332950
Si Si6 0.978863 0.257710 0.724516
Si Si7 0.549956 0.765993 0.751688
Si Si8 0.249022 0.825075 0.840812
O O1 0.461864 0.415210 0.585808
O O2 0.268624 0.522527 0.148020
O O3 0.440756 0.300647 0.369607
O O4 0.000000 0.500000 0.000000
O O5 0.167914 0.669173 0.571196
O O6 0.066958 0.800458 0.672831
O O7 0.840538 0.718234 0.384376
O O8 0.348827 0.558567 0.000377
O O9 0.000000 0.500000 0.500000
O O10 0.379038 0.315067 0.044086
O O11 0.447242 0.311222 0.853676
O O12 0.246798 0.639917 0.414291
O O13 0.938720 0.872291 0.181103
O O14 0.247793 0.900659 0.449139
O O15 0.182154 0.892715 0.630966
O O16 0.793159 0.088579 0.082340
O O17 0.251209 0.219162 0.048067
#
# Coordination Sequence:
#
# PCOD8041401 Si02
#       8
#     2   2   2   2   2   2   2   2
#     4  11  22  36  53  77 114 146 189 230 269 319
#     4  10  22  33  54  83 117 143 174 218 285 338
#     4  10  21  31  52  84 117 142 172 218 278 338
#     4  11  22  34  53  82 113 144 183 225 279 329
#     4   9  18  35  53  78 114 144 190 217 261 338
#     4  10  19  32  56  84 111 142 176 228 277 329
#     4  10  19  33  53  80 106 144 182 225 275 315
#     4   9  20  34  53  80 113 154 174 219 275 324
#
# _framework density 20.870023
#
# number of rings (size 3 to 8) (size 9 to 14) (size 15 to 20)
#    0.000    2.000    2.500    1.125    7.000    2.000 
#    0.000    5.000    0.000    0.750    0.000    2.625 
#    0.000    0.000    0.000    0.000    0.000    0.000 
#
# Total GULP energy -198271.036395 kJ/mol
# GULP energy per Si atom -12391.939775 kJ/mol
# Density = 2.082252 g / cm^3
# Si number density = 20.870023 Si / 1000 Ang^3
#
#
#
# Elastic Constant Matrix: (Units=GPa)
#
#
# Indices 1 2 3 4 5 6 
#
# 1 64.5290 35.1420 27.8904 5.8337 31.7569 1.9279
# 2 35.1420 148.8336 37.0095 6.1872 26.9466 -15.3832
# 3 27.8904 37.0095 50.8008 3.7363 22.2654 -6.5263
# 4 5.8337 6.1872 3.7363 34.0642 -2.6374 11.3305
# 5 31.7569 26.9466 22.2654 -2.6374 31.9275 -0.7801
# 6 1.9279 -15.3832 -6.5263 11.3305 -0.7801 27.8969
#
#
#
# Elastic Compliance Matrix: (Units=1/GPa)
#
#
# Indices 1 2 3 4 5 6 
#
# 1 0.033287 -0.001440 -0.004011 -0.006568 -0.029693 -0.002196
# 2 -0.001440 0.009376 -0.003088 -0.003393 -0.004466 0.005800
# 3 -0.004011 -0.003088 0.033063 -0.006499 -0.016792 0.008480
# 4 -0.006568 -0.003393 -0.006499 0.039226 0.016719 -0.018402
# 5 -0.029693 -0.004466 -0.016792 0.016719 0.077496 -0.008962
# 6 -0.002196 0.005800 0.008480 -0.018402 -0.008962 0.048404
#
#
# Mechanical properties :
#
#
# Convention : Reuss Voigt Hill
#
# Bulk Modulus (GPa) = 17.05080 51.58302 34.31691
# Shear Modulus (GPa) = 18.01939 29.71915 23.86927
#
# Velocity S-wave (km/s) = 2.94157 3.77770 3.38555
# Velocity P-wave (km/s) = 4.44127 6.61801 5.63573
#
# Compressibility (1/GPa) = 0.05864827
#
# Stress axis : x y z
#
# Youngs Moduli (GPa) = 30.04190 106.65633 30.24500
#
# Poissons Ratio (x) = 0.15361 0.12131
# Poissons Ratio (y) = 0.04327 0.09339
# Poissons Ratio (z) = 0.12049 0.32934
#
# Static dielectric constant tensor:
#      x y z
#    x 3.742480 -0.086490 0.362120 
#    y -0.086490 4.016820 0.173880 
#    z 0.362120 0.173880 3.543250 
# 
# 
# High freq. dielectric constant tensor:
#      x y z
#    x 1.801700 -0.002080 0.033980 
#    y -0.002080 1.827580 0.019580 
#    z 0.033980 0.019580 1.777790 
# 
# From -- ./inp_files/436531.got.cif
#   From: 2010.06.25/outbox.cif.g09.slc.cpg/sg2_219_cif.got.tgz:436531.got - 2010.06.27 13:26:56.
