data_PCOD8041256
_publ_section_title
;
Structure prediction by ZEFSAII (Michael W. Deem and Ramdas Pophale) SiO2 
 PCOD8041256
Probable space group: P -1
;
_chemical_formula_sum "Si O2"
_cell_formula_units_Z 16
_cell_length_a 17.332723
_cell_length_b 12.479084
_cell_length_c 14.074275
_cell_angle_alpha 109.845386
_cell_angle_beta 21.317812
_cell_angle_gamma 121.551949
_cell_volume 828.534220
_symmetry_space_group_name_H-M "P -1"
_symmetry_group_IT_number 2
_symmetry_cell_setting 'triclinic'
loop_
_space_group_symop_operation_xyz
x,y,z
-x,-y,-z
loop_
_atom_site_type_symbol
_atom_site_label
_atom_site_fract_x
_atom_site_fract_y
_atom_site_fract_z
Si Si1 0.257036 0.139952 0.328521
Si Si2 0.325485 0.049491 0.748490
Si Si3 0.683777 0.140689 0.535119
Si Si4 0.266725 0.102783 0.635748
Si Si5 0.362934 0.736526 0.907927
Si Si6 0.312523 0.973902 0.079706
Si Si7 0.402459 0.578825 0.083819
Si Si8 0.971553 0.553884 0.701013
O O1 0.381046 0.212706 0.308442
O O2 0.352603 0.041826 0.159695
O O3 0.351061 0.259013 0.175301
O O4 0.942224 0.041455 0.673984
O O5 0.465801 0.129866 0.711218
O O6 0.336402 0.148579 0.681242
O O7 0.500000 0.000000 0.500000
O O8 0.006002 0.921170 0.091410
O O9 0.941971 0.305309 0.298526
O O10 0.783643 0.049774 0.359032
O O11 0.563850 0.085719 0.760731
O O12 0.528025 0.225249 0.313430
O O13 0.132450 0.568586 0.136275
O O14 0.247921 0.818959 0.103123
O O15 0.255559 0.493532 0.129818
O O16 0.220531 0.585308 0.368855
O O17 0.500000 0.500000 0.000000
#
# Coordination Sequence:
#
# PCOD8041256 Si02
#       8
#     2   2   2   2   2   2   2   2
#     4  10  19  32  49  74 102 141 182 219 256 300
#     4   9  18  35  60  81 106 126 167 220 266 315
#     4  10  19  34  53  80 107 136 175 221 256 310
#     4   9  19  35  57  83  99 136 171 211 271 314
#     4  10  20  34  52  72 107 139 173 214 258 310
#     4  10  19  32  49  76 103 136 181 219 259 299
#     4  10  20  35  50  69 106 151 184 216 257 302
#     4  10  21  35  50  75 107 142 181 215 257 308
#
# _framework density 19.311212000000001
#
# number of rings (size 3 to 8) (size 9 to 14) (size 15 to 20)
#    0.000    2.250    1.250    1.875    0.000    1.000 
#    9.000    0.625    0.000    6.750    0.000    0.000 
#    0.000    0.000    0.000    0.000    0.000    0.000 
#
# Total GULP energy -198267.368366 kJ/mol
# GULP energy per Si atom -12391.710523 kJ/mol
# Density = 1.926726 g / cm^3
# Si number density = 19.311212 Si / 1000 Ang^3
#
#
#
# Elastic Constant Matrix: (Units=GPa)
#
#
# Indices 1 2 3 4 5 6 
#
# 1 51.7953 12.9937 8.1231 -6.0382 5.5436 -5.0251
# 2 12.9937 81.9486 23.1561 -14.6976 0.7163 -13.4845
# 3 8.1231 23.1561 68.3964 -0.4939 2.1337 -6.5540
# 4 -6.0382 -14.6976 -0.4939 28.0416 -6.4188 -2.7845
# 5 5.5436 0.7163 2.1337 -6.4188 30.1179 -2.9632
# 6 -5.0251 -13.4845 -6.5540 -2.7845 -2.9632 23.2100
#
#
#
# Elastic Compliance Matrix: (Units=1/GPa)
#
#
# Indices 1 2 3 4 5 6 
#
# 1 0.020958 -0.001787 -0.001477 0.003240 -0.002713 0.003125
# 2 -0.001787 0.017300 -0.004717 0.010384 0.003450 0.010018
# 3 -0.001477 -0.004717 0.016520 -0.002673 -0.001245 0.001125
# 4 0.003240 0.010384 -0.002673 0.045369 0.010268 0.012733
# 5 -0.002713 0.003450 -0.001245 0.010268 0.036582 0.006968
# 6 0.003125 0.010018 0.001125 0.012733 0.006968 0.052317
#
#
# Mechanical properties :
#
#
# Convention : Reuss Voigt Hill
#
# Bulk Modulus (GPa) = 25.76245 32.29844 29.03044
# Shear Modulus (GPa) = 22.94138 26.79840 24.86989
#
# Velocity S-wave (km/s) = 3.45045 3.72924 3.59255
# Velocity P-wave (km/s) = 5.40775 5.94176 5.68103
#
# Compressibility (1/GPa) = 0.03881619
#
# Stress axis : x y z
#
# Youngs Moduli (GPa) = 47.71499 57.80409 60.53091
#
# Poissons Ratio (x) = 0.10329 0.08938
# Poissons Ratio (y) = 0.08526 0.28555
# Poissons Ratio (z) = 0.07046 0.27269
#
# Static dielectric constant tensor:
#      x y z
#    x 3.762320 -0.021790 -0.018570 
#    y -0.021790 3.542300 0.182930 
#    z -0.018570 0.182930 3.700040 
# 
# 
# High freq. dielectric constant tensor:
#      x y z
#    x 1.752360 -0.007150 0.001350 
#    y -0.007150 1.721900 0.005550 
#    z 0.001350 0.005550 1.756380 
# 
# From -- ./inp_files/84573.got.cif
#   From: 2010.06.25/outbox.cif.g09.slc.cpg/sg2_43_cif.got.tgz:84573.got - 2010.06.27 13:26:56.
