data_PCOD8041640
_publ_section_title
;
Structure prediction by ZEFSAII (Michael W. Deem and Ramdas Pophale) SiO2 
 PCOD8041640
Probable space group: P -1
;
_chemical_formula_sum "Si O2"
_cell_formula_units_Z 16
_cell_length_a 11.554368
_cell_length_b 27.021144
_cell_length_c 17.892184
_cell_angle_alpha 159.998894
_cell_angle_beta 141.115351
_cell_angle_gamma 28.654477
_cell_volume 879.140808
_symmetry_space_group_name_H-M "P -1"
_symmetry_group_IT_number 2
_symmetry_cell_setting 'triclinic'
loop_
_space_group_symop_operation_xyz
x,y,z
-x,-y,-z
loop_
_atom_site_type_symbol
_atom_site_label
_atom_site_fract_x
_atom_site_fract_y
_atom_site_fract_z
Si Si1 0.506061 0.153518 0.436872
Si Si2 0.300265 0.216143 0.905215
Si Si3 0.841682 0.117339 0.800621
Si Si4 0.076729 0.252497 0.697647
Si Si5 0.405328 0.329326 0.984589
Si Si6 0.307038 0.063076 0.928928
Si Si7 0.007569 0.401966 0.157538
Si Si8 0.731750 0.272953 0.806515
O O1 0.727363 0.149215 0.565776
O O2 0.235297 0.374434 0.627802
O O3 0.515711 0.003889 0.279650
O O4 0.539917 0.100697 0.292021
O O5 0.092272 0.253844 0.798513
O O6 0.461754 0.246339 0.980685
O O7 0.162951 0.382830 0.138596
O O8 0.651600 0.267326 0.983307
O O9 0.706433 0.211491 0.787052
O O10 0.098815 0.068620 0.867807
O O11 0.878046 0.930075 0.568919
O O12 0.286431 0.253713 0.772160
O O13 0.803207 0.434985 0.787349
O O14 0.178392 0.282644 0.147485
O O15 0.500000 0.000000 0.000000
O O16 0.970699 0.252687 0.897745
O O17 0.500000 0.500000 0.000000
#
# Coordination Sequence:
#
# PCOD8041640 Si02
#       8
#     2   2   2   2   2   2   2   2
#     4  10  19  33  56  76 105 141 173 219 274 319
#     4   9  18  30  49  78 113 137 169 202 253 327
#     4  11  20  33  53  77 110 146 177 208 271 316
#     4   9  19  29  48  79 115 145 165 202 255 327
#     4   9  20  31  48  80 119 144 166 208 258 326
#     4  10  24  40  53  76 104 139 193 233 258 305
#     4   9  20  32  54  79 103 140 172 219 274 319
#     4   9  18  27  48  78 106 131 168 206 261 331
#
# _framework density 18.199587999999999
#
# number of rings (size 3 to 8) (size 9 to 14) (size 15 to 20)
#    0.750    1.750    1.250    0.375    5.250    5.000 
#    0.000    0.000    0.000    3.000    0.000    5.250 
#    0.000    0.000    0.000    0.000    0.000    0.000 
#
# Total GULP energy -198219.222023 kJ/mol
# GULP energy per Si atom -12388.701376 kJ/mol
# Density = 1.815816 g / cm^3
# Si number density = 18.199588 Si / 1000 Ang^3
#
#
#
# Elastic Constant Matrix: (Units=GPa)
#
#
# Indices 1 2 3 4 5 6 
#
# 1 97.2447 38.3470 31.8644 2.0583 -14.2326 4.2750
# 2 38.3470 98.5077 36.6282 4.1276 -6.7419 11.5553
# 3 31.8644 36.6282 64.3586 15.0571 -6.1985 3.9766
# 4 2.0583 4.1276 15.0571 24.0937 4.6980 -0.5162
# 5 -14.2326 -6.7419 -6.1985 4.6980 20.1123 3.8820
# 6 4.2750 11.5553 3.9766 -0.5162 3.8820 21.1631
#
#
#
# Elastic Compliance Matrix: (Units=1/GPa)
#
#
# Indices 1 2 3 4 5 6 
#
# 1 0.014210 -0.003135 -0.004533 0.000598 0.007800 -0.001723
# 2 -0.003135 0.014598 -0.006546 0.001418 0.001554 -0.006358
# 3 -0.004533 -0.006546 0.026068 -0.016152 0.006801 -0.002050
# 4 0.000598 0.001418 -0.016152 0.055009 -0.018247 0.006828
# 5 0.007800 0.001554 0.006801 -0.018247 0.065230 -0.016112
# 6 -0.001723 -0.006358 -0.002050 0.006828 -0.016112 0.054579
#
#
# Mechanical properties :
#
#
# Convention : Reuss Voigt Hill
#
# Bulk Modulus (GPa) = 37.80907 52.64334 45.22621
# Shear Modulus (GPa) = 18.73093 23.29191 21.01142
#
# Velocity S-wave (km/s) = 3.21159 3.58132 3.40148
# Velocity P-wave (km/s) = 5.87981 6.78892 6.35066
#
# Compressibility (1/GPa) = 0.02644868
#
# Stress axis : x y z
#
# Youngs Moduli (GPa) = 70.37394 68.50044 38.36080
#
# Poissons Ratio (x) = 0.21475 0.17390
# Poissons Ratio (y) = 0.22062 0.25109
# Poissons Ratio (z) = 0.31903 0.44837
#
# Static dielectric constant tensor:
#      x y z
#    x 3.350120 0.090460 0.096670 
#    y 0.090460 3.194510 0.193710 
#    z 0.096670 0.193710 3.199850 
# 
# 
# High freq. dielectric constant tensor:
#      x y z
#    x 1.703330 0.013130 -0.000590 
#    y 0.013130 1.675840 0.038460 
#    z -0.000590 0.038460 1.690130 
# 
# From -- ./inp_files/571172.got.cif
#   From: 2010.06.25/outbox.cif.g09.slc.cpg/sg2_286_cif.got.tgz:571172.got - 2010.06.27 13:26:56.
