data_PCOD8041251
_publ_section_title
;
Structure prediction by ZEFSAII (Michael W. Deem and Ramdas Pophale) SiO2 
 PCOD8041251
Probable space group: P -1
;
_chemical_formula_sum "Si O2"
_cell_formula_units_Z 16
_cell_length_a 8.087494
_cell_length_b 11.465729
_cell_length_c 20.166739
_cell_angle_alpha 50.825476
_cell_angle_beta 135.486627
_cell_angle_gamma 97.230834
_cell_volume 815.200556
_symmetry_space_group_name_H-M "P -1"
_symmetry_group_IT_number 2
_symmetry_cell_setting 'triclinic'
loop_
_space_group_symop_operation_xyz
x,y,z
-x,-y,-z
loop_
_atom_site_type_symbol
_atom_site_label
_atom_site_fract_x
_atom_site_fract_y
_atom_site_fract_z
Si Si1 0.050008 0.863783 0.846731
Si Si2 0.768907 0.484083 0.050472
Si Si3 0.564314 0.284764 0.249954
Si Si4 0.591826 0.802502 0.073133
Si Si5 0.684843 0.338708 0.881644
Si Si6 0.598314 0.170109 0.521174
Si Si7 0.880123 0.428470 0.785716
Si Si8 0.786823 0.962872 0.522036
O O1 0.020120 0.728037 0.840669
O O2 0.368690 0.826290 0.943318
O O3 0.034692 0.815995 0.936452
O O4 0.795181 0.078026 0.676889
O O5 0.654245 0.635726 0.903923
O O6 0.500000 0.500000 0.000000
O O7 0.957362 0.509228 0.145713
O O8 0.448204 0.450547 0.209867
O O9 0.890511 0.204546 0.349506
O O10 0.586040 0.113189 0.352495
O O11 0.567500 0.694458 0.167689
O O12 0.918365 0.690283 0.176664
O O13 0.500000 0.000000 0.000000
O O14 0.802880 0.310146 0.850485
O O15 0.345308 0.142903 0.455207
O O16 0.432807 0.392625 0.395254
O O17 0.802847 0.073042 0.549151
#
# Coordination Sequence:
#
# PCOD8041251 Si02
#       8
#     2   2   2   2   2   2   2   2
#     4   9  21  36  57  84 121 148 188 236 282 348
#     4  11  18  32  56  84 121 153 193 223 279 358
#     4  10  19  32  48  82 123 158 186 228 274 342
#     4  10  23  44  64  82 110 151 203 253 291 338
#     4   9  21  38  57  89 111 149 205 232 285 344
#     4  11  20  34  52  85 118 154 191 226 284 352
#     4  12  22  36  64  88 117 159 188 239 296 337
#     4  10  20  29  49  80 127 165 177 221 285 347
#
# _framework density 19.627072999999999
#
# number of rings (size 3 to 8) (size 9 to 14) (size 15 to 20)
#    0.750    1.000    2.500    3.750    1.750    1.500 
#    0.000    0.625    0.000    0.750    0.000    0.000 
#    0.000    0.000    0.000    0.000    0.000    0.000 
#
# Total GULP energy -198266.429559 kJ/mol
# GULP energy per Si atom -12391.651847 kJ/mol
# Density = 1.958240 g / cm^3
# Si number density = 19.627073 Si / 1000 Ang^3
#
#
#
# Elastic Constant Matrix: (Units=GPa)
#
#
# Indices 1 2 3 4 5 6 
#
# 1 119.4614 9.2148 30.9090 -7.5703 -9.8715 -10.3973
# 2 9.2148 31.0287 10.3255 -9.8113 -4.1717 -3.1572
# 3 30.9090 10.3255 128.8567 -2.9173 -12.2300 -11.0593
# 4 -7.5703 -9.8113 -2.9173 11.6911 0.7528 1.9004
# 5 -9.8715 -4.1717 -12.2300 0.7528 26.6297 -3.4804
# 6 -10.3973 -3.1572 -11.0593 1.9004 -3.4804 14.0797
#
#
#
# Elastic Compliance Matrix: (Units=1/GPa)
#
#
# Indices 1 2 3 4 5 6 
#
# 1 0.009905 0.000268 -0.001359 0.004986 0.003808 0.006576
# 2 0.000268 0.045803 -0.001843 0.036855 0.006113 0.005558
# 3 -0.001359 -0.001843 0.009231 -0.001568 0.004425 0.007140
# 4 0.004986 0.036855 -0.001568 0.119887 0.002891 -0.004753
# 5 0.003808 0.006113 0.004425 0.002891 0.044251 0.018207
# 6 0.006576 0.005558 0.007140 -0.004753 0.018207 0.087876
#
#
# Mechanical properties :
#
#
# Convention : Reuss Voigt Hill
#
# Bulk Modulus (GPa) = 16.92859 42.24949 29.58904
# Shear Modulus (GPa) = 14.59808 25.73994 20.16901
#
# Velocity S-wave (km/s) = 2.73018 3.62532 3.20912
# Velocity P-wave (km/s) = 4.31072 6.25275 5.37025
#
# Compressibility (1/GPa) = 0.05907166
#
# Stress axis : x y z
#
# Youngs Moduli (GPa) = 100.96245 21.83277 108.32597
#
# Poissons Ratio (x) = -0.00585 0.14718
# Poissons Ratio (y) = -0.02707 0.19965
# Poissons Ratio (z) = 0.13717 0.04024
#
# Static dielectric constant tensor:
#      x y z
#    x 3.819210 -0.062890 -0.141940 
#    y -0.062890 3.050060 -0.090810 
#    z -0.141940 -0.090810 3.692130 
# 
# 
# High freq. dielectric constant tensor:
#      x y z
#    x 1.774390 -0.003520 -0.008010 
#    y -0.003520 1.699610 -0.011180 
#    z -0.008010 -0.011180 1.772380 
# 
# From -- ./inp_files/213617.got.cif
#   From: 2010.06.25/outbox.cif.g09.slc.cpg/sg2_107_cif.got.tgz:213617.got - 2010.06.27 13:26:56.
