data_PCOD8041461
_publ_section_title
;
Structure prediction by ZEFSAII (Michael W. Deem and Ramdas Pophale) SiO2 
 PCOD8041461
Probable space group: P -1
;
_chemical_formula_sum "Si O2"
_cell_formula_units_Z 12
_cell_length_a 12.071411
_cell_length_b 9.783816
_cell_length_c 5.202500
_cell_angle_alpha 60.740904
_cell_angle_beta 116.387258
_cell_angle_gamma 87.723967
_cell_volume 453.503849
_symmetry_space_group_name_H-M "P -1"
_symmetry_group_IT_number 2
_symmetry_cell_setting 'triclinic'
loop_
_space_group_symop_operation_xyz
x,y,z
-x,-y,-z
loop_
_atom_site_type_symbol
_atom_site_label
_atom_site_fract_x
_atom_site_fract_y
_atom_site_fract_z
Si Si1 0.822449 0.329303 0.199968
Si Si2 0.895655 0.465963 0.664555
Si Si3 0.180496 0.202434 0.176696
Si Si4 0.456928 0.191229 0.343910
Si Si5 0.896031 0.836643 0.360928
Si Si6 0.448568 0.685970 0.177815
O O1 0.826264 0.405754 0.413407
O O2 0.954672 0.169692 0.433859
O O3 0.813297 0.462685 0.840221
O O4 0.701616 0.262365 0.114331
O O5 0.897998 0.649842 0.443016
O O6 0.047002 0.353320 0.970377
O O7 0.303868 0.263158 0.196536
O O8 0.200915 0.094828 0.562205
O O9 0.164160 0.075358 0.051126
O O10 0.540329 0.204514 0.667396
O O11 0.500000 0.000000 0.500000
O O12 0.472458 0.292293 0.014378
O O13 0.500000 0.500000 0.500000
#
# Coordination Sequence:
#
# PCOD8041461 Si02
#       6
#     2   2   2   2   2   2
#     4  10  20  35  56  92 139 158 210 273 360 377
#     4  10  19  32  60  90 134 171 206 280 342 398
#     4  10  20  35  61  91 121 168 238 259 321 394
#     4  12  28  50  70  94 142 196 231 267 335 431
#     4  10  19  32  60  92 131 170 209 282 339 396
#     4  12  28  44  71 105 138 180 227 295 345 387
#
# _framework density 26.460636000000001
#
# number of rings (size 3 to 8) (size 9 to 14) (size 15 to 20)
#    0.000    1.333    0.000    8.000    9.333    0.000 
#    0.000    0.000    0.000   24.000    0.000    0.000 
#    0.000    0.000    0.000    0.000    0.000    0.000 
#
# Total GULP energy -148725.840124 kJ/mol
# GULP energy per Si atom -12393.820010 kJ/mol
# Density = 2.640041 g / cm^3
# Si number density = 26.460636 Si / 1000 Ang^3
#
#
#
# Elastic Constant Matrix: (Units=GPa)
#
#
# Indices 1 2 3 4 5 6 
#
# 1 184.6937 52.7928 71.4901 35.7206 -10.6561 -5.5212
# 2 52.7928 82.2070 56.3693 33.2997 10.2648 -4.4432
# 3 71.4901 56.3693 116.8951 55.2533 -10.7399 -2.1740
# 4 35.7206 33.2997 55.2533 54.0446 -4.5071 -3.6048
# 5 -10.6561 10.2648 -10.7399 -4.5071 46.9711 23.8402
# 6 -5.5212 -4.4432 -2.1740 -3.6048 23.8402 25.9621
#
#
#
# Elastic Compliance Matrix: (Units=1/GPa)
#
#
# Indices 1 2 3 4 5 6 
#
# 1 0.007558 -0.003361 -0.002827 0.000077 0.002624 -0.001603
# 2 -0.003361 0.026563 -0.010390 -0.003798 -0.019746 0.020566
# 3 -0.002827 -0.010390 0.023692 -0.015840 0.012817 -0.014365
# 4 0.000077 -0.003798 -0.015840 0.037165 -0.001559 0.004632
# 5 0.002624 -0.019746 0.012817 -0.001559 0.056146 -0.053522
# 6 -0.001603 0.020566 -0.014365 0.004632 -0.053522 0.090284
#
#
# Mechanical properties :
#
#
# Convention : Reuss Voigt Hill
#
# Bulk Modulus (GPa) = 40.55777 82.78894 61.67335
# Shear Modulus (GPa) = 17.68136 38.93848 28.30992
#
# Velocity S-wave (km/s) = 2.58779 3.84026 3.27446
# Velocity P-wave (km/s) = 4.92846 7.14275 6.13631
#
# Compressibility (1/GPa) = 0.02465619
#
# Stress axis : x y z
#
# Youngs Moduli (GPa) = 132.31571 37.64649 42.20874
#
# Poissons Ratio (x) = 0.12652 0.11931
# Poissons Ratio (y) = 0.44469 0.43857
# Poissons Ratio (z) = 0.37402 0.39116
#
# Static dielectric constant tensor:
#      x y z
#    x 5.541290 -0.057980 -0.168720 
#    y -0.057980 4.669340 0.994980 
#    z -0.168720 0.994980 5.789040 
# 
# 
# High freq. dielectric constant tensor:
#      x y z
#    x 2.074780 -0.011880 -0.016040 
#    y -0.011880 2.034130 0.043260 
#    z -0.016040 0.043260 2.079130 
# 
# From -- ./inp_files/60257.got.cif
#   From: 2010.06.25/outbox.cif.g09.slc.cpg/sg2_31_cif.got.tgz:60257.got - 2010.06.27 13:26:56.
