data_PCOD8041386
_publ_section_title
;
Structure prediction by ZEFSAII (Michael W. Deem and Ramdas Pophale) SiO2 
 PCOD8041386
Probable space group: P -1
;
_chemical_formula_sum "Si O2"
_cell_formula_units_Z 16
_cell_length_a 12.098027
_cell_length_b 17.562608
_cell_length_c 21.218770
_cell_angle_alpha 160.343982
_cell_angle_beta 42.121750
_cell_angle_gamma 146.530963
_cell_volume 812.626488
_symmetry_space_group_name_H-M "P -1"
_symmetry_group_IT_number 2
_symmetry_cell_setting 'triclinic'
loop_
_space_group_symop_operation_xyz
x,y,z
-x,-y,-z
loop_
_atom_site_type_symbol
_atom_site_label
_atom_site_fract_x
_atom_site_fract_y
_atom_site_fract_z
Si Si1 0.999224 0.415156 0.030398
Si Si2 0.967493 0.878294 0.628224
Si Si3 0.326019 0.873144 0.163002
Si Si4 0.466663 0.496220 0.407465
Si Si5 0.932949 0.372929 0.514800
Si Si6 0.222908 0.389713 0.309319
Si Si7 0.198583 0.564834 0.746986
Si Si8 0.752741 0.073858 0.109344
O O1 0.806966 0.300488 0.976929
O O2 0.941563 0.439971 0.144151
O O3 0.063838 0.205268 0.837470
O O4 0.195590 0.722240 0.164001
O O5 0.128454 0.852424 0.579200
O O6 0.746473 0.699635 0.617617
O O7 0.936242 0.747603 0.470429
O O8 0.395022 0.191680 0.377630
O O9 0.524224 0.875109 0.080407
O O10 0.421429 0.517108 0.369533
O O11 0.589766 0.362256 0.256688
O O12 0.743766 0.375171 0.571841
O O13 0.020300 0.293325 0.358851
O O14 0.108087 0.685264 0.710921
O O15 0.168501 0.115082 0.081591
O O16 0.254521 0.801881 0.857424
#
# Coordination Sequence:
#
# PCOD8041386 Si02
#       8
#     2   2   2   2   2   2   2   2
#     4  11  24  36  54  81 119 149 180 220 279 338
#     4  10  19  37  56  81 111 145 179 234 272 319
#     4  11  22  39  51  83 121 146 177 230 276 322
#     4  11  19  36  58  81 116 143 184 232 269 322
#     4   9  19  34  56  85 112 137 184 239 269 312
#     4  10  19  32  55  87 109 143 180 233 278 315
#     4  11  20  34  59  84 106 149 185 218 276 332
#     4  11  20  36  59  86 112 141 186 231 270 326
#
# _framework density 19.689242
#
# number of rings (size 3 to 8) (size 9 to 14) (size 15 to 20)
#    0.000    1.500    5.000    3.750    0.000    2.000 
#    2.250    0.000    0.000    1.500    0.000    0.000 
#    0.000    0.000    0.000    0.000    0.000    0.000 
#
# Total GULP energy -198372.486719 kJ/mol
# GULP energy per Si atom -12398.280420 kJ/mol
# Density = 1.964443 g / cm^3
# Si number density = 19.689242 Si / 1000 Ang^3
#
#
#
# Elastic Constant Matrix: (Units=GPa)
#
#
# Indices 1 2 3 4 5 6 
#
# 1 99.9819 8.1849 5.8857 -6.5862 -12.4808 5.1167
# 2 8.1849 53.3669 16.8888 -3.6372 5.0556 -6.7709
# 3 5.8857 16.8888 71.6202 -19.3897 -13.1128 3.1217
# 4 -6.5862 -3.6372 -19.3897 26.0575 -1.4846 -4.0164
# 5 -12.4808 5.0556 -13.1128 -1.4846 31.9647 -7.4251
# 6 5.1167 -6.7709 3.1217 -4.0164 -7.4251 15.2555
#
#
#
# Elastic Compliance Matrix: (Units=1/GPa)
#
#
# Indices 1 2 3 4 5 6 
#
# 1 0.011120 -0.002739 0.001807 0.003806 0.005289 -0.001739
# 2 -0.002739 0.023001 -0.007036 -0.001565 -0.005460 0.009497
# 3 0.001807 -0.007036 0.022235 0.017051 0.012234 0.002165
# 4 0.003806 -0.001565 0.017051 0.055200 0.015108 0.016426
# 5 0.005289 -0.005460 0.012234 0.015108 0.044311 0.018843
# 6 -0.001739 0.009497 0.002165 0.016426 0.018843 0.083402
#
#
# Mechanical properties :
#
#
# Convention : Reuss Voigt Hill
#
# Bulk Modulus (GPa) = 24.74158 31.87643 28.30901
# Shear Modulus (GPa) = 18.60963 27.58951 23.09957
#
# Velocity S-wave (km/s) = 3.07769 3.74739 3.42893
# Velocity P-wave (km/s) = 5.02224 5.91175 5.48506
#
# Compressibility (1/GPa) = 0.04041778
#
# Stress axis : x y z
#
# Youngs Moduli (GPa) = 89.93102 43.47708 44.97430
#
# Poissons Ratio (x) = 0.11910 -0.08125
# Poissons Ratio (y) = 0.24636 0.31644
# Poissons Ratio (z) = -0.16248 0.30590
#
# Static dielectric constant tensor:
#      x y z
#    x 4.071530 -0.098940 -0.145020 
#    y -0.098940 3.188500 -0.192500 
#    z -0.145020 -0.192500 3.677190 
# 
# 
# High freq. dielectric constant tensor:
#      x y z
#    x 1.780280 -0.010310 -0.007420 
#    y -0.010310 1.716110 -0.024460 
#    z -0.007420 -0.024460 1.774460 
# 
# From -- ./inp_files/337659.got.cif
#   From: 2010.06.25/outbox.cif.g09.slc.cpg/sg2_169_cif.got.tgz:337659.got - 2010.06.27 13:26:56.
