data_PCOD8041620
_publ_section_title
;
Structure prediction by ZEFSAII (Michael W. Deem and Ramdas Pophale) SiO2 
 PCOD8041620
Probable space group: P -1
;
_chemical_formula_sum "Si O2"
_cell_formula_units_Z 16
_cell_length_a 8.837674
_cell_length_b 11.651162
_cell_length_c 14.041957
_cell_angle_alpha 123.255664
_cell_angle_beta 52.059624
_cell_angle_gamma 93.621625
_cell_volume 867.364026
_symmetry_space_group_name_H-M "P -1"
_symmetry_group_IT_number 2
_symmetry_cell_setting 'triclinic'
loop_
_space_group_symop_operation_xyz
x,y,z
-x,-y,-z
loop_
_atom_site_type_symbol
_atom_site_label
_atom_site_fract_x
_atom_site_fract_y
_atom_site_fract_z
Si Si1 0.311096 0.963076 0.092014
Si Si2 0.039734 0.716785 0.618457
Si Si3 0.447979 0.661931 0.549731
Si Si4 0.545815 0.313798 0.957571
Si Si5 0.793443 0.514540 0.209054
Si Si6 0.255454 0.470725 0.985424
Si Si7 0.771480 0.553225 0.702627
Si Si8 0.374639 0.731717 0.811254
O O1 0.380602 0.854823 0.108324
O O2 0.114729 0.112093 0.268094
O O3 0.252417 0.882323 0.989012
O O4 0.500000 0.000000 0.000000
O O5 0.929149 0.635257 0.690885
O O6 0.238246 0.722163 0.596344
O O7 0.104498 0.622847 0.452073
O O8 0.500000 0.500000 0.500000
O O9 0.642648 0.647724 0.399258
O O10 0.409595 0.772224 0.706553
O O11 0.453043 0.331493 0.894626
O O12 0.732079 0.369934 0.923295
O O13 0.348056 0.434968 0.147833
O O14 0.725161 0.565837 0.150558
O O15 0.769225 0.360865 0.170884
O O16 0.034386 0.484227 0.119514
O O17 0.606008 0.635119 0.719910
#
# Coordination Sequence:
#
# PCOD8041620 Si02
#       8
#     2   2   2   2   2   2   2   2
#     4  11  21  36  55  85 125 144 180 236 302 334
#     4  11  20  32  57  82 116 153 173 234 296 333
#     4  10  20  33  55  84 115 140 190 234 284 335
#     4  10  20  37  56  87 110 149 196 235 267 344
#     4  10  19  35  57  89 108 147 191 245 270 320
#     4  10  20  34  61  83 111 152 199 232 271 319
#     4  10  19  33  55  83 112 145 193 224 274 338
#     4  10  19  36  55  86 120 141 183 240 285 345
#
# _framework density 18.446694999999998
#
# number of rings (size 3 to 8) (size 9 to 14) (size 15 to 20)
#    0.000    1.750    7.500    0.000    3.500    0.500 
#    0.000    0.000    0.000    7.500    0.000    0.000 
#    0.000    0.000    0.000    0.000    0.000    0.000 
#
# Total GULP energy -198323.001553 kJ/mol
# GULP energy per Si atom -12395.187597 kJ/mol
# Density = 1.840471 g / cm^3
# Si number density = 18.446695 Si / 1000 Ang^3
#
#
#
# Elastic Constant Matrix: (Units=GPa)
#
#
# Indices 1 2 3 4 5 6 
#
# 1 65.9577 26.7348 23.6767 -7.4873 -2.9999 0.3440
# 2 26.7348 77.5972 37.1179 5.4040 -1.3256 -4.0022
# 3 23.6767 37.1179 106.2032 6.9208 0.8398 -0.5345
# 4 -7.4873 5.4040 6.9208 37.5168 2.5475 -5.0813
# 5 -2.9999 -1.3256 0.8398 2.5475 27.5712 -4.5947
# 6 0.3440 -4.0022 -0.5345 -5.0813 -4.5947 28.5732
#
#
#
# Elastic Compliance Matrix: (Units=1/GPa)
#
#
# Indices 1 2 3 4 5 6 
#
# 1 0.019008 -0.005622 -0.002609 0.004995 0.001425 0.000052
# 2 -0.005622 0.017346 -0.004640 -0.002543 0.000950 0.002111
# 3 -0.002609 -0.004640 0.011757 -0.002088 -0.000823 -0.000902
# 4 0.004995 -0.002543 -0.002088 0.029110 -0.001457 0.004487
# 5 0.001425 0.000950 -0.000823 -0.001457 0.037612 0.005890
# 6 0.000052 0.002111 -0.000902 0.004487 0.005890 0.037021
#
#
# Mechanical properties :
#
#
# Convention : Reuss Voigt Hill
#
# Bulk Modulus (GPa) = 44.70503 47.20186 45.95345
# Shear Modulus (GPa) = 27.01943 29.54748 28.28346
#
# Velocity S-wave (km/s) = 3.83133 4.00656 3.91993
# Velocity P-wave (km/s) = 6.62265 6.85909 6.74191
#
# Compressibility (1/GPa) = 0.02236885
#
# Stress axis : x y z
#
# Youngs Moduli (GPa) = 52.60934 57.65118 85.05275
#
# Poissons Ratio (x) = 0.32409 0.22194
# Poissons Ratio (y) = 0.29575 0.39466
# Poissons Ratio (z) = 0.13728 0.26751
#
# Static dielectric constant tensor:
#      x y z
#    x 3.694240 -0.070760 0.179820 
#    y -0.070760 3.402350 -0.185250 
#    z 0.179820 -0.185250 3.710410 
# 
# 
# High freq. dielectric constant tensor:
#      x y z
#    x 1.723770 0.000010 -0.002130 
#    y 0.000010 1.686590 -0.020330 
#    z -0.002130 -0.020330 1.706230 
# 
# From -- ./inp_files/253615.got.cif
#   From: 2010.06.25/outbox.cif.g09.slc.cpg/sg2_127_cif.got.tgz:253615.got - 2010.06.27 13:26:56.
