data_PCOD8041941
_publ_section_title
;
Structure prediction by ZEFSAII (Michael W. Deem and Ramdas Pophale) SiO2 
 PCOD8041941
Probable space group: P -1
;
_chemical_formula_sum "Si O2"
_cell_formula_units_Z 16
_cell_length_a 23.922996
_cell_length_b 16.455834
_cell_length_c 5.435444
_cell_angle_alpha 124.682884
_cell_angle_beta 119.923691
_cell_angle_gamma 24.204720
_cell_volume 720.132106
_symmetry_space_group_name_H-M "P -1"
_symmetry_group_IT_number 2
_symmetry_cell_setting 'triclinic'
loop_
_space_group_symop_operation_xyz
x,y,z
-x,-y,-z
loop_
_atom_site_type_symbol
_atom_site_label
_atom_site_fract_x
_atom_site_fract_y
_atom_site_fract_z
Si Si1 0.130650 0.753532 0.884123
Si Si2 0.135518 0.383035 0.617147
Si Si3 0.432600 0.656176 0.348452
Si Si4 0.048387 0.547756 0.210084
Si Si5 0.332383 0.948960 0.265669
Si Si6 0.414209 0.473210 0.100914
Si Si7 0.174929 0.022580 0.712062
Si Si8 0.960894 0.166892 0.680438
O O1 0.135301 0.685543 0.520249
O O2 0.263038 0.642492 0.012884
O O3 0.117051 0.701511 0.006694
O O4 0.000000 0.000000 0.000000
O O5 0.145092 0.430264 0.460963
O O6 0.000000 0.500000 0.500000
O O7 0.275147 0.132500 0.534763
O O8 0.124920 0.469150 0.981825
O O9 0.358210 0.844596 0.373492
O O10 0.456746 0.506609 0.050085
O O11 0.561366 0.521067 0.557044
O O12 0.309214 0.789753 0.495660
O O13 0.925253 0.792749 0.393765
O O14 0.000000 0.500000 0.000000
O O15 0.477803 0.760921 0.117202
O O16 0.214596 0.060876 0.035453
O O17 0.098347 0.044227 0.745549
O O18 0.000000 0.000000 0.500000
#
# Coordination Sequence:
#
# PCOD8041941 Si02
#       8
#     2   2   2   2   2   2   2   2
#     4  10  22  41  58  78 110 157 208 246 280 330
#     4  10  19  34  54  84 123 149 188 234 295 371
#     4  10  21  36  54  85 125 158 199 234 312 368
#     4  10  19  34  54  87 123 148 188 242 300 364
#     4  11  22  33  59  87 124 160 190 240 313 371
#     4  10  23  37  55  84 119 164 200 250 294 362
#     4  11  22  34  60  90 122 159 194 249 302 360
#     4  10  23  37  58  85 113 159 204 246 281 335
#
# _framework density 22.218147999999999
#
# number of rings (size 3 to 8) (size 9 to 14) (size 15 to 20)
#    0.000    1.750    2.500    3.375    8.750    0.000 
#    0.000    0.000    0.000    0.000    0.000    5.250 
#    0.000    0.000    0.000    0.000    0.000    0.000 
#
# Total GULP energy -198221.298095 kJ/mol
# GULP energy per Si atom -12388.831131 kJ/mol
# Density = 2.216758 g / cm^3
# Si number density = 22.218148 Si / 1000 Ang^3
#
#
#
# Elastic Constant Matrix: (Units=GPa)
#
#
# Indices 1 2 3 4 5 6 
#
# 1 54.8391 23.9943 8.8177 -18.1612 -22.4144 -1.7129
# 2 23.9943 126.0170 30.9798 -12.9716 0.5996 5.6129
# 3 8.8177 30.9798 79.8954 -21.3640 -30.4181 2.8494
# 4 -18.1612 -12.9716 -21.3640 23.0859 15.4542 4.6959
# 5 -22.4144 0.5996 -30.4181 15.4542 36.1714 -12.6571
# 6 -1.7129 5.6129 2.8494 4.6959 -12.6571 42.1121
#
#
#
# Elastic Compliance Matrix: (Units=1/GPa)
#
#
# Indices 1 2 3 4 5 6 
#
# 1 0.041879 -0.011838 0.018559 0.014060 0.040128 0.012519
# 2 -0.011838 0.013793 -0.010685 0.004764 -0.021601 -0.008621
# 3 0.018559 -0.010685 0.031120 0.010826 0.036683 0.009892
# 4 0.014060 0.004764 0.010826 0.088797 -0.026758 -0.018739
# 5 0.040128 -0.021601 0.036683 -0.026758 0.108295 0.037562
# 6 0.012519 -0.008621 0.009892 -0.018739 0.037562 0.038114
#
#
# Mechanical properties :
#
#
# Convention : Reuss Voigt Hill
#
# Bulk Modulus (GPa) = 12.67988 43.14835 27.91412
# Shear Modulus (GPa) = 14.03652 33.40452 23.72052
#
# Velocity S-wave (km/s) = 2.51621 3.88168 3.27099
# Velocity P-wave (km/s) = 3.76313 6.28907 5.18235
#
# Compressibility (1/GPa) = 0.07886511
#
# Stress axis : x y z
#
# Youngs Moduli (GPa) = 23.87809 72.49913 32.13410
#
# Poissons Ratio (x) = 0.85823 -0.59638
# Poissons Ratio (y) = 0.28267 0.34335
# Poissons Ratio (z) = -0.44316 0.77464
#
# Static dielectric constant tensor:
#      x y z
#    x 3.881540 0.092870 -0.504320 
#    y 0.092870 3.914350 0.192760 
#    z -0.504320 0.192760 4.160200 
# 
# 
# High freq. dielectric constant tensor:
#      x y z
#    x 1.851910 0.020920 -0.039280 
#    y 0.020920 1.863430 0.009520 
#    z -0.039280 0.009520 1.877580 
# 
# From -- ./inp_files/93415.got.cif
#   From: 2010.06.25/outbox.cif.g09.slc.cpg/sg2_47_cif.got.tgz:93415.got - 2010.06.27 13:26:56.
