data_PCOD8041172
_publ_section_title
;
Structure prediction by ZEFSAII (Michael W. Deem and Ramdas Pophale) SiO2 
 PCOD8041172
Probable space group: P -1
;
_chemical_formula_sum "Si O2"
_cell_formula_units_Z 14
_cell_length_a 8.061957
_cell_length_b 14.103418
_cell_length_c 12.848304
_cell_angle_alpha 126.120033
_cell_angle_beta 78.387752
_cell_angle_gamma 136.971179
_cell_volume 732.034648
_symmetry_space_group_name_H-M "P -1"
_symmetry_group_IT_number 2
_symmetry_cell_setting 'triclinic'
loop_
_space_group_symop_operation_xyz
x,y,z
-x,-y,-z
loop_
_atom_site_type_symbol
_atom_site_label
_atom_site_fract_x
_atom_site_fract_y
_atom_site_fract_z
Si Si1 0.240894 0.029447 0.197244
Si Si2 0.450954 0.679071 0.815271
Si Si3 0.832834 0.294448 0.656252
Si Si4 0.667103 0.683957 0.977762
Si Si5 0.570769 0.985151 0.640685
Si Si6 0.751986 0.474344 0.912517
Si Si7 0.354061 0.840839 0.068981
O O1 0.287833 0.042049 0.324902
O O2 0.318051 0.945357 0.079416
O O3 0.423624 0.231392 0.256785
O O4 0.932336 0.889505 0.120149
O O5 0.624671 0.675801 0.853553
O O6 0.144995 0.477511 0.712347
O O7 0.496067 0.823624 0.967400
O O8 0.781626 0.148750 0.635269
O O9 0.699250 0.334806 0.755181
O O10 0.691447 0.206138 0.505045
O O11 0.662147 0.542946 0.907191
O O12 0.420765 0.622636 0.022687
O O13 0.485296 0.045144 0.769909
O O14 0.060740 0.640412 0.014272
#
# Coordination Sequence:
#
# PCOD8041172 Si02
#       7
#     2   2   2   2   2   2   2
#     4   9  20  34  50  77 109 133 162 210 256 302
#     4  11  19  31  58  79 100 132 174 205 255 299
#     4  10  20  34  56  78  97 135 173 213 247 302
#     4  10  19  31  53  78 107 131 165 214 251 299
#     4   9  19  35  53  75 107 127 171 212 257 290
#     4   9  18  33  53  79 100 132 173 209 253 290
#     4   8  17  33  53  77 101 129 168 215 249 291
#
# _framework density 19.124776000000001
#
# number of rings (size 3 to 8) (size 9 to 14) (size 15 to 20)
#    0.857    1.714    0.000    2.571    2.000    2.857 
#    0.000    0.714    3.143    0.857    0.000    0.000 
#    0.000    0.000    0.000    0.000    0.000    0.000 
#
# Total GULP energy -173475.240847 kJ/mol
# GULP energy per Si atom -12391.088632 kJ/mol
# Density = 1.908125 g / cm^3
# Si number density = 19.124776 Si / 1000 Ang^3
#
#
#
# Elastic Constant Matrix: (Units=GPa)
#
#
# Indices 1 2 3 4 5 6 
#
# 1 52.9878 32.0958 31.5445 -2.4432 19.7276 -2.0125
# 2 32.0958 119.5715 33.4329 1.4951 25.6493 -16.7758
# 3 31.5445 33.4329 115.4837 8.4874 22.7964 -8.1529
# 4 -2.4432 1.4951 8.4874 19.8019 -0.1484 4.7251
# 5 19.7276 25.6493 22.7964 -0.1484 28.1526 -5.2136
# 6 -2.0125 -16.7758 -8.1529 4.7251 -5.2136 17.2801
#
#
#
# Elastic Compliance Matrix: (Units=1/GPa)
#
#
# Indices 1 2 3 4 5 6 
#
# 1 0.030606 -0.005287 -0.005462 0.009008 -0.014175 -0.010885
# 2 -0.005287 0.012626 0.000032 -0.004308 -0.005793 0.011086
# 3 -0.005462 0.000032 0.012042 -0.007199 -0.004964 0.005547
# 4 0.009008 -0.004308 -0.007199 0.060568 -0.000545 -0.023256
# 5 -0.014175 -0.005793 -0.004964 -0.000545 0.056132 0.007467
# 6 -0.010885 0.011086 0.005547 -0.023256 0.007467 0.078595
#
#
# Mechanical properties :
#
#
# Convention : Reuss Voigt Hill
#
# Bulk Modulus (GPa) = 29.55091 53.57660 41.56375
# Shear Modulus (GPa) = 17.65030 25.77824 21.71427
#
# Velocity S-wave (km/s) = 3.04123 3.67536 3.37323
# Velocity P-wave (km/s) = 5.27421 6.78867 6.07879
#
# Compressibility (1/GPa) = 0.03383991
#
# Stress axis : x y z
#
# Youngs Moduli (GPa) = 32.67369 79.20471 83.04013
#
# Poissons Ratio (x) = 0.41878 0.45353
# Poissons Ratio (y) = 0.17275 -0.00266
# Poissons Ratio (z) = 0.17845 -0.00254
#
# Static dielectric constant tensor:
#      x y z
#    x 3.314710 -0.205440 0.089920 
#    y -0.205440 3.469920 0.042350 
#    z 0.089920 0.042350 3.300630 
# 
# 
# High freq. dielectric constant tensor:
#      x y z
#    x 1.727260 -0.020070 0.019720 
#    y -0.020070 1.745190 0.005380 
#    z 0.019720 0.005380 1.717420 
# 
# From -- ./inp_files/310006.got.cif
#   From: 2010.06.25/outbox.cif.g09.slc.cpg/sg2_156_cif.got.tgz:310006.got - 2010.06.27 13:26:56.
