data_PCOD8041549
_publ_section_title
;
Structure prediction by ZEFSAII (Michael W. Deem and Ramdas Pophale) SiO2 
 PCOD8041549
Probable space group: P -1
;
_chemical_formula_sum "Si O2"
_cell_formula_units_Z 16
_cell_length_a 8.787597
_cell_length_b 16.242885
_cell_length_c 18.810661
_cell_angle_alpha 157.054809
_cell_angle_beta 124.982911
_cell_angle_gamma 49.377466
_cell_volume 791.358513
_symmetry_space_group_name_H-M "P -1"
_symmetry_group_IT_number 2
_symmetry_cell_setting 'triclinic'
loop_
_space_group_symop_operation_xyz
x,y,z
-x,-y,-z
loop_
_atom_site_type_symbol
_atom_site_label
_atom_site_fract_x
_atom_site_fract_y
_atom_site_fract_z
Si Si1 0.073155 0.888739 0.742207
Si Si2 0.853067 0.388916 0.705556
Si Si3 0.728275 0.082642 0.330493
Si Si4 0.722401 0.812859 0.903376
Si Si5 0.750071 0.590345 0.134994
Si Si6 0.294578 0.383017 0.011077
Si Si7 0.650941 0.590874 0.573576
Si Si8 0.348961 0.791152 0.123340
O O1 0.155212 0.896029 0.691382
O O2 0.174460 0.627081 0.590060
O O3 0.831342 0.960351 0.732863
O O4 0.122878 0.062790 0.945580
O O5 0.810367 0.178376 0.495218
O O6 0.750794 0.617489 0.813659
O O7 0.095007 0.311838 0.711774
O O8 0.758967 0.432101 0.793692
O O9 0.485479 0.222207 0.370796
O O10 0.774360 0.819501 0.145784
O O11 0.754970 0.704963 0.747802
O O12 0.500000 0.000000 0.000000
O O13 0.820620 0.504223 0.003924
O O14 0.520304 0.783898 0.222174
O O15 0.755631 0.380990 0.018385
O O16 0.536414 0.284920 0.982156
O O17 0.500000 0.500000 0.500000
#
# Coordination Sequence:
#
# PCOD8041549 Si02
#       8
#     2   2   2   2   2   2   2   2
#     4  11  19  35  59  84 114 149 191 234 280 336
#     4  12  20  34  61  88 112 148 191 239 285 332
#     4  11  21  35  59  90 115 144 190 239 287 333
#     4  12  18  31  60  89 109 145 189 238 282 323
#     4   9  20  39  60  83 109 153 203 230 278 343
#     4  10  21  38  58  81 122 148 185 240 290 330
#     4  10  19  33  53  90 115 142 188 238 275 334
#     4   9  20  38  61  80 111 159 190 232 288 341
#
# _framework density 20.218397
#
# number of rings (size 3 to 8) (size 9 to 14) (size 15 to 20)
#    0.750    0.750    7.500    0.375    0.000    0.500 
#    0.000    3.750    0.000    5.250    0.000    0.000 
#    0.000    0.000    0.000    0.000    0.000    0.000 
#
# Total GULP energy -198289.919714 kJ/mol
# GULP energy per Si atom -12393.119982 kJ/mol
# Density = 2.017238 g / cm^3
# Si number density = 20.218397 Si / 1000 Ang^3
#
#
#
# Elastic Constant Matrix: (Units=GPa)
#
#
# Indices 1 2 3 4 5 6 
#
# 1 59.8183 28.5072 21.7290 -7.3574 -1.9527 -12.8268
# 2 28.5072 76.2781 23.4380 -20.2756 -2.5652 -29.9298
# 3 21.7290 23.4380 97.4919 -27.3570 -13.6221 -1.9987
# 4 -7.3574 -20.2756 -27.3570 30.3670 2.3122 -8.5703
# 5 -1.9527 -2.5652 -13.6221 2.3122 10.8253 7.1581
# 6 -12.8268 -29.9298 -1.9987 -8.5703 7.1581 34.0703
#
#
#
# Elastic Compliance Matrix: (Units=1/GPa)
#
#
# Indices 1 2 3 4 5 6 
#
# 1 0.021513 -0.005894 -0.004378 -0.001337 -0.004970 0.003373
# 2 -0.005894 0.065902 -0.001332 0.069970 -0.058612 0.085511
# 3 -0.004378 -0.001332 0.017579 0.011378 0.020759 -0.003287
# 4 -0.001337 0.069970 0.011378 0.124885 -0.066827 0.107085
# 5 -0.004970 -0.058612 0.020759 -0.066827 0.189973 -0.108865
# 6 0.003373 0.085511 -0.003287 0.107085 -0.108865 0.155357
#
#
# Mechanical properties :
#
#
# Convention : Reuss Voigt Hill
#
# Bulk Modulus (GPa) = 12.22709 42.32632 27.27670
# Shear Modulus (GPa) = 7.99129 25.71347 16.85238
#
# Velocity S-wave (km/s) = 1.99024 3.57008 2.89020
# Velocity P-wave (km/s) = 3.36780 6.16230 4.96568
#
# Compressibility (1/GPa) = 0.08178564
#
# Stress axis : x y z
#
# Youngs Moduli (GPa) = 46.48342 15.17398 56.88469
#
# Poissons Ratio (x) = 0.08943 0.24907
# Poissons Ratio (y) = 0.27397 0.07579
# Poissons Ratio (z) = 0.20353 0.02022
#
# Static dielectric constant tensor:
#      x y z
#    x 3.444830 -0.185820 -0.090460 
#    y -0.185820 4.196930 0.014460 
#    z -0.090460 0.014460 3.653970 
# 
# 
# High freq. dielectric constant tensor:
#      x y z
#    x 1.759500 -0.016540 -0.001150 
#    y -0.016540 1.803100 0.002320 
#    z -0.001150 0.002320 1.768800 
# 
# From -- ./inp_files/591265.got.cif
#   From: 2010.06.25/outbox.cif.g09.slc.cpg/sg2_296_cif.got.tgz:591265.got - 2010.06.27 13:26:56.
