data_PCOD8041517
_publ_section_title
;
Structure prediction by ZEFSAII (Michael W. Deem and Ramdas Pophale) SiO2 
 PCOD8041517
Probable space group: P -1
;
_chemical_formula_sum "Si O2"
_cell_formula_units_Z 16
_cell_length_a 15.292931
_cell_length_b 11.220633
_cell_length_c 9.310896
_cell_angle_alpha 118.083045
_cell_angle_beta 139.155205
_cell_angle_gamma 79.458820
_cell_volume 879.404237
_symmetry_space_group_name_H-M "P -1"
_symmetry_group_IT_number 2
_symmetry_cell_setting 'triclinic'
loop_
_space_group_symop_operation_xyz
x,y,z
-x,-y,-z
loop_
_atom_site_type_symbol
_atom_site_label
_atom_site_fract_x
_atom_site_fract_y
_atom_site_fract_z
Si Si1 0.915079 0.301001 0.835236
Si Si2 0.921580 0.279834 0.499666
Si Si3 0.647139 0.683991 0.887082
Si Si4 0.859442 0.971084 0.215797
Si Si5 0.043565 0.978087 0.199502
Si Si6 0.173363 0.467168 0.443491
Si Si7 0.822174 0.712552 0.376546
Si Si8 0.327175 0.559663 0.416192
O O1 0.967495 0.300400 0.735815
O O2 0.879655 0.143200 0.766306
O O3 0.776713 0.350118 0.702546
O O4 0.036563 0.405479 0.139357
O O5 0.836281 0.388454 0.412534
O O6 0.056174 0.315573 0.584900
O O7 0.821245 0.119375 0.255760
O O8 0.483786 0.663529 0.650875
O O9 0.699970 0.576027 0.795658
O O10 0.730915 0.845237 0.042667
O O11 0.678175 0.655689 0.076032
O O12 0.897931 0.932433 0.082070
O O13 0.000000 0.000000 0.500000
O O14 0.150520 0.120916 0.473556
O O15 0.000000 0.000000 0.000000
O O16 0.190850 0.361268 0.527292
O O17 0.306356 0.504362 0.523512
#
# Coordination Sequence:
#
# PCOD8041517 Si02
#       8
#     2   2   2   2   2   2   2   2
#     4  11  19  35  57  81 116 140 191 230 270 323
#     4  10  19  33  52  85 110 140 185 226 275 320
#     4  11  21  41  57  80 112 149 193 219 276 332
#     4  11  19  34  60  79 107 146 185 230 270 324
#     4  11  20  33  54  91 109 140 180 232 285 322
#     4  11  21  33  56  86 113 143 182 234 278 318
#     4  11  20  33  57  85 114 146 177 231 281 324
#     4  10  24  37  59  80 110 155 185 228 268 330
#
# _framework density 18.194136
#
# number of rings (size 3 to 8) (size 9 to 14) (size 15 to 20)
#    0.000    1.250    5.000    4.125    0.000    0.500 
#    0.000    5.625    0.000    0.750    0.000    0.000 
#    0.000    0.000    0.000    0.000    0.000    0.000 
#
# Total GULP energy -198369.400679 kJ/mol
# GULP energy per Si atom -12398.087542 kJ/mol
# Density = 1.815273 g / cm^3
# Si number density = 18.194136 Si / 1000 Ang^3
#
#
#
# Elastic Constant Matrix: (Units=GPa)
#
#
# Indices 1 2 3 4 5 6 
#
# 1 90.5005 52.5714 39.8900 0.4045 -6.6777 1.2136
# 2 52.5714 121.2402 32.7411 14.2760 4.9552 3.2012
# 3 39.8900 32.7411 69.1018 12.1680 2.0077 0.7902
# 4 0.4045 14.2760 12.1680 26.4221 5.9766 -7.2273
# 5 -6.6777 4.9552 2.0077 5.9766 23.4120 0.0742
# 6 1.2136 3.2012 0.7902 -7.2273 0.0742 31.4488
#
#
#
# Elastic Compliance Matrix: (Units=1/GPa)
#
#
# Indices 1 2 3 4 5 6 
#
# 1 0.019768 -0.007142 -0.009462 0.007011 0.006166 0.001798
# 2 -0.007142 0.012422 -0.000531 -0.006344 -0.002993 -0.002426
# 3 -0.009462 -0.000531 0.022017 -0.009930 -0.001932 -0.002412
# 4 0.007011 -0.006344 -0.009930 0.051146 -0.008902 0.012400
# 5 0.006166 -0.002993 -0.001932 -0.008902 0.047550 -0.002043
# 6 0.001798 -0.002426 -0.002412 0.012400 -0.002043 0.034890
#
#
# Mechanical properties :
#
#
# Convention : Reuss Voigt Hill
#
# Bulk Modulus (GPa) = 50.15520 59.02749 54.59135
# Shear Modulus (GPa) = 21.86185 26.63258 24.24721
#
# Velocity S-wave (km/s) = 3.47015 3.83011 3.65457
# Velocity P-wave (km/s) = 6.60927 7.21618 6.91938
#
# Compressibility (1/GPa) = 0.01993811
#
# Stress axis : x y z
#
# Youngs Moduli (GPa) = 50.58621 80.50497 45.41851
#
# Poissons Ratio (x) = 0.57493 0.42975
# Poissons Ratio (y) = 0.36126 0.02412
# Poissons Ratio (z) = 0.47865 0.04275
#
# Static dielectric constant tensor:
#      x y z
#    x 3.553250 -0.034140 -0.336790 
#    y -0.034140 3.727580 0.262170 
#    z -0.336790 0.262170 3.298770 
# 
# 
# High freq. dielectric constant tensor:
#      x y z
#    x 1.700510 0.001920 -0.026820 
#    y 0.001920 1.717610 0.018700 
#    z -0.026820 0.018700 1.685140 
# 
# From -- ./inp_files/271044.got.cif
#   From: 2010.06.25/outbox.cif.g09.slc.cpg/sg2_136_cif.got.tgz:271044.got - 2010.06.27 13:26:56.
