data_PCOD8041279
_publ_section_title
;
Structure prediction by ZEFSAII (Michael W. Deem and Ramdas Pophale) SiO2 
 PCOD8041279
Probable space group: P -1
;
_chemical_formula_sum "Si O2"
_cell_formula_units_Z 16
_cell_length_a 9.418617
_cell_length_b 15.840027
_cell_length_c 14.835793
_cell_angle_alpha 50.623772
_cell_angle_beta 86.615579
_cell_angle_gamma 44.597793
_cell_volume 829.217750
_symmetry_space_group_name_H-M "P -1"
_symmetry_group_IT_number 2
_symmetry_cell_setting 'triclinic'
loop_
_space_group_symop_operation_xyz
x,y,z
-x,-y,-z
loop_
_atom_site_type_symbol
_atom_site_label
_atom_site_fract_x
_atom_site_fract_y
_atom_site_fract_z
Si Si1 0.993043 0.767038 0.274963
Si Si2 0.500966 0.279129 0.512668
Si Si3 0.818851 0.938790 0.975082
Si Si4 0.390254 0.436847 0.224013
Si Si5 0.585014 0.506661 0.080812
Si Si6 0.537665 0.912740 0.263103
Si Si7 0.991303 0.011901 0.804601
Si Si8 0.038349 0.596233 0.967219
O O1 0.819328 0.800389 0.322372
O O2 0.290972 0.514084 0.399935
O O3 0.073316 0.817046 0.298646
O O4 0.786398 0.946081 0.078592
O O5 0.526002 0.268819 0.410169
O O6 0.377912 0.242727 0.567879
O O7 0.823695 0.077982 0.678294
O O8 0.529349 0.088848 0.833597
O O9 0.867939 0.032791 0.883895
O O10 0.086949 0.689473 0.097414
O O11 0.616768 0.386402 0.233623
O O12 0.307861 0.422546 0.146984
O O13 0.878366 0.380556 0.136708
O O14 0.500000 0.500000 0.000000
O O15 0.334291 0.759708 0.949380
O O16 0.266344 0.161626 0.143982
O O17 0.000000 0.500000 0.000000
#
# Coordination Sequence:
#
# PCOD8041279 Si02
#       8
#     2   2   2   2   2   2   2   2
#     4  11  19  31  51  76 102 131 164 204 243 287
#     4  10  20  35  49  71 106 136 159 193 245 308
#     4   8  17  32  51  72  98 130 167 202 242 292
#     4   8  17  33  53  72  96 130 166 198 242 300
#     4   9  17  34  55  73  94 128 168 206 244 287
#     4  10  20  34  51  73 101 137 166 193 244 305
#     4  10  19  32  51  77 100 127 166 209 246 283
#     4  10  19  35  55  76  97 123 165 217 248 274
#
# _framework density 19.295297000000001
#
# number of rings (size 3 to 8) (size 9 to 14) (size 15 to 20)
#    0.000    2.500    0.000    4.500    0.000    0.000 
#    0.000    7.500    0.000    0.000    0.000    0.000 
#    0.000    0.000    0.000    0.000    0.000    0.000 
#
# Total GULP energy -198336.650165 kJ/mol
# GULP energy per Si atom -12396.040635 kJ/mol
# Density = 1.925138 g / cm^3
# Si number density = 19.295297 Si / 1000 Ang^3
#
#
#
# Elastic Constant Matrix: (Units=GPa)
#
#
# Indices 1 2 3 4 5 6 
#
# 1 119.9927 27.8501 16.0931 16.0932 -17.3778 -0.5902
# 2 27.8501 55.3777 10.5409 7.4992 -6.9299 -0.0393
# 3 16.0931 10.5409 58.0928 26.5427 -13.4192 -1.1906
# 4 16.0932 7.4992 26.5427 29.0429 -7.9676 -7.5500
# 5 -17.3778 -6.9299 -13.4192 -7.9676 23.6416 -3.4036
# 6 -0.5902 -0.0393 -1.1906 -7.5500 -3.4036 30.0796
#
#
#
# Elastic Compliance Matrix: (Units=1/GPa)
#
#
# Indices 1 2 3 4 5 6 
#
# 1 0.010562 -0.004233 0.001090 -0.004241 0.005686 -0.000176
# 2 -0.004233 0.020866 -0.001772 -0.001029 0.001623 -0.000201
# 3 0.001090 -0.001772 0.032015 -0.028450 0.008156 -0.004932
# 4 -0.004241 -0.001029 -0.028450 0.069111 0.006147 0.016832
# 5 0.005686 0.001623 0.008156 0.006147 0.054833 0.008184
# 6 -0.000176 -0.000201 -0.004932 0.016832 0.008184 0.038197
#
#
# Mechanical properties :
#
#
# Convention : Reuss Voigt Hill
#
# Bulk Modulus (GPa) = 18.65240 38.04795 28.35017
# Shear Modulus (GPa) = 19.74052 28.48475 24.11263
#
# Velocity S-wave (km/s) = 3.20202 3.84637 3.53889
# Velocity P-wave (km/s) = 4.83305 6.28392 5.60563
#
# Compressibility (1/GPa) = 0.05361240
#
# Stress axis : x y z
#
# Youngs Moduli (GPa) = 94.68186 47.92376 31.23508
#
# Poissons Ratio (x) = 0.20287 -0.03405
# Poissons Ratio (y) = 0.40081 0.05536
# Poissons Ratio (z) = -0.10322 0.08494
#
# Static dielectric constant tensor:
#      x y z
#    x 3.789210 -0.367810 -0.234220 
#    y -0.367810 3.757970 0.273990 
#    z -0.234220 0.273990 3.578390 
# 
# 
# High freq. dielectric constant tensor:
#      x y z
#    x 1.753160 -0.008880 -0.018160 
#    y -0.008880 1.740240 0.003460 
#    z -0.018160 0.003460 1.728130 
# 
# From -- ./inp_files/169457.got.cif
#   From: 2010.06.25/outbox.cif.g09.slc.cpg/sg2_85_cif.got.tgz:169457.got - 2010.06.27 13:26:56.
