data_PCOD8041291
_publ_section_title
;
Structure prediction by ZEFSAII (Michael W. Deem and Ramdas Pophale) SiO2 
 PCOD8041291
Probable space group: P -1
;
_chemical_formula_sum "Si O2"
_cell_formula_units_Z 16
_cell_length_a 15.511679
_cell_length_b 11.509562
_cell_length_c 13.613429
_cell_angle_alpha 138.708170
_cell_angle_beta 145.763280
_cell_angle_gamma 44.038548
_cell_volume 870.528775
_symmetry_space_group_name_H-M "P -1"
_symmetry_group_IT_number 2
_symmetry_cell_setting 'triclinic'
loop_
_space_group_symop_operation_xyz
x,y,z
-x,-y,-z
loop_
_atom_site_type_symbol
_atom_site_label
_atom_site_fract_x
_atom_site_fract_y
_atom_site_fract_z
Si Si1 0.689709 0.511274 0.361142
Si Si2 0.879427 0.495703 0.023713
Si Si3 0.165638 0.367527 0.604157
Si Si4 0.798877 0.717014 0.750411
Si Si5 0.939816 0.157961 0.309931
Si Si6 0.073142 0.231089 0.900194
Si Si7 0.836302 0.078041 0.949986
Si Si8 0.665845 0.457555 0.960112
O O1 0.721191 0.653586 0.398569
O O2 0.685101 0.603714 0.523680
O O3 0.825734 0.321853 0.367508
O O4 0.522132 0.468836 0.156945
O O5 0.019045 0.405070 0.176387
O O6 0.906520 0.363409 0.868750
O O7 0.887083 0.697651 0.123315
O O8 0.712367 0.509950 0.927993
O O9 0.000000 0.500000 0.500000
O O10 0.118818 0.184609 0.481235
O O11 0.249422 0.444577 0.819529
O O12 0.786164 0.754146 0.880093
O O13 0.757272 0.911079 0.779866
O O14 0.863298 0.156574 0.130728
O O15 0.948659 0.971494 0.258534
O O16 0.718697 0.238425 0.880384
O O17 0.000000 0.000000 0.000000
#
# Coordination Sequence:
#
# PCOD8041291 Si02
#       8
#     2   2   2   2   2   2   2   2
#     4  11  22  33  51  81 117 144 165 211 278 321
#     4   9  17  35  61  77 102 135 184 225 262 299
#     4  10  19  32  52  76 106 140 174 210 260 314
#     4   9  18  34  55  78 102 137 179 218 262 313
#     4  10  19  34  57  78 104 142 180 216 264 314
#     4   8  18  36  63  77  98 133 190 230 253 299
#     4  11  18  31  56  78 103 137 178 219 258 313
#     4  12  21  33  52  83 113 140 174 216 265 323
#
# _framework density 18.379635
#
# number of rings (size 3 to 8) (size 9 to 14) (size 15 to 20)
#    0.750    1.250    3.750    2.625    0.000    0.500 
#    0.000    3.750    0.000    0.000    0.000    0.000 
#    0.000    0.000    0.000    0.000    0.000    0.000 
#
# Total GULP energy -198220.391935 kJ/mol
# GULP energy per Si atom -12388.774496 kJ/mol
# Density = 1.833780 g / cm^3
# Si number density = 18.379635 Si / 1000 Ang^3
#
#
#
# Elastic Constant Matrix: (Units=GPa)
#
#
# Indices 1 2 3 4 5 6 
#
# 1 71.8447 31.1839 34.3912 7.2726 16.3494 14.2370
# 2 31.1839 76.9154 36.2495 28.7931 15.8230 19.0146
# 3 34.3912 36.2495 108.9032 13.5052 6.3019 2.8508
# 4 7.2726 28.7931 13.5052 27.1943 -2.2756 8.5020
# 5 16.3494 15.8230 6.3019 -2.2756 29.0976 6.1465
# 6 14.2370 19.0146 2.8508 8.5020 6.1465 23.3633
#
#
#
# Elastic Compliance Matrix: (Units=1/GPa)
#
#
# Indices 1 2 3 4 5 6 
#
# 1 0.020842 -0.003737 -0.005110 0.002998 -0.006563 -0.008400
# 2 -0.003737 0.034098 -0.005181 -0.030889 -0.015737 -0.009460
# 3 -0.005110 -0.005181 0.012388 -0.000940 0.001726 0.005706
# 4 0.002998 -0.030889 -0.000940 0.074088 0.023143 -0.009622
# 5 -0.006563 -0.015737 0.001726 0.023143 0.049047 -0.004729
# 6 -0.008400 -0.009460 0.005706 -0.009622 -0.004729 0.059669
#
#
# Mechanical properties :
#
#
# Convention : Reuss Voigt Hill
#
# Bulk Modulus (GPa) = 25.46368 51.25695 38.36032
# Shear Modulus (GPa) = 17.16578 26.32028 21.74303
#
# Velocity S-wave (km/s) = 3.05939 3.78833 3.44320
# Velocity P-wave (km/s) = 5.13460 6.86176 6.06003
#
# Compressibility (1/GPa) = 0.03927162
#
# Stress axis : x y z
#
# Youngs Moduli (GPa) = 47.98110 29.32760 80.72454
#
# Poissons Ratio (x) = 0.10961 0.41249
# Poissons Ratio (y) = 0.17932 0.41820
# Poissons Ratio (z) = 0.24517 0.15193
#
# Static dielectric constant tensor:
#      x y z
#    x 3.943580 0.008380 -3.263330 
#    y 0.008380 3.369850 1.187990 
#    z -3.263330 1.187990 22.242750 
# 
# 
# High freq. dielectric constant tensor:
#      x y z
#    x 1.698830 0.009820 -0.005150 
#    y 0.009820 1.689500 0.024090 
#    z -0.005150 0.024090 1.695660 
# 
# From -- ./inp_files/532736.got.cif
#   From: 2010.06.25/outbox.cif.g09.slc.cpg/sg2_267_cif.got.tgz:532736.got - 2010.06.27 13:26:56.
