data_PCOD8041610
_publ_section_title
;
Structure prediction by ZEFSAII (Michael W. Deem and Ramdas Pophale) SiO2 
 PCOD8041610
Probable space group: P -1
;
_chemical_formula_sum "Si O2"
_cell_formula_units_Z 16
_cell_length_a 14.845097
_cell_length_b 14.658669
_cell_length_c 9.388529
_cell_angle_alpha 38.581576
_cell_angle_beta 47.327852
_cell_angle_gamma 43.852185
_cell_volume 851.365347
_symmetry_space_group_name_H-M "P -1"
_symmetry_group_IT_number 2
_symmetry_cell_setting 'triclinic'
loop_
_space_group_symop_operation_xyz
x,y,z
-x,-y,-z
loop_
_atom_site_type_symbol
_atom_site_label
_atom_site_fract_x
_atom_site_fract_y
_atom_site_fract_z
Si Si1 0.178201 0.165408 0.217094
Si Si2 0.283592 0.346046 0.670066
Si Si3 0.470321 0.658246 0.476253
Si Si4 0.122794 0.645026 0.643896
Si Si5 0.362893 0.112198 0.335648
Si Si6 0.672781 0.906489 0.282337
Si Si7 0.331704 0.452960 0.854768
Si Si8 0.766957 0.093347 0.743729
O O1 0.270477 0.075284 0.363752
O O2 0.036739 0.299550 0.259446
O O3 0.146637 0.044871 0.293457
O O4 0.262748 0.249306 0.945633
O O5 0.444059 0.304574 0.537397
O O6 0.185827 0.534767 0.569582
O O7 0.253578 0.273353 0.645185
O O8 0.387957 0.562948 0.752519
O O9 0.591738 0.552470 0.369362
O O10 0.373129 0.811840 0.304083
O O11 0.176050 0.548587 0.854941
O O12 0.156660 0.800241 0.418138
O O13 0.300444 0.105918 0.563652
O O14 0.514714 0.980305 0.323178
O O15 0.359048 0.289762 0.104892
O O16 0.739001 0.018524 0.009298
#
# Coordination Sequence:
#
# PCOD8041610 Si02
#       8
#     2   2   2   2   2   2   2   2
#     4  11  20  33  56  82 102 136 178 214 256 305
#     4  10  19  33  55  79 105 133 174 218 254 309
#     4   9  15  29  53  81  99 125 174 212 270 292
#     4  10  20  34  56  80 105 133 175 220 258 298
#     4  11  20  35  55  76 110 138 170 217 258 309
#     4  10  22  35  53  79 106 138 176 209 263 309
#     4   9  17  29  53  79 102 133 162 221 257 305
#     4  10  19  34  57  78 106 134 173 218 259 307
#
# _framework density 18.793341999999999
#
# number of rings (size 3 to 8) (size 9 to 14) (size 15 to 20)
#    0.000    2.000    3.750    2.250    0.000    2.000 
#    0.000    1.875    5.500    0.000    0.000    0.000 
#    0.000    0.000    0.000    0.000    0.000    0.000 
#
# Total GULP energy -198267.945452 kJ/mol
# GULP energy per Si atom -12391.746591 kJ/mol
# Density = 1.875057 g / cm^3
# Si number density = 18.793342 Si / 1000 Ang^3
#
#
#
# Elastic Constant Matrix: (Units=GPa)
#
#
# Indices 1 2 3 4 5 6 
#
# 1 58.8910 28.7044 27.1059 4.3227 -1.8318 4.7975
# 2 28.7044 78.7343 31.6124 -2.4090 -0.7175 8.0583
# 3 27.1059 31.6124 78.2607 -5.0199 2.5228 17.3388
# 4 4.3227 -2.4090 -5.0199 21.7586 7.6144 -4.5689
# 5 -1.8318 -0.7175 2.5228 7.6144 23.4582 -2.5677
# 6 4.7975 8.0583 17.3388 -4.5689 -2.5677 31.0073
#
#
#
# Elastic Compliance Matrix: (Units=1/GPa)
#
#
# Indices 1 2 3 4 5 6 
#
# 1 0.023840 -0.006341 -0.006600 -0.008634 0.005269 0.000814
# 2 -0.006341 0.016883 -0.004326 0.002076 -0.000264 -0.000704
# 3 -0.006600 -0.004326 0.019149 0.005401 -0.005359 -0.008211
# 4 -0.008634 0.002076 0.005401 0.056802 -0.019130 0.004562
# 5 0.005269 -0.000264 -0.005359 -0.019130 0.050211 0.003589
# 6 0.000814 -0.000704 -0.008211 0.004562 0.003589 0.037868
#
#
# Mechanical properties :
#
#
# Convention : Reuss Voigt Hill
#
# Bulk Modulus (GPa) = 39.46482 43.41460 41.43971
# Shear Modulus (GPa) = 20.18297 23.80904 21.99600
#
# Velocity S-wave (km/s) = 3.28066 3.56320 3.42484
# Velocity P-wave (km/s) = 5.94939 6.33085 6.14308
#
# Compressibility (1/GPa) = 0.02533902
#
# Stress axis : x y z
#
# Youngs Moduli (GPa) = 41.94572 59.23234 52.22139
#
# Poissons Ratio (x) = 0.37560 0.34465
# Poissons Ratio (y) = 0.26598 0.22589
# Poissons Ratio (z) = 0.27683 0.25622
#
# Static dielectric constant tensor:
#      x y z
#    x 3.483350 0.096680 -0.268580 
#    y 0.096680 3.565650 -0.130820 
#    z -0.268580 -0.130820 3.216040 
# 
# 
# High freq. dielectric constant tensor:
#      x y z
#    x 1.720090 0.002860 -0.027060 
#    y 0.002860 1.729380 -0.016430 
#    z -0.027060 -0.016430 1.699740 
# 
# From -- ./inp_files/269058.got.cif
#   From: 2010.06.25/outbox.cif.g09.slc.cpg/sg2_135_cif.got.tgz:269058.got - 2010.06.27 13:26:56.
