data_PCOD8041788
_publ_section_title
;
Structure prediction by ZEFSAII (Michael W. Deem and Ramdas Pophale) SiO2 
 PCOD8041788
Probable space group: P -1
;
_chemical_formula_sum "Si O2"
_cell_formula_units_Z 14
_cell_length_a 9.059089
_cell_length_b 11.707897
_cell_length_c 17.175915
_cell_angle_alpha 52.550191
_cell_angle_beta 30.677217
_cell_angle_gamma 51.072083
_cell_volume 712.468759
_symmetry_space_group_name_H-M "P -1"
_symmetry_group_IT_number 2
_symmetry_cell_setting 'triclinic'
loop_
_space_group_symop_operation_xyz
x,y,z
-x,-y,-z
loop_
_atom_site_type_symbol
_atom_site_label
_atom_site_fract_x
_atom_site_fract_y
_atom_site_fract_z
Si Si1 0.802177 0.654551 0.262577
Si Si2 0.548899 0.523089 0.144146
Si Si3 0.174776 0.334072 0.920821
Si Si4 0.530365 0.982100 0.085995
Si Si5 0.578013 0.278241 0.024699
Si Si6 0.114553 0.382461 0.329459
Si Si7 0.803852 0.130638 0.587089
O O1 0.788299 0.587399 0.210211
O O2 0.496789 0.786095 0.359909
O O3 0.848772 0.516111 0.358554
O O4 0.080890 0.727795 0.108831
O O5 0.546268 0.650704 0.156742
O O6 0.266517 0.450696 0.304388
O O7 0.563522 0.584742 0.024998
O O8 0.853108 0.399380 0.078603
O O9 0.190242 0.161246 0.969384
O O10 0.255333 0.940096 0.273959
O O11 0.588406 0.124593 0.041483
O O12 0.500000 0.000000 0.000000
O O13 0.373093 0.306628 0.182063
O O14 0.979263 0.253993 0.477303
O O15 0.000000 0.000000 0.500000
#
# Coordination Sequence:
#
# PCOD8041788 Si02
#       7
#     2   2   2   2   2   2   2
#     4  10  21  37  61  95 114 161 205 249 295 366
#     4  10  19  34  60  91 119 155 200 252 294 358
#     4  10  19  33  58  93 116 153 207 241 300 345
#     4  11  23  39  60  86 122 163 202 246 298 362
#     4  11  19  37  65  89 122 155 209 248 295 357
#     4  11  20  39  61  93 125 152 200 255 305 356
#     4  11  24  39  61  90 127 159 199 251 312 353
#
# _framework density 19.649985000000001
#
# number of rings (size 3 to 8) (size 9 to 14) (size 15 to 20)
#    0.000    1.429    5.714    1.286    0.000    3.429 
#    0.000    2.857    3.143    1.714    0.000    0.000 
#    0.000    0.000    0.000    0.000    0.000    0.000 
#
# Total GULP energy -173470.042327 kJ/mol
# GULP energy per Si atom -12390.717309 kJ/mol
# Density = 1.960526 g / cm^3
# Si number density = 19.649985 Si / 1000 Ang^3
#
#
#
# Elastic Constant Matrix: (Units=GPa)
#
#
# Indices 1 2 3 4 5 6 
#
# 1 101.9249 26.6630 38.0072 -5.6080 -10.0602 2.3131
# 2 26.6630 100.1513 40.6310 7.7181 -8.9443 4.7498
# 3 38.0072 40.6310 101.8425 -11.6888 -3.5195 -1.7647
# 4 -5.6080 7.7181 -11.6888 34.8570 -0.9206 -4.6638
# 5 -10.0602 -8.9443 -3.5195 -0.9206 29.3271 -0.1998
# 6 2.3131 4.7498 -1.7647 -4.6638 -0.1998 22.7535
#
#
#
# Elastic Compliance Matrix: (Units=1/GPa)
#
#
# Indices 1 2 3 4 5 6 
#
# 1 0.011954 -0.001423 -0.003688 0.000956 0.003247 -0.000980
# 2 -0.001423 0.013442 -0.005442 -0.005518 0.002756 -0.004190
# 3 -0.003688 -0.005442 0.014063 0.005807 -0.001029 0.003783
# 4 0.000956 -0.005518 0.005807 0.033134 0.000439 0.008300
# 5 0.003247 0.002756 -0.001029 0.000439 0.035939 -0.000580
# 6 -0.000980 -0.004190 0.003783 0.008300 -0.000580 0.046913
#
#
# Mechanical properties :
#
#
# Convention : Reuss Voigt Hill
#
# Bulk Modulus (GPa) = 54.49217 57.16902 55.83059
# Shear Modulus (GPa) = 27.37168 30.62868 29.00018
#
# Velocity S-wave (km/s) = 3.73629 3.95234 3.84583
# Velocity P-wave (km/s) = 6.81210 7.06999 6.94225
#
# Compressibility (1/GPa) = 0.01835126
#
# Stress axis : x y z
#
# Youngs Moduli (GPa) = 83.65230 74.39430 71.10741
#
# Poissons Ratio (x) = 0.10589 0.26227
# Poissons Ratio (y) = 0.11907 0.38698
# Poissons Ratio (z) = 0.30854 0.40487
#
# Static dielectric constant tensor:
#      x y z
#    x 3.859140 0.022420 -0.080090 
#    y 0.022420 3.833780 -0.075990 
#    z -0.080090 -0.075990 3.504880 
# 
# 
# High freq. dielectric constant tensor:
#      x y z
#    x 1.761810 0.005500 -0.007220 
#    y 0.005500 1.779510 -0.002000 
#    z -0.007220 -0.002000 1.745210 
# 
# From -- ./inp_files/153825.got.cif
#   From: 2010.06.25/outbox.cif.g09.slc.cpg/sg2_77_cif.got.tgz:153825.got - 2010.06.27 13:26:56.
