data_PCOD8041323
_publ_section_title
;
Structure prediction by ZEFSAII (Michael W. Deem and Ramdas Pophale) SiO2 
 PCOD8041323
Probable space group: P -1
;
_chemical_formula_sum "Si O2"
_cell_formula_units_Z 16
_cell_length_a 14.104092
_cell_length_b 8.906425
_cell_length_c 22.733130
_cell_angle_alpha 60.561584
_cell_angle_beta 159.717694
_cell_angle_gamma 119.420105
_cell_volume 857.770492
_symmetry_space_group_name_H-M "P -1"
_symmetry_group_IT_number 2
_symmetry_cell_setting 'triclinic'
loop_
_space_group_symop_operation_xyz
x,y,z
-x,-y,-z
loop_
_atom_site_type_symbol
_atom_site_label
_atom_site_fract_x
_atom_site_fract_y
_atom_site_fract_z
Si Si1 0.995856 0.066562 0.052046
Si Si2 0.417568 0.920359 0.740156
Si Si3 0.793336 0.474629 0.748708
Si Si4 0.548880 0.463732 0.351939
Si Si5 0.704319 0.750952 0.550898
Si Si6 0.698436 0.643105 0.882989
Si Si7 0.493698 0.936227 0.575053
Si Si8 0.071891 0.226151 0.443022
O O1 0.085148 0.269574 0.056627
O O2 0.209239 0.001164 0.235377
O O3 0.000000 0.000000 0.000000
O O4 0.691257 0.019170 0.909776
O O5 0.500052 0.777028 0.769176
O O6 0.236737 0.825891 0.704865
O O7 0.255816 0.065376 0.587017
O O8 0.693658 0.494890 0.753432
O O9 0.784180 0.652927 0.674568
O O10 0.602810 0.321184 0.635565
O O11 0.114981 0.436542 0.943391
O O12 0.480803 0.492182 0.237451
O O13 0.613365 0.265779 0.440521
O O14 0.813605 0.600814 0.489026
O O15 0.927864 0.726206 0.635055
O O16 0.717702 0.953768 0.534555
O O17 0.500000 0.000000 0.500000
#
# Coordination Sequence:
#
# PCOD8041323 Si02
#       8
#     2   2   2   2   2   2   2   2
#     4   9  17  32  56  82 105 134 182 228 269 320
#     4  10  20  37  58  80 105 149 190 229 260 331
#     4  10  19  32  53  81 112 141 180 226 272 328
#     4  10  20  34  54  85 113 138 177 229 281 330
#     4  10  19  34  53  77 113 148 180 220 271 332
#     4  10  19  33  56  85 111 137 176 235 286 316
#     4  11  20  34  58  87 114 142 176 230 290 328
#     4  10  21  37  56  80 108 148 192 218 271 327
#
# _framework density 18.653008
#
# number of rings (size 3 to 8) (size 9 to 14) (size 15 to 20)
#    0.000    2.000    1.250    5.625    0.000    1.500 
#    0.000    0.625    0.000    0.750    0.000    0.000 
#    0.000    0.000    0.000    0.000    0.000    0.000 
#
# Total GULP energy -198230.742152 kJ/mol
# GULP energy per Si atom -12389.421385 kJ/mol
# Density = 1.861055 g / cm^3
# Si number density = 18.653008 Si / 1000 Ang^3
#
#
#
# Elastic Constant Matrix: (Units=GPa)
#
#
# Indices 1 2 3 4 5 6 
#
# 1 69.7800 22.9980 50.1469 7.3740 2.3691 2.4686
# 2 22.9980 81.3480 32.5954 -6.7904 13.6941 -9.6801
# 3 50.1469 32.5954 87.4341 -1.7839 -1.3733 1.5346
# 4 7.3740 -6.7904 -1.7839 24.6531 6.3886 4.8460
# 5 2.3691 13.6941 -1.3733 6.3886 32.7962 4.2927
# 6 2.4686 -9.6801 1.5346 4.8460 4.2927 27.3761
#
#
#
# Elastic Compliance Matrix: (Units=1/GPa)
#
#
# Indices 1 2 3 4 5 6 
#
# 1 0.026660 -0.002804 -0.014417 -0.009774 0.000671 -0.000962
# 2 -0.002804 0.018356 -0.005387 0.006622 -0.009951 0.007434
# 3 -0.014417 -0.005387 0.021912 0.004040 0.003834 -0.003149
# 4 -0.009774 0.006622 0.004040 0.049228 -0.010956 -0.004000
# 5 0.000671 -0.009951 0.003834 -0.010956 0.037913 -0.007800
# 6 -0.000962 0.007434 -0.003149 -0.004000 -0.007800 0.041351
#
#
# Mechanical properties :
#
#
# Convention : Reuss Voigt Hill
#
# Bulk Modulus (GPa) = 46.05564 50.00478 48.03021
# Shear Modulus (GPa) = 20.17149 25.81986 22.99568
#
# Velocity S-wave (km/s) = 3.29204 3.72455 3.51495
# Velocity P-wave (km/s) = 6.26054 6.73516 6.50218
#
# Compressibility (1/GPa) = 0.02171287
#
# Stress axis : x y z
#
# Youngs Moduli (GPa) = 37.50963 54.47674 45.63658
#
# Poissons Ratio (x) = 0.15273 0.65796
# Poissons Ratio (y) = 0.10516 0.24584
# Poissons Ratio (z) = 0.54079 0.29347
#
# Static dielectric constant tensor:
#      x y z
#    x 3.392880 -0.053500 -0.099060 
#    y -0.053500 3.645750 0.153460 
#    z -0.099060 0.153460 3.528160 
# 
# 
# High freq. dielectric constant tensor:
#      x y z
#    x 1.711440 -0.013740 -0.014390 
#    y -0.013740 1.729780 -0.006620 
#    z -0.014390 -0.006620 1.701600 
# 
# From -- ./inp_files/319887.got.cif
#   From: 2010.06.25/outbox.cif.g09.slc.cpg/sg2_160_cif.got.tgz:319887.got - 2010.06.27 13:26:56.
