data_PCOD8041806
_publ_section_title
;
Structure prediction by ZEFSAII (Michael W. Deem and Ramdas Pophale) SiO2 
 PCOD8041806
Probable space group: P -1
;
_chemical_formula_sum "Si O2"
_cell_formula_units_Z 16
_cell_length_a 9.220875
_cell_length_b 12.747171
_cell_length_c 18.968188
_cell_angle_alpha 29.542989
_cell_angle_beta 135.746938
_cell_angle_gamma 133.261000
_cell_volume 754.509224
_symmetry_space_group_name_H-M "P -1"
_symmetry_group_IT_number 2
_symmetry_cell_setting 'triclinic'
loop_
_space_group_symop_operation_xyz
x,y,z
-x,-y,-z
loop_
_atom_site_type_symbol
_atom_site_label
_atom_site_fract_x
_atom_site_fract_y
_atom_site_fract_z
Si Si1 0.763119 0.033103 0.489061
Si Si2 0.749397 0.300516 0.044170
Si Si3 0.870506 0.568076 0.804935
Si Si4 0.397178 0.308216 0.025040
Si Si5 0.695479 0.481331 0.529907
Si Si6 0.982444 0.485075 0.258022
Si Si7 0.326258 0.926343 0.329524
Si Si8 0.032648 0.103730 0.674063
O O1 0.831068 0.804311 0.632148
O O2 0.511478 0.012074 0.400919
O O3 0.889010 0.225760 0.371171
O O4 0.836529 0.100355 0.554157
O O5 0.536844 0.239315 0.050320
O O6 0.909509 0.439131 0.074076
O O7 0.852723 0.100429 0.171762
O O8 0.700449 0.437774 0.877288
O O9 0.880195 0.446796 0.804779
O O10 0.325175 0.095399 0.168772
O O11 0.500000 0.500000 0.000000
O O12 0.201354 0.379169 0.877062
O O13 0.500000 0.500000 0.500000
O O14 0.624838 0.292707 0.559437
O O15 0.778490 0.694976 0.388242
O O16 0.881163 0.440755 0.669326
O O17 0.088260 0.887878 0.299382
#
# Coordination Sequence:
#
# PCOD8041806 Si02
#       8
#     2   2   2   2   2   2   2   2
#     4  10  21  35  64  96 127 157 214 265 319 368
#     4  10  21  36  58  94 124 162 200 260 317 367
#     4  10  19  33  59  89 128 159 206 255 313 369
#     4  12  23  38  65  93 131 163 208 259 319 376
#     4  11  25  44  66  90 130 170 213 258 314 377
#     4  11  22  40  62  94 125 167 213 259 312 379
#     4  12  23  41  66  93 127 172 208 262 318 373
#     4  10  23  41  65  94 127 165 215 262 314 376
#
# _framework density 21.205836999999999
#
# number of rings (size 3 to 8) (size 9 to 14) (size 15 to 20)
#    0.000    1.250    2.500    3.375    3.500    4.500 
#    0.000    1.250    0.000    5.250    0.000    0.000 
#    0.000    0.000    0.000    0.000    0.000    0.000 
#
# Total GULP energy -198324.977888 kJ/mol
# GULP energy per Si atom -12395.311118 kJ/mol
# Density = 2.115757 g / cm^3
# Si number density = 21.205837 Si / 1000 Ang^3
#
#
#
# Elastic Constant Matrix: (Units=GPa)
#
#
# Indices 1 2 3 4 5 6 
#
# 1 171.3058 20.3275 49.8554 -14.6614 -10.8091 4.0728
# 2 20.3275 64.7899 23.0191 -15.1744 -0.3618 7.5262
# 3 49.8554 23.0191 110.6284 -7.9169 -4.9086 9.0640
# 4 -14.6614 -15.1744 -7.9169 25.0867 6.6922 4.4424
# 5 -10.8091 -0.3618 -4.9086 6.6922 35.1064 -2.1546
# 6 4.0728 7.5262 9.0640 4.4424 -2.1546 30.2407
#
#
#
# Elastic Compliance Matrix: (Units=1/GPa)
#
#
# Indices 1 2 3 4 5 6 
#
# 1 0.007023 -0.000570 -0.002784 0.002592 0.001257 -0.000261
# 2 -0.000570 0.020352 -0.002662 0.013123 -0.003229 -0.006348
# 3 -0.002784 -0.002662 0.011099 0.000570 0.000415 -0.002343
# 4 0.002592 0.013123 0.000570 0.054409 -0.010126 -0.012500
# 5 0.001257 -0.003229 0.000415 -0.010126 0.031085 0.004212
# 6 -0.000261 -0.006348 -0.002343 -0.012500 0.004212 0.037522
#
#
# Mechanical properties :
#
#
# Convention : Reuss Voigt Hill
#
# Bulk Modulus (GPa) = 37.81799 59.23646 48.52722
# Shear Modulus (GPa) = 27.42210 34.98824 31.20517
#
# Velocity S-wave (km/s) = 3.59993 4.06634 3.84022
# Velocity P-wave (km/s) = 5.92889 7.07401 6.52661
#
# Compressibility (1/GPa) = 0.02644244
#
# Stress axis : x y z
#
# Youngs Moduli (GPa) = 142.39747 49.13520 90.10000
#
# Poissons Ratio (x) = 0.02801 0.25080
# Poissons Ratio (y) = 0.08117 0.23984
# Poissons Ratio (z) = 0.39637 0.13079
#
# Static dielectric constant tensor:
#      x y z
#    x 3.907270 0.104440 -0.145650 
#    y 0.104440 3.755600 -0.023570 
#    z -0.145650 -0.023570 4.076240 
# 
# 
# High freq. dielectric constant tensor:
#      x y z
#    x 1.839780 -0.001030 -0.008180 
#    y -0.001030 1.801780 0.001150 
#    z -0.008180 0.001150 1.843390 
# 
# From -- ./inp_files/279203.got.cif
#   From: 2010.06.25/outbox.cif.g09.slc.cpg/sg2_140_cif.got.tgz:279203.got - 2010.06.27 13:26:56.
