data_PCOD8041442
_publ_section_title
;
Structure prediction by ZEFSAII (Michael W. Deem and Ramdas Pophale) SiO2 
 PCOD8041442
Probable space group: P -1
;
_chemical_formula_sum "Si O2"
_cell_formula_units_Z 16
_cell_length_a 14.772026
_cell_length_b 15.539512
_cell_length_c 8.919671
_cell_angle_alpha 41.337635
_cell_angle_beta 141.013041
_cell_angle_gamma 142.014001
_cell_volume 740.617289
_symmetry_space_group_name_H-M "P -1"
_symmetry_group_IT_number 2
_symmetry_cell_setting 'triclinic'
loop_
_space_group_symop_operation_xyz
x,y,z
-x,-y,-z
loop_
_atom_site_type_symbol
_atom_site_label
_atom_site_fract_x
_atom_site_fract_y
_atom_site_fract_z
Si Si1 0.159401 0.334267 0.290523
Si Si2 0.927108 0.879482 0.279985
Si Si3 0.905766 0.173047 0.914731
Si Si4 0.153947 0.351252 0.765779
Si Si5 0.387026 0.373708 0.284125
Si Si6 0.635799 0.116374 0.843841
Si Si7 0.296729 0.039104 0.602266
Si Si8 0.249207 0.556415 0.355245
O O1 0.165736 0.215821 0.568183
O O2 0.328685 0.418996 0.302213
O O3 0.141830 0.461318 0.197702
O O4 0.001922 0.244004 0.100222
O O5 0.845898 0.783169 0.152615
O O6 0.117625 0.915945 0.476122
O O7 0.908690 0.025130 0.062296
O O8 0.718125 0.134629 0.761315
O O9 0.987970 0.291713 0.730945
O O10 0.158639 0.478752 0.496010
O O11 0.316100 0.420447 0.988743
O O12 0.296802 0.194190 0.409776
O O13 0.582866 0.454525 0.419906
O O14 0.439343 0.052350 0.653831
O O15 0.714413 0.274870 0.826241
O O16 0.667094 0.002291 0.132220
#
# Coordination Sequence:
#
# PCOD8041442 Si02
#       8
#     2   2   2   2   2   2   2   2
#     4  10  19  32  58  87 105 144 189 233 268 322
#     4  11  19  36  61  87 108 140 192 237 276 317
#     4  11  20  35  58  85 112 144 187 235 271 324
#     4  10  22  35  59  84 109 151 187 228 274 331
#     4  10  19  36  61  83 113 141 189 238 275 317
#     4  10  22  36  56  83 117 149 178 227 284 333
#     4  10  19  36  60  83 109 145 183 232 283 321
#     4  10  22  37  53  82 120 152 179 221 282 341
#
# _framework density 21.6036
#
# number of rings (size 3 to 8) (size 9 to 14) (size 15 to 20)
#    0.000    1.750    3.750    2.250    0.000    1.000 
#    0.000    0.625    0.000    0.000    0.000    0.000 
#    0.000    0.000    0.000    0.000    0.000    0.000 
#
# Total GULP energy -198389.189260 kJ/mol
# GULP energy per Si atom -12399.324329 kJ/mol
# Density = 2.155443 g / cm^3
# Si number density = 21.603600 Si / 1000 Ang^3
#
#
#
# Elastic Constant Matrix: (Units=GPa)
#
#
# Indices 1 2 3 4 5 6 
#
# 1 131.3105 8.4614 16.0285 5.6297 -12.8473 14.3005
# 2 8.4614 49.4717 -1.7366 -3.1716 -8.3810 2.3158
# 3 16.0285 -1.7366 29.8322 -7.4929 -11.1036 -7.3887
# 4 5.6297 -3.1716 -7.4929 19.5731 0.5054 -3.1992
# 5 -12.8473 -8.3810 -11.1036 0.5054 34.8705 3.4649
# 6 14.3005 2.3158 -7.3887 -3.1992 3.4649 22.6531
#
#
#
# Elastic Compliance Matrix: (Units=1/GPa)
#
#
# Indices 1 2 3 4 5 6 
#
# 1 0.010882 -0.002064 -0.010744 -0.009529 0.001395 -0.011722
# 2 -0.002064 0.022304 0.006886 0.006876 0.006571 0.001235
# 3 -0.010744 0.006886 0.059385 0.031137 0.013393 0.027797
# 4 -0.009529 0.006876 0.031137 0.070796 0.004569 0.024768
# 5 0.001395 0.006571 0.013393 0.004569 0.035159 -0.001916
# 6 -0.011722 0.001235 0.027797 0.024768 -0.001916 0.064275
#
#
# Mechanical properties :
#
#
# Convention : Reuss Voigt Hill
#
# Bulk Modulus (GPa) = 12.38765 28.45788 20.42277
# Shear Modulus (GPa) = 16.58076 27.94341 22.26208
#
# Velocity S-wave (km/s) = 2.77338 3.60037 3.21359
# Velocity P-wave (km/s) = 4.00026 5.52132 4.82115
#
# Compressibility (1/GPa) = 0.08072554
#
# Stress axis : x y z
#
# Youngs Moduli (GPa) = 91.89761 44.83401 16.83940
#
# Poissons Ratio (x) = 0.09255 0.18093
# Poissons Ratio (y) = 0.18970 -0.11596
# Poissons Ratio (z) = 0.98739 -0.30873
#
# Static dielectric constant tensor:
#      x y z
#    x 4.202800 0.204180 -0.049040 
#    y 0.204180 3.814090 -0.007550 
#    z -0.049040 -0.007550 3.515460 
# 
# 
# High freq. dielectric constant tensor:
#      x y z
#    x 1.861830 0.015120 -0.006770 
#    y 0.015120 1.842320 -0.007310 
#    z -0.006770 -0.007310 1.817710 
# 
# From -- ./inp_files/179118.got.cif
#   From: 2010.06.25/outbox.cif.g09.slc.cpg/sg2_90_cif.got.tgz:179118.got - 2010.06.27 13:26:56.
