data_PCOD8041404
_publ_section_title
;
Structure prediction by ZEFSAII (Michael W. Deem and Ramdas Pophale) SiO2 
 PCOD8041404
Probable space group: P -1
;
_chemical_formula_sum "Si O2"
_cell_formula_units_Z 16
_cell_length_a 19.435679
_cell_length_b 5.125527
_cell_length_c 13.574977
_cell_angle_alpha 46.298718
_cell_angle_beta 127.679483
_cell_angle_gamma 110.680732
_cell_volume 768.088429
_symmetry_space_group_name_H-M "P -1"
_symmetry_group_IT_number 2
_symmetry_cell_setting 'triclinic'
loop_
_space_group_symop_operation_xyz
x,y,z
-x,-y,-z
loop_
_atom_site_type_symbol
_atom_site_label
_atom_site_fract_x
_atom_site_fract_y
_atom_site_fract_z
Si Si1 0.936785 0.968504 0.863218
Si Si2 0.941351 0.832105 0.412672
Si Si3 0.093915 0.780341 0.914641
Si Si4 0.465824 0.100297 0.573762
Si Si5 0.708450 0.875933 0.498651
Si Si6 0.735889 0.203512 0.840499
Si Si7 0.629995 0.721671 0.747435
Si Si8 0.802813 0.510359 0.503919
O O1 0.995704 0.906342 0.833255
O O2 0.869754 0.323757 0.693496
O O3 0.881112 0.643522 0.927063
O O4 0.000000 0.000000 0.000000
O O5 0.854518 0.713147 0.415630
O O6 0.000000 0.500000 0.500000
O O7 0.907206 0.138567 0.223266
O O8 0.000000 0.000000 0.500000
O O9 0.170288 0.965495 0.988991
O O10 0.500000 0.500000 0.500000
O O11 0.398073 0.066328 0.612449
O O12 0.407468 0.037767 0.441805
O O13 0.545259 0.766292 0.735323
O O14 0.743478 0.551992 0.688121
O O15 0.737093 0.797098 0.431866
O O16 0.748883 0.232562 0.473860
O O17 0.668548 0.323856 0.842336
O O18 0.706452 0.888663 0.828541
#
# Coordination Sequence:
#
# PCOD8041404 Si02
#       8
#     2   2   2   2   2   2   2   2
#     4  11  23  37  60  89 118 155 201 255 311 369
#     4  12  26  46  64  85 118 170 216 257 300 365
#     4  11  25  39  60  89 118 163 205 255 310 363
#     4  10  19  32  56  87 129 161 192 234 319 372
#     4  11  22  36  58  90 125 157 195 257 299 366
#     4  11  21  35  56  86 124 151 202 246 308 352
#     4  10  20  32  52  86 124 158 190 242 300 376
#     4  12  24  40  59  86 125 159 203 251 309 345
#
# _framework density 20.830936000000001
#
# number of rings (size 3 to 8) (size 9 to 14) (size 15 to 20)
#    0.000    1.000    5.000    3.750    5.250    0.000 
#    0.000    0.000    0.000    0.000    0.000    5.250 
#    0.000    0.000    0.000    0.000    0.000    0.000 
#
# Total GULP energy -198297.531298 kJ/mol
# GULP energy per Si atom -12393.595706 kJ/mol
# Density = 2.078352 g / cm^3
# Si number density = 20.830936 Si / 1000 Ang^3
#
#
#
# Elastic Constant Matrix: (Units=GPa)
#
#
# Indices 1 2 3 4 5 6 
#
# 1 157.0860 40.1013 33.5036 -3.4079 -18.0719 -1.5448
# 2 40.1013 106.2101 22.7418 27.0483 -12.0868 -2.5903
# 3 33.5036 22.7418 68.6918 13.3677 -10.2932 10.3839
# 4 -3.4079 27.0483 13.3677 24.4244 -0.4001 2.2855
# 5 -18.0719 -12.0868 -10.2932 -0.4001 25.3978 2.1924
# 6 -1.5448 -2.5903 10.3839 2.2855 2.1924 35.9403
#
#
#
# Elastic Compliance Matrix: (Units=1/GPa)
#
#
# Indices 1 2 3 4 5 6 
#
# 1 0.008819 -0.004191 -0.004194 0.008154 0.002657 0.000608
# 2 -0.004191 0.016262 0.000823 -0.019126 0.004643 0.001687
# 3 -0.004194 0.000823 0.020421 -0.012050 0.005979 -0.005620
# 4 0.008154 -0.019126 -0.012050 0.069889 -0.006947 -0.001567
# 5 0.002657 0.004643 0.005979 -0.006947 0.046102 -0.003649
# 6 0.000608 0.001687 -0.005620 -0.001567 -0.003649 0.029918
#
#
# Mechanical properties :
#
#
# Convention : Reuss Voigt Hill
#
# Bulk Modulus (GPa) = 32.91935 58.29792 45.60863
# Shear Modulus (GPa) = 23.07751 32.86191 27.96971
#
# Velocity S-wave (km/s) = 3.33205 3.97615 3.66826
# Velocity P-wave (km/s) = 5.53541 7.00904 6.31536
#
# Compressibility (1/GPa) = 0.03037727
#
# Stress axis : x y z
#
# Youngs Moduli (GPa) = 113.39222 61.49402 48.96816
#
# Poissons Ratio (x) = 0.25772 0.20540
# Poissons Ratio (y) = 0.47523 -0.04030
# Poissons Ratio (z) = 0.47562 -0.05061
#
# Static dielectric constant tensor:
#      x y z
#    x 4.662130 -0.182670 0.199100 
#    y -0.182670 4.077900 0.149040 
#    z 0.199100 0.149040 3.437830 
# 
# 
# High freq. dielectric constant tensor:
#      x y z
#    x 1.838260 -0.010200 0.014390 
#    y -0.010200 1.819040 0.031840 
#    z 0.014390 0.031840 1.758950 
# 
# From -- ./inp_files/323582.got.cif
#   From: 2010.06.25/outbox.cif.g09.slc.cpg/sg2_162_cif.got.tgz:323582.got - 2010.06.27 13:26:56.
