data_PCOD8041030
_publ_section_title
;
Structure prediction by ZEFSAII (Michael W. Deem and Ramdas Pophale) SiO2 
 PCOD8041030
Probable space group: P -1
;
_chemical_formula_sum "Si O2"
_cell_formula_units_Z 12
_cell_length_a 9.817312
_cell_length_b 13.608370
_cell_length_c 13.892221
_cell_angle_alpha 20.977964
_cell_angle_beta 118.517194
_cell_angle_gamma 114.842174
_cell_volume 581.892076
_symmetry_space_group_name_H-M "P -1"
_symmetry_group_IT_number 2
_symmetry_cell_setting 'triclinic'
loop_
_space_group_symop_operation_xyz
x,y,z
-x,-y,-z
loop_
_atom_site_type_symbol
_atom_site_label
_atom_site_fract_x
_atom_site_fract_y
_atom_site_fract_z
Si Si1 0.340862 0.355816 0.672116
Si Si2 0.378792 0.333221 0.487595
Si Si3 0.918313 0.252931 0.018172
Si Si4 0.155674 0.379061 0.112576
Si Si5 0.139801 0.902662 0.067780
Si Si6 0.745059 0.082655 0.290502
O O1 0.394595 0.247831 0.682999
O O2 0.487558 0.465003 0.677656
O O3 0.202266 0.595874 0.397448
O O4 0.278957 0.103760 0.941199
O O5 0.400178 0.055297 0.683489
O O6 0.211246 0.487821 0.264444
O O7 0.095568 0.339987 0.017636
O O8 0.876424 0.059986 0.270788
O O9 0.920378 0.082660 0.075922
O O10 0.210909 0.087745 0.442969
O O11 0.000000 0.500000 0.000000
O O12 0.285456 0.601324 0.969724
O O13 0.000000 0.000000 0.000000
#
# Coordination Sequence:
#
# PCOD8041030 Si02
#       6
#     2   2   2   2   2   2
#     4  10  23  35  53  78 106 137 176 212 261 312
#     4  10  20  32  54  79 112 137 161 213 275 315
#     4  10  20  32  52  78 111 135 167 214 260 306
#     4  10  19  27  46  75 113 132 166 200 258 326
#     4  11  23  39  55  74 103 143 183 213 247 301
#     4  11  18  30  47  79 111 135 160 203 266 324
#
# _framework density 20.62238
#
# number of rings (size 3 to 8) (size 9 to 14) (size 15 to 20)
#    0.000    1.667    5.000    2.500    2.333    2.000 
#    0.000    0.000    0.000    0.000    0.000    7.000 
#    0.000    0.000    0.000    0.000    0.000    0.000 
#
# Total GULP energy -148668.688578 kJ/mol
# GULP energy per Si atom -12389.057381 kJ/mol
# Density = 2.057544 g / cm^3
# Si number density = 20.622380 Si / 1000 Ang^3
#
#
#
# Elastic Constant Matrix: (Units=GPa)
#
#
# Indices 1 2 3 4 5 6 
#
# 1 41.6727 23.4358 -1.7760 -7.0337 -9.6628 -1.3023
# 2 23.4358 151.4816 23.6933 -16.5644 -14.3819 16.3677
# 3 -1.7760 23.6933 72.9804 -9.6883 -13.9470 -1.5697
# 4 -7.0337 -16.5644 -9.6883 29.3915 8.6027 -4.4266
# 5 -9.6628 -14.3819 -13.9470 8.6027 17.5447 -6.9273
# 6 -1.3023 16.3677 -1.5697 -4.4266 -6.9273 15.7289
#
#
#
# Elastic Compliance Matrix: (Units=1/GPa)
#
#
# Indices 1 2 3 4 5 6 
#
# 1 0.036810 -0.006735 0.010040 0.003002 0.031427 0.025744
# 2 -0.006735 0.009366 -0.004225 0.001935 -0.005277 -0.012505
# 3 0.010040 -0.004225 0.020808 0.002450 0.024891 0.018957
# 4 0.003002 0.001935 0.002450 0.041178 -0.013350 0.004189
# 5 0.031427 -0.005277 0.024891 -0.013350 0.119846 0.059602
# 6 0.025744 -0.012505 0.018957 0.004189 0.059602 0.108042
#
#
# Mechanical properties :
#
#
# Convention : Reuss Voigt Hill
#
# Bulk Modulus (GPa) = 15.35039 39.64899 27.49969
# Shear Modulus (GPa) = 13.90412 27.25180 20.57796
#
# Velocity S-wave (km/s) = 2.59940 3.63914 3.16230
# Velocity P-wave (km/s) = 4.05819 6.07666 5.16695
#
# Compressibility (1/GPa) = 0.06514492
#
# Stress axis : x y z
#
# Youngs Moduli (GPa) = 27.16637 106.76790 48.05803
#
# Poissons Ratio (x) = 0.71909 -0.48252
# Poissons Ratio (y) = 0.18297 0.20305
# Poissons Ratio (z) = -0.27276 0.45111
#
# Static dielectric constant tensor:
#      x y z
#    x 3.057190 0.305610 -0.201140 
#    y 0.305610 5.097690 -0.380760 
#    z -0.201140 -0.380760 3.882520 
# 
# 
# High freq. dielectric constant tensor:
#      x y z
#    x 1.707170 0.021830 -0.013770 
#    y 0.021830 1.837530 -0.011090 
#    z -0.013770 -0.011090 1.817140 
# 
# From -- ./inp_files/61079.got.cif
#   From: 2010.06.25/outbox.cif.g09.slc.cpg/sg2_31_cif.got.tgz:61079.got - 2010.06.27 13:26:56.
