data_PCOD8041919
_publ_section_title
;
Structure prediction by ZEFSAII (Michael W. Deem and Ramdas Pophale) SiO2 
 PCOD8041919
Probable space group: P -1
;
_chemical_formula_sum "Si O2"
_cell_formula_units_Z 14
_cell_length_a 12.969849
_cell_length_b 6.897779
_cell_length_c 23.098803
_cell_angle_alpha 61.871446
_cell_angle_beta 33.339132
_cell_angle_gamma 46.009579
_cell_volume 785.573788
_symmetry_space_group_name_H-M "P -1"
_symmetry_group_IT_number 2
_symmetry_cell_setting 'triclinic'
loop_
_space_group_symop_operation_xyz
x,y,z
-x,-y,-z
loop_
_atom_site_type_symbol
_atom_site_label
_atom_site_fract_x
_atom_site_fract_y
_atom_site_fract_z
Si Si1 0.852004 0.360969 0.942715
Si Si2 0.552203 0.128757 0.381514
Si Si3 0.746748 0.622897 0.075421
Si Si4 0.388743 0.375551 0.539078
Si Si5 0.492608 0.237169 0.146220
Si Si6 0.964278 0.416894 0.760283
Si Si7 0.630433 0.218883 0.209645
O O1 0.844238 0.510933 0.866865
O O2 0.762798 0.585573 0.003869
O O3 0.682793 0.272742 0.027420
O O4 0.115176 0.084516 0.873906
O O5 0.424297 0.380908 0.452395
O O6 0.487755 0.245227 0.330054
O O7 0.461289 0.946049 0.463066
O O8 0.842488 0.924327 0.282700
O O9 0.659414 0.458878 0.167389
O O10 0.556161 0.948599 0.134306
O O11 0.000000 0.500000 0.000000
O O12 0.500000 0.500000 0.500000
O O13 0.107313 0.542459 0.662901
O O14 0.230797 0.487583 0.210460
O O15 0.477796 0.258767 0.219706
#
# Coordination Sequence:
#
# PCOD8041919 Si02
#       7
#     2   2   2   2   2   2   2
#     4  10  19  35  51  76 106 144 175 203 247 313
#     4   8  19  37  57  77  97 132 178 211 257 312
#     4  11  19  30  51  75 108 144 177 202 243 306
#     4   9  18  37  59  78  99 128 175 220 258 310
#     4  11  20  34  50  78 115 134 168 217 248 302
#     4   9  20  36  53  79 105 133 171 218 265 293
#     4  10  19  34  54  75 103 143 176 202 253 309
#
# _framework density 17.821370000000002
#
# number of rings (size 3 to 8) (size 9 to 14) (size 15 to 20)
#    0.857    1.429    2.857    1.286    0.000    2.857 
#    5.143    0.714    0.000    1.714    0.000    0.000 
#    0.000    0.000    0.000    0.000    0.000    0.000 
#
# Total GULP energy -173525.074633 kJ/mol
# GULP energy per Si atom -12394.648188 kJ/mol
# Density = 1.778081 g / cm^3
# Si number density = 17.821370 Si / 1000 Ang^3
#
#
#
# Elastic Constant Matrix: (Units=GPa)
#
#
# Indices 1 2 3 4 5 6 
#
# 1 129.1028 39.7007 60.7017 -12.1751 19.9326 3.0959
# 2 39.7007 60.9392 22.6393 -2.7889 14.1375 17.8556
# 3 60.7017 22.6393 106.7796 -12.6154 37.2341 7.1334
# 4 -12.1751 -2.7889 -12.6154 11.0012 0.9378 -1.7615
# 5 19.9326 14.1375 37.2341 0.9378 30.5709 3.0637
# 6 3.0959 17.8556 7.1334 -1.7615 3.0637 31.4949
#
#
#
# Elastic Compliance Matrix: (Units=1/GPa)
#
#
# Indices 1 2 3 4 5 6 
#
# 1 0.013204 -0.007846 -0.005964 0.006400 0.001616 0.004702
# 2 -0.007846 0.026758 0.003130 0.000247 -0.009660 -0.014154
# 3 -0.005964 0.003130 0.025355 0.025304 -0.028946 -0.002700
# 4 0.006400 0.000247 0.025304 0.131188 -0.039600 0.004689
# 5 0.001616 -0.009660 -0.028946 -0.039600 0.072332 0.002623
# 6 0.004702 -0.014154 -0.002700 0.004689 0.002623 0.039932
#
#
# Mechanical properties :
#
#
# Convention : Reuss Voigt Hill
#
# Bulk Modulus (GPa) = 22.74898 60.32276 41.53587
# Shear Modulus (GPa) = 14.50190 26.19873 20.35032
#
# Velocity S-wave (km/s) = 2.85570 3.83831 3.38287
# Velocity P-wave (km/s) = 4.86478 7.31885 6.21416
#
# Compressibility (1/GPa) = 0.04395802
#
# Stress axis : x y z
#
# Youngs Moduli (GPa) = 75.73424 37.37178 39.43943
#
# Poissons Ratio (x) = 0.29322 0.23522
# Poissons Ratio (y) = 0.59422 -0.12346
# Poissons Ratio (z) = 0.45168 -0.11699
#
# Static dielectric constant tensor:
#      x y z
#    x 3.210910 0.058000 0.223130 
#    y 0.058000 3.099570 -0.056080 
#    z 0.223130 -0.056080 3.422490 
# 
# 
# High freq. dielectric constant tensor:
#      x y z
#    x 1.684870 0.008920 0.017110 
#    y 0.008920 1.662360 -0.006670 
#    z 0.017110 -0.006670 1.688420 
# 
# From -- ./inp_files/82434.got.cif
#   From: 2010.06.25/outbox.cif.g09.slc.cpg/sg2_42_cif.got.tgz:82434.got - 2010.06.27 13:26:56.
