data_PCOD8041789
_publ_section_title
;
Structure prediction by ZEFSAII (Michael W. Deem and Ramdas Pophale) SiO2 
 PCOD8041789
Probable space group: P -1
;
_chemical_formula_sum "Si O2"
_cell_formula_units_Z 16
_cell_length_a 10.447720
_cell_length_b 10.090283
_cell_length_c 9.171687
_cell_angle_alpha 122.184344
_cell_angle_beta 65.938745
_cell_angle_gamma 114.684389
_cell_volume 721.633890
_symmetry_space_group_name_H-M "P -1"
_symmetry_group_IT_number 2
_symmetry_cell_setting 'triclinic'
loop_
_space_group_symop_operation_xyz
x,y,z
-x,-y,-z
loop_
_atom_site_type_symbol
_atom_site_label
_atom_site_fract_x
_atom_site_fract_y
_atom_site_fract_z
Si Si1 0.473378 0.811781 0.204638
Si Si2 0.255257 0.076270 0.652523
Si Si3 0.344397 0.303957 0.175601
Si Si4 0.922578 0.819141 0.973167
Si Si5 0.590362 0.872486 0.673124
Si Si6 0.080752 0.555412 0.698803
Si Si7 0.374804 0.567373 0.532200
Si Si8 0.176801 0.706603 0.434113
O O1 0.594008 0.902787 0.317718
O O2 0.331179 0.706657 0.291293
O O3 0.427630 0.945860 0.203414
O O4 0.533063 0.693790 0.001516
O O5 0.158835 0.180932 0.835542
O O6 0.286717 0.137659 0.508724
O O7 0.166044 0.887591 0.579003
O O8 0.358981 0.181331 0.227219
O O9 0.355286 0.485135 0.332419
O O10 0.185201 0.248887 0.148542
O O11 0.032039 0.705589 0.879780
O O12 0.000000 0.000000 0.000000
O O13 0.436679 0.761660 0.618380
O O14 0.228973 0.523823 0.678728
O O15 0.151449 0.605198 0.535040
O O16 0.952994 0.390048 0.668441
O O17 0.500000 0.500000 0.500000
#
# Coordination Sequence:
#
# PCOD8041789 Si02
#       8
#     2   2   2   2   2   2   2   2
#     4  10  20  35  60  94 127 155 209 253 290 354
#     4  10  20  36  60  93 123 159 207 252 289 360
#     4  10  22  38  59  89 122 161 202 251 298 360
#     4  11  23  38  60  91 123 154 205 253 294 359
#     4  10  20  38  63  87 120 164 203 244 307 347
#     4  11  21  37  62  84 121 162 198 244 315 348
#     4  10  22  39  62  87 117 160 204 245 296 371
#     4  10  19  33  58  93 120 155 201 248 297 355
#
# _framework density 22.171907999999998
#
# number of rings (size 3 to 8) (size 9 to 14) (size 15 to 20)
#    0.000    1.750    1.250    4.875    1.750    1.000 
#    0.000    3.750    2.750    6.000    0.000    0.000 
#    0.000    0.000    0.000    0.000    0.000    0.000 
#
# Total GULP energy -198273.312679 kJ/mol
# GULP energy per Si atom -12392.082042 kJ/mol
# Density = 2.212144 g / cm^3
# Si number density = 22.171908 Si / 1000 Ang^3
#
#
#
# Elastic Constant Matrix: (Units=GPa)
#
#
# Indices 1 2 3 4 5 6 
#
# 1 102.3176 36.5756 51.9982 8.4236 -34.5084 16.9542
# 2 36.5756 85.7754 28.8040 5.1099 -8.1251 29.4745
# 3 51.9982 28.8040 130.3529 7.8779 -29.3957 13.4628
# 4 8.4236 5.1099 7.8779 33.4798 0.3043 6.6330
# 5 -34.5084 -8.1251 -29.3957 0.3043 39.3419 -2.5524
# 6 16.9542 29.4745 13.4628 6.6330 -2.5524 36.0022
#
#
#
# Elastic Compliance Matrix: (Units=1/GPa)
#
#
# Indices 1 2 3 4 5 6 
#
# 1 0.017511 -0.004442 -0.002868 -0.002734 0.012180 -0.002171
# 2 -0.004442 0.018084 -0.001473 0.001206 -0.002084 -0.012533
# 3 -0.002868 -0.001473 0.010411 -0.001404 0.004923 -0.000729
# 4 -0.002734 0.001206 -0.001404 0.031787 -0.003787 -0.005300
# 5 0.012180 -0.002084 0.004923 -0.003787 0.039224 -0.002392
# 6 -0.002171 -0.012533 -0.000729 -0.005300 -0.002392 0.040138
#
#
# Mechanical properties :
#
#
# Convention : Reuss Voigt Hill
#
# Bulk Modulus (GPa) = 35.15826 61.46685 48.31255
# Shear Modulus (GPa) = 27.14417 35.16930 31.15674
#
# Velocity S-wave (km/s) = 3.50274 3.98705 3.75271
# Velocity P-wave (km/s) = 5.67895 6.99846 6.37294
#
# Compressibility (1/GPa) = 0.02844282
#
# Stress axis : x y z
#
# Youngs Moduli (GPa) = 57.10576 55.29686 96.05013
#
# Poissons Ratio (x) = 0.24560 0.27545
# Poissons Ratio (y) = 0.25364 0.14146
# Poissons Ratio (z) = 0.16377 0.08144
#
# Static dielectric constant tensor:
#      x y z
#    x 4.496310 0.862480 0.149890 
#    y 0.862480 4.787850 0.733570 
#    z 0.149890 0.733570 4.739780 
# 
# 
# High freq. dielectric constant tensor:
#      x y z
#    x 1.866260 0.015420 -0.021810 
#    y 0.015420 1.868610 0.012850 
#    z -0.021810 0.012850 1.875890 
# 
# From -- ./inp_files/260565.got.cif
#   From: 2010.06.25/outbox.cif.g09.slc.cpg/sg2_131_cif.got.tgz:260565.got - 2010.06.27 13:26:56.
