data_PCOD8041585
_publ_section_title
;
Structure prediction by ZEFSAII (Michael W. Deem and Ramdas Pophale) SiO2 
 PCOD8041585
Probable space group: P -1
;
_chemical_formula_sum "Si O2"
_cell_formula_units_Z 16
_cell_length_a 11.789090
_cell_length_b 14.597374
_cell_length_c 20.666534
_cell_angle_alpha 31.705020
_cell_angle_beta 149.613013
_cell_angle_gamma 127.518938
_cell_volume 834.670539
_symmetry_space_group_name_H-M "P -1"
_symmetry_group_IT_number 2
_symmetry_cell_setting 'triclinic'
loop_
_space_group_symop_operation_xyz
x,y,z
-x,-y,-z
loop_
_atom_site_type_symbol
_atom_site_label
_atom_site_fract_x
_atom_site_fract_y
_atom_site_fract_z
Si Si1 0.094333 0.437176 0.656659
Si Si2 0.825224 0.945808 0.122680
Si Si3 0.024380 0.938023 0.659215
Si Si4 0.750098 0.826894 0.299246
Si Si5 0.521481 0.410491 0.964273
Si Si6 0.184143 0.262870 0.228307
Si Si7 0.487690 0.238603 0.179134
Si Si8 0.714367 0.966089 0.712302
O O1 0.126341 0.218296 0.809885
O O2 0.364665 0.431353 0.808504
O O3 0.000000 0.500000 0.500000
O O4 0.898564 0.588647 0.521963
O O5 0.838045 0.869702 0.247499
O O6 0.031520 0.016224 0.167985
O O7 0.541550 0.120793 0.868464
O O8 0.956896 0.852912 0.741320
O O9 0.171372 0.062054 0.675112
O O10 0.192699 0.756719 0.804738
O O11 0.778923 0.073558 0.415231
O O12 0.525855 0.613353 0.859238
O O13 0.394475 0.351737 0.997223
O O14 0.246285 0.194860 0.226158
O O15 0.463774 0.180752 0.449149
O O16 0.000000 0.500000 0.000000
O O17 0.318492 0.133043 0.178294
#
# Coordination Sequence:
#
# PCOD8041585 Si02
#       8
#     2   2   2   2   2   2   2   2
#     4  10  21  33  57  84 111 145 186 237 286 330
#     4  10  20  35  52  81 113 149 181 229 286 340
#     4  11  19  35  59  85 112 143 192 238 285 332
#     4  10  19  33  54  83 110 141 186 235 282 327
#     4  11  21  38  59  86 113 148 197 233 286 333
#     4  10  21  33  55  84 115 149 182 240 290 339
#     4  10  23  38  58  83 116 154 187 239 276 342
#     4  10  21  37  53  81 117 151 189 225 294 341
#
# _framework density 19.169239999999999
#
# number of rings (size 3 to 8) (size 9 to 14) (size 15 to 20)
#    0.000    1.750    3.750    1.125    0.000    3.000 
#    0.000    0.625    0.000    0.750    0.000    0.000 
#    0.000    0.000    0.000    0.000    0.000    0.000 
#
# Total GULP energy -198293.344578 kJ/mol
# GULP energy per Si atom -12393.334036 kJ/mol
# Density = 1.912561 g / cm^3
# Si number density = 19.169240 Si / 1000 Ang^3
#
#
#
# Elastic Constant Matrix: (Units=GPa)
#
#
# Indices 1 2 3 4 5 6 
#
# 1 61.5833 27.9691 30.9305 5.7027 11.9829 17.9509
# 2 27.9691 83.1072 44.7116 8.1588 16.4635 17.2808
# 3 30.9305 44.7116 102.0212 -12.8873 27.5230 5.7984
# 4 5.7027 8.1588 -12.8873 31.2325 -6.2858 8.0351
# 5 11.9829 16.4635 27.5230 -6.2858 31.7042 3.6218
# 6 17.9509 17.2808 5.7984 8.0351 3.6218 27.9451
#
#
#
# Elastic Compliance Matrix: (Units=1/GPa)
#
#
# Indices 1 2 3 4 5 6 
#
# 1 0.024200 -0.001723 -0.005646 -0.003801 -0.002749 -0.011859
# 2 -0.001723 0.019469 -0.007536 -0.006785 -0.003466 -0.006968
# 3 -0.005646 -0.007536 0.017845 0.007818 -0.008284 0.003410
# 4 -0.003801 -0.006785 0.007818 0.041158 0.007219 -0.007755
# 5 -0.002749 -0.003466 -0.008284 0.007219 0.043237 -0.002052
# 6 -0.011859 -0.006968 0.003410 -0.007755 -0.002052 0.049499
#
#
# Mechanical properties :
#
#
# Convention : Reuss Voigt Hill
#
# Bulk Modulus (GPa) = 31.54272 50.43713 40.98992
# Shear Modulus (GPa) = 21.20556 27.71638 24.46097
#
# Velocity S-wave (km/s) = 3.32961 3.80660 3.57606
# Velocity P-wave (km/s) = 5.59217 6.75935 6.20327
#
# Compressibility (1/GPa) = 0.03170304
#
# Stress axis : x y z
#
# Youngs Moduli (GPa) = 41.32176 51.36501 56.03827
#
# Poissons Ratio (x) = 0.08851 0.31641
# Poissons Ratio (y) = 0.07120 0.42230
# Poissons Ratio (z) = 0.23331 0.38709
#
# Static dielectric constant tensor:
#      x y z
#    x 3.317550 -0.100740 0.240020 
#    y -0.100740 3.474320 -0.225400 
#    z 0.240020 -0.225400 3.737520 
# 
# 
# High freq. dielectric constant tensor:
#      x y z
#    x 1.721080 -0.007500 0.022910 
#    y -0.007500 1.736680 -0.010270 
#    z 0.022910 -0.010270 1.754420 
# 
# From -- ./inp_files/424948.got.cif
#   From: 2010.06.25/outbox.cif.g09.slc.cpg/sg2_213_cif.got.tgz:424948.got - 2010.06.27 13:26:56.
