data_PCOD8041161
_publ_section_title
;
Structure prediction by ZEFSAII (Michael W. Deem and Ramdas Pophale) SiO2 
 PCOD8041161
Probable space group: P -1
;
_chemical_formula_sum "Si O2"
_cell_formula_units_Z 16
_cell_length_a 12.703543
_cell_length_b 20.620710
_cell_length_c 11.225982
_cell_angle_alpha 32.649153
_cell_angle_beta 118.877022
_cell_angle_gamma 140.252382
_cell_volume 891.726731
_symmetry_space_group_name_H-M "P -1"
_symmetry_group_IT_number 2
_symmetry_cell_setting 'triclinic'
loop_
_space_group_symop_operation_xyz
x,y,z
-x,-y,-z
loop_
_atom_site_type_symbol
_atom_site_label
_atom_site_fract_x
_atom_site_fract_y
_atom_site_fract_z
Si Si1 0.605109 0.395287 0.703403
Si Si2 0.759298 0.832501 0.747957
Si Si3 0.615335 0.989536 0.737020
Si Si4 0.617532 0.974642 0.490415
Si Si5 0.989772 0.615488 0.657949
Si Si6 0.025708 0.382753 0.082421
Si Si7 0.832183 0.759048 0.660588
Si Si8 0.495121 0.504929 0.293009
O O1 0.564619 0.435761 0.498185
O O2 0.560548 0.440562 0.723952
O O3 0.823074 0.524397 0.619621
O O4 0.475646 0.177236 0.966809
O O5 0.641193 0.863901 0.611567
O O6 0.749460 0.749358 0.750869
O O7 0.667396 0.686110 0.029368
O O8 0.972350 0.027960 0.599193
O O9 0.537507 0.064928 0.601838
O O10 0.839022 0.160819 0.614016
O O11 0.558609 0.907346 0.699182
O O12 0.804740 0.195590 0.248015
O O13 0.907245 0.558544 0.834795
O O14 0.065435 0.537905 0.795486
O O15 0.136593 0.359237 0.116382
O O16 0.685456 0.667177 0.617504
#
# Coordination Sequence:
#
# PCOD8041161 Si02
#       8
#     2   2   2   2   2   2   2   2
#     4  11  22  36  52  82 115 146 180 212 268 338
#     4  10  21  37  57  84 108 140 183 229 271 316
#     4  10  19  31  52  79 110 141 172 224 274 318
#     4   9  17  30  52  81 110 131 173 231 273 312
#     4  10  19  31  52  79 110 141 172 224 274 318
#     4   9  17  30  52  81 110 131 173 231 273 312
#     4  10  21  37  57  84 108 140 183 229 271 316
#     4  11  23  36  56  78 115 149 177 217 264 338
#
# _framework density 17.942716000000001
#
# number of rings (size 3 to 8) (size 9 to 14) (size 15 to 20)
#    0.000    2.000    3.750    0.375    3.500    1.000 
#    0.000    2.500    0.000    1.500    0.000    0.000 
#    0.000    0.000    0.000    0.000    0.000    0.000 
#
# Total GULP energy -198404.656511 kJ/mol
# GULP energy per Si atom -12400.291032 kJ/mol
# Density = 1.790188 g / cm^3
# Si number density = 17.942716 Si / 1000 Ang^3
#
#
#
# Elastic Constant Matrix: (Units=GPa)
#
#
# Indices 1 2 3 4 5 6 
#
# 1 107.9282 44.0319 42.2892 5.0706 19.2835 2.3877
# 2 44.0319 91.8730 53.6429 1.4327 1.8867 19.7639
# 3 42.2892 53.6429 117.0359 1.9215 9.4251 12.0524
# 4 5.0706 1.4327 1.9215 19.1883 5.6002 1.0193
# 5 19.2835 1.8867 9.4251 5.6002 22.4182 1.5121
# 6 2.3877 19.7639 12.0524 1.0193 1.5121 25.9065
#
#
#
# Elastic Compliance Matrix: (Units=1/GPa)
#
#
# Indices 1 2 3 4 5 6 
#
# 1 0.014790 -0.007002 -0.001752 -0.000073 -0.011747 0.005483
# 2 -0.007002 0.020356 -0.006142 -0.000700 0.007908 -0.012461
# 3 -0.001752 -0.006142 0.012319 0.000683 -0.003278 -0.000720
# 4 -0.000073 -0.000700 0.000683 0.056311 -0.014154 -0.001166
# 5 -0.011747 0.007908 -0.003278 -0.014154 0.059387 -0.006335
# 6 0.005483 -0.012461 -0.000720 -0.001166 -0.006335 0.048352
#
#
# Mechanical properties :
#
#
# Convention : Reuss Voigt Hill
#
# Bulk Modulus (GPa) = 56.58503 66.30722 61.44613
# Shear Modulus (GPa) = 20.22675 25.29415 22.76045
#
# Velocity S-wave (km/s) = 3.36117 3.75869 3.56547
# Velocity P-wave (km/s) = 6.83141 7.47477 7.16032
#
# Compressibility (1/GPa) = 0.01767252
#
# Stress axis : x y z
#
# Youngs Moduli (GPa) = 67.61483 49.12589 81.17279
#
# Poissons Ratio (x) = 0.34400 0.14220
# Poissons Ratio (y) = 0.47346 0.49856
# Poissons Ratio (z) = 0.11845 0.30173
#
# Static dielectric constant tensor:
#      x y z
#    x 3.369910 0.190030 0.150050 
#    y 0.190030 3.114040 -0.171790 
#    z 0.150050 -0.171790 3.313110 
# 
# 
# High freq. dielectric constant tensor:
#      x y z
#    x 1.690220 0.025740 0.014390 
#    y 0.025740 1.668820 -0.025020 
#    z 0.014390 -0.025020 1.694030 
# 
# From -- ./inp_files/185906.got.cif
#   From: 2010.06.25/outbox.cif.g09.slc.cpg/sg2_93_cif.got.tgz:185906.got - 2010.06.27 13:26:56.
