data_PCOD8041422
_publ_section_title
;
Structure prediction by ZEFSAII (Michael W. Deem and Ramdas Pophale) SiO2 
 PCOD8041422
Probable space group: P -1
;
_chemical_formula_sum "Si O2"
_cell_formula_units_Z 16
_cell_length_a 11.912159
_cell_length_b 11.291957
_cell_length_c 9.149185
_cell_angle_alpha 106.701750
_cell_angle_beta 58.850289
_cell_angle_gamma 129.760562
_cell_volume 807.876534
_symmetry_space_group_name_H-M "P -1"
_symmetry_group_IT_number 2
_symmetry_cell_setting 'triclinic'
loop_
_space_group_symop_operation_xyz
x,y,z
-x,-y,-z
loop_
_atom_site_type_symbol
_atom_site_label
_atom_site_fract_x
_atom_site_fract_y
_atom_site_fract_z
Si Si1 0.313478 0.730211 0.854032
Si Si2 0.566899 0.328347 0.814273
Si Si3 0.863641 0.342567 0.612472
Si Si4 0.103763 0.808466 0.194811
Si Si5 0.379730 0.822046 0.512084
Si Si6 0.630382 0.835526 0.832608
Si Si7 0.579593 0.538256 0.668935
Si Si8 0.251818 0.427752 0.719479
O O1 0.323399 0.754470 0.684759
O O2 0.491558 0.839699 0.848845
O O3 0.234463 0.549482 0.857943
O O4 0.202165 0.774458 0.009722
O O5 0.732415 0.362182 0.786006
O O6 0.527153 0.237840 0.654799
O O7 0.595720 0.486817 0.801538
O O8 0.419608 0.227237 0.990466
O O9 0.931146 0.282196 0.661302
O O10 0.775010 0.220647 0.496220
O O11 0.000000 0.500000 0.500000
O O12 0.926570 0.738396 0.218417
O O13 0.201437 0.991522 0.219155
O O14 0.500000 0.000000 0.500000
O O15 0.650288 0.718279 0.689858
O O16 0.386670 0.425042 0.716100
O O17 0.685132 0.522789 0.472827
#
# Coordination Sequence:
#
# PCOD8041422 Si02
#       8
#     2   2   2   2   2   2   2   2
#     4  11  19  37  59  88 119 150 192 236 299 354
#     4  10  20  39  59  84 117 156 199 234 285 353
#     4  10  21  36  59  86 120 151 187 245 296 346
#     4  12  22  38  60  94 123 141 197 249 302 341
#     4  10  19  32  57  86 117 151 186 235 298 345
#     4  11  23  36  63  88 118 160 189 246 291 345
#     4  10  21  42  61  80 116 161 212 221 284 355
#     4  10  22  38  60  87 111 159 194 246 282 347
#
# _framework density 19.805008000000001
#
# number of rings (size 3 to 8) (size 9 to 14) (size 15 to 20)
#    0.750    0.750    2.500    4.125    0.000    0.500 
#    0.000    0.625    0.000    0.000    0.000    0.000 
#    0.000    0.000    0.000    0.000    0.000    0.000 
#
# Total GULP energy -198295.304494 kJ/mol
# GULP energy per Si atom -12393.456531 kJ/mol
# Density = 1.975993 g / cm^3
# Si number density = 19.805008 Si / 1000 Ang^3
#
#
#
# Elastic Constant Matrix: (Units=GPa)
#
#
# Indices 1 2 3 4 5 6 
#
# 1 64.5374 35.1562 5.3140 5.2236 -5.9407 9.3445
# 2 35.1562 125.2597 19.4748 1.0114 -12.5544 22.8025
# 3 5.3140 19.4748 62.7891 10.5777 7.5235 -1.1624
# 4 5.2236 1.0114 10.5777 24.5421 -0.2792 3.6124
# 5 -5.9407 -12.5544 7.5235 -0.2792 26.0202 -4.1271
# 6 9.3445 22.8025 -1.1624 3.6124 -4.1271 34.2160
#
#
#
# Elastic Compliance Matrix: (Units=1/GPa)
#
#
# Indices 1 2 3 4 5 6 
#
# 1 0.018768 -0.004904 0.000350 -0.003740 0.001577 -0.001260
# 2 -0.004904 0.011677 -0.004493 0.003493 0.004839 -0.006380
# 3 0.000350 -0.004493 0.019755 -0.009023 -0.007319 0.003639
# 4 -0.003740 0.003493 -0.009023 0.046224 0.002963 -0.006136
# 5 0.001577 0.004839 -0.007319 0.002963 0.043437 0.001022
# 6 -0.001260 -0.006380 0.003639 -0.006136 0.001022 0.034717
#
#
# Mechanical properties :
#
#
# Convention : Reuss Voigt Hill
#
# Bulk Modulus (GPa) = 31.14723 41.38625 36.26674
# Shear Modulus (GPa) = 24.58544 29.79840 27.19192
#
# Velocity S-wave (km/s) = 3.52714 3.88311 3.70940
# Velocity P-wave (km/s) = 5.68759 6.40679 6.05787
#
# Compressibility (1/GPa) = 0.03210559
#
# Stress axis : x y z
#
# Youngs Moduli (GPa) = 53.28219 85.64103 50.62117
#
# Poissons Ratio (x) = 0.42001 -0.01774
# Poissons Ratio (y) = 0.26131 0.22744
# Poissons Ratio (z) = -0.01868 0.38478
#
# Static dielectric constant tensor:
#      x y z
#    x 3.482350 0.042070 0.023450 
#    y 0.042070 3.485420 0.147720 
#    z 0.023450 0.147720 3.561340 
# 
# 
# High freq. dielectric constant tensor:
#      x y z
#    x 1.759220 0.000830 0.010450 
#    y 0.000830 1.764450 0.005360 
#    z 0.010450 0.005360 1.773720 
# 
# From -- ./inp_files/262796.got.cif
#   From: 2010.06.25/outbox.cif.g09.slc.cpg/sg2_132_cif.got.tgz:262796.got - 2010.06.27 13:26:56.
