data_PCOD8041132
_publ_section_title
;
Structure prediction by ZEFSAII (Michael W. Deem and Ramdas Pophale) SiO2 
 PCOD8041132
Probable space group: P -1
;
_chemical_formula_sum "Si O2"
_cell_formula_units_Z 14
_cell_length_a 20.398238
_cell_length_b 17.932121
_cell_length_c 10.880439
_cell_angle_alpha 146.797276
_cell_angle_beta 30.816740
_cell_angle_gamma 158.730031
_cell_volume 725.277711
_symmetry_space_group_name_H-M "P -1"
_symmetry_group_IT_number 2
_symmetry_cell_setting 'triclinic'
loop_
_space_group_symop_operation_xyz
x,y,z
-x,-y,-z
loop_
_atom_site_type_symbol
_atom_site_label
_atom_site_fract_x
_atom_site_fract_y
_atom_site_fract_z
Si Si1 0.138275 0.930347 0.804108
Si Si2 0.525307 0.464185 0.196523
Si Si3 0.115812 0.136848 0.694126
Si Si4 0.276089 0.845834 0.679195
Si Si5 0.821317 0.999187 0.790569
Si Si6 0.476352 0.615289 0.274643
Si Si7 0.796543 0.512484 0.650997
O O1 0.174957 0.846384 0.732560
O O2 0.998298 0.757248 0.684693
O O3 0.335896 0.135391 0.702262
O O4 0.028838 0.970684 0.102200
O O5 0.675927 0.624342 0.282912
O O6 0.466137 0.558357 0.353553
O O7 0.329149 0.240005 0.254661
O O8 0.623165 0.431397 0.904161
O O9 0.025157 0.147674 0.741016
O O10 0.143350 0.002352 0.414714
O O11 0.163018 0.612474 0.556685
O O12 0.500000 0.000000 0.500000
O O13 0.263705 0.920184 0.930481
O O14 0.279212 0.533353 0.431731
O O15 0.500000 0.500000 0.000000
#
# Coordination Sequence:
#
# PCOD8041132 Si02
#       7
#     2   2   2   2   2   2   2
#     4  10  20  32  51  78 103 126 165 203 251 296
#     4  10  19  31  51  75 101 129 164 201 250 290
#     4   9  19  32  49  74 101 130 161 202 247 292
#     4  11  17  32  52  72 104 131 161 207 248 289
#     4  10  19  33  51  74 103 128 162 203 246 295
#     4  10  19  31  49  77 103 131 160 203 254 288
#     4  10  19  31  48  75 102 130 160 204 252 289
#
# _framework density 19.302949999999999
#
# number of rings (size 3 to 8) (size 9 to 14) (size 15 to 20)
#    0.000    2.000    2.857    3.429    0.000    6.286 
#    0.000    0.000    0.000    0.857    0.000   28.000 
#    0.000    0.000    0.000    0.000    0.000    0.000 
#
# Total GULP energy -173499.362729 kJ/mol
# GULP energy per Si atom -12392.811624 kJ/mol
# Density = 1.925902 g / cm^3
# Si number density = 19.302950 Si / 1000 Ang^3
#
#
#
# Elastic Constant Matrix: (Units=GPa)
#
#
# Indices 1 2 3 4 5 6 
#
# 1 84.1319 57.4983 33.1007 10.3804 -3.7465 18.4857
# 2 57.4983 87.1612 24.7357 13.9373 -0.1088 23.2798
# 3 33.1007 24.7357 105.8163 10.3857 5.4490 8.0339
# 4 10.3804 13.9373 10.3857 20.9461 2.5968 -4.3078
# 5 -3.7465 -0.1088 5.4490 2.5968 22.0653 5.0547
# 6 18.4857 23.2798 8.0339 -4.3078 5.0547 27.9275
#
#
#
# Elastic Compliance Matrix: (Units=1/GPa)
#
#
# Indices 1 2 3 4 5 6 
#
# 1 0.024229 -0.012528 -0.004167 -0.003748 0.006950 -0.006232
# 2 -0.012528 0.026772 0.000324 -0.015771 0.003727 -0.017225
# 3 -0.004167 0.000324 0.011230 -0.003517 -0.002891 -0.000762
# 4 -0.003748 -0.015771 -0.003517 0.069889 -0.014973 0.030129
# 5 0.006950 0.003727 -0.002891 -0.014973 0.053309 -0.018833
# 6 -0.006232 -0.017225 -0.000762 0.030129 -0.018833 0.062565
#
#
# Mechanical properties :
#
#
# Convention : Reuss Voigt Hill
#
# Bulk Modulus (GPa) = 33.91119 56.41988 45.16553
# Shear Modulus (GPa) = 17.20776 24.97276 21.09026
#
# Velocity S-wave (km/s) = 2.98897 3.60074 3.30902
# Velocity P-wave (km/s) = 5.43304 6.82490 6.16835
#
# Compressibility (1/GPa) = 0.02948879
#
# Stress axis : x y z
#
# Youngs Moduli (GPa) = 41.27267 37.35177 89.04694
#
# Poissons Ratio (x) = 0.46796 0.37110
# Poissons Ratio (y) = 0.51708 -0.02888
# Poissons Ratio (z) = 0.17200 -0.01212
#
# Static dielectric constant tensor:
#      x y z
#    x 3.916510 0.199300 -0.076310 
#    y 0.199300 3.437640 0.077270 
#    z -0.076310 0.077270 3.854010 
# 
# 
# High freq. dielectric constant tensor:
#      x y z
#    x 1.736580 0.030850 -0.000160 
#    y 0.030850 1.748880 0.006520 
#    z -0.000160 0.006520 1.729220 
# 
# From -- ./inp_files/240695.got.cif
#   From: 2010.06.25/outbox.cif.g09.slc.cpg/sg2_121_cif.got.tgz:240695.got - 2010.06.27 13:26:56.
