data_PCOD8041170
_publ_section_title
;
Structure prediction by ZEFSAII (Michael W. Deem and Ramdas Pophale) SiO2 
 PCOD8041170
Probable space group: P -1
;
_chemical_formula_sum "Si O2"
_cell_formula_units_Z 10
_cell_length_a 9.892867
_cell_length_b 9.803557
_cell_length_c 9.334750
_cell_angle_alpha 61.752522
_cell_angle_beta 62.828783
_cell_angle_gamma 43.577755
_cell_volume 540.022233
_symmetry_space_group_name_H-M "P -1"
_symmetry_group_IT_number 2
_symmetry_cell_setting 'triclinic'
loop_
_space_group_symop_operation_xyz
x,y,z
-x,-y,-z
loop_
_atom_site_type_symbol
_atom_site_label
_atom_site_fract_x
_atom_site_fract_y
_atom_site_fract_z
Si Si1 0.469889 0.406171 0.735419
Si Si2 0.973752 0.550873 0.652594
Si Si3 0.616751 0.753820 0.911625
Si Si4 0.694423 0.794550 0.152833
Si Si5 0.844921 0.241716 0.474971
O O1 0.438938 0.271469 0.719216
O O2 0.695462 0.315612 0.645657
O O3 0.299812 0.642558 0.652033
O O4 0.439056 0.380145 0.931139
O O5 0.103643 0.346391 0.785302
O O6 0.022757 0.695283 0.591969
O O7 0.000000 0.500000 0.500000
O O8 0.747364 0.660181 0.751991
O O9 0.415447 0.977516 0.856820
O O10 0.734561 0.772452 0.971543
O O11 0.000000 0.000000 0.500000
#
# Coordination Sequence:
#
# PCOD8041170 Si02
#       5
#     2   2   2   2   2
#     4   8  17  31  50  78  94 127 181 213 239 288
#     4  11  22  33  50  82 111 132 162 214 267 304
#     4   9  17  33  56  76  96 137 180 214 241 298
#     4   8  17  32  57  75  97 133 184 209 244 297
#     4  10  19  31  53  76 104 132 169 212 251 299
#
# _framework density 18.517755999999999
#
# number of rings (size 3 to 8) (size 9 to 14) (size 15 to 20)
#    1.200    1.600    0.000    1.800    0.000    0.800 
#    0.000    1.000    0.000    2.400    0.000    0.000 
#    0.000    0.000    0.000    0.000    0.000    0.000 
#
# Total GULP energy -123883.895822 kJ/mol
# GULP energy per Si atom -12388.389582 kJ/mol
# Density = 1.847561 g / cm^3
# Si number density = 18.517756 Si / 1000 Ang^3
#
#
#
# Elastic Constant Matrix: (Units=GPa)
#
#
# Indices 1 2 3 4 5 6 
#
# 1 20.8980 22.0746 13.4189 0.1946 -8.6576 -4.5297
# 2 22.0746 133.3162 63.1933 -12.4890 1.1049 -18.0262
# 3 13.4189 63.1933 99.9538 11.4543 -20.8663 -1.8127
# 4 0.1946 -12.4890 11.4543 33.6162 -3.3667 -2.1120
# 5 -8.6576 1.1049 -20.8663 -3.3667 31.2681 3.1497
# 6 -4.5297 -18.0262 -1.8127 -2.1120 3.1497 12.3176
#
#
#
# Elastic Compliance Matrix: (Units=1/GPa)
#
#
# Indices 1 2 3 4 5 6 
#
# 1 0.069538 -0.015699 0.006165 -0.006197 0.023618 -0.003598
# 2 -0.015699 0.027012 -0.020685 0.017514 -0.021161 0.039127
# 3 0.006165 -0.020685 0.028394 -0.017158 0.022823 -0.032604
# 4 -0.006197 0.017514 -0.017158 0.042870 -0.012325 0.031329
# 5 0.023618 -0.021161 0.022823 -0.012325 0.056754 -0.035550
# 6 -0.003598 0.039127 -0.032604 0.031329 -0.035550 0.146787
#
#
# Mechanical properties :
#
#
# Convention : Reuss Voigt Hill
#
# Bulk Modulus (GPa) = 15.50241 50.17131 32.83686
# Shear Modulus (GPa) = 11.03035 25.80578 18.41806
#
# Velocity S-wave (km/s) = 2.44327 3.73710 3.15718
# Velocity P-wave (km/s) = 4.04342 6.76563 5.57328
#
# Compressibility (1/GPa) = 0.06450611
#
# Stress axis : x y z
#
# Youngs Moduli (GPa) = 14.38061 37.02051 35.21863
#
# Poissons Ratio (x) = 0.58120 -0.21714
# Poissons Ratio (y) = 0.22577 0.72850
# Poissons Ratio (z) = -0.08866 0.76577
#
# Static dielectric constant tensor:
#      x y z
#    x 2.959630 -0.179910 -0.168260 
#    y -0.179910 3.292020 -0.240470 
#    z -0.168260 -0.240470 3.438790 
# 
# 
# High freq. dielectric constant tensor:
#      x y z
#    x 1.666820 -0.025550 -0.021100 
#    y -0.025550 1.714560 -0.021550 
#    z -0.021100 -0.021550 1.718910 
# 
# From -- ./inp_files/20242.got.cif
#   From: 2010.06.25/outbox.cif.g09.slc.cpg/sg2_11_cif.got.tgz:20242.got - 2010.06.27 13:26:56.
