data_PCOD8041019
_publ_section_title
;
Structure prediction by ZEFSAII (Michael W. Deem and Ramdas Pophale) SiO2 
 PCOD8041019
Probable space group: P -1
;
_chemical_formula_sum "Si O2"
_cell_formula_units_Z 14
_cell_length_a 9.443858
_cell_length_b 9.282924
_cell_length_c 9.628304
_cell_angle_alpha 92.553588
_cell_angle_beta 127.060301
_cell_angle_gamma 76.996059
_cell_volume 651.787960
_symmetry_space_group_name_H-M "P -1"
_symmetry_group_IT_number 2
_symmetry_cell_setting 'triclinic'
loop_
_space_group_symop_operation_xyz
x,y,z
-x,-y,-z
loop_
_atom_site_type_symbol
_atom_site_label
_atom_site_fract_x
_atom_site_fract_y
_atom_site_fract_z
Si Si1 0.812919 0.962981 0.431410
Si Si2 0.001465 0.331227 0.948270
Si Si3 0.683045 0.529853 0.664683
Si Si4 0.720923 0.762763 0.137168
Si Si5 0.305900 0.536609 0.809905
Si Si6 0.931428 0.715531 0.718298
Si Si7 0.540153 0.257236 0.250161
O O1 0.730331 0.898922 0.246097
O O2 0.842107 0.855147 0.575788
O O3 0.662979 0.112780 0.393300
O O4 0.000000 0.000000 0.500000
O O5 0.789007 0.365164 0.775716
O O6 0.121009 0.261695 0.885144
O O7 0.000000 0.500000 0.000000
O O8 0.055159 0.227619 0.111787
O O9 0.500000 0.500000 0.500000
O O10 0.806077 0.595363 0.629228
O O11 0.636721 0.659745 0.761533
O O12 0.747069 0.620027 0.249817
O O13 0.528236 0.790462 0.941568
O O14 0.332999 0.624557 0.689564
O O15 0.141083 0.642648 0.800738
O O16 0.500000 0.500000 0.000000
#
# Coordination Sequence:
#
# PCOD8041019 Si02
#       7
#     2   2   2   2   2   2   2
#     4  12  28  43  64  98 143 182 227 275 334 409
#     4  10  18  42  69  96 130 169 217 282 340 391
#     4  11  24  40  72 106 135 170 228 289 341 395
#     4  11  22  43  71  98 129 180 225 280 337 398
#     4  10  20  37  73 100 123 170 230 279 330 389
#     4  11  22  45  66  96 140 178 219 277 347 392
#     4  11  23  45  66  98 140 177 227 274 339 411
#
# _framework density 21.479379999999999
#
# number of rings (size 3 to 8) (size 9 to 14) (size 15 to 20)
#    0.000    1.143    7.143    1.286    4.000    1.143 
#    0.000    0.714    0.000    0.000    0.000    0.000 
#    0.000    0.000    0.000    0.000    0.000    0.000 
#
# Total GULP energy -173449.759230 kJ/mol
# GULP energy per Si atom -12389.268516 kJ/mol
# Density = 2.143049 g / cm^3
# Si number density = 21.479380 Si / 1000 Ang^3
#
#
#
# Elastic Constant Matrix: (Units=GPa)
#
#
# Indices 1 2 3 4 5 6 
#
# 1 112.1936 32.6261 29.4375 -19.5477 4.8287 -1.2340
# 2 32.6261 83.9730 36.8970 -26.4447 -3.0984 -2.5229
# 3 29.4375 36.8970 95.3096 -27.5814 3.8782 12.2098
# 4 -19.5477 -26.4447 -27.5814 38.1091 0.9502 3.4303
# 5 4.8287 -3.0984 3.8782 0.9502 31.8406 -1.2906
# 6 -1.2340 -2.5229 12.2098 3.4303 -1.2906 31.2342
#
#
#
# Elastic Compliance Matrix: (Units=1/GPa)
#
#
# Indices 1 2 3 4 5 6 
#
# 1 0.010611 -0.002745 -0.001485 0.002468 -0.001751 0.000435
# 2 -0.002745 0.017235 -0.004078 0.007344 0.002459 0.002173
# 3 -0.001485 -0.004078 0.016225 0.008924 -0.002731 -0.007824
# 4 0.002468 0.007344 0.008924 0.039770 -0.002228 -0.007258
# 5 -0.001751 0.002459 -0.002731 -0.002228 0.032423 0.002782
# 6 0.000435 0.002173 -0.007824 -0.007258 0.002782 0.036179
#
#
# Mechanical properties :
#
#
# Convention : Reuss Voigt Hill
#
# Bulk Modulus (GPa) = 36.42034 54.37748 45.39891
# Shear Modulus (GPa) = 28.05654 33.07115 30.56385
#
# Velocity S-wave (km/s) = 3.61807 3.92812 3.77628
# Velocity P-wave (km/s) = 5.86913 6.77824 6.34000
#
# Compressibility (1/GPa) = 0.02745719
#
# Stress axis : x y z
#
# Youngs Moduli (GPa) = 94.24080 58.01992 61.63222
#
# Poissons Ratio (x) = 0.15924 0.09153
# Poissons Ratio (y) = 0.25865 0.25132
# Poissons Ratio (z) = 0.13995 0.23659
#
# Static dielectric constant tensor:
#      x y z
#    x 4.251980 0.005320 0.107470 
#    y 0.005320 3.899720 -0.365930 
#    z 0.107470 -0.365930 4.321280 
# 
# 
# High freq. dielectric constant tensor:
#      x y z
#    x 1.854270 -0.002310 0.015210 
#    y -0.002310 1.815140 -0.017060 
#    z 0.015210 -0.017060 1.846720 
# 
# From -- ./inp_files/158926.got.cif
#   From: 2010.06.25/outbox.cif.g09.slc.cpg/sg2_80_cif.got.tgz:158926.got - 2010.06.27 13:26:56.
