data_PCOD8041122
_publ_section_title
;
Structure prediction by ZEFSAII (Michael W. Deem and Ramdas Pophale) SiO2 
 PCOD8041122
Probable space group: P -1
;
_chemical_formula_sum "Si O2"
_cell_formula_units_Z 16
_cell_length_a 11.524542
_cell_length_b 29.700655
_cell_length_c 6.292894
_cell_angle_alpha 110.560138
_cell_angle_beta 100.492965
_cell_angle_gamma 28.573780
_cell_volume 925.444236
_symmetry_space_group_name_H-M "P -1"
_symmetry_group_IT_number 2
_symmetry_cell_setting 'triclinic'
loop_
_space_group_symop_operation_xyz
x,y,z
-x,-y,-z
loop_
_atom_site_type_symbol
_atom_site_label
_atom_site_fract_x
_atom_site_fract_y
_atom_site_fract_z
Si Si1 0.948036 0.597216 0.658767
Si Si2 0.474972 0.471370 0.131440
Si Si3 0.288418 0.881653 0.905483
Si Si4 0.489728 0.286282 0.534545
Si Si5 0.273274 0.237566 0.385588
Si Si6 0.391523 0.260179 0.841798
Si Si7 0.509646 0.606288 0.341678
Si Si8 0.183701 0.651586 0.575561
O O1 0.798533 0.612538 0.486582
O O2 0.899379 0.667525 0.667785
O O3 0.246808 0.479590 0.565317
O O4 0.837205 0.636034 0.924155
O O5 0.265349 0.568493 0.382376
O O6 0.727778 0.372686 0.192356
O O7 0.500000 0.500000 0.000000
O O8 0.412402 0.443748 0.946053
O O9 0.328870 0.814611 0.704069
O O10 0.448391 0.864523 0.799178
O O11 0.381700 0.844080 0.116281
O O12 0.000000 0.000000 0.000000
O O13 0.494894 0.267421 0.748964
O O14 0.593581 0.302854 0.579722
O O15 0.289564 0.253716 0.652217
O O16 0.125156 0.239540 0.350507
O O17 0.287693 0.656075 0.464673
#
# Coordination Sequence:
#
# PCOD8041122 Si02
#       8
#     2   2   2   2   2   2   2   2
#     4   9  17  29  45  67  99 132 161 192 225 269
#     4   9  18  28  43  64  92 134 174 194 218 259
#     4   9  19  35  55  75  91 112 150 202 251 292
#     4   9  20  32  46  72  98 126 161 193 236 285
#     4   9  17  30  49  72  94 122 160 197 235 276
#     4   8  17  32  50  70  96 120 151 195 239 282
#     4  11  20  29  45  69 101 138 165 187 224 275
#     4  10  19  31  44  66  99 130 164 200 224 263
#
# _framework density 17.288993999999999
#
# number of rings (size 3 to 8) (size 9 to 14) (size 15 to 20)
#    0.000    3.250    0.000    3.375    0.000    8.500 
#    0.000    0.000    0.000    0.750    0.000    2.625 
#    0.000    0.000    0.000    0.000    0.000    0.000 
#
# Total GULP energy -198243.157624 kJ/mol
# GULP energy per Si atom -12390.197352 kJ/mol
# Density = 1.724964 g / cm^3
# Si number density = 17.288994 Si / 1000 Ang^3
#
#
#
# Elastic Constant Matrix: (Units=GPa)
#
#
# Indices 1 2 3 4 5 6 
#
# 1 114.3173 42.8675 32.3184 4.4115 -3.2532 -10.3348
# 2 42.8675 64.1884 26.2863 2.4065 -2.7196 -10.9628
# 3 32.3184 26.2863 72.5453 -15.7352 -3.0716 0.6661
# 4 4.4115 2.4065 -15.7352 24.5719 0.9664 -5.3971
# 5 -3.2532 -2.7196 -3.0716 0.9664 22.7569 2.6529
# 6 -10.3348 -10.9628 0.6661 -5.3971 2.6529 17.2244
#
#
#
# Elastic Compliance Matrix: (Units=1/GPa)
#
#
# Indices 1 2 3 4 5 6 
#
# 1 0.012629 -0.006082 -0.004264 -0.003843 0.000362 0.002611
# 2 -0.006082 0.024552 -0.007017 -0.003342 -0.000047 0.011209
# 3 -0.004264 -0.007017 0.021423 0.014342 0.001248 -0.003551
# 4 -0.003843 -0.003342 0.014342 0.053698 -0.002722 0.012257
# 5 0.000362 -0.000047 0.001248 -0.002722 0.045167 -0.007671
# 6 0.002611 0.011209 -0.003551 0.012257 -0.007671 0.071918
#
#
# Mechanical properties :
#
#
# Convention : Reuss Voigt Hill
#
# Bulk Modulus (GPa) = 41.88027 50.44393 46.16210
# Shear Modulus (GPa) = 18.37753 22.88256 20.63004
#
# Velocity S-wave (km/s) = 3.26385 3.64199 3.45809
# Velocity P-wave (km/s) = 6.20321 6.85023 6.53473
#
# Compressibility (1/GPa) = 0.02387759
#
# Stress axis : x y z
#
# Youngs Moduli (GPa) = 79.18595 40.72970 46.67886
#
# Poissons Ratio (x) = 0.24772 0.19905
# Poissons Ratio (y) = 0.48162 0.32752
# Poissons Ratio (z) = 0.33767 0.28578
#
# Static dielectric constant tensor:
#      x y z
#    x 3.219990 -0.124710 -0.057160 
#    y -0.124710 2.880900 -0.257720 
#    z -0.057160 -0.257720 3.490400 
# 
# 
# High freq. dielectric constant tensor:
#      x y z
#    x 1.659050 -0.012260 -0.011480 
#    y -0.012260 1.624610 -0.031700 
#    z -0.011480 -0.031700 1.670730 
# 
# From -- ./inp_files/79633.got.cif
#   From: 2010.06.25/outbox.cif.g09.slc.cpg/sg2_40_cif.got.tgz:79633.got - 2010.06.27 13:26:56.
