data_PCOD8041802
_publ_section_title
;
Structure prediction by ZEFSAII (Michael W. Deem and Ramdas Pophale) SiO2 
 PCOD8041802
Probable space group: P -1
;
_chemical_formula_sum "Si O2"
_cell_formula_units_Z 16
_cell_length_a 11.583810
_cell_length_b 10.704503
_cell_length_c 17.192245
_cell_angle_alpha 32.060915
_cell_angle_beta 53.094959
_cell_angle_gamma 63.869381
_cell_volume 893.017986
_symmetry_space_group_name_H-M "P -1"
_symmetry_group_IT_number 2
_symmetry_cell_setting 'triclinic'
loop_
_space_group_symop_operation_xyz
x,y,z
-x,-y,-z
loop_
_atom_site_type_symbol
_atom_site_label
_atom_site_fract_x
_atom_site_fract_y
_atom_site_fract_z
Si Si1 0.678763 0.326348 0.522772
Si Si2 0.327132 0.859737 0.738656
Si Si3 0.126124 0.628299 0.827607
Si Si4 0.973172 0.265985 0.358903
Si Si5 0.407438 0.455485 0.832631
Si Si6 0.553466 0.803321 0.900020
Si Si7 0.452185 0.386844 0.457220
Si Si8 0.275354 0.552527 0.066645
O O1 0.846918 0.315815 0.442440
O O2 0.602148 0.410068 0.432919
O O3 0.674323 0.520722 0.490392
O O4 0.586279 0.080059 0.720029
O O5 0.204471 0.865262 0.718014
O O6 0.444556 0.696045 0.744989
O O7 0.408856 0.115567 0.592619
O O8 0.248505 0.729455 0.914742
O O9 0.070119 0.705725 0.727721
O O10 0.244419 0.447265 0.867032
O O11 0.000000 0.500000 0.000000
O O12 0.119116 0.452320 0.221865
O O13 0.000000 0.000000 0.500000
O O14 0.520075 0.457946 0.714597
O O15 0.415454 0.228343 0.004177
O O16 0.657701 0.673411 0.872523
O O17 0.383131 0.699654 0.008099
#
# Coordination Sequence:
#
# PCOD8041802 Si02
#       8
#     2   2   2   2   2   2   2   2
#     4  11  23  36  58  82 120 153 192 231 288 340
#     4   9  18  33  59  81 109 144 192 239 275 332
#     4  10  19  34  56  87 111 141 187 235 293 329
#     4  12  22  36  59  90 117 148 185 241 290 340
#     4   9  20  33  61  83 109 144 197 239 281 323
#     4  10  19  36  58  86 111 151 188 241 278 338
#     4  11  21  38  55  83 116 155 193 234 277 345
#     4  10  19  33  59  86 116 139 191 238 290 329
#
# _framework density 17.916772000000002
#
# number of rings (size 3 to 8) (size 9 to 14) (size 15 to 20)
#    0.750    1.000    5.000    0.375    0.000    1.500 
#    0.000    0.625    2.750    1.500    0.000    0.000 
#    0.000    0.000    0.000    0.000    0.000    0.000 
#
# Total GULP energy -198299.829197 kJ/mol
# GULP energy per Si atom -12393.739325 kJ/mol
# Density = 1.787599 g / cm^3
# Si number density = 17.916772 Si / 1000 Ang^3
#
#
#
# Elastic Constant Matrix: (Units=GPa)
#
#
# Indices 1 2 3 4 5 6 
#
# 1 85.8474 24.1610 37.8933 12.8677 2.8371 -5.3996
# 2 24.1610 69.2387 30.3786 23.6439 -0.7131 -6.8808
# 3 37.8933 30.3786 85.3304 23.5430 8.7531 -1.0604
# 4 12.8677 23.6439 23.5430 22.1682 -4.7528 -2.0792
# 5 2.8371 -0.7131 8.7531 -4.7528 35.3750 4.5366
# 6 -5.3996 -6.8808 -1.0604 -2.0792 4.5366 20.8423
#
#
#
# Elastic Compliance Matrix: (Units=1/GPa)
#
#
# Indices 1 2 3 4 5 6 
#
# 1 0.015069 -0.002561 -0.005856 0.000444 -0.000114 0.002830
# 2 -0.002561 0.024286 -0.000482 -0.024051 -0.003137 0.005613
# 3 -0.005856 -0.000482 0.020625 -0.019620 -0.007147 -0.001028
# 4 0.000444 -0.024051 -0.019620 0.094790 0.017476 -0.003171
# 5 -0.000114 -0.003137 -0.007147 0.017476 0.033218 -0.006916
# 6 0.002830 0.005613 -0.001028 -0.003171 -0.006916 0.051702
#
#
# Mechanical properties :
#
#
# Convention : Reuss Voigt Hill
#
# Bulk Modulus (GPa) = 23.70590 47.25358 35.47974
# Shear Modulus (GPa) = 18.41294 25.54267 21.97780
#
# Velocity S-wave (km/s) = 3.20924 3.77985 3.50617
# Velocity P-wave (km/s) = 5.19540 6.74395 6.01968
#
# Compressibility (1/GPa) = 0.04218359
#
# Stress axis : x y z
#
# Youngs Moduli (GPa) = 66.36006 41.17539 48.48569
#
# Poissons Ratio (x) = 0.10544 0.28393
# Poissons Ratio (y) = 0.16993 0.02335
# Poissons Ratio (z) = 0.38860 0.01983
#
# Static dielectric constant tensor:
#      x y z
#    x 3.749080 0.056280 0.166010 
#    y 0.056280 3.103220 0.147400 
#    z 0.166010 0.147400 3.371930 
# 
# 
# High freq. dielectric constant tensor:
#      x y z
#    x 1.689320 0.002820 0.010040 
#    y 0.002820 1.662040 0.011810 
#    z 0.010040 0.011810 1.698200 
# 
# From -- ./inp_files/348699.got.cif
#   From: 2010.06.25/outbox.cif.g09.slc.cpg/sg2_175_cif.got.tgz:348699.got - 2010.06.27 13:26:56.
