data_PCOD8041768
_publ_section_title
;
Structure prediction by ZEFSAII (Michael W. Deem and Ramdas Pophale) SiO2 
 PCOD8041768
Probable space group: P -1
;
_chemical_formula_sum "Si O2"
_cell_formula_units_Z 16
_cell_length_a 14.833175
_cell_length_b 8.019783
_cell_length_c 6.803472
_cell_angle_alpha 104.029391
_cell_angle_beta 94.572136
_cell_angle_gamma 69.922708
_cell_volume 737.470700
_symmetry_space_group_name_H-M "P -1"
_symmetry_group_IT_number 2
_symmetry_cell_setting 'triclinic'
loop_
_space_group_symop_operation_xyz
x,y,z
-x,-y,-z
loop_
_atom_site_type_symbol
_atom_site_label
_atom_site_fract_x
_atom_site_fract_y
_atom_site_fract_z
Si Si1 0.602216 0.229617 0.517241
Si Si2 0.650320 0.836346 0.569810
Si Si3 0.517382 0.803438 0.862500
Si Si4 0.571240 0.607430 0.211922
Si Si5 0.995338 0.718288 0.399429
Si Si6 0.155737 0.417668 0.477770
Si Si7 0.943238 0.046037 0.204101
Si Si8 0.258403 0.687648 0.695439
O O1 0.573719 0.192545 0.281215
O O2 0.519209 0.390866 0.661753
O O3 0.700815 0.272388 0.500463
O O4 0.617583 0.053907 0.608251
O O5 0.608166 0.758727 0.722883
O O6 0.617083 0.756797 0.344047
O O7 0.763540 0.770426 0.623341
O O8 0.536260 0.652644 0.995075
O O9 0.500000 0.000000 0.000000
O O10 0.649848 0.402459 0.170332
O O11 0.911904 0.635150 0.395037
O O12 0.092181 0.543404 0.327129
O O13 0.014575 0.824026 0.624672
O O14 0.967037 0.848421 0.247351
O O15 0.212786 0.530662 0.627568
O O16 0.826567 0.134255 0.185485
O O17 0.000000 0.000000 0.000000
#
# Coordination Sequence:
#
# PCOD8041768 Si02
#       8
#     2   2   2   2   2   2   2   2
#     4  11  20  35  57  81 113 151 190 230 281 326
#     4  10  19  33  58  82 109 147 192 231 275 333
#     4  11  19  35  54  79 110 149 189 231 274 328
#     4  10  20  37  56  78 113 151 188 234 279 327
#     4   9  19  40  64  83 113 148 182 233 283 335
#     4   9  19  38  60  84 113 149 189 228 279 334
#     4  10  21  40  62  87 116 143 184 233 287 335
#     4  10  22  37  57  85 115 151 188 232 280 335
#
# _framework density 21.695779999999999
#
# number of rings (size 3 to 8) (size 9 to 14) (size 15 to 20)
#    0.000    2.000    2.500    1.875    0.000    1.500 
#    2.250    9.375    0.000    0.000    0.000    0.000 
#    0.000    0.000    0.000    0.000    0.000    0.000 
#
# Total GULP energy -198236.447142 kJ/mol
# GULP energy per Si atom -12389.777946 kJ/mol
# Density = 2.164640 g / cm^3
# Si number density = 21.695780 Si / 1000 Ang^3
#
#
#
# Elastic Constant Matrix: (Units=GPa)
#
#
# Indices 1 2 3 4 5 6 
#
# 1 126.8808 58.4619 35.5182 -10.1876 -25.0514 -18.5666
# 2 58.4619 116.3416 44.4268 -32.9488 -13.1117 -22.7343
# 3 35.5182 44.4268 91.1141 -20.4497 -14.7896 -11.2649
# 4 -10.1876 -32.9488 -20.4497 29.2727 6.1045 -4.2653
# 5 -25.0514 -13.1117 -14.7896 6.1045 21.4631 2.7470
# 6 -18.5666 -22.7343 -11.2649 -4.2653 2.7470 49.0198
#
#
#
# Elastic Compliance Matrix: (Units=1/GPa)
#
#
# Indices 1 2 3 4 5 6 
#
# 1 0.013178 -0.006293 -0.001339 -0.005898 0.012219 0.000567
# 2 -0.006293 0.019444 -0.002092 0.020185 -0.003689 0.008116
# 3 -0.001339 -0.002092 0.015264 0.007064 0.005368 0.002344
# 4 -0.005898 0.020185 0.007064 0.063970 -0.009782 0.014865
# 5 0.012219 -0.003689 0.005368 -0.009782 0.065125 -0.000350
# 6 0.000567 0.008116 0.002344 0.014865 -0.000350 0.026230
#
#
# Mechanical properties :
#
#
# Convention : Reuss Voigt Hill
#
# Bulk Modulus (GPa) = 35.16560 67.90559 51.53560
# Shear Modulus (GPa) = 21.53891 33.01313 27.27602
#
# Velocity S-wave (km/s) = 3.15424 3.90505 3.54955
# Velocity P-wave (km/s) = 5.43225 7.19024 6.37216
#
# Compressibility (1/GPa) = 0.02843688
#
# Stress axis : x y z
#
# Youngs Moduli (GPa) = 75.88606 51.43107 65.51362
#
# Poissons Ratio (x) = 0.32366 0.08771
# Poissons Ratio (y) = 0.47755 0.13708
# Poissons Ratio (z) = 0.10159 0.10761
#
# Static dielectric constant tensor:
#      x y z
#    x 4.389570 -0.251780 -0.192390 
#    y -0.251780 4.424910 -0.270130 
#    z -0.192390 -0.270130 4.318980 
# 
# 
# High freq. dielectric constant tensor:
#      x y z
#    x 1.864250 -0.001250 -0.008300 
#    y -0.001250 1.878000 -0.012050 
#    z -0.008300 -0.012050 1.805560 
# 
# From -- ./inp_files/90736.got.cif
#   From: 2010.06.25/outbox.cif.g09.slc.cpg/sg2_46_cif.got.tgz:90736.got - 2010.06.27 13:26:56.
