data_PCOD8041090
_publ_section_title
;
Structure prediction by ZEFSAII (Michael W. Deem and Ramdas Pophale) SiO2 
 PCOD8041090
Probable space group: P -1
;
_chemical_formula_sum "Si O2"
_cell_formula_units_Z 12
_cell_length_a 13.809539
_cell_length_b 11.596871
_cell_length_c 15.739093
_cell_angle_alpha 128.515710
_cell_angle_beta 18.732544
_cell_angle_gamma 121.926675
_cell_volume 614.483341
_symmetry_space_group_name_H-M "P -1"
_symmetry_group_IT_number 2
_symmetry_cell_setting 'triclinic'
loop_
_space_group_symop_operation_xyz
x,y,z
-x,-y,-z
loop_
_atom_site_type_symbol
_atom_site_label
_atom_site_fract_x
_atom_site_fract_y
_atom_site_fract_z
Si Si1 0.264690 0.903527 0.298158
Si Si2 0.299567 0.172397 0.231224
Si Si3 0.321070 0.381272 0.469355
Si Si4 0.184504 0.452758 0.911335
Si Si5 0.373031 0.893175 0.805892
Si Si6 0.311794 0.105740 0.633557
O O1 0.060236 0.823104 0.493177
O O2 0.447698 0.007640 0.242741
O O3 0.520342 0.775704 0.974641
O O4 0.000000 0.000000 0.500000
O O5 0.287138 0.275062 0.370694
O O6 0.500000 0.000000 0.000000
O O7 0.480689 0.510588 0.361610
O O8 0.532455 0.280665 0.320284
O O9 0.989297 0.454929 0.821006
O O10 0.224279 0.277124 0.819205
O O11 0.000000 0.500000 0.000000
O O12 0.469362 0.904234 0.634172
O O13 0.001572 0.949763 0.151522
O O14 0.500000 0.000000 0.500000
#
# Coordination Sequence:
#
# PCOD8041090 Si02
#       6
#     2   2   2   2   2   2
#     4  10  19  30  53  89 125 145 182 243 308 348
#     4  10  19  30  50  85 132 142 179 230 309 363
#     4  12  21  34  58  93 122 151 184 245 314 349
#     4  12  23  37  59  86 119 154 200 252 301 343
#     4  12  21  37  63  88 123 154 199 247 299 346
#     4  12  27  43  59  84 121 168 209 239 284 358
#
# _framework density 19.528601999999999
#
# number of rings (size 3 to 8) (size 9 to 14) (size 15 to 20)
#    0.000    0.667    6.667    4.000    4.667    0.000 
#    0.000    0.000    0.000    0.000    0.000   23.333 
#    0.000    0.000    0.000    0.000    0.000    0.000 
#
# Total GULP energy -148713.554859 kJ/mol
# GULP energy per Si atom -12392.796238 kJ/mol
# Density = 1.948415 g / cm^3
# Si number density = 19.528602 Si / 1000 Ang^3
#
#
#
# Elastic Constant Matrix: (Units=GPa)
#
#
# Indices 1 2 3 4 5 6 
#
# 1 76.2936 46.8996 44.4261 6.2929 15.0227 6.6312
# 2 46.8996 96.4403 55.5025 -16.0680 -3.9963 9.5823
# 3 44.4261 55.5025 102.8686 -25.7035 20.6034 -9.7384
# 4 6.2929 -16.0680 -25.7035 47.6407 -3.0618 2.9384
# 5 15.0227 -3.9963 20.6034 -3.0618 46.9092 -0.9683
# 6 6.6312 9.5823 -9.7384 2.9384 -0.9683 27.0694
#
#
#
# Elastic Compliance Matrix: (Units=1/GPa)
#
#
# Indices 1 2 3 4 5 6 
#
# 1 0.026627 -0.009980 -0.008084 -0.011371 -0.006670 -0.004902
# 2 -0.009980 0.022877 -0.009545 0.005067 0.009476 -0.009298
# 3 -0.008084 -0.009545 0.023372 0.009197 -0.007631 0.012496
# 4 -0.011371 0.005067 0.009197 0.029216 0.001965 0.001200
# 5 -0.006670 0.009476 -0.007631 0.001965 0.027665 -0.003690
# 6 -0.004902 -0.009298 0.012496 0.001200 -0.003690 0.045668
#
#
# Mechanical properties :
#
#
# Convention : Reuss Voigt Hill
#
# Bulk Modulus (GPa) = 56.63507 63.25098 59.94303
# Shear Modulus (GPa) = 21.13901 32.90881 27.02391
#
# Velocity S-wave (km/s) = 3.29365 4.10952 3.72400
# Velocity P-wave (km/s) = 6.59759 7.41463 7.01801
#
# Compressibility (1/GPa) = 0.01765690
#
# Stress axis : x y z
#
# Youngs Moduli (GPa) = 37.55527 43.71276 42.78646
#
# Poissons Ratio (x) = 0.43627 0.34589
# Poissons Ratio (y) = 0.37482 0.40839
# Poissons Ratio (z) = 0.30360 0.41723
#
# Static dielectric constant tensor:
#      x y z
#    x 2.442750 1.307900 -1.679970 
#    y 1.307900 2.336920 2.087660 
#    z -1.679970 2.087660 -0.387510 
# 
# 
# High freq. dielectric constant tensor:
#      x y z
#    x 1.742330 0.021520 0.039900 
#    y 0.021520 1.754050 -0.042300 
#    z 0.039900 -0.042300 1.763280 
# 
# From -- ./inp_files/61999.got.cif
#   From: 2010.06.25/outbox.cif.g09.slc.cpg/sg2_31_cif.got.tgz:61999.got - 2010.06.27 13:26:56.
