data_PCOD8041163
_publ_section_title
;
Structure prediction by ZEFSAII (Michael W. Deem and Ramdas Pophale) SiO2 
 PCOD8041163
Probable space group: P -1
;
_chemical_formula_sum "Si O2"
_cell_formula_units_Z 16
_cell_length_a 21.251867
_cell_length_b 22.118183
_cell_length_c 9.467188
_cell_angle_alpha 146.137131
_cell_angle_beta 35.234823
_cell_angle_gamma 162.093614
_cell_volume 753.112554
_symmetry_space_group_name_H-M "P -1"
_symmetry_group_IT_number 2
_symmetry_cell_setting 'triclinic'
loop_
_space_group_symop_operation_xyz
x,y,z
-x,-y,-z
loop_
_atom_site_type_symbol
_atom_site_label
_atom_site_fract_x
_atom_site_fract_y
_atom_site_fract_z
Si Si1 0.472853 0.521887 0.884132
Si Si2 0.761033 0.835373 0.215422
Si Si3 0.679011 0.004739 0.755818
Si Si4 0.089768 0.706505 0.348258
Si Si5 0.047962 0.258364 0.087253
Si Si6 0.777107 0.412298 0.117252
Si Si7 0.880791 0.888221 0.722219
Si Si8 0.032987 0.278431 0.840987
O O1 0.365502 0.314387 0.702841
O O2 0.629933 0.662002 0.735631
O O3 0.643868 0.684849 0.007548
O O4 0.287949 0.453149 0.076355
O O5 0.747259 0.950988 0.454234
O O6 0.003719 0.004781 0.125879
O O7 0.452390 0.814882 0.863484
O O8 0.713487 0.114648 0.772901
O O9 0.827409 0.155863 0.909774
O O10 0.085206 0.787605 0.643011
O O11 0.883101 0.550970 0.332552
O O12 0.102068 0.594422 0.168197
O O13 0.044389 0.320026 0.065330
O O14 0.942346 0.051952 0.849397
O O15 0.778443 0.504160 0.168744
O O16 0.969192 0.854386 0.422442
#
# Coordination Sequence:
#
# PCOD8041163 Si02
#       8
#     2   2   2   2   2   2   2   2
#     4  10  19  31  52  80 112 149 184 225 276 325
#     4   9  18  30  51  82 110 138 183 234 275 323
#     4  10  19  37  60  81 108 146 186 229 280 329
#     4  10  22  38  60  86 111 141 186 239 278 324
#     4  11  23  37  54  85 119 148 184 226 278 332
#     4  10  21  40  62  83 108 145 190 232 279 329
#     4  10  20  35  54  78 113 150 186 226 270 327
#     4  10  23  38  56  83 116 150 185 227 274 333
#
# _framework density 21.245163000000002
#
# number of rings (size 3 to 8) (size 9 to 14) (size 15 to 20)
#    0.000    2.000    0.000    3.375    0.000    9.000 
#    0.000    0.625    0.000    0.000    0.000    0.000 
#    0.000    0.000    0.000    0.000    0.000    0.000 
#
# Total GULP energy -198226.272592 kJ/mol
# GULP energy per Si atom -12389.142037 kJ/mol
# Density = 2.119681 g / cm^3
# Si number density = 21.245163 Si / 1000 Ang^3
#
#
#
# Elastic Constant Matrix: (Units=GPa)
#
#
# Indices 1 2 3 4 5 6 
#
# 1 75.1228 34.1046 40.6162 -0.2426 11.2118 -21.7446
# 2 34.1046 131.2036 23.3255 -5.3785 7.7112 -0.8162
# 3 40.6162 23.3255 66.7550 3.7271 4.4117 -11.5225
# 4 -0.2426 -5.3785 3.7271 22.4101 -7.9486 -3.2070
# 5 11.2118 7.7112 4.4117 -7.9486 25.3720 1.5720
# 6 -21.7446 -0.8162 -11.5225 -3.2070 1.5720 19.7178
#
#
#
# Elastic Compliance Matrix: (Units=1/GPa)
#
#
# Indices 1 2 3 4 5 6 
#
# 1 0.032924 -0.005440 -0.012175 0.001013 -0.012327 0.030116
# 2 -0.005440 0.009223 -0.001097 0.001724 0.000706 -0.006035
# 3 -0.012175 -0.001097 0.022822 -0.004134 0.000503 -0.000848
# 4 0.001013 0.001724 -0.004134 0.052170 0.015719 0.006005
# 5 -0.012327 0.000706 0.000503 0.015719 0.050396 -0.014733
# 6 0.030116 -0.006035 -0.000848 0.006005 -0.014733 0.085334
#
#
# Mechanical properties :
#
#
# Convention : Reuss Voigt Hill
#
# Bulk Modulus (GPa) = 36.30445 52.13043 44.21744
# Shear Modulus (GPa) = 16.69587 25.16900 20.93243
#
# Velocity S-wave (km/s) = 2.80637 3.44567 3.14232
# Velocity P-wave (km/s) = 5.25608 6.35775 5.83298
#
# Compressibility (1/GPa) = 0.02754483
#
# Stress axis : x y z
#
# Youngs Moduli (GPa) = 30.37265 108.42989 43.81660
#
# Poissons Ratio (x) = 0.58990 0.53346
# Poissons Ratio (y) = 0.16524 0.04807
# Poissons Ratio (z) = 0.36978 0.11894
#
# Static dielectric constant tensor:
#      x y z
#    x 3.793720 -0.076070 -0.043120 
#    y -0.076070 4.347210 0.090140 
#    z -0.043120 0.090140 3.389910 
# 
# 
# High freq. dielectric constant tensor:
#      x y z
#    x 1.823590 -0.007030 -0.005710 
#    y -0.007030 1.850500 0.005070 
#    z -0.005710 0.005070 1.799140 
# 
# From -- ./inp_files/349568.got.cif
#   From: 2010.06.25/outbox.cif.g09.slc.cpg/sg2_175_cif.got.tgz:349568.got - 2010.06.27 13:26:56.
