data_PCOD8041145
_publ_section_title
;
Structure prediction by ZEFSAII (Michael W. Deem and Ramdas Pophale) SiO2 
 PCOD8041145
Probable space group: P -1
;
_chemical_formula_sum "Si O2"
_cell_formula_units_Z 16
_cell_length_a 14.221747
_cell_length_b 9.250653
_cell_length_c 13.291993
_cell_angle_alpha 136.720436
_cell_angle_beta 66.753447
_cell_angle_gamma 81.825360
_cell_volume 805.692218
_symmetry_space_group_name_H-M "P -1"
_symmetry_group_IT_number 2
_symmetry_cell_setting 'triclinic'
loop_
_space_group_symop_operation_xyz
x,y,z
-x,-y,-z
loop_
_atom_site_type_symbol
_atom_site_label
_atom_site_fract_x
_atom_site_fract_y
_atom_site_fract_z
Si Si1 0.192373 0.148830 0.003790
Si Si2 0.038639 0.022196 0.105246
Si Si3 0.264471 0.997629 0.535941
Si Si4 0.002000 0.782275 0.329076
Si Si5 0.478905 0.118753 0.679027
Si Si6 0.758490 0.257999 0.400536
Si Si7 0.496425 0.749000 0.656532
Si Si8 0.813178 0.464990 0.055862
O O1 0.209805 0.976028 0.810270
O O2 0.347398 0.997957 0.900556
O O3 0.105812 0.159532 0.135684
O O4 0.111372 0.473696 0.177547
O O5 0.896752 0.211760 0.327300
O O6 0.162456 0.707792 0.942173
O O7 0.000000 0.000000 0.000000
O O8 0.208500 0.266256 0.764149
O O9 0.152857 0.099807 0.548028
O O10 0.408647 0.849924 0.340788
O O11 0.284886 0.772026 0.487904
O O12 0.047408 0.754035 0.180120
O O13 0.000000 0.000000 0.500000
O O14 0.318380 0.427158 0.903498
O O15 0.500000 0.000000 0.500000
O O16 0.508382 0.890462 0.629161
O O17 0.631310 0.591641 0.590651
O O18 0.500000 0.500000 0.500000
#
# Coordination Sequence:
#
# PCOD8041145 Si02
#       8
#     2   2   2   2   2   2   2   2
#     4  10  20  35  53  83 116 154 184 237 295 349
#     4  10  21  30  55  88 117 148 186 236 299 349
#     4  11  21  36  61  89 120 148 196 250 295 347
#     4  12  24  41  61  82 116 165 205 243 287 343
#     4  10  21  31  56  90 120 149 188 239 300 348
#     4  10  19  32  54  88 119 143 184 240 303 344
#     4  10  19  31  50  84 126 145 180 233 301 353
#     4  11  20  39  60  88 120 150 196 249 291 350
#
# _framework density 19.858699999999999
#
# number of rings (size 3 to 8) (size 9 to 14) (size 15 to 20)
#    0.000    1.500    3.750    4.125   14.000    0.000 
#    0.000    1.250    0.000    0.750    0.000    0.000 
#    0.000    0.000    0.000    0.000    0.000    0.000 
#
# Total GULP energy -198290.342284 kJ/mol
# GULP energy per Si atom -12393.146393 kJ/mol
# Density = 1.981350 g / cm^3
# Si number density = 19.858700 Si / 1000 Ang^3
#
#
#
# Elastic Constant Matrix: (Units=GPa)
#
#
# Indices 1 2 3 4 5 6 
#
# 1 105.8109 43.2468 58.7425 5.2967 -38.6323 14.1056
# 2 43.2468 153.9976 50.5147 20.4337 -28.5354 14.0795
# 3 58.7425 50.5147 59.8474 22.0994 -26.5409 2.2980
# 4 5.2967 20.4337 22.0994 27.1062 -7.3065 -16.9476
# 5 -38.6323 -28.5354 -26.5409 -7.3065 38.3065 -3.3071
# 6 14.1056 14.0795 2.2980 -16.9476 -3.3071 29.8196
#
#
#
# Elastic Compliance Matrix: (Units=1/GPa)
#
#
# Indices 1 2 3 4 5 6 
#
# 1 0.034808 0.001312 -0.042487 0.035689 0.014145 0.008042
# 2 0.001312 0.010580 -0.004544 -0.010493 0.003115 -0.010884
# 3 -0.042487 -0.004544 0.097293 -0.090104 0.000851 -0.036370
# 4 0.035689 -0.010493 -0.090104 0.171177 0.006428 0.093015
# 5 0.014145 0.003115 0.000851 0.006428 0.044538 0.000365
# 6 0.008042 -0.010884 -0.036370 0.093015 0.000365 0.090577
#
#
# Mechanical properties :
#
#
# Convention : Reuss Voigt Hill
#
# Bulk Modulus (GPa) = 19.51487 69.40710 44.46099
# Shear Modulus (GPa) = 8.96873 30.18992 19.57933
#
# Velocity S-wave (km/s) = 2.12746 3.90325 3.14336
# Velocity P-wave (km/s) = 3.98534 7.43910 5.96754
#
# Compressibility (1/GPa) = 0.05124297
#
# Stress axis : x y z
#
# Youngs Moduli (GPa) = 28.72929 94.51478 10.27826
#
# Poissons Ratio (x) = -0.12400 0.43669
# Poissons Ratio (y) = -0.03769 0.04671
# Poissons Ratio (z) = 1.22061 0.42949
#
# Static dielectric constant tensor:
#      x y z
#    x 4.386900 0.236940 -1.231610 
#    y 0.236940 3.887270 -0.015070 
#    z -1.231610 -0.015070 3.789580 
# 
# 
# High freq. dielectric constant tensor:
#      x y z
#    x 1.753980 0.011350 -0.062660 
#    y 0.011350 1.791270 0.013300 
#    z -0.062660 0.013300 1.735670 
# 
# From -- ./inp_files/404810.got.cif
#   From: 2010.06.25/outbox.cif.g09.slc.cpg/sg2_203_cif.got.tgz:404810.got - 2010.06.27 13:26:56.
