data_PCOD8041724
_publ_section_title
;
Structure prediction by ZEFSAII (Michael W. Deem and Ramdas Pophale) SiO2 
 PCOD8041724
Probable space group: P -1
;
_chemical_formula_sum "Si O2"
_cell_formula_units_Z 14
_cell_length_a 9.166729
_cell_length_b 28.038778
_cell_length_c 30.507636
_cell_angle_alpha 8.869138
_cell_angle_beta 32.052507
_cell_angle_gamma 30.886124
_cell_volume 620.583073
_symmetry_space_group_name_H-M "P -1"
_symmetry_group_IT_number 2
_symmetry_cell_setting 'triclinic'
loop_
_space_group_symop_operation_xyz
x,y,z
-x,-y,-z
loop_
_atom_site_type_symbol
_atom_site_label
_atom_site_fract_x
_atom_site_fract_y
_atom_site_fract_z
Si Si1 0.946762 0.319210 0.044305
Si Si2 0.616125 0.504752 0.826881
Si Si3 0.682330 0.702235 0.390832
Si Si4 0.586589 0.756152 0.802976
Si Si5 0.852961 0.109193 0.044888
Si Si6 0.763006 0.538637 0.425437
Si Si7 0.148021 0.583947 0.671427
O O1 0.882529 0.566415 0.877042
O O2 0.171363 0.405531 0.874468
O O3 0.662274 0.361141 0.050616
O O4 0.050894 0.964110 0.358999
O O5 0.932365 0.473604 0.793629
O O6 0.444250 0.869403 0.533235
O O7 0.425041 0.340813 0.055307
O O8 0.642921 0.325448 0.936680
O O9 0.642630 0.772330 0.285252
O O10 0.459865 0.501361 0.645075
O O11 0.000000 0.500000 0.500000
O O12 0.647674 0.018418 0.142392
O O13 0.054177 0.803146 0.294654
O O14 0.045473 0.311845 0.790131
O O15 0.500000 0.500000 0.500000
#
# Coordination Sequence:
#
# PCOD8041724 Si02
#       7
#     2   2   2   2   2   2   2
#     4   9  18  32  55  85 113 145 185 241 287 336
#     4  10  19  33  57  85 113 148 188 236 282 343
#     4  10  24  42  60  84 119 159 196 239 292 345
#     4   9  17  32  55  85 116 143 184 235 293 337
#     4  11  23  39  58  85 118 154 193 235 296 348
#     4  11  23  40  62  85 113 149 198 249 290 340
#     4  10  20  34  56  83 112 148 196 237 281 337
#
# _framework density 22.559429000000002
#
# number of rings (size 3 to 8) (size 9 to 14) (size 15 to 20)
#    0.000    2.000    0.000    3.429    0.000   11.429 
#    0.000    0.000    0.000    5.143    0.000    0.000 
#    0.000    0.000    0.000    0.000    0.000    0.000 
#
# Total GULP energy -173599.750936 kJ/mol
# GULP energy per Si atom -12399.982210 kJ/mol
# Density = 2.250808 g / cm^3
# Si number density = 22.559429 Si / 1000 Ang^3
#
#
#
# Elastic Constant Matrix: (Units=GPa)
#
#
# Indices 1 2 3 4 5 6 
#
# 1 96.8580 28.6378 31.0970 -8.0201 -6.8921 32.3213
# 2 28.6378 85.9303 1.0367 -1.0694 -1.9500 37.8897
# 3 31.0970 1.0367 79.1947 6.6143 13.7943 16.8377
# 4 -8.0201 -1.0694 6.6143 36.2141 16.9685 1.0654
# 5 -6.8921 -1.9500 13.7943 16.9685 32.8464 -1.4771
# 6 32.3213 37.8897 16.8377 1.0654 -1.4771 41.3021
#
#
#
# Elastic Compliance Matrix: (Units=1/GPa)
#
#
# Indices 1 2 3 4 5 6 
#
# 1 0.015882 -0.000947 -0.005060 0.003114 0.003367 -0.009457
# 2 -0.000947 0.020899 0.004799 0.001349 -0.002593 -0.020515
# 3 -0.005060 0.004799 0.017745 0.000052 -0.008615 -0.007987
# 4 0.003114 0.001349 0.000052 0.037297 -0.018796 -0.005330
# 5 0.003367 -0.002593 -0.008615 -0.018796 0.044565 0.005334
# 6 -0.009457 -0.020515 -0.007987 -0.005330 0.005334 0.054017
#
#
# Mechanical properties :
#
#
# Convention : Reuss Voigt Hill
#
# Bulk Modulus (GPa) = 19.18982 42.61399 30.90191
# Shear Modulus (GPa) = 23.78783 35.48663 29.63723
#
# Velocity S-wave (km/s) = 3.25076 3.97045 3.62849
# Velocity P-wave (km/s) = 4.75549 6.32059 5.59306
#
# Compressibility (1/GPa) = 0.05211095
#
# Stress axis : x y z
#
# Youngs Moduli (GPa) = 62.96379 47.84982 56.35266
#
# Poissons Ratio (x) = 0.04530 0.28513
# Poissons Ratio (y) = 0.05961 -0.27043
# Poissons Ratio (z) = 0.31858 -0.22962
#
# Static dielectric constant tensor:
#      x y z
#    x 4.235350 0.468550 -0.125990 
#    y 0.468550 4.370710 0.017850 
#    z -0.125990 0.017850 4.077250 
# 
# 
# High freq. dielectric constant tensor:
#      x y z
#    x 1.876550 0.017960 0.006570 
#    y 0.017960 1.898550 0.002120 
#    z 0.006570 0.002120 1.889860 
# 
# From -- ./inp_files/45117.got.cif
#   From: 2010.06.25/outbox.cif.g09.slc.cpg/sg2_23_cif.got.tgz:45117.got - 2010.06.27 13:26:56.
