data_PCOD8041312
_publ_section_title
;
Structure prediction by ZEFSAII (Michael W. Deem and Ramdas Pophale) SiO2 
 PCOD8041312
Probable space group: P -1
;
_chemical_formula_sum "Si O2"
_cell_formula_units_Z 16
_cell_length_a 12.327251
_cell_length_b 15.140467
_cell_length_c 20.497474
_cell_angle_alpha 39.757970
_cell_angle_beta 28.105405
_cell_angle_gamma 28.955403
_cell_volume 872.440883
_symmetry_space_group_name_H-M "P -1"
_symmetry_group_IT_number 2
_symmetry_cell_setting 'triclinic'
loop_
_space_group_symop_operation_xyz
x,y,z
-x,-y,-z
loop_
_atom_site_type_symbol
_atom_site_label
_atom_site_fract_x
_atom_site_fract_y
_atom_site_fract_z
Si Si1 0.475275 0.203588 0.727588
Si Si2 0.198381 0.286645 0.447317
Si Si3 0.816980 0.816671 0.725772
Si Si4 0.205899 0.487949 0.100276
Si Si5 0.275881 0.309481 0.530266
Si Si6 0.081240 0.761483 0.481415
Si Si7 0.437501 0.667288 0.523907
Si Si8 0.281901 0.509356 0.199154
O O1 0.689887 0.198169 0.669899
O O2 0.548765 0.246552 0.596200
O O3 0.121912 0.354343 0.847880
O O4 0.565247 0.007645 0.787440
O O5 0.371414 0.193521 0.478012
O O6 0.383798 0.320698 0.282525
O O7 0.871243 0.483285 0.528172
O O8 0.133762 0.169664 0.508116
O O9 0.695023 0.708929 0.850290
O O10 0.866634 0.858828 0.603102
O O11 0.130710 0.698062 0.668051
O O12 0.195725 0.529149 0.158168
O O13 0.450517 0.485985 0.934134
O O14 0.561659 0.231748 0.470285
O O15 0.024517 0.318531 0.698946
O O16 0.267243 0.545542 0.513321
#
# Coordination Sequence:
#
# PCOD8041312 Si02
#       8
#     2   2   2   2   2   2   2   2
#     4  11  19  29  48  72 101 127 156 200 240 285
#     4   8  14  27  49  74  96 121 163 201 231 282
#     4  11  19  29  48  72 101 127 156 200 240 285
#     4  11  18  32  48  71 103 130 156 187 248 286
#     4   8  14  27  49  74  96 121 163 201 231 282
#     4  10  15  28  48  71  98 125 153 203 244 276
#     4  10  15  28  48  71  98 125 153 203 244 276
#     4   9  17  29  49  68 104 129 152 201 231 290
#
# _framework density 18.339351000000001
#
# number of rings (size 3 to 8) (size 9 to 14) (size 15 to 20)
#    0.750    1.500    5.000    2.250    0.000    0.000 
#    0.000    2.500    0.000    6.000    0.000    1.750 
#    0.000    0.000    0.000    0.000    0.000    0.000 
#
# Total GULP energy -198244.619318 kJ/mol
# GULP energy per Si atom -12390.288707 kJ/mol
# Density = 1.829761 g / cm^3
# Si number density = 18.339351 Si / 1000 Ang^3
#
#
#
# Elastic Constant Matrix: (Units=GPa)
#
#
# Indices 1 2 3 4 5 6 
#
# 1 121.0514 -0.6845 43.1502 0.0868 -17.4375 11.2569
# 2 -0.6845 34.1031 9.5761 -4.9511 -8.4363 14.4581
# 3 43.1502 9.5761 87.0278 -2.3307 -24.2976 5.6867
# 4 0.0868 -4.9511 -2.3307 7.9989 3.8024 -4.4604
# 5 -17.4375 -8.4363 -24.2976 3.8024 28.7294 -4.4166
# 6 11.2569 14.4581 5.6867 -4.4604 -4.4166 17.5608
#
#
#
# Elastic Compliance Matrix: (Units=1/GPa)
#
#
# Indices 1 2 3 4 5 6 
#
# 1 0.011718 0.006833 -0.004824 -0.005926 0.003966 -0.012083
# 2 0.006833 0.051049 -0.003586 0.002492 0.009275 -0.042283
# 3 -0.004824 -0.003586 0.017154 -0.000717 0.011098 0.003099
# 4 -0.005926 0.002492 -0.000717 0.155748 -0.018411 0.036909
# 5 0.003966 0.009275 0.011098 -0.018411 0.050893 -0.005649
# 6 -0.012083 -0.042283 0.003099 0.036909 -0.005649 0.106454
#
#
# Mechanical properties :
#
#
# Convention : Reuss Voigt Hill
#
# Bulk Modulus (GPa) = 13.02629 38.47400 25.75015
# Shear Modulus (GPa) = 11.85512 23.53385 17.69449
#
# Velocity S-wave (km/s) = 2.54526 3.58613 3.10955
# Velocity P-wave (km/s) = 3.96940 6.17831 5.19267
#
# Compressibility (1/GPa) = 0.07676782
#
# Stress axis : x y z
#
# Youngs Moduli (GPa) = 85.33611 19.58897 58.29628
#
# Poissons Ratio (x) = -0.13386 0.28122
# Poissons Ratio (y) = -0.58312 0.20905
# Poissons Ratio (z) = 0.41166 0.07025
#
# Static dielectric constant tensor:
#      x y z
#    x 3.777150 0.067190 -0.327990 
#    y 0.067190 3.047930 0.018760 
#    z -0.327990 0.018760 3.125730 
# 
# 
# High freq. dielectric constant tensor:
#      x y z
#    x 1.717230 0.006890 -0.029380 
#    y 0.006890 1.683660 -0.001890 
#    z -0.029380 -0.001890 1.665040 
# 
# From -- ./inp_files/595494.got.cif
#   From: 2010.06.25/outbox.cif.g09.slc.cpg/sg2_298_cif.got.tgz:595494.got - 2010.06.27 13:26:56.
