data_PCOD8041701
_publ_section_title
;
Structure prediction by ZEFSAII (Michael W. Deem and Ramdas Pophale) SiO2 
 PCOD8041701
Probable space group: P -1
;
_chemical_formula_sum "Si O2"
_cell_formula_units_Z 16
_cell_length_a 6.826831
_cell_length_b 9.051749
_cell_length_c 14.901618
_cell_angle_alpha 92.232848
_cell_angle_beta 112.030975
_cell_angle_gamma 91.590403
_cell_volume 852.062292
_symmetry_space_group_name_H-M "P -1"
_symmetry_group_IT_number 2
_symmetry_cell_setting 'triclinic'
loop_
_space_group_symop_operation_xyz
x,y,z
-x,-y,-z
loop_
_atom_site_type_symbol
_atom_site_label
_atom_site_fract_x
_atom_site_fract_y
_atom_site_fract_z
Si Si1 0.335227 0.733531 0.750238
Si Si2 0.223404 0.775579 0.119474
Si Si3 0.661802 0.295646 0.050033
Si Si4 0.216387 0.378020 0.918236
Si Si5 0.045220 0.104862 0.379938
Si Si6 0.257717 0.140345 0.599757
Si Si7 0.355831 0.032717 0.276321
Si Si8 0.385579 0.389466 0.756554
O O1 0.294236 0.777927 0.848093
O O2 0.538622 0.824481 0.750136
O O3 0.381362 0.562693 0.740621
O O4 0.126290 0.771638 0.660501
O O5 0.374400 0.653584 0.183838
O O6 0.985582 0.713118 0.082834
O O7 0.250000 0.929728 0.179133
O O8 0.279464 0.809311 0.025216
O O9 0.805568 0.447008 0.067298
O O10 0.414784 0.328967 0.008932
O O11 0.244373 0.342940 0.817074
O O12 0.201477 0.162610 0.486859
O O13 0.175519 0.085412 0.311803
O O14 0.931374 0.948021 0.382671
O O15 0.288853 0.301974 0.652672
O O16 0.472914 0.053965 0.639822
#
# Coordination Sequence:
#
# PCOD8041701 Si02
#       8
#     2   2   2   2   2   2   2   2
#     4  10  22  36  50  76 113 139 164 213 266 306
#     4  10  19  33  57  78  99 139 182 212 246 303
#     4   9  19  33  50  76 108 137 170 214 254 299
#     4   9  17  32  54  78 103 135 175 213 253 301
#     4  10  20  36  57  77 103 139 171 210 264 311
#     4   9  19  37  59  78  99 133 178 217 252 306
#     4  10  21  36  53  78 107 135 172 214 256 307
#     4   9  19  35  54  80 107 132 171 219 257 300
#
# _framework density 18.777971000000001
#
# number of rings (size 3 to 8) (size 9 to 14) (size 15 to 20)
#    0.000    2.500    0.000    2.250    0.000    5.000 
#    0.000    1.875    0.000    0.000    0.000    0.000 
#    0.000    0.000    0.000    0.000    0.000    0.000 
#
# Total GULP energy -198431.315506 kJ/mol
# GULP energy per Si atom -12401.957219 kJ/mol
# Density = 1.873523 g / cm^3
# Si number density = 18.777971 Si / 1000 Ang^3
#
#
#
# Elastic Constant Matrix: (Units=GPa)
#
#
# Indices 1 2 3 4 5 6 
#
# 1 78.2688 32.1574 16.5719 7.6979 -4.9421 12.0523
# 2 32.1574 92.1112 45.2984 7.0599 -4.6453 1.5066
# 3 16.5719 45.2984 82.9396 13.0629 -3.7255 2.6182
# 4 7.6979 7.0599 13.0629 28.3260 0.5882 -2.4706
# 5 -4.9421 -4.6453 -3.7255 0.5882 26.6929 4.7847
# 6 12.0523 1.5066 2.6182 -2.4706 4.7847 16.5159
#
#
#
# Elastic Compliance Matrix: (Units=1/GPa)
#
#
# Indices 1 2 3 4 5 6 
#
# 1 0.018229 -0.006033 0.001239 -0.005469 0.005365 -0.015320
# 2 -0.006033 0.016901 -0.008448 0.001721 -0.000202 0.004516
# 3 0.001239 -0.008448 0.017750 -0.006865 0.002215 -0.004616
# 4 -0.005469 0.001721 -0.006865 0.040708 -0.004791 0.012400
# 5 0.005365 -0.000202 0.002215 -0.004791 0.041902 -0.017103
# 6 -0.015320 0.004516 -0.004616 0.012400 -0.017103 0.078857
#
#
# Mechanical properties :
#
#
# Convention : Reuss Voigt Hill
#
# Bulk Modulus (GPa) = 37.88540 49.04167 43.46354
# Shear Modulus (GPa) = 20.02972 24.92641 22.47806
#
# Velocity S-wave (km/s) = 3.26952 3.64734 3.46359
# Velocity P-wave (km/s) = 5.87131 6.62652 6.26031
#
# Compressibility (1/GPa) = 0.02639539
#
# Stress axis : x y z
#
# Youngs Moduli (GPa) = 54.85899 59.16751 56.33805
#
# Poissons Ratio (x) = 0.35694 -0.06978
# Poissons Ratio (y) = 0.33095 0.47595
# Poissons Ratio (z) = -0.06795 0.49985
#
# Static dielectric constant tensor:
#      x y z
#    x 3.341570 -0.018580 0.012490 
#    y -0.018580 3.254420 0.121380 
#    z 0.012490 0.121380 3.570970 
# 
# 
# High freq. dielectric constant tensor:
#      x y z
#    x 1.730190 0.000230 0.000960 
#    y 0.000230 1.713800 0.010280 
#    z 0.000960 0.010280 1.736210 
# 
# From -- ./inp_files/37297.got.cif
#   From: 2010.06.25/outbox.cif.g09.slc.cpg/sg2_19_cif.got.tgz:37297.got - 2010.06.27 13:26:56.
