data_PCOD8041362
_publ_section_title
;
Structure prediction by ZEFSAII (Michael W. Deem and Ramdas Pophale) SiO2 
 PCOD8041362
Probable space group: P -1
;
_chemical_formula_sum "Si O2"
_cell_formula_units_Z 16
_cell_length_a 9.468574
_cell_length_b 16.053156
_cell_length_c 9.025997
_cell_angle_alpha 126.291787
_cell_angle_beta 121.746700
_cell_angle_gamma 86.020384
_cell_volume 879.785782
_symmetry_space_group_name_H-M "P -1"
_symmetry_group_IT_number 2
_symmetry_cell_setting 'triclinic'
loop_
_space_group_symop_operation_xyz
x,y,z
-x,-y,-z
loop_
_atom_site_type_symbol
_atom_site_label
_atom_site_fract_x
_atom_site_fract_y
_atom_site_fract_z
Si Si1 0.575973 0.958029 0.355850
Si Si2 0.335427 0.229766 0.412288
Si Si3 0.390303 0.372474 0.317755
Si Si4 0.326021 0.819095 0.510696
Si Si5 0.055015 0.238046 0.843872
Si Si6 0.853297 0.932334 0.100712
Si Si7 0.848729 0.848022 0.484064
Si Si8 0.519394 0.184984 0.103300
O O1 0.732768 0.921696 0.461056
O O2 0.500000 0.000000 0.500000
O O3 0.646890 0.056010 0.381000
O O4 0.434263 0.853719 0.074365
O O5 0.365157 0.336948 0.439329
O O6 0.527674 0.219117 0.531252
O O7 0.242298 0.237257 0.523351
O O8 0.199677 0.119077 0.145354
O O9 0.500000 0.500000 0.500000
O O10 0.491529 0.303140 0.211132
O O11 0.193979 0.346043 0.113233
O O12 0.335797 0.809947 0.685620
O O13 0.131382 0.743838 0.264060
O O14 0.029601 0.128291 0.811897
O O15 0.139156 0.229067 0.722909
O O16 0.669982 0.909326 0.062671
O O17 0.955867 0.063220 0.278834
#
# Coordination Sequence:
#
# PCOD8041362 Si02
#       8
#     2   2   2   2   2   2   2   2
#     4  12  20  29  49  78 116 151 165 196 266 313
#     4   9  21  34  49  80 110 134 178 217 256 310
#     4   9  19  40  61  72  95 139 182 225 268 303
#     4  10  19  33  50  77 110 143 171 207 253 322
#     4  10  19  32  55  76 102 138 182 210 252 314
#     4   9  17  31  50  68 108 149 170 199 246 309
#     4  12  18  31  49  79 113 140 173 212 248 311
#     4   9  20  36  49  77 108 139 184 210 248 317
#
# _framework density 18.186246000000001
#
# number of rings (size 3 to 8) (size 9 to 14) (size 15 to 20)
#    0.000    2.500    5.000    1.875    0.000    1.000 
#    2.250    3.125    0.000    0.000    0.000    7.000 
#    0.000    0.000    0.000    0.000    0.000    0.000 
#
# Total GULP energy -198251.639471 kJ/mol
# GULP energy per Si atom -12390.727467 kJ/mol
# Density = 1.814485 g / cm^3
# Si number density = 18.186246 Si / 1000 Ang^3
#
#
#
# Elastic Constant Matrix: (Units=GPa)
#
#
# Indices 1 2 3 4 5 6 
#
# 1 75.2304 32.4420 43.7431 -6.2353 0.3117 3.5431
# 2 32.4420 82.4360 57.3720 4.9134 8.4897 8.7513
# 3 43.7431 57.3720 97.4295 -3.2082 14.4937 2.3767
# 4 -6.2353 4.9134 -3.2082 32.3649 -3.7449 7.5856
# 5 0.3117 8.4897 14.4937 -3.7449 30.8170 -8.7521
# 6 3.5431 8.7513 2.3767 7.5856 -8.7521 18.0956
#
#
#
# Elastic Compliance Matrix: (Units=1/GPa)
#
#
# Indices 1 2 3 4 5 6 
#
# 1 0.019244 -0.003075 -0.007310 0.004180 0.004319 -0.000984
# 2 -0.003075 0.022886 -0.011378 -0.003439 -0.004033 -0.009480
# 3 -0.007310 -0.011378 0.021258 0.001597 -0.006502 0.000328
# 4 0.004180 -0.003439 0.001597 0.035748 0.000490 -0.014113
# 5 0.004319 -0.004033 -0.006502 0.000490 0.043045 0.022572
# 6 -0.000984 -0.009480 0.000328 -0.014113 0.022572 0.076830
#
#
# Mechanical properties :
#
#
# Convention : Reuss Voigt Hill
#
# Bulk Modulus (GPa) = 50.34917 58.02331 54.18624
# Shear Modulus (GPa) = 18.57642 24.35809 21.46725
#
# Velocity S-wave (km/s) = 3.19949 3.66371 3.43944
# Velocity P-wave (km/s) = 6.43384 7.06196 6.75521
#
# Compressibility (1/GPa) = 0.01986130
#
# Stress axis : x y z
#
# Youngs Moduli (GPa) = 51.96415 43.69421 47.04185
#
# Poissons Ratio (x) = 0.13438 0.34387
# Poissons Ratio (y) = 0.15981 0.53524
# Poissons Ratio (z) = 0.37985 0.49715
#
# Static dielectric constant tensor:
#      x y z
#    x 6.455280 0.243680 0.155160 
#    y 0.243680 3.187940 -0.421800 
#    z 0.155160 -0.421800 3.437910 
# 
# 
# High freq. dielectric constant tensor:
#      x y z
#    x 1.686100 -0.001090 0.002700 
#    y -0.001090 1.676080 -0.036020 
#    z 0.002700 -0.036020 1.697600 
# 
# From -- ./inp_files/208817.got.cif
#   From: 2010.06.25/outbox.cif.g09.slc.cpg/sg2_105_cif.got.tgz:208817.got - 2010.06.27 13:26:56.
