data_PCOD8041298
_publ_section_title
;
Structure prediction by ZEFSAII (Michael W. Deem and Ramdas Pophale) SiO2 
 PCOD8041298
Probable space group: P -1
;
_chemical_formula_sum "Si O2"
_cell_formula_units_Z 16
_cell_length_a 12.318817
_cell_length_b 19.589437
_cell_length_c 11.572410
_cell_angle_alpha 144.626765
_cell_angle_beta 64.730982
_cell_angle_gamma 140.050612
_cell_volume 878.155570
_symmetry_space_group_name_H-M "P -1"
_symmetry_group_IT_number 2
_symmetry_cell_setting 'triclinic'
loop_
_space_group_symop_operation_xyz
x,y,z
-x,-y,-z
loop_
_atom_site_type_symbol
_atom_site_label
_atom_site_fract_x
_atom_site_fract_y
_atom_site_fract_z
Si Si1 0.134488 0.819975 0.556737
Si Si2 0.501400 0.382425 0.445975
Si Si3 0.552797 0.216997 0.358568
Si Si4 0.840549 0.430936 0.723868
Si Si5 0.107816 0.461279 0.904628
Si Si6 0.260659 0.783621 0.921312
Si Si7 0.449414 0.761009 0.981271
Si Si8 0.154197 0.222881 0.269535
O O1 0.142063 0.692997 0.425167
O O2 0.056813 0.760821 0.376700
O O3 0.970894 0.758292 0.622394
O O4 0.346802 0.048620 0.782531
O O5 0.501021 0.305507 0.455930
O O6 0.514230 0.313685 0.229389
O O7 0.291764 0.288812 0.406351
O O8 0.691043 0.621157 0.689211
O O9 0.641615 0.299435 0.559851
O O10 0.712965 0.278581 0.288104
O O11 0.349831 0.982399 0.129854
O O12 0.027700 0.617502 0.819681
O O13 0.829269 0.507033 0.947028
O O14 0.298853 0.602862 0.930477
O O15 0.000000 0.500000 0.000000
O O16 0.369185 0.813857 0.025600
O O17 0.000000 0.000000 0.000000
#
# Coordination Sequence:
#
# PCOD8041298 Si02
#       8
#     2   2   2   2   2   2   2   2
#     4  11  20  33  55  82 114 142 185 227 275 322
#     4  10  22  37  56  84 115 138 182 230 279 328
#     4  10  21  34  52  80 113 149 174 221 276 341
#     4  11  21  35  54  81 117 151 180 217 274 334
#     4  10  21  34  52  79 116 152 182 228 264 327
#     4  10  19  32  52  78 112 146 179 215 276 333
#     4  11  18  34  55  81 115 145 177 228 278 325
#     4  11  21  36  60  84 108 144 183 233 281 321
#
# _framework density 18.220006999999999
#
# number of rings (size 3 to 8) (size 9 to 14) (size 15 to 20)
#    0.000    1.500    6.250    1.125    0.000    4.000 
#    0.000    0.000    0.000    0.750    0.000    2.625 
#    0.000    0.000    0.000    0.000    0.000    0.000 
#
# Total GULP energy -198339.593379 kJ/mol
# GULP energy per Si atom -12396.224586 kJ/mol
# Density = 1.817854 g / cm^3
# Si number density = 18.220007 Si / 1000 Ang^3
#
#
#
# Elastic Constant Matrix: (Units=GPa)
#
#
# Indices 1 2 3 4 5 6 
#
# 1 81.0090 4.8633 24.1397 6.0694 4.4571 -10.3077
# 2 4.8633 45.6274 23.7576 6.5130 6.8829 -4.0033
# 3 24.1397 23.7576 94.0413 12.5954 19.5114 -8.1387
# 4 6.0694 6.5130 12.5954 29.7902 -5.2531 4.2433
# 5 4.4571 6.8829 19.5114 -5.2531 26.7642 2.4784
# 6 -10.3077 -4.0033 -8.1387 4.2433 2.4784 27.7673
#
#
#
# Elastic Compliance Matrix: (Units=1/GPa)
#
#
# Indices 1 2 3 4 5 6 
#
# 1 0.014057 0.001034 -0.002652 -0.003019 -0.001748 0.005208
# 2 0.001034 0.026145 -0.004823 -0.005298 -0.004788 0.003976
# 3 -0.002652 -0.004823 0.016836 -0.008595 -0.012807 0.005711
# 4 -0.003019 -0.005298 -0.008595 0.043950 0.017935 -0.012721
# 5 -0.001748 -0.004788 -0.012807 0.017935 0.052905 -0.012556
# 6 0.005208 0.003976 0.005711 -0.012721 -0.012556 0.043259
#
#
# Mechanical properties :
#
#
# Convention : Reuss Voigt Hill
#
# Bulk Modulus (GPa) = 22.64707 36.24431 29.44569
# Shear Modulus (GPa) = 22.24659 28.05882 25.15271
#
# Velocity S-wave (km/s) = 3.49807 3.92854 3.71954
# Velocity P-wave (km/s) = 5.36396 6.36504 5.88582
#
# Compressibility (1/GPa) = 0.04415582
#
# Stress axis : x y z
#
# Youngs Moduli (GPa) = 71.13655 38.24778 59.39818
#
# Poissons Ratio (x) = -0.03955 0.15752
# Poissons Ratio (y) = -0.07356 0.28650
# Poissons Ratio (z) = 0.18865 0.18448
#
# Static dielectric constant tensor:
#      x y z
#    x 3.315240 -0.017030 0.159930 
#    y -0.017030 3.356040 -0.037880 
#    z 0.159930 -0.037880 3.732710 
# 
# 
# High freq. dielectric constant tensor:
#      x y z
#    x 1.686040 0.005930 0.012510 
#    y 0.005930 1.690260 0.018270 
#    z 0.012510 0.018270 1.711260 
# 
# From -- ./inp_files/431530.got.cif
#   From: 2010.06.25/outbox.cif.g09.slc.cpg/sg2_216_cif.got.tgz:431530.got - 2010.06.27 13:26:56.
