data_PCOD8041205
_publ_section_title
;
Structure prediction by ZEFSAII (Michael W. Deem and Ramdas Pophale) SiO2 
 PCOD8041205
Probable space group: P -1
;
_chemical_formula_sum "Si O2"
_cell_formula_units_Z 16
_cell_length_a 9.049726
_cell_length_b 9.366203
_cell_length_c 19.870474
_cell_angle_alpha 125.429266
_cell_angle_beta 39.795390
_cell_angle_gamma 134.360361
_cell_volume 767.393362
_symmetry_space_group_name_H-M "P -1"
_symmetry_group_IT_number 2
_symmetry_cell_setting 'triclinic'
loop_
_space_group_symop_operation_xyz
x,y,z
-x,-y,-z
loop_
_atom_site_type_symbol
_atom_site_label
_atom_site_fract_x
_atom_site_fract_y
_atom_site_fract_z
Si Si1 0.875952 0.196552 0.704467
Si Si2 0.893553 0.519946 0.613831
Si Si3 0.454440 0.586491 0.971079
Si Si4 0.240768 0.387242 0.517485
Si Si5 0.083530 0.556968 0.824017
Si Si6 0.528249 0.732677 0.211041
Si Si7 0.325901 0.238563 0.304056
Si Si8 0.015092 0.093912 0.093512
O O1 0.610723 0.203264 0.780858
O O2 0.028862 0.197461 0.583069
O O3 0.074348 0.392419 0.730557
O O4 0.799631 0.999373 0.720759
O O5 0.624297 0.320225 0.678149
O O6 0.829258 0.703067 0.681714
O O7 0.000000 0.500000 0.500000
O O8 0.123227 0.543264 0.591429
O O9 0.470391 0.468001 0.868387
O O10 0.692813 0.817104 0.950360
O O11 0.500000 0.500000 0.000000
O O12 0.158869 0.558300 0.069758
O O13 0.500000 0.500000 0.500000
O O14 0.290060 0.306078 0.408937
O O15 0.361705 0.652169 0.792361
O O16 0.063886 0.731328 0.837182
O O17 0.821468 0.921325 0.165989
O O18 0.000000 0.000000 0.000000
#
# Coordination Sequence:
#
# PCOD8041205 Si02
#       8
#     2   2   2   2   2   2   2   2
#     4  11  20  34  60  92 116 157 209 255 298 360
#     4   9  23  43  63  87 127 163 201 250 307 371
#     4  10  19  31  54  94 127 144 201 264 300 345
#     4  10  20  39  66  90 116 152 208 264 301 358
#     4  11  20  32  58  91 124 152 199 252 305 352
#     4  11  19  36  63  88 121 163 202 255 303 356
#     4  11  22  39  60  85 126 165 198 248 316 365
#     4  11  18  32  58  96 121 156 204 261 306 346
#
# _framework density 20.849803999999999
#
# number of rings (size 3 to 8) (size 9 to 14) (size 15 to 20)
#    0.000    1.500    7.500    0.375    0.000    0.000 
#    0.000    2.500    2.750    1.500    0.000    0.000 
#    0.000    0.000    0.000    0.000    0.000    0.000 
#
# Total GULP energy -198262.797703 kJ/mol
# GULP energy per Si atom -12391.424856 kJ/mol
# Density = 2.080235 g / cm^3
# Si number density = 20.849804 Si / 1000 Ang^3
#
#
#
# Elastic Constant Matrix: (Units=GPa)
#
#
# Indices 1 2 3 4 5 6 
#
# 1 68.8727 49.9003 33.3679 -8.4154 -20.9661 -5.4264
# 2 49.9003 141.3025 55.3792 -11.3389 -7.2817 5.6010
# 3 33.3679 55.3792 116.2881 -23.5004 -12.1512 3.2995
# 4 -8.4154 -11.3389 -23.5004 38.4821 0.4886 -4.3191
# 5 -20.9661 -7.2817 -12.1512 0.4886 28.7545 -1.0904
# 6 -5.4264 5.6010 3.2995 -4.3191 -1.0904 30.3877
#
#
#
# Elastic Compliance Matrix: (Units=1/GPa)
#
#
# Indices 1 2 3 4 5 6 
#
# 1 0.027700 -0.008235 -0.001759 0.003202 0.017607 0.007742
# 2 -0.008235 0.011196 -0.003576 -0.001014 -0.004795 -0.003462
# 3 -0.001759 -0.003576 0.012337 0.006055 0.002921 -0.000029
# 4 0.003202 -0.001014 0.006055 0.030547 0.004292 0.004597
# 5 0.017607 -0.004795 0.002921 0.004292 0.047792 0.006036
# 6 0.007742 -0.003462 -0.000029 0.004597 0.006036 0.035802
#
#
# Mechanical properties :
#
#
# Convention : Reuss Voigt Hill
#
# Bulk Modulus (GPa) = 41.50906 67.08424 54.29665
# Shear Modulus (GPa) = 24.93215 32.04592 28.48904
#
# Velocity S-wave (km/s) = 3.46178 3.92470 3.70049
# Velocity P-wave (km/s) = 5.99420 7.26516 6.66007
#
# Compressibility (1/GPa) = 0.02409112
#
# Stress axis : x y z
#
# Youngs Moduli (GPa) = 36.10139 89.32063 81.05741
#
# Poissons Ratio (x) = 0.73557 0.14259
# Poissons Ratio (y) = 0.29730 0.28988
# Poissons Ratio (z) = 0.06351 0.31943
#
# Static dielectric constant tensor:
#      x y z
#    x 3.694160 0.049720 -0.381120 
#    y 0.049720 3.999020 -0.283280 
#    z -0.381120 -0.283280 4.238080 
# 
# 
# High freq. dielectric constant tensor:
#      x y z
#    x 1.774930 0.003840 -0.017260 
#    y 0.003840 1.802380 -0.015940 
#    z -0.017260 -0.015940 1.836640 
# 
# From -- ./inp_files/588025.got.cif
#   From: 2010.06.25/outbox.cif.g09.slc.cpg/sg2_295_cif.got.tgz:588025.got - 2010.06.27 13:26:56.
