data_PCOD8041049
_publ_section_title
;
Structure prediction by ZEFSAII (Michael W. Deem and Ramdas Pophale) SiO2 
 PCOD8041049
Probable space group: P -1
;
_chemical_formula_sum "Si O2"
_cell_formula_units_Z 16
_cell_length_a 9.484027
_cell_length_b 13.816974
_cell_length_c 9.262845
_cell_angle_alpha 57.672643
_cell_angle_beta 100.987767
_cell_angle_gamma 62.532666
_cell_volume 739.267583
_symmetry_space_group_name_H-M "P -1"
_symmetry_group_IT_number 2
_symmetry_cell_setting 'triclinic'
loop_
_space_group_symop_operation_xyz
x,y,z
-x,-y,-z
loop_
_atom_site_type_symbol
_atom_site_label
_atom_site_fract_x
_atom_site_fract_y
_atom_site_fract_z
Si Si1 0.737940 0.832450 0.586713
Si Si2 0.241044 0.531215 0.468645
Si Si3 0.549675 0.769566 0.379328
Si Si4 0.653937 0.360727 0.823692
Si Si5 0.570432 0.335065 0.317520
Si Si6 0.032858 0.751845 0.504404
Si Si7 0.520406 0.820221 0.766139
Si Si8 0.324975 0.902283 0.944779
O O1 0.607001 0.848998 0.419292
O O2 0.724980 0.758233 0.786824
O O3 0.959692 0.726062 0.656386
O O4 0.650176 0.004707 0.470691
O O5 0.249879 0.396959 0.513587
O O6 0.461979 0.431010 0.642051
O O7 0.195303 0.649729 0.240073
O O8 0.092131 0.625509 0.496877
O O9 0.441129 0.733536 0.484584
O O10 0.399376 0.890188 0.129254
O O11 0.586139 0.475377 0.855554
O O12 0.752319 0.186560 0.024399
O O13 0.790254 0.262295 0.405551
O O14 0.517420 0.289015 0.204693
O O15 0.854278 0.919962 0.270322
O O16 0.509649 0.825070 0.933665
#
# Coordination Sequence:
#
# PCOD8041049 Si02
#       8
#     2   2   2   2   2   2   2   2
#     4   9  19  34  50  69  97 133 166 194 235 293
#     4   8  15  29  48  71  99 128 156 191 241 294
#     4   9  18  34  53  71  97 132 161 191 241 296
#     4   8  15  29  48  71  99 128 156 191 241 294
#     4   9  18  34  53  71  97 132 161 191 241 296
#     4  10  19  29  50  78  99 121 162 207 239 276
#     4   9  19  34  50  69  97 133 166 194 235 293
#     4  10  19  29  50  78  99 121 162 207 239 276
#
# _framework density 21.643042999999999
#
# number of rings (size 3 to 8) (size 9 to 14) (size 15 to 20)
#    0.000    3.000    0.000    2.250    0.000    7.000 
#    0.000    0.000    0.000    9.750    0.000    0.000 
#    0.000    0.000    0.000    0.000    0.000    0.000 
#
# Total GULP energy -198249.129844 kJ/mol
# GULP energy per Si atom -12390.570615 kJ/mol
# Density = 2.159378 g / cm^3
# Si number density = 21.643043 Si / 1000 Ang^3
#
#
#
# Elastic Constant Matrix: (Units=GPa)
#
#
# Indices 1 2 3 4 5 6 
#
# 1 77.8980 17.5430 -4.5476 -0.1699 -1.0438 -18.6160
# 2 17.5430 89.3396 -6.3461 -1.9940 3.7652 -6.5741
# 3 -4.5476 -6.3461 22.9942 -2.6463 -3.2356 -4.4251
# 4 -0.1699 -1.9940 -2.6463 18.1982 1.1039 -3.5884
# 5 -1.0438 3.7652 -3.2356 1.1039 14.1396 4.4274
# 6 -18.6160 -6.5741 -4.4251 -3.5884 4.4274 44.4434
#
#
#
# Elastic Compliance Matrix: (Units=1/GPa)
#
#
# Indices 1 2 3 4 5 6 
#
# 1 0.015120 -0.002194 0.003892 0.001721 0.000424 0.006493
# 2 -0.002194 0.012161 0.003034 0.002297 -0.003420 0.001708
# 3 0.003892 0.003034 0.048454 0.008282 0.007793 0.006796
# 4 0.001721 0.002297 0.008282 0.058151 -0.005357 0.007114
# 5 0.000424 -0.003420 0.007793 -0.005357 0.076240 -0.007580
# 6 0.006493 0.001708 0.006796 0.007114 -0.007580 0.027479
#
#
# Mechanical properties :
#
#
# Convention : Reuss Voigt Hill
#
# Bulk Modulus (GPa) = 11.73735 22.61448 17.17591
# Shear Modulus (GPa) = 19.49016 27.59508 23.54262
#
# Velocity S-wave (km/s) = 3.00413 3.57460 3.30171
# Velocity P-wave (km/s) = 4.17948 5.24486 4.74218
#
# Compressibility (1/GPa) = 0.08519813
#
# Stress axis : x y z
#
# Youngs Moduli (GPa) = 66.13868 82.23196 20.63823
#
# Poissons Ratio (x) = 0.18043 -0.08032
# Poissons Ratio (y) = 0.14512 -0.06262
# Poissons Ratio (z) = -0.25741 -0.24950
#
# Static dielectric constant tensor:
#      x y z
#    x 4.103290 0.084820 -0.541090 
#    y 0.084820 4.449790 0.025990 
#    z -0.541090 0.025990 3.392970 
# 
# 
# High freq. dielectric constant tensor:
#      x y z
#    x 1.839900 0.002910 -0.039850 
#    y 0.002910 1.873030 0.008710 
#    z -0.039850 0.008710 1.796200 
# 
# From -- ./inp_files/205980.got.cif
#   From: 2010.06.25/outbox.cif.g09.slc.cpg/sg2_103_cif.got.tgz:205980.got - 2010.06.27 13:26:56.
