data_PCOD8041886
_publ_section_title
;
Structure prediction by ZEFSAII (Michael W. Deem and Ramdas Pophale) SiO2 
 PCOD8041886
Probable space group: P -1
;
_chemical_formula_sum "Si O2"
_cell_formula_units_Z 14
_cell_length_a 15.720651
_cell_length_b 23.392638
_cell_length_c 6.548667
_cell_angle_alpha 42.708416
_cell_angle_beta 50.290655
_cell_angle_gamma 26.506811
_cell_volume 727.622834
_symmetry_space_group_name_H-M "P -1"
_symmetry_group_IT_number 2
_symmetry_cell_setting 'triclinic'
loop_
_space_group_symop_operation_xyz
x,y,z
-x,-y,-z
loop_
_atom_site_type_symbol
_atom_site_label
_atom_site_fract_x
_atom_site_fract_y
_atom_site_fract_z
Si Si1 0.964314 0.694610 0.597397
Si Si2 0.735866 0.167766 0.537817
Si Si3 0.131141 0.487669 0.230101
Si Si4 0.763233 0.987206 0.248814
Si Si5 0.306521 0.428013 0.517344
Si Si6 0.330552 0.258126 0.196267
Si Si7 0.065340 0.016082 0.670665
O O1 0.889451 0.835338 0.357840
O O2 0.812509 0.731589 0.611337
O O3 0.163570 0.573423 0.488064
O O4 0.996924 0.635640 0.925320
O O5 0.519326 0.333396 0.464095
O O6 0.878567 0.149842 0.462696
O O7 0.778543 0.126634 0.339985
O O8 0.775432 0.057278 0.891077
O O9 0.246104 0.470494 0.263752
O O10 0.286925 0.346248 0.220490
O O11 0.000000 0.500000 0.500000
O O12 0.841186 0.959732 0.430471
O O13 0.545372 0.090695 0.329879
O O14 0.301799 0.332432 0.842128
O O15 0.000000 0.000000 0.000000
#
# Coordination Sequence:
#
# PCOD8041886 Si02
#       7
#     2   2   2   2   2   2   2
#     4  11  21  33  50  79 115 143 171 217 257 302
#     4   9  19  36  61  79  98 136 176 220 264 313
#     4  11  18  33  53  70 104 148 183 209 245 300
#     4  10  21  34  53  81 110 136 173 220 266 306
#     4  10  19  34  54  78 104 140 184 212 252 309
#     4  10  19  34  52  75 107 147 182 210 247 308
#     4   9  18  37  59  80 102 129 174 221 267 317
#
# _framework density 19.240735000000001
#
# number of rings (size 3 to 8) (size 9 to 14) (size 15 to 20)
#    0.000    2.000    2.857    2.143    0.000    2.286 
#    0.000    1.429    0.000    8.571    0.000    0.000 
#    0.000    0.000    0.000    0.000    0.000    0.000 
#
# Total GULP energy -173566.517536 kJ/mol
# GULP energy per Si atom -12397.608395 kJ/mol
# Density = 1.919694 g / cm^3
# Si number density = 19.240735 Si / 1000 Ang^3
#
#
#
# Elastic Constant Matrix: (Units=GPa)
#
#
# Indices 1 2 3 4 5 6 
#
# 1 90.7065 56.3992 22.4150 -11.3119 22.0024 -7.8279
# 2 56.3992 147.0775 33.4724 -8.6825 8.8464 -15.5937
# 3 22.4150 33.4724 49.9319 -0.4379 16.4211 3.1462
# 4 -11.3119 -8.6825 -0.4379 31.9060 3.6797 0.3291
# 5 22.0024 8.8464 16.4211 3.6797 21.3080 3.1729
# 6 -7.8279 -15.5937 3.1462 0.3291 3.1729 31.6492
#
#
#
# Elastic Compliance Matrix: (Units=1/GPa)
#
#
# Indices 1 2 3 4 5 6 
#
# 1 0.021586 -0.006390 0.002083 0.008592 -0.023356 0.004235
# 2 -0.006390 0.010775 -0.006862 -0.000262 0.006905 0.003721
# 3 0.002083 -0.006862 0.031678 0.002057 -0.023523 -0.003678
# 4 0.008592 -0.000262 0.002057 0.036283 -0.017080 0.003126
# 5 -0.023356 0.006905 -0.023523 -0.017080 0.090590 -0.008940
# 6 0.004235 0.003721 -0.003678 0.003126 -0.008940 0.035707
#
#
# Mechanical properties :
#
#
# Convention : Reuss Voigt Hill
#
# Bulk Modulus (GPa) = 23.98059 56.92103 40.45081
# Shear Modulus (GPa) = 19.02188 28.66792 23.84490
#
# Velocity S-wave (km/s) = 3.14765 3.86419 3.52418
# Velocity P-wave (km/s) = 5.06959 7.03968 6.13424
#
# Compressibility (1/GPa) = 0.04170039
#
# Stress axis : x y z
#
# Youngs Moduli (GPa) = 46.32738 92.80716 31.56800
#
# Poissons Ratio (x) = 0.59307 -0.06577
# Poissons Ratio (y) = 0.29605 0.21662
# Poissons Ratio (z) = -0.09652 0.63684
#
# Static dielectric constant tensor:
#      x y z
#    x 3.815650 -0.154810 0.391730 
#    y -0.154810 3.586820 0.210210 
#    z 0.391730 0.210210 3.409110 
# 
# 
# High freq. dielectric constant tensor:
#      x y z
#    x 1.749110 -0.013700 0.026600 
#    y -0.013700 1.754780 0.017750 
#    z 0.026600 0.017750 1.720420 
# 
# From -- ./inp_files/27239.got.cif
#   From: 2010.06.25/outbox.cif.g09.slc.cpg/sg2_14_cif.got.tgz:27239.got - 2010.06.27 13:26:56.
