data_PCOD8041926
_publ_section_title
;
Structure prediction by ZEFSAII (Michael W. Deem and Ramdas Pophale) SiO2 
 PCOD8041926
Probable space group: P -1
;
_chemical_formula_sum "Si O2"
_cell_formula_units_Z 16
_cell_length_a 33.578015
_cell_length_b 22.706433
_cell_length_c 26.555870
_cell_angle_alpha 162.794265
_cell_angle_beta 8.624809
_cell_angle_gamma 163.236073
_cell_volume 858.383783
_symmetry_space_group_name_H-M "P -1"
_symmetry_group_IT_number 2
_symmetry_cell_setting 'triclinic'
loop_
_space_group_symop_operation_xyz
x,y,z
-x,-y,-z
loop_
_atom_site_type_symbol
_atom_site_label
_atom_site_fract_x
_atom_site_fract_y
_atom_site_fract_z
Si Si1 0.754337 0.584035 0.356806
Si Si2 0.359803 0.895668 0.393647
Si Si3 0.207125 0.220787 0.722355
Si Si4 0.940612 0.785611 0.987696
Si Si5 0.907569 0.263821 0.031334
Si Si6 0.395397 0.416257 0.350505
Si Si7 0.305876 0.793115 0.263740
Si Si8 0.754930 0.418964 0.630599
O O1 0.497470 0.397908 0.506611
O O2 0.663832 0.689059 0.605590
O O3 0.000000 0.500000 0.000000
O O4 0.866986 0.743915 0.300436
O O5 0.390199 0.810406 0.230646
O O6 0.304757 0.701429 0.340637
O O7 0.642644 0.066920 0.194632
O O8 0.101890 0.994884 0.798124
O O9 0.272350 0.004650 0.456287
O O10 0.021625 0.211918 0.997219
O O11 0.028375 0.259805 0.931870
O O12 0.203269 0.741566 0.595851
O O13 0.670896 0.606940 0.163170
O O14 0.846367 0.486397 0.285319
O O15 0.436175 0.248318 0.122600
O O16 0.022291 0.614046 0.462430
O O17 0.500000 0.500000 0.000000
#
# Coordination Sequence:
#
# PCOD8041926 Si02
#       8
#     2   2   2   2   2   2   2   2
#     4   9  17  34  56  77 102 138 172 203 249 310
#     4  10  20  36  53  72 102 142 173 202 249 312
#     4  10  19  34  55  79 104 132 168 214 255 296
#     4   8  18  35  53  71 100 138 172 202 251 312
#     4  10  19  34  54  78 102 134 175 212 246 296
#     4   8  17  33  54  74 101 136 171 206 250 304
#     4  10  20  36  53  76 105 136 168 208 258 308
#     4  11  21  34  53  79 104 130 168 219 259 292
#
# _framework density 18.639682000000001
#
# number of rings (size 3 to 8) (size 9 to 14) (size 15 to 20)
#    0.000    2.500    0.000    4.125    0.000    1.000 
#    0.000   14.375    0.000    0.000    0.000    0.000 
#    0.000    0.000    0.000    0.000    0.000    0.000 
#
# Total GULP energy -198328.802818 kJ/mol
# GULP energy per Si atom -12395.550176 kJ/mol
# Density = 1.859726 g / cm^3
# Si number density = 18.639682 Si / 1000 Ang^3
#
#
#
# Elastic Constant Matrix: (Units=GPa)
#
#
# Indices 1 2 3 4 5 6 
#
# 1 155.1786 43.5983 77.1760 13.7815 -3.3653 0.1338
# 2 43.5983 71.7838 42.5004 1.8474 -2.6939 3.6393
# 3 77.1760 42.5004 106.0969 11.3238 9.9648 3.9258
# 4 13.7815 1.8474 11.3238 28.1042 6.1978 -0.1853
# 5 -3.3653 -2.6939 9.9648 6.1978 31.0974 2.6759
# 6 0.1338 3.6393 3.9258 -0.1853 2.6759 32.5975
#
#
#
# Elastic Compliance Matrix: (Units=1/GPa)
#
#
# Indices 1 2 3 4 5 6 
#
# 1 0.011000 -0.002262 -0.007142 -0.003214 0.003861 0.000732
# 2 -0.002262 0.019337 -0.006537 0.001729 0.003320 -0.001625
# 3 -0.007142 -0.006537 0.018102 -0.001893 -0.006687 -0.000883
# 4 -0.003214 0.001729 -0.001893 0.039475 -0.007536 0.000891
# 5 0.003861 0.003320 -0.006687 -0.007536 0.036734 -0.002640
# 6 0.000732 -0.001625 -0.000883 0.000891 -0.002640 0.031184
#
#
# Mechanical properties :
#
#
# Convention : Reuss Voigt Hill
#
# Bulk Modulus (GPa) = 60.39701 73.28985 66.84343
# Shear Modulus (GPa) = 25.87531 29.67880 27.77705
#
# Velocity S-wave (km/s) = 3.72988 3.99461 3.86451
# Velocity P-wave (km/s) = 7.14297 7.78977 7.47337
#
# Compressibility (1/GPa) = 0.01655711
#
# Stress axis : x y z
#
# Youngs Moduli (GPa) = 90.90549 51.71328 55.24219
#
# Poissons Ratio (x) = 0.11697 0.39456
# Poissons Ratio (y) = 0.20563 0.36112
# Poissons Ratio (z) = 0.64928 0.33805
#
# Static dielectric constant tensor:
#      x y z
#    x 3.688880 -0.039870 0.327560 
#    y -0.039870 3.339590 0.072230 
#    z 0.327560 0.072230 3.591340 
# 
# 
# High freq. dielectric constant tensor:
#      x y z
#    x 1.737710 -0.001260 0.010900 
#    y -0.001260 1.711290 -0.004560 
#    z 0.010900 -0.004560 1.714450 
# 
# From -- ./inp_files/196292.got.cif
#   From: 2010.06.25/outbox.cif.g09.slc.cpg/sg2_99_cif.got.tgz:196292.got - 2010.06.27 13:26:56.
