data_PCOD8041229
_publ_section_title
;
Structure prediction by ZEFSAII (Michael W. Deem and Ramdas Pophale) SiO2 
 PCOD8041229
Probable space group: P -1
;
_chemical_formula_sum "Si O2"
_cell_formula_units_Z 16
_cell_length_a 11.703285
_cell_length_b 12.024032
_cell_length_c 8.304518
_cell_angle_alpha 125.379929
_cell_angle_beta 58.415435
_cell_angle_gamma 110.998669
_cell_volume 809.110505
_symmetry_space_group_name_H-M "P -1"
_symmetry_group_IT_number 2
_symmetry_cell_setting 'triclinic'
loop_
_space_group_symop_operation_xyz
x,y,z
-x,-y,-z
loop_
_atom_site_type_symbol
_atom_site_label
_atom_site_fract_x
_atom_site_fract_y
_atom_site_fract_z
Si Si1 0.950071 0.324194 0.789550
Si Si2 0.152941 0.966536 0.892753
Si Si3 0.764001 0.108565 0.565322
Si Si4 0.545235 0.149815 0.023071
Si Si5 0.122436 0.109621 0.525550
Si Si6 0.263837 0.211951 0.196728
Si Si7 0.896259 0.521810 0.452759
Si Si8 0.226092 0.723625 0.833421
O O1 0.888410 0.213833 0.612868
O O2 0.073258 0.256768 0.733370
O O3 0.010508 0.456423 0.758100
O O4 0.842155 0.355505 0.028312
O O5 0.233345 0.889644 0.628933
O O6 0.154868 0.860920 0.953107
O O7 0.237498 0.111461 0.980058
O O8 0.000000 0.000000 0.000000
O O9 0.631021 0.144692 0.789591
O O10 0.784615 0.949610 0.456611
O O11 0.422609 0.238374 0.136218
O O12 0.622630 0.231822 0.181954
O O13 0.500000 0.000000 0.000000
O O14 0.203656 0.121846 0.311486
O O15 0.000000 0.000000 0.500000
O O16 0.192894 0.351873 0.339142
O O17 0.790980 0.388340 0.391676
O O18 0.000000 0.500000 0.500000
#
# Coordination Sequence:
#
# PCOD8041229 Si02
#       8
#     2   2   2   2   2   2   2   2
#     4   9  18  34  56  84 115 153 197 242 298 353
#     4  12  21  34  59  94 121 152 196 252 312 346
#     4  10  19  31  57  88 121 153 193 250 298 346
#     4  11  21  41  60  85 119 162 209 242 278 356
#     4   9  15  29  52  81 112 148 191 243 294 343
#     4  11  22  38  58  83 121 159 197 246 293 355
#     4  11  23  39  61  90 122 153 193 253 312 356
#     4  11  22  38  62  85 118 161 198 243 296 357
#
# _framework density 19.774801
#
# number of rings (size 3 to 8) (size 9 to 14) (size 15 to 20)
#    0.000    1.500    2.500    6.375    0.000    1.000 
#    0.000    0.000    0.000    6.750    0.000    0.000 
#    0.000    0.000    0.000    0.000    0.000    0.000 
#
# Total GULP energy -198209.565579 kJ/mol
# GULP energy per Si atom -12388.097849 kJ/mol
# Density = 1.972979 g / cm^3
# Si number density = 19.774801 Si / 1000 Ang^3
#
#
#
# Elastic Constant Matrix: (Units=GPa)
#
#
# Indices 1 2 3 4 5 6 
#
# 1 145.1949 48.0180 45.0495 15.6977 -4.0495 5.8028
# 2 48.0180 83.3421 32.2631 11.4478 -2.2826 1.3559
# 3 45.0495 32.2631 70.9572 7.7451 7.0266 14.0597
# 4 15.6977 11.4478 7.7451 35.3005 7.6914 1.8701
# 5 -4.0495 -2.2826 7.0266 7.6914 34.5798 5.6718
# 6 5.8028 1.3559 14.0597 1.8701 5.6718 27.9621
#
#
#
# Elastic Compliance Matrix: (Units=1/GPa)
#
#
# Indices 1 2 3 4 5 6 
#
# 1 0.009824 -0.003409 -0.004657 -0.002787 0.002466 0.000155
# 2 -0.003409 0.016664 -0.005787 -0.003228 0.002171 0.002585
# 3 -0.004657 -0.005787 0.021792 0.000512 -0.004004 -0.008932
# 4 -0.002787 -0.003228 0.000512 0.032204 -0.007791 -0.000096
# 5 0.002466 0.002171 -0.004004 -0.007791 0.032670 -0.004709
# 6 0.000155 0.002585 -0.008932 -0.000096 -0.004709 0.041058
#
#
# Mechanical properties :
#
#
# Convention : Reuss Voigt Hill
#
# Bulk Modulus (GPa) = 48.61037 61.12838 54.86937
# Shear Modulus (GPa) = 26.48629 31.17939 28.83284
#
# Velocity S-wave (km/s) = 3.66375 3.97511 3.82260
# Velocity P-wave (km/s) = 6.52171 7.21443 6.87680
#
# Compressibility (1/GPa) = 0.02057174
#
# Stress axis : x y z
#
# Youngs Moduli (GPa) = 101.79454 60.00907 45.88889
#
# Poissons Ratio (x) = 0.20458 0.21373
# Poissons Ratio (y) = 0.34704 0.26557
# Poissons Ratio (z) = 0.47411 0.34729
#
# Static dielectric constant tensor:
#      x y z
#    x 3.608510 -0.074190 0.020060 
#    y -0.074190 3.770040 0.014560 
#    z 0.020060 0.014560 3.506700 
# 
# 
# High freq. dielectric constant tensor:
#      x y z
#    x 1.758430 -0.003020 0.004090 
#    y -0.003020 1.769140 -0.000270 
#    z 0.004090 -0.000270 1.760160 
# 
# From -- ./inp_files/260543.got.cif
#   From: 2010.06.25/outbox.cif.g09.slc.cpg/sg2_131_cif.got.tgz:260543.got - 2010.06.27 13:26:56.
