data_PCOD8041716
_publ_section_title
;
Structure prediction by ZEFSAII (Michael W. Deem and Ramdas Pophale) SiO2 
 PCOD8041716
Probable space group: P -1
;
_chemical_formula_sum "Si O2"
_cell_formula_units_Z 14
_cell_length_a 8.347851
_cell_length_b 18.725370
_cell_length_c 10.091669
_cell_angle_alpha 147.095554
_cell_angle_beta 102.996555
_cell_angle_gamma 96.468658
_cell_volume 686.340704
_symmetry_space_group_name_H-M "P -1"
_symmetry_group_IT_number 2
_symmetry_cell_setting 'triclinic'
loop_
_space_group_symop_operation_xyz
x,y,z
-x,-y,-z
loop_
_atom_site_type_symbol
_atom_site_label
_atom_site_fract_x
_atom_site_fract_y
_atom_site_fract_z
Si Si1 0.224234 0.470625 0.398508
Si Si2 0.371952 0.289949 0.265720
Si Si3 0.076530 0.634477 0.041429
Si Si4 0.527826 0.899461 0.512654
Si Si5 0.368683 0.264282 0.522393
Si Si6 0.465656 0.803543 0.063348
Si Si7 0.192270 0.427456 0.870152
O O1 0.212846 0.331440 0.264918
O O2 0.405224 0.542666 0.435738
O O3 0.272876 0.618157 0.732659
O O4 0.014657 0.393865 0.166199
O O5 0.321907 0.208734 0.274329
O O6 0.365767 0.169122 0.967898
O O7 0.292220 0.799556 0.342432
O O8 0.940119 0.651223 0.146226
O O9 0.085406 0.483810 0.842093
O O10 0.647123 0.874827 0.609510
O O11 0.561351 0.843407 0.289940
O O12 0.610351 0.085241 0.814653
O O13 0.205876 0.294475 0.590981
O O14 0.589063 0.423388 0.818904
#
# Coordination Sequence:
#
# PCOD8041716 Si02
#       7
#     2   2   2   2   2   2   2
#     4   9  19  33  58  76 113 138 180 225 270 315
#     4   9  19  34  57  82 104 147 184 219 266 326
#     4  10  19  34  53  89 108 141 172 242 273 303
#     4  10  22  35  60  80 110 145 185 219 276 318
#     4  10  19  33  57  83 103 153 180 222 261 339
#     4   9  20  39  54  81 108 149 187 212 265 347
#     4   9  19  30  54  82 118 130 188 223 276 312
#
# _framework density 20.398032000000001
#
# number of rings (size 3 to 8) (size 9 to 14) (size 15 to 20)
#    0.857    1.714    1.429    0.000    8.000    1.143 
#    0.000    0.714    0.000    1.714    0.000    0.000 
#    0.000    0.000    0.000    0.000    0.000    0.000 
#
# Total GULP energy -173547.126310 kJ/mol
# GULP energy per Si atom -12396.223308 kJ/mol
# Density = 2.035161 g / cm^3
# Si number density = 20.398032 Si / 1000 Ang^3
#
#
#
# Elastic Constant Matrix: (Units=GPa)
#
#
# Indices 1 2 3 4 5 6 
#
# 1 88.2245 39.9856 29.8960 -15.5552 -23.3819 -4.5235
# 2 39.9856 136.4910 40.9037 -33.6757 -25.0751 -15.5354
# 3 29.8960 40.9037 58.3963 -20.8688 -26.8167 -2.5434
# 4 -15.5552 -33.6757 -20.8688 25.7832 2.7794 3.9285
# 5 -23.3819 -25.0751 -26.8167 2.7794 31.1169 -7.5618
# 6 -4.5235 -15.5354 -2.5434 3.9285 -7.5618 23.5364
#
#
#
# Elastic Compliance Matrix: (Units=1/GPa)
#
#
# Indices 1 2 3 4 5 6 
#
# 1 0.016569 0.000586 0.001962 0.009587 0.015497 0.007162
# 2 0.000586 0.016056 0.006241 0.022028 0.020243 0.014212
# 3 0.001962 0.006241 0.051753 0.042604 0.052089 0.019713
# 4 0.009587 0.022028 0.042604 0.097926 0.058630 0.023478
# 5 0.015497 0.020243 0.052089 0.058630 0.111407 0.047976
# 6 0.007162 0.014212 0.019713 0.023478 0.047976 0.066870
#
#
# Mechanical properties :
#
#
# Convention : Reuss Voigt Hill
#
# Bulk Modulus (GPa) = 9.80827 56.07581 32.94204
# Shear Modulus (GPa) = 13.26298 27.57573 20.41936
#
# Velocity S-wave (km/s) = 2.55269 3.68078 3.16736
# Velocity P-wave (km/s) = 3.67521 6.75387 5.43700
#
# Compressibility (1/GPa) = 0.10195473
#
# Stress axis : x y z
#
# Youngs Moduli (GPa) = 60.35270 62.28221 19.32255
#
# Poissons Ratio (x) = -0.03648 -0.03791
# Poissons Ratio (y) = -0.03535 -0.12058
# Poissons Ratio (z) = -0.11841 -0.38868
#
# Static dielectric constant tensor:
#      x y z
#    x 3.608290 -0.072950 -0.200800 
#    y -0.072950 3.676830 -0.148450 
#    z -0.200800 -0.148450 3.234630 
# 
# 
# High freq. dielectric constant tensor:
#      x y z
#    x 1.790130 -0.008010 -0.020980 
#    y -0.008010 1.797560 -0.017600 
#    z -0.020980 -0.017600 1.758720 
# 
# From -- ./inp_files/213903.got.cif
#   From: 2010.06.25/outbox.cif.g09.slc.cpg/sg2_107_cif.got.tgz:213903.got - 2010.06.27 13:26:56.
