data_PCOD8041012
_publ_section_title
;
Structure prediction by ZEFSAII (Michael W. Deem and Ramdas Pophale) SiO2 
 PCOD8041012
Probable space group: P -1
;
_chemical_formula_sum "Si O2"
_cell_formula_units_Z 12
_cell_length_a 13.908716
_cell_length_b 13.345890
_cell_length_c 6.327170
_cell_angle_alpha 137.673085
_cell_angle_beta 114.163861
_cell_angle_gamma 40.496469
_cell_volume 481.173753
_symmetry_space_group_name_H-M "P -1"
_symmetry_group_IT_number 2
_symmetry_cell_setting 'triclinic'
loop_
_space_group_symop_operation_xyz
x,y,z
-x,-y,-z
loop_
_atom_site_type_symbol
_atom_site_label
_atom_site_fract_x
_atom_site_fract_y
_atom_site_fract_z
Si Si1 0.663968 0.396768 0.060395
Si Si2 0.425117 0.258635 0.174295
Si Si3 0.731327 0.871441 0.036575
Si Si4 0.867977 0.926795 0.603644
Si Si5 0.805040 0.412550 0.850848
Si Si6 0.942381 0.566315 0.299728
O O1 0.631139 0.589283 0.437014
O O2 0.500000 0.500000 0.000000
O O3 0.782455 0.304023 0.827350
O O4 0.764720 0.180566 0.968070
O O5 0.362295 0.406717 0.141367
O O6 0.616728 0.048541 0.021937
O O7 0.355554 0.165760 0.968197
O O8 0.775735 0.957965 0.366568
O O9 0.897041 0.628729 0.711081
O O10 0.869717 0.810289 0.625339
O O11 0.047746 0.779531 0.470165
O O12 0.824109 0.553055 0.203288
O O13 0.000000 0.500000 0.000000
#
# Coordination Sequence:
#
# PCOD8041012 Si02
#       6
#     2   2   2   2   2   2
#     4  12  26  39  59  97 130 155 203 261 305 357
#     4  11  20  38  66  91 120 162 208 248 302 368
#     4   9  17  36  65  89 120 161 197 253 304 356
#     4  10  18  42  64  90 126 163 193 260 312 356
#     4  10  21  41  68  87 121 169 204 241 315 364
#     4   8  15  36  68  85 112 168 199 241 306 360
#
# _framework density 24.939015999999999
#
# number of rings (size 3 to 8) (size 9 to 14) (size 15 to 20)
#    0.000    2.333    6.667    0.500    0.000    1.333 
#    0.000   10.833    3.667    0.000    0.000    0.000 
#    0.000    0.000    0.000    0.000    0.000    0.000 
#
# Total GULP energy -148746.847455 kJ/mol
# GULP energy per Si atom -12395.570621 kJ/mol
# Density = 2.488225 g / cm^3
# Si number density = 24.939016 Si / 1000 Ang^3
#
#
#
# Elastic Constant Matrix: (Units=GPa)
#
#
# Indices 1 2 3 4 5 6 
#
# 1 95.6997 37.8422 19.6836 16.4875 10.7236 -12.8143
# 2 37.8422 190.6496 28.0557 37.9152 5.2764 -18.5459
# 3 19.6836 28.0557 60.7589 23.2270 2.6129 -3.4232
# 4 16.4875 37.9152 23.2270 48.1272 -0.9068 7.6119
# 5 10.7236 5.2764 2.6129 -0.9068 25.8048 6.8501
# 6 -12.8143 -18.5459 -3.4232 7.6119 6.8501 29.0590
#
#
#
# Elastic Compliance Matrix: (Units=1/GPa)
#
#
# Indices 1 2 3 4 5 6 
#
# 1 0.013952 -0.000380 -0.001423 -0.005384 -0.008176 0.009080
# 2 -0.000380 0.007530 -0.000132 -0.006957 -0.003546 0.007281
# 3 -0.001423 -0.000132 0.021531 -0.010722 -0.003380 0.005430
# 4 -0.005384 -0.006957 -0.010722 0.036720 0.011450 -0.020395
# 5 -0.008176 -0.003546 -0.003380 0.011450 0.049155 -0.020853
# 6 0.009080 0.007281 0.005430 -0.020395 -0.020853 0.053961
#
#
# Mechanical properties :
#
#
# Convention : Reuss Voigt Hill
#
# Bulk Modulus (GPa) = 25.54742 57.58568 41.56655
# Shear Modulus (GPa) = 25.02937 38.03330 31.53133
#
# Velocity S-wave (km/s) = 3.17144 3.90943 3.55961
# Velocity P-wave (km/s) = 4.86589 6.59689 5.79637
#
# Compressibility (1/GPa) = 0.03914290
#
# Stress axis : x y z
#
# Youngs Moduli (GPa) = 71.67598 132.80328 46.44557
#
# Poissons Ratio (x) = 0.05041 0.06610
# Poissons Ratio (y) = 0.02721 0.00612
# Poissons Ratio (z) = 0.10201 0.01750
#
# Static dielectric constant tensor:
#      x y z
#    x 4.333430 0.038400 0.176370 
#    y 0.038400 5.283810 0.392870 
#    z 0.176370 0.392870 4.565450 
# 
# 
# High freq. dielectric constant tensor:
#      x y z
#    x 1.982770 -0.008210 0.011810 
#    y -0.008210 2.014920 0.015350 
#    z 0.011810 0.015350 1.980850 
# 
# From -- ./inp_files/310549.got.cif
#   From: 2010.06.25/outbox.cif.g09.slc.cpg/sg2_156_cif.got.tgz:310549.got - 2010.06.27 13:26:56.
