data_PCOD8041021
_publ_section_title
;
Structure prediction by ZEFSAII (Michael W. Deem and Ramdas Pophale) SiO2 
 PCOD8041021
Probable space group: P -1
;
_chemical_formula_sum "Si O2"
_cell_formula_units_Z 14
_cell_length_a 10.641707
_cell_length_b 9.075268
_cell_length_c 11.880180
_cell_angle_alpha 52.633606
_cell_angle_beta 89.694364
_cell_angle_gamma 122.770820
_cell_volume 664.215491
_symmetry_space_group_name_H-M "P -1"
_symmetry_group_IT_number 2
_symmetry_cell_setting 'triclinic'
loop_
_space_group_symop_operation_xyz
x,y,z
-x,-y,-z
loop_
_atom_site_type_symbol
_atom_site_label
_atom_site_fract_x
_atom_site_fract_y
_atom_site_fract_z
Si Si1 0.866721 0.089612 0.678282
Si Si2 0.626995 0.678969 0.686014
Si Si3 0.778469 0.404912 0.554889
Si Si4 0.812282 0.397895 0.041606
Si Si5 0.667201 0.290043 0.851476
Si Si6 0.666399 0.625204 0.017124
Si Si7 0.552935 0.926610 0.426440
O O1 0.826102 0.258483 0.563349
O O2 0.074158 0.287299 0.597409
O O3 0.782012 0.871500 0.684839
O O4 0.782735 0.930935 0.870381
O O5 0.629876 0.468962 0.749714
O O6 0.653841 0.844396 0.504529
O O7 0.426863 0.518367 0.798900
O O8 0.761235 0.325194 0.721262
O O9 0.610767 0.308303 0.536346
O O10 0.675904 0.151613 0.232804
O O11 0.779124 0.358298 0.927699
O O12 0.794606 0.592320 0.991490
O O13 0.000000 0.500000 0.000000
O O14 0.500000 0.000000 0.000000
O O15 0.500000 0.500000 0.000000
O O16 0.500000 0.000000 0.500000
#
# Coordination Sequence:
#
# PCOD8041021 Si02
#       7
#     2   2   2   2   2   2   2
#     4  10  21  40  69  99 128 184 241 275 337 428
#     4  11  23  41  76  93 132 190 235 272 347 426
#     4  11  24  40  67 100 142 176 228 296 347 401
#     4  12  26  42  71 107 141 175 230 298 350 402
#     4  12  25  46  67 101 139 182 229 285 350 417
#     4  10  18  42  71  95 126 189 238 263 336 437
#     4  12  23  45  70 100 138 184 234 285 347 419
#
# _framework density 21.077496
#
# number of rings (size 3 to 8) (size 9 to 14) (size 15 to 20)
#    0.000    0.857    7.143    1.714    2.000    2.286 
#    2.571    0.714    0.000    0.000    0.000    0.000 
#    0.000    0.000    0.000    0.000    0.000    0.000 
#
# Total GULP energy -173441.810329 kJ/mol
# GULP energy per Si atom -12388.700738 kJ/mol
# Density = 2.102952 g / cm^3
# Si number density = 21.077496 Si / 1000 Ang^3
#
#
#
# Elastic Constant Matrix: (Units=GPa)
#
#
# Indices 1 2 3 4 5 6 
#
# 1 110.4790 31.9132 22.6394 -9.0144 6.8500 11.9645
# 2 31.9132 83.9548 42.3314 -12.5863 0.7592 12.5744
# 3 22.6394 42.3314 125.3490 -16.4893 2.8444 17.2820
# 4 -9.0144 -12.5863 -16.4893 48.3712 2.3408 1.0775
# 5 6.8500 0.7592 2.8444 2.3408 41.7215 -6.1603
# 6 11.9645 12.5744 17.2820 1.0775 -6.1603 28.5776
#
#
#
# Elastic Compliance Matrix: (Units=1/GPa)
#
#
# Indices 1 2 3 4 5 6 
#
# 1 0.010637 -0.003246 -0.000124 0.001283 -0.002266 -0.003487
# 2 -0.003246 0.016037 -0.004069 0.002260 -0.000102 -0.003344
# 3 -0.000124 -0.004069 0.010431 0.002655 -0.001487 -0.004886
# 4 0.001283 0.002260 0.002655 0.022620 -0.002366 -0.004500
# 5 -0.002266 -0.000102 -0.001487 -0.002366 0.025687 0.007519
# 6 -0.003487 -0.003344 -0.004886 -0.004500 0.007519 0.042669
#
#
# Mechanical properties :
#
#
# Convention : Reuss Voigt Hill
#
# Bulk Modulus (GPa) = 44.98893 57.06118 51.02505
# Shear Modulus (GPa) = 33.25149 38.59396 35.92273
#
# Velocity S-wave (km/s) = 3.97619 4.28372 4.13282
# Velocity P-wave (km/s) = 6.51698 7.18317 6.85816
#
# Compressibility (1/GPa) = 0.02222769
#
# Stress axis : x y z
#
# Youngs Moduli (GPa) = 94.00865 62.35456 95.86882
#
# Poissons Ratio (x) = 0.20239 0.01190
# Poissons Ratio (y) = 0.30514 0.39009
# Poissons Ratio (z) = 0.01167 0.25372
#
# Static dielectric constant tensor:
#      x y z
#    x 3.741910 0.016680 -0.088260 
#    y 0.016680 3.897020 0.034980 
#    z -0.088260 0.034980 4.429070 
# 
# 
# High freq. dielectric constant tensor:
#      x y z
#    x 1.812150 -0.001460 0.007370 
#    y -0.001460 1.810830 -0.010350 
#    z 0.007370 -0.010350 1.849650 
# 
# From -- ./inp_files/419170.got.cif
#   From: 2010.06.25/outbox.cif.g09.slc.cpg/sg2_210_cif.got.tgz:419170.got - 2010.06.27 13:26:56.
