data_PCOD8041393
_publ_section_title
;
Structure prediction by ZEFSAII (Michael W. Deem and Ramdas Pophale) SiO2 
 PCOD8041393
Probable space group: P -1
;
_chemical_formula_sum "Si O2"
_cell_formula_units_Z 14
_cell_length_a 8.856813
_cell_length_b 9.472340
_cell_length_c 12.512564
_cell_angle_alpha 126.429630
_cell_angle_beta 88.944724
_cell_angle_gamma 116.420148
_cell_volume 711.016751
_symmetry_space_group_name_H-M "P -1"
_symmetry_group_IT_number 2
_symmetry_cell_setting 'triclinic'
loop_
_space_group_symop_operation_xyz
x,y,z
-x,-y,-z
loop_
_atom_site_type_symbol
_atom_site_label
_atom_site_fract_x
_atom_site_fract_y
_atom_site_fract_z
Si Si1 0.525258 0.937850 0.804956
Si Si2 0.448117 0.392347 0.705837
Si Si3 0.443716 0.887672 0.337734
Si Si4 0.950839 0.254639 0.683616
Si Si5 0.661120 0.651093 0.641794
Si Si6 0.901267 0.842256 0.545136
Si Si7 0.689976 0.330572 0.122875
O O1 0.656202 0.853853 0.760917
O O2 0.352303 0.782874 0.811020
O O3 0.467270 0.954460 0.692588
O O4 0.637359 0.168031 0.955937
O O5 0.484504 0.266695 0.737105
O O6 0.632378 0.518107 0.688976
O O7 0.276105 0.245190 0.566823
O O8 0.422913 0.561426 0.841557
O O9 0.229178 0.768060 0.283084
O O10 0.500000 0.000000 0.500000
O O11 0.960024 0.206020 0.534696
O O12 0.101300 0.493850 0.812876
O O13 0.985859 0.089884 0.669747
O O14 0.500000 0.500000 0.500000
O O15 0.847023 0.730373 0.611801
#
# Coordination Sequence:
#
# PCOD8041393 Si02
#       7
#     2   2   2   2   2   2   2
#     4  10  20  37  59  79 108 143 190 221 261 329
#     4   9  18  32  55  77 111 140 179 219 275 323
#     4  12  21  34  54  86 115 140 171 231 283 320
#     4  10  19  32  56  80 111 137 185 229 264 313
#     4   9  15  31  54  79 100 143 180 217 260 319
#     4   9  16  32  53  79 106 142 183 226 256 315
#     4   9  21  39  58  78 102 152 191 219 256 322
#
# _framework density 19.690113
#
# number of rings (size 3 to 8) (size 9 to 14) (size 15 to 20)
#    0.000    2.286    2.857    1.714    0.000    1.143 
#    0.000    2.857    0.000    7.714    0.000    0.000 
#    0.000    0.000    0.000    0.000    0.000    0.000 
#
# Total GULP energy -173442.555932 kJ/mol
# GULP energy per Si atom -12388.753995 kJ/mol
# Density = 1.964530 g / cm^3
# Si number density = 19.690113 Si / 1000 Ang^3
#
#
#
# Elastic Constant Matrix: (Units=GPa)
#
#
# Indices 1 2 3 4 5 6 
#
# 1 46.3484 15.3886 6.6435 2.0198 -7.5808 -1.6423
# 2 15.3886 95.8970 25.8479 1.6665 1.5796 2.7146
# 3 6.6435 25.8479 74.8750 16.5937 -9.7861 -2.6122
# 4 2.0198 1.6665 16.5937 39.2536 0.1231 -3.5425
# 5 -7.5808 1.5796 -9.7861 0.1231 18.1045 2.1125
# 6 -1.6423 2.7146 -2.6122 -3.5425 2.1125 34.5929
#
#
#
# Elastic Compliance Matrix: (Units=1/GPa)
#
#
# Indices 1 2 3 4 5 6 
#
# 1 0.024850 -0.004495 0.001206 -0.001564 0.011371 0.000769
# 2 -0.004495 0.012624 -0.005130 0.001785 -0.005644 -0.001064
# 3 0.001206 -0.005130 0.018097 -0.007492 0.010739 0.000403
# 4 -0.001564 0.001785 -0.007492 0.028890 -0.005349 0.002505
# 5 0.011371 -0.005644 0.010739 -0.005349 0.066659 -0.002825
# 6 0.000769 -0.001064 0.000403 0.002505 -0.002825 0.029487
#
#
# Mechanical properties :
#
#
# Convention : Reuss Voigt Hill
#
# Bulk Modulus (GPa) = 25.81621 34.76450 30.29036
# Shear Modulus (GPa) = 23.76926 29.67288 26.72107
#
# Velocity S-wave (km/s) = 3.47820 3.88621 3.68785
# Velocity P-wave (km/s) = 5.41020 6.15069 5.79229
#
# Compressibility (1/GPa) = 0.03873535
#
# Stress axis : x y z
#
# Youngs Moduli (GPa) = 40.24087 79.21542 55.25679
#
# Poissons Ratio (x) = 0.35605 -0.06666
# Poissons Ratio (y) = 0.18087 0.28345
# Poissons Ratio (z) = -0.04854 0.40634
#
# Static dielectric constant tensor:
#      x y z
#    x 3.590200 0.276560 -0.408250 
#    y 0.276560 4.260760 0.054770 
#    z -0.408250 0.054770 3.351780 
# 
# 
# High freq. dielectric constant tensor:
#      x y z
#    x 1.732490 0.022700 -0.039740 
#    y 0.022700 1.789640 0.017160 
#    z -0.039740 0.017160 1.734090 
# 
# From -- ./inp_files/195343.got.cif
#   From: 2010.06.25/outbox.cif.g09.slc.cpg/sg2_98_cif.got.tgz:195343.got - 2010.06.27 13:26:56.
