data_PCOD8041249
_publ_section_title
;
Structure prediction by ZEFSAII (Michael W. Deem and Ramdas Pophale) SiO2 
 PCOD8041249
Probable space group: P -1
;
_chemical_formula_sum "Si O2"
_cell_formula_units_Z 16
_cell_length_a 11.431724
_cell_length_b 23.169258
_cell_length_c 11.525069
_cell_angle_alpha 31.959468
_cell_angle_beta 147.592799
_cell_angle_gamma 138.041942
_cell_volume 861.922888
_symmetry_space_group_name_H-M "P -1"
_symmetry_group_IT_number 2
_symmetry_cell_setting 'triclinic'
loop_
_space_group_symop_operation_xyz
x,y,z
-x,-y,-z
loop_
_atom_site_type_symbol
_atom_site_label
_atom_site_fract_x
_atom_site_fract_y
_atom_site_fract_z
Si Si1 0.194075 0.924857 0.288495
Si Si2 0.259601 0.733695 0.057907
Si Si3 0.838978 0.570936 0.379464
Si Si4 0.521852 0.109172 0.198664
Si Si5 0.963438 0.610362 0.841850
Si Si6 0.904167 0.637259 0.073667
Si Si7 0.853654 0.739944 0.308902
Si Si8 0.439710 0.405124 0.310740
O O1 0.281858 0.904659 0.524993
O O2 0.080431 0.810246 0.337702
O O3 0.390744 0.989109 0.268424
O O4 0.000000 0.000000 0.000000
O O5 0.446297 0.687124 0.369328
O O6 0.050424 0.739219 0.959740
O O7 0.366275 0.849473 0.899511
O O8 0.184322 0.658692 0.011136
O O9 0.918642 0.649434 0.204138
O O10 0.816350 0.640330 0.358045
O O11 0.597773 0.515623 0.240125
O O12 0.000989 0.476608 0.693116
O O13 0.357672 0.190775 0.979609
O O14 0.886470 0.697993 0.537706
O O15 0.776289 0.572712 0.839844
O O16 0.000000 0.500000 0.000000
O O17 0.651088 0.635976 0.822113
#
# Coordination Sequence:
#
# PCOD8041249 Si02
#       8
#     2   2   2   2   2   2   2   2
#     4   9  20  35  53  77 106 132 167 213 268 321
#     4  10  19  32  52  73 101 135 173 211 256 311
#     4  10  21  34  51  71 105 146 181 213 249 305
#     4  10  19  34  54  79 103 133 172 212 267 323
#     4  11  21  29  45  77 112 137 166 207 257 311
#     4   9  20  36  49  73 102 143 189 214 243 291
#     4  11  20  32  51  78 108 138 167 214 265 308
#     4  10  19  32  48  70  99 141 176 213 246 296
#
# _framework density 18.563147000000001
#
# number of rings (size 3 to 8) (size 9 to 14) (size 15 to 20)
#    0.000    2.000    2.500    2.625    1.750    2.000 
#    0.000    0.000    0.000    0.750    0.000    8.750 
#    0.000    0.000    0.000    0.000    0.000    0.000 
#
# Total GULP energy -198240.633746 kJ/mol
# GULP energy per Si atom -12390.039609 kJ/mol
# Density = 1.852090 g / cm^3
# Si number density = 18.563147 Si / 1000 Ang^3
#
#
#
# Elastic Constant Matrix: (Units=GPa)
#
#
# Indices 1 2 3 4 5 6 
#
# 1 72.1517 28.0496 20.2701 0.1563 -25.6355 20.0610
# 2 28.0496 61.6370 21.3521 10.8142 -8.8635 29.4028
# 3 20.2701 21.3521 95.4948 21.0048 -13.1126 3.3421
# 4 0.1563 10.8142 21.0048 30.4565 4.0743 -4.7972
# 5 -25.6355 -8.8635 -13.1126 4.0743 26.9352 -5.9632
# 6 20.0610 29.4028 3.3421 -4.7972 -5.9632 32.2767
#
#
#
# Elastic Compliance Matrix: (Units=1/GPa)
#
#
# Indices 1 2 3 4 5 6 
#
# 1 0.025455 -0.003518 -0.000857 -0.002525 0.021038 -0.009016
# 2 -0.003518 0.039209 -0.002277 -0.018362 0.003386 -0.035399
# 3 -0.000857 -0.002277 0.014259 -0.009813 0.007078 0.000980
# 4 -0.002525 -0.018362 -0.009813 0.052043 -0.015751 0.024137
# 5 0.021038 0.003386 0.007078 -0.015751 0.062385 -0.007708
# 6 -0.009016 -0.035399 0.000980 0.024137 -0.007708 0.070895
#
#
# Mechanical properties :
#
#
# Convention : Reuss Voigt Hill
#
# Bulk Modulus (GPa) = 15.23965 40.95856 28.09910
# Shear Modulus (GPa) = 16.69880 28.57447 22.63664
#
# Velocity S-wave (km/s) = 3.00253 3.92766 3.49584
# Velocity P-wave (km/s) = 4.49975 6.53307 5.60931
#
# Compressibility (1/GPa) = 0.06561832
#
# Stress axis : x y z
#
# Youngs Moduli (GPa) = 39.28492 25.50458 70.13106
#
# Poissons Ratio (x) = 0.08972 0.06010
# Poissons Ratio (y) = 0.13819 0.15972
# Poissons Ratio (z) = 0.03366 0.05809
#
# Static dielectric constant tensor:
#      x y z
#    x 4.558640 0.335050 -1.367260 
#    y 0.335050 3.723710 0.357630 
#    z -1.367260 0.357630 4.617440 
# 
# 
# High freq. dielectric constant tensor:
#      x y z
#    x 1.700030 0.038460 -0.026590 
#    y 0.038460 1.706900 0.026570 
#    z -0.026590 0.026570 1.729190 
# 
# From -- ./inp_files/67312.got.cif
#   From: 2010.06.25/outbox.cif.g09.slc.cpg/sg2_34_cif.got.tgz:67312.got - 2010.06.27 13:26:56.
