data_PCOD8041228
_publ_section_title
;
Structure prediction by ZEFSAII (Michael W. Deem and Ramdas Pophale) SiO2 
 PCOD8041228
Probable space group: P -1
;
_chemical_formula_sum "Si O2"
_cell_formula_units_Z 16
_cell_length_a 26.924456
_cell_length_b 11.447990
_cell_length_c 8.542014
_cell_angle_alpha 139.147555
_cell_angle_beta 48.001478
_cell_angle_gamma 149.906509
_cell_volume 862.679745
_symmetry_space_group_name_H-M "P -1"
_symmetry_group_IT_number 2
_symmetry_cell_setting 'triclinic'
loop_
_space_group_symop_operation_xyz
x,y,z
-x,-y,-z
loop_
_atom_site_type_symbol
_atom_site_label
_atom_site_fract_x
_atom_site_fract_y
_atom_site_fract_z
Si Si1 0.009611 0.463889 0.264214
Si Si2 0.791823 0.991207 0.248233
Si Si3 0.706714 0.181583 0.693116
Si Si4 0.306307 0.556717 0.592777
Si Si5 0.159249 0.042318 0.546208
Si Si6 0.458802 0.023496 0.965027
Si Si7 0.662028 0.427868 0.818756
Si Si8 0.143101 0.402562 0.955377
O O1 0.000000 0.500000 0.500000
O O2 0.054655 0.355045 0.038514
O O3 0.899742 0.243693 0.198694
O O4 0.082667 0.756713 0.330319
O O5 0.800645 0.964566 0.385939
O O6 0.721414 0.024874 0.412070
O O7 0.745293 0.736195 0.994142
O O8 0.680141 0.283104 0.729686
O O9 0.809994 0.432436 0.815113
O O10 0.619563 0.987739 0.811332
O O11 0.254276 0.266487 0.460869
O O12 0.404886 0.779771 0.713668
O O13 0.334398 0.613727 0.411843
O O14 0.227996 0.561780 0.802152
O O15 0.103633 0.121324 0.781852
O O16 0.553306 0.296499 0.953826
O O17 0.500000 0.000000 0.000000
#
# Coordination Sequence:
#
# PCOD8041228 Si02
#       8
#     2   2   2   2   2   2   2   2
#     4  10  19  31  57  87 107 140 193 237 266 312
#     4  11  21  34  56  86 109 144 189 232 271 318
#     4  10  19  35  57  85 109 141 187 233 275 313
#     4   9  20  37  58  82 111 151 174 217 285 335
#     4   9  18  34  56  80 109 143 182 234 268 315
#     4   9  18  36  65  82 104 140 185 235 272 317
#     4  11  21  38  54  79 119 147 179 221 276 342
#     4   9  17  35  56  82 108 142 188 229 277 309
#
# _framework density 18.546859000000001
#
# number of rings (size 3 to 8) (size 9 to 14) (size 15 to 20)
#    0.750    1.500    3.750    1.125    0.000    3.500 
#    2.250    1.250    0.000    4.500    0.000    0.000 
#    0.000    0.000    0.000    0.000    0.000    0.000 
#
# Total GULP energy -198244.230200 kJ/mol
# GULP energy per Si atom -12390.264388 kJ/mol
# Density = 1.850465 g / cm^3
# Si number density = 18.546859 Si / 1000 Ang^3
#
#
#
# Elastic Constant Matrix: (Units=GPa)
#
#
# Indices 1 2 3 4 5 6 
#
# 1 61.8979 38.4052 53.1794 -1.9324 -8.4914 10.1868
# 2 38.4052 101.5140 40.4768 14.7824 10.6582 17.4400
# 3 53.1794 40.4768 80.9693 3.2549 -3.6253 3.3400
# 4 -1.9324 14.7824 3.2549 25.0255 -4.6414 -0.1677
# 5 -8.4914 10.6582 -3.6253 -4.6414 35.3644 -2.5129
# 6 10.1868 17.4400 3.3400 -0.1677 -2.5129 23.0724
#
#
#
# Elastic Compliance Matrix: (Units=1/GPa)
#
#
# Indices 1 2 3 4 5 6 
#
# 1 0.049604 -0.010198 -0.027149 0.015862 0.013667 -0.008658
# 2 -0.010198 0.020193 -0.002845 -0.014570 -0.011571 -0.011715
# 3 -0.027149 -0.002845 0.031307 -0.004876 -0.002431 0.009305
# 4 0.015862 -0.014570 -0.004876 0.053284 0.015173 0.006755
# 5 0.013667 -0.011571 -0.002431 0.015173 0.037302 0.007237
# 6 -0.008658 -0.011715 0.009305 0.006755 0.007237 0.055510
#
#
# Mechanical properties :
#
#
# Convention : Reuss Voigt Hill
#
# Bulk Modulus (GPa) = 48.26822 56.50043 52.38433
# Shear Modulus (GPa) = 14.94806 24.18044 19.56425
#
# Velocity S-wave (km/s) = 2.84203 3.61466 3.25138
# Velocity P-wave (km/s) = 6.07050 6.92465 6.51160
#
# Compressibility (1/GPa) = 0.02071757
#
# Stress axis : x y z
#
# Youngs Moduli (GPa) = 20.15987 49.52258 31.94145
#
# Poissons Ratio (x) = 0.50505 0.86718
# Poissons Ratio (y) = 0.20560 0.09089
# Poissons Ratio (z) = 0.54732 0.14091
#
# Static dielectric constant tensor:
#      x y z
#    x 3.135720 0.223380 -0.104470 
#    y 0.223380 3.974470 0.128800 
#    z -0.104470 0.128800 3.315610 
# 
# 
# High freq. dielectric constant tensor:
#      x y z
#    x 1.689600 0.014170 -0.007640 
#    y 0.014170 1.727390 0.005000 
#    z -0.007640 0.005000 1.705430 
# 
# From -- ./inp_files/356912.got.cif
#   From: 2010.06.25/outbox.cif.g09.slc.cpg/sg2_179_cif.got.tgz:356912.got - 2010.06.27 13:26:56.
