data_PCOD8041179
_publ_section_title
;
Structure prediction by ZEFSAII (Michael W. Deem and Ramdas Pophale) SiO2 
 PCOD8041179
Probable space group: P -1
;
_chemical_formula_sum "Si O2"
_cell_formula_units_Z 16
_cell_length_a 16.657885
_cell_length_b 11.857240
_cell_length_c 25.157067
_cell_angle_alpha 146.813104
_cell_angle_beta 158.753033
_cell_angle_gamma 32.598426
_cell_volume 935.501054
_symmetry_space_group_name_H-M "P -1"
_symmetry_group_IT_number 2
_symmetry_cell_setting 'triclinic'
loop_
_space_group_symop_operation_xyz
x,y,z
-x,-y,-z
loop_
_atom_site_type_symbol
_atom_site_label
_atom_site_fract_x
_atom_site_fract_y
_atom_site_fract_z
Si Si1 0.730247 0.744458 0.094847
Si Si2 0.284653 0.427953 0.093584
Si Si3 0.100921 0.158260 0.955280
Si Si4 0.155173 0.346255 0.657322
Si Si5 0.610525 0.165300 0.917969
Si Si6 0.788389 0.525888 0.147613
Si Si7 0.798513 0.240473 0.210417
Si Si8 0.196499 0.796661 0.684360
O O1 0.879809 0.593266 0.174946
O O2 0.755393 0.979505 0.208759
O O3 0.819672 0.643336 0.052756
O O4 0.462222 0.761951 0.942132
O O5 0.558907 0.397731 0.246652
O O6 0.152827 0.681582 0.122456
O O7 0.243639 0.284224 0.059934
O O8 0.063000 0.957221 0.820338
O O9 0.248866 0.071562 0.066387
O O10 0.410813 0.162824 0.750640
O O11 0.060596 0.441515 0.695364
O O12 0.184371 0.534822 0.712367
O O13 0.981007 0.232064 0.480692
O O14 0.483248 0.318295 0.950093
O O15 0.790718 0.276736 0.047204
O O16 0.916074 0.205750 0.327892
#
# Coordination Sequence:
#
# PCOD8041179 Si02
#       8
#     2   2   2   2   2   2   2   2
#     4  11  17  34  52  78 101 128 172 218 245 279
#     4  10  22  31  52  78 103 128 173 212 245 302
#     4  11  17  35  56  73  94 140 176 200 249 300
#     4  10  19  31  53  82 102 128 170 208 250 301
#     4   9  15  31  54  75  91 137 171 203 234 305
#     4   9  15  29  55  73  98 129 170 205 240 296
#     4  11  16  34  57  72 101 136 172 206 243 299
#     4  11  21  31  50  85 104 127 162 220 256 282
#
# _framework density 17.103134000000001
#
# number of rings (size 3 to 8) (size 9 to 14) (size 15 to 20)
#    0.750    1.000    6.250    1.125    0.000    0.500 
#    0.000    1.250    0.000    2.250    0.000    0.000 
#    0.000    0.000    0.000    0.000    0.000    0.000 
#
# Total GULP energy -198291.528181 kJ/mol
# GULP energy per Si atom -12393.220511 kJ/mol
# Density = 1.706421 g / cm^3
# Si number density = 17.103134 Si / 1000 Ang^3
#
#
#
# Elastic Constant Matrix: (Units=GPa)
#
#
# Indices 1 2 3 4 5 6 
#
# 1 75.9046 46.5360 34.0643 -3.8051 -11.9649 16.9021
# 2 46.5360 89.3089 19.5366 -1.6027 -1.6832 9.6665
# 3 34.0643 19.5366 72.7770 -3.8680 -20.6153 -0.7873
# 4 -3.8051 -1.6027 -3.8680 14.5002 6.7766 -3.2792
# 5 -11.9649 -1.6832 -20.6153 6.7766 19.3621 -2.0121
# 6 16.9021 9.6665 -0.7873 -3.2792 -2.0121 33.0808
#
#
#
# Elastic Compliance Matrix: (Units=1/GPa)
#
#
# Indices 1 2 3 4 5 6 
#
# 1 0.026725 -0.010986 -0.007858 -0.001800 0.006742 -0.010400
# 2 -0.010986 0.017108 -0.001493 0.002260 -0.007647 0.000337
# 3 -0.007858 -0.001493 0.024182 -0.005295 0.023229 0.005915
# 4 -0.001800 0.002260 -0.005295 0.085523 -0.035818 0.006432
# 5 0.006742 -0.007647 0.023229 -0.035818 0.092566 0.001422
# 6 -0.010400 0.000337 0.005915 0.006432 0.001422 0.036309
#
#
# Mechanical properties :
#
#
# Convention : Reuss Voigt Hill
#
# Bulk Modulus (GPa) = 36.57489 48.69605 42.63547
# Shear Modulus (GPa) = 15.05118 22.57884 18.81501
#
# Velocity S-wave (km/s) = 2.96974 3.63734 3.32036
# Velocity P-wave (km/s) = 5.76112 6.79515 6.29939
#
# Compressibility (1/GPa) = 0.02734116
#
# Stress axis : x y z
#
# Youngs Moduli (GPa) = 37.41880 58.45217 41.35291
#
# Poissons Ratio (x) = 0.64215 0.32495
# Poissons Ratio (y) = 0.41108 0.06173
# Poissons Ratio (z) = 0.29404 0.08726
#
# Static dielectric constant tensor:
#      x y z
#    x 3.404340 0.258800 -0.230010 
#    y 0.258800 3.119640 -0.006110 
#    z -0.230010 -0.006110 2.909180 
# 
# 
# High freq. dielectric constant tensor:
#      x y z
#    x 1.659750 0.034320 -0.016690 
#    y 0.034320 1.645070 0.008910 
#    z -0.016690 0.008910 1.626770 
# 
# From -- ./inp_files/415710.got.cif
#   From: 2010.06.25/outbox.cif.g09.slc.cpg/sg2_208_cif.got.tgz:415710.got - 2010.06.27 13:26:56.
