data_PCOD8041672
_publ_section_title
;
Structure prediction by ZEFSAII (Michael W. Deem and Ramdas Pophale) SiO2 
 PCOD8041672
Probable space group: P -1
;
_chemical_formula_sum "Si O2"
_cell_formula_units_Z 16
_cell_length_a 10.116551
_cell_length_b 20.099110
_cell_length_c 5.001887
_cell_angle_alpha 61.241050
_cell_angle_beta 117.769307
_cell_angle_gamma 113.241802
_cell_volume 769.633010
_symmetry_space_group_name_H-M "P -1"
_symmetry_group_IT_number 2
_symmetry_cell_setting 'triclinic'
loop_
_space_group_symop_operation_xyz
x,y,z
-x,-y,-z
loop_
_atom_site_type_symbol
_atom_site_label
_atom_site_fract_x
_atom_site_fract_y
_atom_site_fract_z
Si Si1 0.285732 0.469246 0.940240
Si Si2 0.832134 0.920365 0.733290
Si Si3 0.370966 0.680403 0.086176
Si Si4 0.487105 0.914885 0.272923
Si Si5 0.837844 0.482611 0.755268
Si Si6 0.309028 0.843237 0.740695
Si Si7 0.508289 0.630606 0.795385
Si Si8 0.987333 0.099338 0.554929
O O1 0.144408 0.477020 0.598882
O O2 0.407322 0.544959 0.801094
O O3 0.264210 0.475656 0.224516
O O4 0.323089 0.385469 0.065277
O O5 0.650811 0.897644 0.546300
O O6 0.923004 0.881355 0.675077
O O7 0.878788 0.887990 0.121056
O O8 0.883437 0.012998 0.609738
O O9 0.224021 0.610301 0.118766
O O10 0.469005 0.692228 0.428186
O O11 0.311670 0.757125 0.807527
O O12 0.486535 0.662509 0.004675
O O13 0.381029 0.904737 0.457821
O O14 0.406962 0.856841 0.078980
O O15 0.500000 0.000000 0.000000
O O16 0.000000 0.500000 0.000000
O O17 0.131837 0.845625 0.618328
#
# Coordination Sequence:
#
# PCOD8041672 Si02
#       8
#     2   2   2   2   2   2   2   2
#     4   9  17  30  55  84 107 136 186 237 273 318
#     4  10  21  37  59  86 116 145 195 250 295 345
#     4  10  21  36  57  80 116 151 187 231 287 359
#     4  12  24  39  62  93 117 151 203 261 296 345
#     4  10  19  33  56  85 112 149 192 234 277 331
#     4  12  24  39  62  87 120 160 201 244 308 361
#     4   9  17  33  55  82 106 141 184 233 279 326
#     4  10  21  36  60  87 113 154 193 237 300 359
#
# _framework density 20.789128999999999
#
# number of rings (size 3 to 8) (size 9 to 14) (size 15 to 20)
#    0.000    1.750    1.250    3.750    3.500    3.000 
#    0.000    0.000   16.500    0.000    0.000    0.000 
#    0.000    0.000    0.000    0.000    0.000    0.000 
#
# Total GULP energy -198310.099685 kJ/mol
# GULP energy per Si atom -12394.381230 kJ/mol
# Density = 2.074181 g / cm^3
# Si number density = 20.789129 Si / 1000 Ang^3
#
#
#
# Elastic Constant Matrix: (Units=GPa)
#
#
# Indices 1 2 3 4 5 6 
#
# 1 76.6242 21.4126 21.7913 -2.5905 10.0739 -15.9988
# 2 21.4126 50.3666 25.8659 0.4252 12.0070 -13.4882
# 3 21.7913 25.8659 92.7425 13.0076 4.9908 -0.7882
# 4 -2.5905 0.4252 13.0076 36.7826 -7.1347 6.7105
# 5 10.0739 12.0070 4.9908 -7.1347 42.5641 3.2775
# 6 -15.9988 -13.4882 -0.7882 6.7105 3.2775 25.9298
#
#
#
# Elastic Compliance Matrix: (Units=1/GPa)
#
#
# Indices 1 2 3 4 5 6 
#
# 1 0.017093 -0.002082 -0.003108 -0.000240 -0.003898 0.009924
# 2 -0.002082 0.031041 -0.007146 -0.002769 -0.009162 0.016520
# 3 -0.003108 -0.007146 0.014017 -0.004182 0.000732 -0.004219
# 4 -0.000240 -0.002769 -0.004182 0.032153 0.007564 -0.010993
# 5 -0.003898 -0.009162 0.000732 0.007564 0.029168 -0.012793
# 6 0.009924 0.016520 -0.004219 -0.010993 -0.012793 0.057616
#
#
# Mechanical properties :
#
#
# Convention : Reuss Voigt Hill
#
# Bulk Modulus (GPa) = 26.68169 39.76367 33.22268
# Shear Modulus (GPa) = 22.90910 31.09951 27.00431
#
# Velocity S-wave (km/s) = 3.32320 3.87195 3.60802
# Velocity P-wave (km/s) = 5.25235 6.25763 5.77690
#
# Compressibility (1/GPa) = 0.03747889
#
# Stress axis : x y z
#
# Youngs Moduli (GPa) = 58.50452 32.21524 71.34114
#
# Poissons Ratio (x) = 0.06707 0.22172
# Poissons Ratio (y) = 0.12179 0.50983
# Poissons Ratio (z) = 0.18182 0.23022
#
# Static dielectric constant tensor:
#      x y z
#    x 3.204980 0.147430 0.291950 
#    y 0.147430 3.300860 -0.031040 
#    z 0.291950 -0.031040 3.764050 
# 
# 
# High freq. dielectric constant tensor:
#      x y z
#    x 1.811430 -0.025280 -0.000610 
#    y -0.025280 1.780730 0.015700 
#    z -0.000610 0.015700 1.828320 
# 
# From -- ./inp_files/51085.got.cif
#   From: 2010.06.25/outbox.cif.g09.slc.cpg/sg2_26_cif.got.tgz:51085.got - 2010.06.27 13:26:56.
