data_PCOD8041010
_publ_section_title
;
Structure prediction by ZEFSAII (Michael W. Deem and Ramdas Pophale) SiO2 
 PCOD8041010
Probable space group: P -1
;
_chemical_formula_sum "Si O2"
_cell_formula_units_Z 16
_cell_length_a 13.875364
_cell_length_b 11.153145
_cell_length_c 11.862788
_cell_angle_alpha 121.023758
_cell_angle_beta 30.609719
_cell_angle_gamma 103.085042
_cell_volume 694.788027
_symmetry_space_group_name_H-M "P -1"
_symmetry_group_IT_number 2
_symmetry_cell_setting 'triclinic'
loop_
_space_group_symop_operation_xyz
x,y,z
-x,-y,-z
loop_
_atom_site_type_symbol
_atom_site_label
_atom_site_fract_x
_atom_site_fract_y
_atom_site_fract_z
Si Si1 0.276052 0.652227 0.255595
Si Si2 0.398900 0.861316 0.822521
Si Si3 0.917568 0.684348 0.200397
Si Si4 0.254120 0.675560 0.022407
Si Si5 0.518786 0.316607 0.558663
Si Si6 0.837975 0.792355 0.869168
Si Si7 0.415718 0.816928 0.348879
Si Si8 0.791214 0.832304 0.185830
O O1 0.247765 0.663980 0.156975
O O2 0.275138 0.813446 0.382480
O O3 0.064430 0.653996 0.522136
O O4 0.500000 0.500000 0.000000
O O5 0.658389 0.787499 0.534065
O O6 0.336989 0.784535 0.741375
O O7 0.315084 0.812032 0.994695
O O8 0.268542 0.053508 0.032693
O O9 0.974264 0.753404 0.062263
O O10 0.025068 0.713627 0.216338
O O11 0.000000 0.500000 0.000000
O O12 0.435588 0.503048 0.707448
O O13 0.643067 0.267707 0.530115
O O14 0.322624 0.277318 0.754712
O O15 0.672410 0.721222 0.008599
O O16 0.882931 0.837023 0.972417
O O17 0.378607 0.988224 0.512628
#
# Coordination Sequence:
#
# PCOD8041010 Si02
#       8
#     2   2   2   2   2   2   2   2
#     4  12  30  48  64  99 136 188 233 269 334 416
#     4  11  23  42  71 106 132 174 224 277 355 389
#     4  11  23  40  69 106 138 172 215 279 350 397
#     4  12  26  45  63  98 150 177 222 278 327 414
#     4  10  18  41  73  99 135 165 220 293 333 390
#     4  11  24  45  75 100 133 182 227 283 340 389
#     4  11  21  46  75  98 137 169 227 295 331 401
#     4  10  20  41  74 108 129 166 230 288 340 392
#
# _framework density 23.028606
#
# number of rings (size 3 to 8) (size 9 to 14) (size 15 to 20)
#    0.000    1.000    7.500    1.125    1.750    4.500 
#    0.000    1.250    0.000    0.000    0.000    0.000 
#    0.000    0.000    0.000    0.000    0.000    0.000 
#
# Total GULP energy -198267.873017 kJ/mol
# GULP energy per Si atom -12391.742064 kJ/mol
# Density = 2.297619 g / cm^3
# Si number density = 23.028606 Si / 1000 Ang^3
#
#
#
# Elastic Constant Matrix: (Units=GPa)
#
#
# Indices 1 2 3 4 5 6 
#
# 1 148.2422 21.1104 20.9388 -10.9528 3.2987 -25.0787
# 2 21.1104 61.1054 -0.7032 -0.7760 -4.0718 -31.3584
# 3 20.9388 -0.7032 71.3237 -1.6443 -4.5917 -24.6526
# 4 -10.9528 -0.7760 -1.6443 25.5107 -6.8230 3.9328
# 5 3.2987 -4.0718 -4.5917 -6.8230 32.5037 0.9386
# 6 -25.0787 -31.3584 -24.6526 3.9328 0.9386 36.9576
#
#
#
# Elastic Compliance Matrix: (Units=1/GPa)
#
#
# Indices 1 2 3 4 5 6 
#
# 1 0.007831 -0.000853 -0.001027 0.002542 -0.000618 0.003651
# 2 -0.000853 0.039938 0.016250 -0.003511 0.005366 0.044385
# 3 -0.001027 0.016250 0.025055 -0.001748 0.004450 0.029877
# 4 0.002542 -0.003511 -0.001748 0.043431 0.008382 -0.007255
# 5 -0.000618 0.005366 0.004450 0.008382 0.033734 0.005353
# 6 0.003651 0.044385 0.029877 -0.007255 0.005353 0.087762
#
#
# Mechanical properties :
#
#
# Convention : Reuss Voigt Hill
#
# Bulk Modulus (GPa) = 9.84585 40.37372 25.10978
# Shear Modulus (GPa) = 20.58752 34.94942 27.76847
#
# Velocity S-wave (km/s) = 2.99322 3.89993 3.47627
# Velocity P-wave (km/s) = 4.02872 6.15218 5.20000
#
# Compressibility (1/GPa) = 0.10156565
#
# Stress axis : x y z
#
# Youngs Moduli (GPa) = 127.69107 25.03911 39.91161
#
# Poissons Ratio (x) = 0.02135 0.04098
# Poissons Ratio (y) = 0.10887 -0.64856
# Poissons Ratio (z) = 0.13111 -0.40689
#
# Static dielectric constant tensor:
#      x y z
#    x 4.598450 -0.359110 0.009230 
#    y -0.359110 4.158910 0.046630 
#    z 0.009230 0.046630 3.917940 
# 
# 
# High freq. dielectric constant tensor:
#      x y z
#    x 1.916290 -0.014040 -0.003160 
#    y -0.014040 1.907270 0.000380 
#    z -0.003160 0.000380 1.887810 
# 
# From -- ./inp_files/452538.got.cif
#   From: 2010.06.25/outbox.cif.g09.slc.cpg/sg2_227_cif.got.tgz:452538.got - 2010.06.27 13:26:56.
