data_PCOD8041605
_publ_section_title
;
Structure prediction by ZEFSAII (Michael W. Deem and Ramdas Pophale) SiO2 
 PCOD8041605
Probable space group: P -1
;
_chemical_formula_sum "Si O2"
_cell_formula_units_Z 16
_cell_length_a 14.070924
_cell_length_b 7.917121
_cell_length_c 17.419950
_cell_angle_alpha 120.373812
_cell_angle_beta 29.414390
_cell_angle_gamma 104.042424
_cell_volume 727.147360
_symmetry_space_group_name_H-M "P -1"
_symmetry_group_IT_number 2
_symmetry_cell_setting 'triclinic'
loop_
_space_group_symop_operation_xyz
x,y,z
-x,-y,-z
loop_
_atom_site_type_symbol
_atom_site_label
_atom_site_fract_x
_atom_site_fract_y
_atom_site_fract_z
Si Si1 0.797170 0.237906 0.287595
Si Si2 0.736801 0.158812 0.141559
Si Si3 0.009955 0.499416 0.269547
Si Si4 0.420000 0.199958 0.818746
Si Si5 0.289787 0.157741 0.232136
Si Si6 0.827149 0.962735 0.563242
Si Si7 0.885290 0.377082 0.481658
Si Si8 0.504771 0.380450 0.657977
O O1 0.730546 0.269661 0.253240
O O2 0.837128 0.444409 0.332255
O O3 0.593988 0.250690 0.484516
O O4 0.014899 0.006640 0.095908
O O5 0.638473 0.355382 0.193388
O O6 0.594842 0.028236 0.216865
O O7 0.936554 0.759171 0.380465
O O8 0.028458 0.425060 0.327906
O O9 0.242220 0.387132 0.039453
O O10 0.376367 0.283751 0.779321
O O11 0.655404 0.165498 0.678028
O O12 0.325810 0.074828 0.275110
O O13 0.246853 0.412165 0.320847
O O14 0.065707 0.168141 0.355789
O O15 0.500000 0.000000 0.000000
O O16 0.000000 0.000000 0.500000
O O17 0.719729 0.315818 0.541613
#
# Coordination Sequence:
#
# PCOD8041605 Si02
#       8
#     2   2   2   2   2   2   2   2
#     4   9  20  40  64  87 118 154 194 244 294 353
#     4  10  21  41  63  88 120 156 195 239 298 354
#     4   9  20  39  58  81 119 157 190 244 298 345
#     4  11  23  38  60  89 118 155 200 240 290 355
#     4  10  19  33  55  77 103 148 196 239 287 338
#     4  11  23  37  54  82 120 156 194 244 294 343
#     4   9  19  34  52  79 110 145 193 238 287 344
#     4  11  22  36  59  87 118 155 193 241 293 346
#
# _framework density 22.003793000000002
#
# number of rings (size 3 to 8) (size 9 to 14) (size 15 to 20)
#    0.000    2.000    0.000    4.125    0.000    5.000 
#    0.000    5.625    0.000    0.000    0.000    0.000 
#    0.000    0.000    0.000    0.000    0.000    0.000 
#
# Total GULP energy -198320.546924 kJ/mol
# GULP energy per Si atom -12395.034183 kJ/mol
# Density = 2.195371 g / cm^3
# Si number density = 22.003793 Si / 1000 Ang^3
#
#
#
# Elastic Constant Matrix: (Units=GPa)
#
#
# Indices 1 2 3 4 5 6 
#
# 1 92.9426 30.6843 41.4085 8.4256 7.3932 -2.1557
# 2 30.6843 83.7607 40.1105 8.2861 8.1935 -23.5415
# 3 41.4085 40.1105 136.0031 10.3053 22.8906 -6.2432
# 4 8.4256 8.2861 10.3053 16.8880 3.5156 1.9470
# 5 7.3932 8.1935 22.8906 3.5156 35.9602 6.2907
# 6 -2.1557 -23.5415 -6.2432 1.9470 6.2907 36.2835
#
#
#
# Elastic Compliance Matrix: (Units=1/GPa)
#
#
# Indices 1 2 3 4 5 6 
#
# 1 0.013536 -0.003950 -0.002952 -0.002897 0.000669 -0.002227
# 2 -0.003950 0.019302 -0.002844 -0.006532 -0.003364 0.012733
# 3 -0.002952 -0.002844 0.010163 -0.002355 -0.005114 0.000741
# 4 -0.002897 -0.006532 -0.002355 0.066550 -0.001502 -0.008126
# 5 0.000669 -0.003364 -0.005114 -0.001502 0.033366 -0.008727
# 6 -0.002227 0.012733 0.000741 -0.008126 -0.008727 0.037767
#
#
# Mechanical properties :
#
#
# Convention : Reuss Voigt Hill
#
# Bulk Modulus (GPa) = 42.53595 59.67923 51.10759
# Shear Modulus (GPa) = 24.03699 31.19323 27.61511
#
# Velocity S-wave (km/s) = 3.30874 3.76923 3.54646
# Velocity P-wave (km/s) = 5.82839 6.79146 6.32827
#
# Compressibility (1/GPa) = 0.02350953
#
# Stress axis : x y z
#
# Youngs Moduli (GPa) = 73.87595 51.80856 98.39159
#
# Poissons Ratio (x) = 0.20465 0.29042
# Poissons Ratio (y) = 0.29182 0.27985
# Poissons Ratio (z) = 0.21806 0.14736
#
# Static dielectric constant tensor:
#      x y z
#    x 4.167090 -0.285920 0.167330 
#    y -0.285920 3.910730 -0.098800 
#    z 0.167330 -0.098800 4.051750 
# 
# 
# High freq. dielectric constant tensor:
#      x y z
#    x 1.873380 -0.013080 0.006230 
#    y -0.013080 1.840380 0.002420 
#    z 0.006230 0.002420 1.872140 
# 
# From -- ./inp_files/572887.got.cif
#   From: 2010.06.25/outbox.cif.g09.slc.cpg/sg2_287_cif.got.tgz:572887.got - 2010.06.27 13:26:56.
