data_PCOD8041456
_publ_section_title
;
Structure prediction by ZEFSAII (Michael W. Deem and Ramdas Pophale) SiO2 
 PCOD8041456
Probable space group: P -1
;
_chemical_formula_sum "Si O2"
_cell_formula_units_Z 14
_cell_length_a 11.330990
_cell_length_b 8.519496
_cell_length_c 9.190835
_cell_angle_alpha 77.222430
_cell_angle_beta 142.574189
_cell_angle_gamma 113.331017
_cell_volume 488.134825
_symmetry_space_group_name_H-M "P -1"
_symmetry_group_IT_number 2
_symmetry_cell_setting 'triclinic'
loop_
_space_group_symop_operation_xyz
x,y,z
-x,-y,-z
loop_
_atom_site_type_symbol
_atom_site_label
_atom_site_fract_x
_atom_site_fract_y
_atom_site_fract_z
Si Si1 0.259851 0.949428 0.231161
Si Si2 0.838668 0.488424 0.129908
Si Si3 0.739750 0.369307 0.574890
Si Si4 0.941612 0.806368 0.367524
Si Si5 0.479033 0.683038 0.931543
Si Si6 0.680656 0.682013 0.701204
Si Si7 0.975549 0.839290 0.717057
O O1 0.151208 0.770068 0.250760
O O2 0.500000 0.000000 0.500000
O O3 0.198262 0.115836 0.172128
O O4 0.191475 0.890492 0.010485
O O5 0.943224 0.639435 0.319498
O O6 0.680154 0.316913 0.093292
O O7 0.044757 0.457747 0.270458
O O8 0.718321 0.548765 0.876034
O O9 0.603167 0.296243 0.312401
O O10 0.576595 0.380079 0.539768
O O11 0.016595 0.783507 0.607450
O O12 0.711406 0.822720 0.150157
O O13 0.084594 0.987751 0.394867
O O14 0.500000 0.500000 0.000000
O O15 0.775814 0.686944 0.631236
#
# Coordination Sequence:
#
# PCOD8041456 Si02
#       7
#     2   2   2   2   2   2   2
#     4  10  19  32  59  89 121 147 202 244 288 358
#     4  11  20  38  66  86 120 161 204 247 283 358
#     4  11  20  34  62  93 113 152 210 249 287 341
#     4  10  21  37  60  88 125 161 192 243 313 350
#     4  10  20  39  61  86 118 161 208 242 289 359
#     4  11  20  36  61  92 120 155 200 241 302 352
#     4  11  20  36  60  92 126 155 190 253 308 353
#
# _framework density 28.680599000000001
#
# number of rings (size 3 to 8) (size 9 to 14) (size 15 to 20)
#    0.000    1.429    5.714    2.571    0.000    0.000 
#    0.000    3.571    0.000   15.429    0.000    0.000 
#    0.000    0.000    0.000    0.000    0.000    0.000 
#
# Total GULP energy -173453.773137 kJ/mol
# GULP energy per Si atom -12389.555224 kJ/mol
# Density = 2.861532 g / cm^3
# Si number density = 28.680599 Si / 1000 Ang^3
#
#
#
# Elastic Constant Matrix: (Units=GPa)
#
#
# Indices 1 2 3 4 5 6 
#
# 1 155.2511 25.9876 40.3511 -10.6881 13.1132 24.5502
# 2 25.9876 50.1529 13.2929 -12.2661 -10.8845 20.5263
# 3 40.3511 13.2929 143.5880 -8.7898 -28.8061 7.5609
# 4 -10.6881 -12.2661 -8.7898 48.4866 20.0053 7.5476
# 5 13.1132 -10.8845 -28.8061 20.0053 50.5766 -6.0508
# 6 24.5502 20.5263 7.5609 7.5476 -6.0508 40.6537
#
#
#
# Elastic Compliance Matrix: (Units=1/GPa)
#
#
# Indices 1 2 3 4 5 6 
#
# 1 0.009656 -0.001900 -0.003426 0.005178 -0.007670 -0.006338
# 2 -0.001900 0.029752 -0.000634 0.008865 0.001207 -0.015223
# 3 -0.003426 -0.000634 0.009167 -0.002604 0.007272 0.002250
# 4 0.005178 0.008865 -0.002604 0.032363 -0.015567 -0.015444
# 5 -0.007670 0.001207 0.007272 -0.015567 0.033582 0.010558
# 6 -0.006338 -0.015223 0.002250 -0.015444 0.010558 0.040132
#
#
# Mechanical properties :
#
#
# Convention : Reuss Voigt Hill
#
# Bulk Modulus (GPa) = 27.28118 56.47281 41.87699
# Shear Modulus (GPa) = 27.96595 45.90075 36.93335
#
# Velocity S-wave (km/s) = 3.12602 4.00485 3.59241
# Velocity P-wave (km/s) = 4.74995 6.41234 5.64270
#
# Compressibility (1/GPa) = 0.03665531
#
# Stress axis : x y z
#
# Youngs Moduli (GPa) = 103.56216 33.61153 109.09018
#
# Poissons Ratio (x) = 0.06386 0.37371
# Poissons Ratio (y) = 0.19675 0.06918
# Poissons Ratio (z) = 0.35477 0.02131
#
# Static dielectric constant tensor:
#      x y z
#    x 5.927630 0.737340 0.340100 
#    y 0.737340 6.439510 0.105380 
#    z 0.340100 0.105380 5.376410 
# 
# 
# High freq. dielectric constant tensor:
#      x y z
#    x 2.160250 0.019390 0.000660 
#    y 0.019390 2.191430 -0.011070 
#    z 0.000660 -0.011070 2.167150 
# 
# From -- ./inp_files/257774.got.cif
#   From: 2010.06.25/outbox.cif.g09.slc.cpg/sg2_129_cif.got.tgz:257774.got - 2010.06.27 13:26:56.
