data_PCOD8041018
_publ_section_title
;
Structure prediction by ZEFSAII (Michael W. Deem and Ramdas Pophale) SiO2 
 PCOD8041018
Probable space group: P -1
;
_chemical_formula_sum "Si O2"
_cell_formula_units_Z 16
_cell_length_a 10.716241
_cell_length_b 18.953343
_cell_length_c 12.334855
_cell_angle_alpha 26.586288
_cell_angle_beta 52.553235
_cell_angle_gamma 44.442778
_cell_volume 781.378169
_symmetry_space_group_name_H-M "P -1"
_symmetry_group_IT_number 2
_symmetry_cell_setting 'triclinic'
loop_
_space_group_symop_operation_xyz
x,y,z
-x,-y,-z
loop_
_atom_site_type_symbol
_atom_site_label
_atom_site_fract_x
_atom_site_fract_y
_atom_site_fract_z
Si Si1 0.629233 0.228525 0.372071
Si Si2 0.470429 0.836981 0.275178
Si Si3 0.350482 0.623516 0.493589
Si Si4 0.169099 0.488508 0.371745
Si Si5 0.737891 0.703164 0.622528
Si Si6 0.971170 0.889809 0.262840
Si Si7 0.600457 0.565408 0.050043
Si Si8 0.212803 0.823001 0.861419
O O1 0.672859 0.107252 0.625451
O O2 0.468321 0.212209 0.421462
O O3 0.576260 0.431539 0.161028
O O4 0.790077 0.155273 0.299102
O O5 0.392524 0.782674 0.287536
O O6 0.651495 0.665729 0.455704
O O7 0.500000 0.000000 0.000000
O O8 0.500000 0.500000 0.500000
O O9 0.343792 0.513363 0.752212
O O10 0.156312 0.705710 0.428538
O O11 0.147676 0.454739 0.304032
O O12 0.000000 0.500000 0.500000
O O13 0.152462 0.681652 0.127014
O O14 0.808964 0.847668 0.382010
O O15 0.750030 0.615941 0.855315
O O16 0.923832 0.992242 0.262474
O O17 0.000000 0.000000 0.000000
O O18 0.413421 0.749194 0.902461
#
# Coordination Sequence:
#
# PCOD8041018 Si02
#       8
#     2   2   2   2   2   2   2   2
#     4   9  18  38  68  92 119 158 205 260 304 366
#     4  10  23  41  62  94 120 158 210 254 302 361
#     4  11  25  45  61  84 127 174 199 246 319 373
#     4  11  21  36  68  91 119 163 209 250 301 363
#     4  10  20  38  63  91 120 161 205 252 303 367
#     4  12  28  39  58  92 135 160 204 261 304 365
#     4  10  18  42  69  87 119 159 214 251 305 373
#     4  11  19  40  64  95 118 161 206 254 311 355
#
# _framework density 20.47664
#
# number of rings (size 3 to 8) (size 9 to 14) (size 15 to 20)
#    0.000    1.500    5.000    2.250    7.000    2.500 
#    2.250    3.750    0.000    0.000    0.000    0.000 
#    0.000    0.000    0.000    0.000    0.000    0.000 
#
# Total GULP energy -198273.310439 kJ/mol
# GULP energy per Si atom -12392.081902 kJ/mol
# Density = 2.043003 g / cm^3
# Si number density = 20.476640 Si / 1000 Ang^3
#
#
#
# Elastic Constant Matrix: (Units=GPa)
#
#
# Indices 1 2 3 4 5 6 
#
# 1 70.7826 31.4287 39.0584 13.0710 -12.2909 3.6744
# 2 31.4287 127.0475 35.0443 18.7367 0.8614 2.4095
# 3 39.0584 35.0443 109.4850 28.6973 -15.7244 -2.0932
# 4 13.0710 18.7367 28.6973 38.1681 -0.8117 -4.0245
# 5 -12.2909 0.8614 -15.7244 -0.8117 35.4671 7.8749
# 6 3.6744 2.4095 -2.0932 -4.0245 7.8749 24.4660
#
#
#
# Elastic Compliance Matrix: (Units=1/GPa)
#
#
# Indices 1 2 3 4 5 6 
#
# 1 0.019896 -0.003243 -0.004753 -0.002085 0.006007 -0.005352
# 2 -0.003243 0.009479 -0.001524 -0.002475 -0.002011 -0.000337
# 3 -0.004753 -0.001524 0.014124 -0.008227 0.004635 -0.000773
# 4 -0.002085 -0.002475 -0.008227 0.034970 -0.005120 0.007253
# 5 0.006007 -0.002011 0.004635 -0.005120 0.035022 -0.012422
# 6 -0.005352 -0.000337 -0.000773 0.007253 -0.012422 0.046835
#
#
# Mechanical properties :
#
#
# Convention : Reuss Voigt Hill
#
# Bulk Modulus (GPa) = 40.88272 57.59754 49.24013
# Shear Modulus (GPa) = 26.66407 33.07251 29.86829
#
# Velocity S-wave (km/s) = 3.61247 4.02323 3.82337
# Velocity P-wave (km/s) = 6.11628 7.05488 6.60228
#
# Compressibility (1/GPa) = 0.02446021
#
# Stress axis : x y z
#
# Youngs Moduli (GPa) = 50.26084 105.50132 70.79995
#
# Poissons Ratio (x) = 0.34209 0.33653
# Poissons Ratio (y) = 0.16297 0.10787
# Poissons Ratio (z) = 0.23890 0.16075
#
# Static dielectric constant tensor:
#      x y z
#    x 3.555560 0.110370 -0.083610 
#    y 0.110370 3.590250 0.300390 
#    z -0.083610 0.300390 3.739960 
# 
# 
# High freq. dielectric constant tensor:
#      x y z
#    x 1.779570 0.009370 -0.011500 
#    y 0.009370 1.808010 0.032200 
#    z -0.011500 0.032200 1.796950 
# 
# From -- ./inp_files/402655.got.cif
#   From: 2010.06.25/outbox.cif.g09.slc.cpg/sg2_202_cif.got.tgz:402655.got - 2010.06.27 13:26:56.
