data_PCOD8041558
_publ_section_title
;
Structure prediction by ZEFSAII (Michael W. Deem and Ramdas Pophale) SiO2 
 PCOD8041558
Probable space group: P -1
;
_chemical_formula_sum "Si O2"
_cell_formula_units_Z 12
_cell_length_a 16.144454
_cell_length_b 8.468258
_cell_length_c 9.646382
_cell_angle_alpha 109.241297
_cell_angle_beta 123.570517
_cell_angle_gamma 38.300425
_cell_volume 666.980736
_symmetry_space_group_name_H-M "P -1"
_symmetry_group_IT_number 2
_symmetry_cell_setting 'triclinic'
loop_
_space_group_symop_operation_xyz
x,y,z
-x,-y,-z
loop_
_atom_site_type_symbol
_atom_site_label
_atom_site_fract_x
_atom_site_fract_y
_atom_site_fract_z
Si Si1 0.852031 0.089051 0.546122
Si Si2 0.912957 0.945672 0.863740
Si Si3 0.961677 0.554809 0.139685
Si Si4 0.898320 0.360640 0.533206
Si Si5 0.637970 0.480146 0.245531
Si Si6 0.291264 0.881863 0.013598
O O1 0.936894 0.160566 0.620973
O O2 0.688928 0.299567 0.372612
O O3 0.819291 0.097320 0.678948
O O4 0.968733 0.800389 0.507781
O O5 0.041145 0.633972 0.866465
O O6 0.792371 0.046562 0.898307
O O7 0.000000 0.000000 0.000000
O O8 0.098214 0.471651 0.328882
O O9 0.000000 0.500000 0.000000
O O10 0.801598 0.865105 0.095734
O O11 0.731455 0.537019 0.357926
O O12 0.456777 0.751836 0.162102
O O13 0.685360 0.323149 0.103382
#
# Coordination Sequence:
#
# PCOD8041558 Si02
#       6
#     2   2   2   2   2   2
#     4   9  17  32  57  78 103 138 171 216 256 307
#     4  11  22  33  54  79 106 137 180 223 257 301
#     4  10  19  33  54  77 104 138 179 216 255 312
#     4   9  16  34  55  79  99 139 181 204 259 314
#     4   9  18  33  62  75 108 141 169 213 258 324
#     4  10  19  36  55  82 106 141 174 206 269 311
#
# _framework density 17.991524999999999
#
# number of rings (size 3 to 8) (size 9 to 14) (size 15 to 20)
#    1.000    1.333    1.667    3.000    0.000    1.333 
#    0.000    3.333    3.667    3.000    0.000    0.000 
#    0.000    0.000    0.000    0.000    0.000    0.000 
#
# Total GULP energy -148661.334971 kJ/mol
# GULP energy per Si atom -12388.444581 kJ/mol
# Density = 1.795058 g / cm^3
# Si number density = 17.991525 Si / 1000 Ang^3
#
#
#
# Elastic Constant Matrix: (Units=GPa)
#
#
# Indices 1 2 3 4 5 6 
#
# 1 55.1976 44.1485 41.7508 -0.8377 8.9450 -2.6649
# 2 44.1485 75.8369 36.2745 2.6362 16.8636 -2.5883
# 3 41.7508 36.2745 115.7242 1.5062 13.6863 -2.6923
# 4 -0.8377 2.6362 1.5062 30.6987 1.2353 8.0859
# 5 8.9450 16.8636 13.6863 1.2353 42.0749 -1.5655
# 6 -2.6649 -2.5883 -2.6923 8.0859 -1.5655 26.4471
#
#
#
# Elastic Compliance Matrix: (Units=1/GPa)
#
#
# Indices 1 2 3 4 5 6 
#
# 1 0.040212 -0.019880 -0.008557 0.003024 0.002130 0.000437
# 2 -0.019880 0.026410 -0.000320 -0.002824 -0.006133 0.001050
# 3 -0.008557 -0.000320 0.012080 -0.000847 -0.001939 0.000481
# 4 0.003024 -0.002824 -0.000847 0.035886 -0.000701 -0.011071
# 5 0.002130 -0.006133 -0.001939 -0.000701 0.026468 0.001198
# 6 0.000437 0.001050 0.000481 -0.011071 0.001198 0.041463
#
#
# Mechanical properties :
#
#
# Convention : Reuss Voigt Hill
#
# Bulk Modulus (GPa) = 47.19570 54.56735 50.88153
# Shear Modulus (GPa) = 20.23518 28.14980 24.19249
#
# Velocity S-wave (km/s) = 3.35730 3.95981 3.67094
# Velocity P-wave (km/s) = 6.42789 7.16255 6.80514
#
# Compressibility (1/GPa) = 0.02118837
#
# Stress axis : x y z
#
# Youngs Moduli (GPa) = 24.86848 37.86456 82.78004
#
# Poissons Ratio (x) = 0.75275 0.70835
# Poissons Ratio (y) = 0.49438 0.02646
# Poissons Ratio (z) = 0.21280 0.01210
#
# Static dielectric constant tensor:
#      x y z
#    x 3.046570 0.124560 0.010260 
#    y 0.124560 3.529160 -0.010890 
#    z 0.010260 -0.010890 3.484830 
# 
# 
# High freq. dielectric constant tensor:
#      x y z
#    x 1.657870 0.000600 0.001170 
#    y 0.000600 1.677540 0.009630 
#    z 0.001170 0.009630 1.713540 
# 
# From -- ./inp_files/290352.got.cif
#   From: 2010.06.25/outbox.cif.g09.slc.cpg/sg2_146_cif.got.tgz:290352.got - 2010.06.27 13:26:56.
