data_PCOD8041675
_publ_section_title
;
Structure prediction by ZEFSAII (Michael W. Deem and Ramdas Pophale) SiO2 
 PCOD8041675
Probable space group: P -1
;
_chemical_formula_sum "Si O2"
_cell_formula_units_Z 14
_cell_length_a 8.761049
_cell_length_b 12.320997
_cell_length_c 10.923004
_cell_angle_alpha 142.824804
_cell_angle_beta 82.634278
_cell_angle_gamma 118.050822
_cell_volume 557.571814
_symmetry_space_group_name_H-M "P -1"
_symmetry_group_IT_number 2
_symmetry_cell_setting 'triclinic'
loop_
_space_group_symop_operation_xyz
x,y,z
-x,-y,-z
loop_
_atom_site_type_symbol
_atom_site_label
_atom_site_fract_x
_atom_site_fract_y
_atom_site_fract_z
Si Si1 0.564629 0.303917 0.993668
Si Si2 0.824755 0.490842 0.589938
Si Si3 0.239562 0.830521 0.297301
Si Si4 0.322032 0.958038 0.907845
Si Si5 0.040519 0.537533 0.836269
Si Si6 0.718076 0.726662 0.658014
Si Si7 0.570814 0.698647 0.400937
O O1 0.519967 0.482099 0.134675
O O2 0.757780 0.426687 0.171749
O O3 0.602031 0.217371 0.786818
O O4 0.385684 0.088853 0.890158
O O5 0.990523 0.611514 0.785890
O O6 0.861931 0.680203 0.660168
O O7 0.615177 0.355128 0.556789
O O8 0.835036 0.310282 0.350224
O O9 0.136836 0.725123 0.344210
O O10 0.345415 0.098238 0.521938
O O11 0.072840 0.702569 0.093029
O O12 0.230331 0.048662 0.080604
O O13 0.500000 0.000000 0.000000
O O14 0.500000 0.500000 0.500000
O O15 0.737611 0.770707 0.549827
#
# Coordination Sequence:
#
# PCOD8041675 Si02
#       7
#     2   2   2   2   2   2   2
#     4  10  19  37  57  84 105 153 185 217 282 343
#     4  11  20  36  57  87 114 142 184 239 265 323
#     4   9  20  42  59  74 113 156 181 224 286 330
#     4  12  18  34  62  81 112 153 185 218 279 332
#     4   9  22  41  56  79 118 144 186 233 277 324
#     4  10  19  33  56  86 112 142 183 228 272 332
#     4  11  19  35  64  80 108 149 191 222 275 332
#
# _framework density 25.108872000000002
#
# number of rings (size 3 to 8) (size 9 to 14) (size 15 to 20)
#    0.857    0.857    7.143    0.000    0.000    1.143 
#    2.571    4.286    0.000    0.000    0.000    0.000 
#    0.000    0.000    0.000    0.000    0.000    0.000 
#
# Total GULP energy -173535.297383 kJ/mol
# GULP energy per Si atom -12395.378385 kJ/mol
# Density = 2.505172 g / cm^3
# Si number density = 25.108872 Si / 1000 Ang^3
#
#
#
# Elastic Constant Matrix: (Units=GPa)
#
#
# Indices 1 2 3 4 5 6 
#
# 1 48.3677 19.8396 20.6028 5.4929 -14.6272 -19.9880
# 2 19.8396 83.2328 25.8058 19.1645 -9.2862 -0.5188
# 3 20.6028 25.8058 106.7017 32.2117 -27.3416 -20.5236
# 4 5.4929 19.1645 32.2117 39.5135 -12.5817 2.9890
# 5 -14.6272 -9.2862 -27.3416 -12.5817 40.6986 3.9028
# 6 -19.9880 -0.5188 -20.5236 2.9890 3.9028 35.4297
#
#
#
# Elastic Compliance Matrix: (Units=1/GPa)
#
#
# Indices 1 2 3 4 5 6 
#
# 1 0.033673 -0.007125 0.001522 -0.000889 0.009420 0.018812
# 2 -0.007125 0.015284 -0.002104 -0.004871 -0.001568 -0.004431
# 3 0.001522 -0.002104 0.016941 -0.011659 0.006801 0.010876
# 4 -0.000889 -0.004871 -0.011659 0.039405 0.003982 -0.011090
# 5 0.009420 -0.001568 0.006801 0.003982 0.032893 0.005272
# 6 0.018812 -0.004431 0.010876 -0.011090 0.005272 0.045428
#
#
# Mechanical properties :
#
#
# Convention : Reuss Voigt Hill
#
# Bulk Modulus (GPa) = 19.80845 41.19983 30.50414
# Shear Modulus (GPa) = 23.16240 34.59863 28.88052
#
# Velocity S-wave (km/s) = 3.04053 3.71609 3.39516
# Velocity P-wave (km/s) = 4.49806 5.90395 5.24829
#
# Compressibility (1/GPa) = 0.05048350
#
# Stress axis : x y z
#
# Youngs Moduli (GPa) = 29.69742 65.42641 59.02779
#
# Poissons Ratio (x) = 0.46618 -0.08984
# Poissons Ratio (y) = 0.21160 0.12421
# Poissons Ratio (z) = -0.04520 0.13768
#
# Static dielectric constant tensor:
#      x y z
#    x 4.433340 -0.187340 -0.108010 
#    y -0.187340 4.610060 0.156550 
#    z -0.108010 0.156550 4.330820 
# 
# 
# High freq. dielectric constant tensor:
#      x y z
#    x 1.982550 -0.001230 -0.002150 
#    y -0.001230 2.000930 0.009310 
#    z -0.002150 0.009310 1.991230 
# 
# From -- ./inp_files/424531.got.cif
#   From: 2010.06.25/outbox.cif.g09.slc.cpg/sg2_213_cif.got.tgz:424531.got - 2010.06.27 13:26:56.
