data_PCOD8041504
_publ_section_title
;
Structure prediction by ZEFSAII (Michael W. Deem and Ramdas Pophale) SiO2 
 PCOD8041504
Probable space group: P -1
;
_chemical_formula_sum "Si O2"
_cell_formula_units_Z 16
_cell_length_a 14.065684
_cell_length_b 21.709027
_cell_length_c 23.964634
_cell_angle_alpha 11.183860
_cell_angle_beta 143.489020
_cell_angle_gamma 142.778207
_cell_volume 842.520153
_symmetry_space_group_name_H-M "P -1"
_symmetry_group_IT_number 2
_symmetry_cell_setting 'triclinic'
loop_
_space_group_symop_operation_xyz
x,y,z
-x,-y,-z
loop_
_atom_site_type_symbol
_atom_site_label
_atom_site_fract_x
_atom_site_fract_y
_atom_site_fract_z
Si Si1 0.095197 0.386525 0.269664
Si Si2 0.054721 0.584650 0.717076
Si Si3 0.200602 0.298192 0.134706
Si Si4 0.454024 0.482939 0.172676
Si Si5 0.166290 0.680306 0.934457
Si Si6 0.664873 0.074338 0.706189
Si Si7 0.995613 0.816618 0.056502
Si Si8 0.117629 0.484164 0.517892
O O1 0.101373 0.447609 0.285763
O O2 0.154448 0.043648 0.588336
O O3 0.195771 0.635949 0.055027
O O4 0.906606 0.437003 0.121088
O O5 0.001249 0.455657 0.746444
O O6 0.123663 0.947107 0.423180
O O7 0.192125 0.372288 0.998065
O O8 0.379810 0.352678 0.194495
O O9 0.563948 0.212487 0.486076
O O10 0.313918 0.529138 0.109136
O O11 0.560398 0.806883 0.927539
O O12 0.000000 0.500000 0.000000
O O13 0.712284 0.352224 0.527066
O O14 0.817763 0.929064 0.879452
O O15 0.052052 0.679995 0.262330
O O16 0.120655 0.110841 0.835498
O O17 0.000000 0.500000 0.500000
#
# Coordination Sequence:
#
# PCOD8041504 Si02
#       8
#     2   2   2   2   2   2   2   2
#     4  10  19  33  52  76 112 134 191 240 253 301
#     4  10  19  36  55  84 109 141 195 236 256 326
#     4  10  20  35  51  76 122 144 183 234 257 311
#     4  12  23  35  54  81 119 157 177 222 284 326
#     4  12  20  32  55  78 105 154 192 225 272 317
#     4  11  23  38  53  86 118 140 182 227 281 346
#     4  11  21  38  65  83 108 148 182 230 287 327
#     4  10  20  38  62  85 107 138 183 241 284 328
#
# _framework density 18.990642000000001
#
# number of rings (size 3 to 8) (size 9 to 14) (size 15 to 20)
#    0.750    0.500    2.500    6.375    1.750    0.000 
#    0.000    3.750    0.000    0.000    0.000   17.500 
#    0.000    0.000    0.000    0.000    0.000    0.000 
#
# Total GULP energy -198226.676254 kJ/mol
# GULP energy per Si atom -12389.167266 kJ/mol
# Density = 1.894742 g / cm^3
# Si number density = 18.990642 Si / 1000 Ang^3
#
#
#
# Elastic Constant Matrix: (Units=GPa)
#
#
# Indices 1 2 3 4 5 6 
#
# 1 51.2482 0.6418 10.6535 -6.0611 -3.2765 -5.1501
# 2 0.6418 72.1039 27.3004 -20.0258 -15.7636 -19.9012
# 3 10.6535 27.3004 108.3279 -5.2336 -28.4596 -10.3160
# 4 -6.0611 -20.0258 -5.2336 35.6275 -0.7751 -9.5204
# 5 -3.2765 -15.7636 -28.4596 -0.7751 36.6475 -1.8163
# 6 -5.1501 -19.9012 -10.3160 -9.5204 -1.8163 22.2554
#
#
#
# Elastic Compliance Matrix: (Units=1/GPa)
#
#
# Indices 1 2 3 4 5 6 
#
# 1 0.026591 0.019394 0.000697 0.025386 0.013572 0.035787
# 2 0.019394 0.068709 0.004810 0.070736 0.041566 0.101810
# 3 0.000697 0.004810 0.013471 0.009319 0.013573 0.015801
# 4 0.025386 0.070736 0.009319 0.107541 0.048323 0.123396
# 5 0.013572 0.041566 0.013573 0.048323 0.061525 0.072294
# 6 0.035787 0.101810 0.015801 0.123396 0.072294 0.210265
#
#
# Mechanical properties :
#
#
# Convention : Reuss Voigt Hill
#
# Bulk Modulus (GPa) = 6.30621 34.31905 20.31263
# Shear Modulus (GPa) = 10.18002 31.77836 20.97919
#
# Velocity S-wave (km/s) = 2.31780 4.09512 3.32733
# Velocity P-wave (km/s) = 3.23895 6.36167 5.04785
#
# Compressibility (1/GPa) = 0.15857377
#
# Stress axis : x y z
#
# Youngs Moduli (GPa) = 37.60605 14.55420 74.23206
#
# Poissons Ratio (x) = -0.28227 -0.05175
# Poissons Ratio (y) = -0.72935 -0.35704
# Poissons Ratio (z) = -0.02621 -0.07000
#
# Static dielectric constant tensor:
#      x y z
#    x 3.543080 0.007190 -0.313460 
#    y 0.007190 3.730260 -0.168260 
#    z -0.313460 -0.168260 3.804070 
# 
# 
# High freq. dielectric constant tensor:
#      x y z
#    x 1.726350 -0.016900 -0.025600 
#    y -0.016900 1.708470 0.002910 
#    z -0.025600 0.002910 1.756300 
# 
# From -- ./inp_files/619918.got.cif
#   From: 2010.06.25/outbox.cif.g09.slc.cpg/sg2_310_cif.got.tgz:619918.got - 2010.06.27 13:26:56.
