data_PCOD8041913
_publ_section_title
;
Structure prediction by ZEFSAII (Michael W. Deem and Ramdas Pophale) SiO2 
 PCOD8041913
Probable space group: P -1
;
_chemical_formula_sum "Si O2"
_cell_formula_units_Z 16
_cell_length_a 11.169454
_cell_length_b 10.905182
_cell_length_c 12.073510
_cell_angle_alpha 65.448108
_cell_angle_beta 42.075081
_cell_angle_gamma 56.208737
_cell_volume 818.978854
_symmetry_space_group_name_H-M "P -1"
_symmetry_group_IT_number 2
_symmetry_cell_setting 'triclinic'
loop_
_space_group_symop_operation_xyz
x,y,z
-x,-y,-z
loop_
_atom_site_type_symbol
_atom_site_label
_atom_site_fract_x
_atom_site_fract_y
_atom_site_fract_z
Si Si1 0.736795 0.371066 0.485560
Si Si2 0.284150 0.247357 0.979573
Si Si3 0.329634 0.914047 0.345518
Si Si4 0.799799 0.961176 0.246584
Si Si5 0.154297 0.234772 0.311488
Si Si6 0.305528 0.530457 0.769484
Si Si7 0.994063 0.173528 0.061501
Si Si8 0.387274 0.109496 0.398126
O O1 0.748119 0.207346 0.521010
O O2 0.540147 0.474456 0.646331
O O3 0.749121 0.438786 0.333288
O O4 0.929222 0.353171 0.430348
O O5 0.508159 0.142360 0.841071
O O6 0.229802 0.406970 0.902708
O O7 0.258740 0.266976 0.121286
O O8 0.140782 0.177250 0.055242
O O9 0.160323 0.068193 0.360960
O O10 0.423203 0.950031 0.379169
O O11 0.938789 0.034514 0.174294
O O12 0.602242 0.096741 0.287392
O O13 0.749119 0.865616 0.409813
O O14 0.907612 0.845731 0.119187
O O15 0.276343 0.240918 0.335997
O O16 0.200268 0.674989 0.861687
#
# Coordination Sequence:
#
# PCOD8041913 Si02
#       8
#     2   2   2   2   2   2   2   2
#     4  10  19  34  53  85 114 147 180 223 288 339
#     4  11  20  35  55  91 116 143 178 227 297 339
#     4   9  19  32  54  83 118 138 176 232 287 328
#     4  10  21  37  58  80 114 145 198 228 267 327
#     4  10  20  32  58  84 119 142 180 232 291 334
#     4  10  22  35  54  84 119 148 181 228 281 337
#     4  11  20  35  57  83 107 150 187 234 271 323
#     4   9  20  36  53  84 108 149 178 237 277 317
#
# _framework density 19.536522000000001
#
# number of rings (size 3 to 8) (size 9 to 14) (size 15 to 20)
#    0.750    1.250    2.500    1.875    0.000    0.000 
#    0.000    3.750    0.000    4.500    0.000    0.000 
#    0.000    0.000    0.000    0.000    0.000    0.000 
#
# Total GULP energy -198306.973970 kJ/mol
# GULP energy per Si atom -12394.185873 kJ/mol
# Density = 1.949206 g / cm^3
# Si number density = 19.536522 Si / 1000 Ang^3
#
#
#
# Elastic Constant Matrix: (Units=GPa)
#
#
# Indices 1 2 3 4 5 6 
#
# 1 91.4232 14.2278 46.1815 -0.8402 4.7561 -21.7545
# 2 14.2278 55.3448 29.1652 5.3660 3.1486 -18.1821
# 3 46.1815 29.1652 101.8895 3.0640 15.2804 -11.1876
# 4 -0.8402 5.3660 3.0640 35.2785 -4.2446 -0.8148
# 5 4.7561 3.1486 15.2804 -4.2446 17.3103 0.3977
# 6 -21.7545 -18.1821 -11.1876 -0.8148 0.3977 29.9037
#
#
#
# Elastic Compliance Matrix: (Units=1/GPa)
#
#
# Indices 1 2 3 4 5 6 
#
# 1 0.016925 0.003226 -0.007585 0.001009 0.001443 0.011445
# 2 0.003226 0.026490 -0.007156 -0.003027 -0.000491 0.015700
# 3 -0.007585 -0.007156 0.016751 -0.002050 -0.011824 -0.003501
# 4 0.001009 -0.003027 -0.002050 0.030124 0.009497 -0.001179
# 5 0.001443 -0.000491 -0.011824 0.009497 0.070328 -0.004349
# 6 0.011445 0.015700 -0.003501 -0.001179 -0.004349 0.050028
#
#
# Mechanical properties :
#
#
# Convention : Reuss Voigt Hill
#
# Bulk Modulus (GPa) = 26.92817 47.53407 37.23112
# Shear Modulus (GPa) = 20.32072 27.10404 23.71238
#
# Velocity S-wave (km/s) = 3.22862 3.72876 3.48767
# Velocity P-wave (km/s) = 5.26423 6.55148 5.94281
#
# Compressibility (1/GPa) = 0.03713584
#
# Stress axis : x y z
#
# Youngs Moduli (GPa) = 59.08414 37.75076 59.69706
#
# Poissons Ratio (x) = -0.12178 0.45279
# Poissons Ratio (y) = -0.19060 0.42720
# Poissons Ratio (z) = 0.44814 0.27015
#
# Static dielectric constant tensor:
#      x y z
#    x 3.357080 -0.156910 -0.098480 
#    y -0.156910 3.375550 0.128290 
#    z -0.098480 0.128290 3.668880 
# 
# 
# High freq. dielectric constant tensor:
#      x y z
#    x 1.738490 -0.015870 -0.008580 
#    y -0.015870 1.733450 0.005670 
#    z -0.008580 0.005670 1.777300 
# 
# From -- ./inp_files/423401.got.cif
#   From: 2010.06.25/outbox.cif.g09.slc.cpg/sg2_212_cif.got.tgz:423401.got - 2010.06.27 13:26:56.
