data_PCOD8041193
_publ_section_title
;
Structure prediction by ZEFSAII (Michael W. Deem and Ramdas Pophale) SiO2 
 PCOD8041193
Probable space group: P -1
;
_chemical_formula_sum "Si O2"
_cell_formula_units_Z 16
_cell_length_a 9.509597
_cell_length_b 24.568629
_cell_length_c 18.678400
_cell_angle_alpha 151.608774
_cell_angle_beta 27.800696
_cell_angle_gamma 151.873192
_cell_volume 855.400428
_symmetry_space_group_name_H-M "P -1"
_symmetry_group_IT_number 2
_symmetry_cell_setting 'triclinic'
loop_
_space_group_symop_operation_xyz
x,y,z
-x,-y,-z
loop_
_atom_site_type_symbol
_atom_site_label
_atom_site_fract_x
_atom_site_fract_y
_atom_site_fract_z
Si Si1 0.179857 0.966385 0.944309
Si Si2 0.786128 0.071234 0.699387
Si Si3 0.471744 0.811292 0.848408
Si Si4 0.115219 0.191767 0.982375
Si Si5 0.477181 0.953951 0.363743
Si Si6 0.919902 0.673027 0.050431
Si Si7 0.053033 0.796147 0.490656
Si Si8 0.648395 0.390440 0.880588
O O1 0.958866 0.824645 0.916700
O O2 0.535628 0.983056 0.772914
O O3 0.243257 0.062632 0.094021
O O4 0.000000 0.000000 0.000000
O O5 0.577311 0.077926 0.732466
O O6 0.000000 0.000000 0.500000
O O7 0.011671 0.215773 0.793885
O O8 0.673814 0.754237 0.643174
O O9 0.237784 0.848624 0.946617
O O10 0.237829 0.708707 0.894977
O O11 0.268436 0.097493 0.778572
O O12 0.403398 0.336479 0.998768
O O13 0.120857 0.877107 0.479038
O O14 0.650899 0.108371 0.477078
O O15 0.861408 0.544880 0.971520
O O16 0.582081 0.648530 0.131779
O O17 0.084578 0.666012 0.313234
#
# Coordination Sequence:
#
# PCOD8041193 Si02
#       8
#     2   2   2   2   2   2   2   2
#     4  11  20  33  53  79 115 139 174 225 281 325
#     4  11  22  34  54  83 110 140 175 228 278 321
#     4  10  20  32  56  83 105 142 183 227 265 317
#     4  10  19  34  53  78 108 146 181 214 269 324
#     4  10  20  33  50  81 113 143 175 221 277 319
#     4   9  20  37  57  78 109 143 186 215 273 325
#     4  10  19  31  54  80 110 135 183 226 263 312
#     4   9  19  37  56  79 105 150 181 221 262 328
#
# _framework density 18.704691
#
# number of rings (size 3 to 8) (size 9 to 14) (size 15 to 20)
#    0.000    2.000    2.500    1.125    1.750    2.500 
#    0.000    2.500    0.000    0.750    0.000    0.000 
#    0.000    0.000    0.000    0.000    0.000    0.000 
#
# Total GULP energy -198303.533253 kJ/mol
# GULP energy per Si atom -12393.970828 kJ/mol
# Density = 1.866212 g / cm^3
# Si number density = 18.704691 Si / 1000 Ang^3
#
#
#
# Elastic Constant Matrix: (Units=GPa)
#
#
# Indices 1 2 3 4 5 6 
#
# 1 93.7181 44.0263 32.6655 1.0815 3.4375 -14.4933
# 2 44.0263 112.2848 57.6156 1.0865 4.6101 -24.9304
# 3 32.6655 57.6156 116.3508 -6.4502 -0.2914 -9.2225
# 4 1.0815 1.0865 -6.4502 26.8427 -2.3961 2.0526
# 5 3.4375 4.6101 -0.2914 -2.3961 29.2412 -4.1156
# 6 -14.4933 -24.9304 -9.2225 2.0526 -4.1156 27.2387
#
#
#
# Elastic Compliance Matrix: (Units=1/GPa)
#
#
# Indices 1 2 3 4 5 6 
#
# 1 0.013545 -0.003612 -0.001820 -0.001147 -0.000675 0.003269
# 2 -0.003612 0.015926 -0.006190 -0.002879 -0.000886 0.010641
# 3 -0.001820 -0.006190 0.012166 0.003556 0.001237 -0.002596
# 4 -0.001147 -0.002879 0.003556 0.038899 0.003179 -0.004493
# 5 -0.000675 -0.000886 0.001237 0.003179 0.035301 0.004343
# 6 0.003269 0.010641 -0.002596 -0.004493 0.004343 0.048307
#
#
# Mechanical properties :
#
#
# Convention : Reuss Voigt Hill
#
# Bulk Modulus (GPa) = 54.37584 65.66317 60.01950
# Shear Modulus (GPa) = 25.83716 29.20094 27.51905
#
# Velocity S-wave (km/s) = 3.72064 3.95543 3.83983
# Velocity P-wave (km/s) = 6.89865 7.48612 7.19838
#
# Compressibility (1/GPa) = 0.01839052
#
# Stress axis : x y z
#
# Youngs Moduli (GPa) = 73.82638 62.79198 82.19918
#
# Poissons Ratio (x) = 0.22683 0.14962
# Poissons Ratio (y) = 0.26669 0.50884
# Poissons Ratio (z) = 0.13438 0.38871
#
# Static dielectric constant tensor:
#      x y z
#    x 3.495590 -0.283300 0.069980 
#    y -0.283300 3.601050 -0.300790 
#    z 0.069980 -0.300790 3.344470 
# 
# 
# High freq. dielectric constant tensor:
#      x y z
#    x 1.717410 -0.018410 -0.003220 
#    y -0.018410 1.718740 -0.028930 
#    z -0.003220 -0.028930 1.717070 
# 
# From -- ./inp_files/216482.got.cif
#   From: 2010.06.25/outbox.cif.g09.slc.cpg/sg2_109_cif.got.tgz:216482.got - 2010.06.27 13:26:56.
