data_PCOD8041799
_publ_section_title
;
Structure prediction by ZEFSAII (Michael W. Deem and Ramdas Pophale) SiO2 
 PCOD8041799
Probable space group: P -1
;
_chemical_formula_sum "Si O2"
_cell_formula_units_Z 16
_cell_length_a 15.522160
_cell_length_b 22.337311
_cell_length_c 11.927038
_cell_angle_alpha 31.095199
_cell_angle_beta 153.929652
_cell_angle_gamma 154.867755
_cell_volume 751.010058
_symmetry_space_group_name_H-M "P -1"
_symmetry_group_IT_number 2
_symmetry_cell_setting 'triclinic'
loop_
_space_group_symop_operation_xyz
x,y,z
-x,-y,-z
loop_
_atom_site_type_symbol
_atom_site_label
_atom_site_fract_x
_atom_site_fract_y
_atom_site_fract_z
Si Si1 0.955239 0.621325 0.544258
Si Si2 0.425113 0.811600 0.140682
Si Si3 0.929345 0.116406 0.622403
Si Si4 0.695273 0.926231 0.864237
Si Si5 0.477340 0.583339 0.496926
Si Si6 0.128339 0.435555 0.113227
Si Si7 0.534635 0.090156 0.732146
Si Si8 0.761662 0.185250 0.622065
O O1 0.062703 0.742939 0.573687
O O2 0.984950 0.686365 0.348078
O O3 0.664099 0.506151 0.411237
O O4 0.090018 0.545833 0.833241
O O5 0.551029 0.743811 0.341424
O O6 0.451449 0.815400 0.300532
O O7 0.134402 0.716796 0.923312
O O8 0.579021 0.975261 0.012116
O O9 0.877847 0.045636 0.796590
O O10 0.733160 0.002869 0.486182
O O11 0.194123 0.156907 0.828023
O O12 0.428989 0.810526 0.686041
O O13 0.687521 0.022147 0.797743
O O14 0.279949 0.503423 0.294994
O O15 0.720739 0.594594 0.745722
O O16 0.738367 0.206614 0.692504
#
# Coordination Sequence:
#
# PCOD8041799 Si02
#       8
#     2   2   2   2   2   2   2   2
#     4  10  19  33  59  85 119 140 183 239 279 326
#     4  10  21  41  58  79 117 148 191 236 273 337
#     4   9  16  30  51  85 113 144 180 220 279 332
#     4   8  16  28  48  79 120 144 177 222 268 337
#     4  10  21  38  60  83 109 147 195 237 279 321
#     4  10  21  38  60  84 106 150 192 238 278 324
#     4  10  20  37  58  80 115 157 180 228 289 335
#     4   9  18  33  52  86 117 151 180 226 288 335
#
# _framework density 21.304641
#
# number of rings (size 3 to 8) (size 9 to 14) (size 15 to 20)
#    0.000    2.500    0.000    3.750    1.750    0.000 
#    6.750    3.750    0.000    1.500    0.000    0.000 
#    0.000    0.000    0.000    0.000    0.000    0.000 
#
# Total GULP energy -198247.747539 kJ/mol
# GULP energy per Si atom -12390.484221 kJ/mol
# Density = 2.125615 g / cm^3
# Si number density = 21.304641 Si / 1000 Ang^3
#
#
#
# Elastic Constant Matrix: (Units=GPa)
#
#
# Indices 1 2 3 4 5 6 
#
# 1 105.9840 17.6353 48.8471 -6.0495 7.7903 -4.2616
# 2 17.6353 41.9979 18.5493 -11.2995 8.9562 -5.5490
# 3 48.8471 18.5493 78.0935 -9.6772 27.6265 -4.2644
# 4 -6.0495 -11.2995 -9.6772 20.3474 -0.9466 -5.7348
# 5 7.7903 8.9562 27.6265 -0.9466 39.0986 -4.4608
# 6 -4.2616 -5.5490 -4.2644 -5.7348 -4.4608 33.2019
#
#
#
# Elastic Compliance Matrix: (Units=1/GPa)
#
#
# Indices 1 2 3 4 5 6 
#
# 1 0.014138 -0.003015 -0.010127 -0.001956 0.005021 0.000347
# 2 -0.003015 0.032662 -0.001618 0.018362 -0.004444 0.007438
# 3 -0.010127 -0.001618 0.026171 0.008104 -0.015785 0.001070
# 4 -0.001956 0.018362 0.008104 0.066406 -0.006282 0.014485
# 5 0.005021 -0.004444 -0.015785 -0.006282 0.036793 0.001732
# 6 0.000347 0.007438 0.001070 0.014485 0.001732 0.034279
#
#
# Mechanical properties :
#
#
# Convention : Reuss Voigt Hill
#
# Bulk Modulus (GPa) = 23.01482 44.01542 33.51512
# Shear Modulus (GPa) = 19.65007 27.93248 23.79128
#
# Velocity S-wave (km/s) = 3.04030 3.62484 3.34536
# Velocity P-wave (km/s) = 4.81152 6.18257 5.53962
#
# Compressibility (1/GPa) = 0.04345027
#
# Stress axis : x y z
#
# Youngs Moduli (GPa) = 70.73357 30.61618 38.21084
#
# Poissons Ratio (x) = 0.09231 0.38695
# Poissons Ratio (y) = 0.21327 0.06184
# Poissons Ratio (z) = 0.71629 0.04955
#
# Static dielectric constant tensor:
#      x y z
#    x 4.138220 0.080940 0.281440 
#    y 0.080940 3.601560 -0.242310 
#    z 0.281440 -0.242310 3.908290 
# 
# 
# High freq. dielectric constant tensor:
#      x y z
#    x 1.841670 0.010470 0.011740 
#    y 0.010470 1.804850 -0.021910 
#    z 0.011740 -0.021910 1.817720 
# 
# From -- ./inp_files/457460.got.cif
#   From: 2010.06.25/outbox.cif.g09.slc.cpg/sg2_229_cif.got.tgz:457460.got - 2010.06.27 13:26:56.
