data_PCOD8041421
_publ_section_title
;
Structure prediction by ZEFSAII (Michael W. Deem and Ramdas Pophale) SiO2 
 PCOD8041421
Probable space group: P -1
;
_chemical_formula_sum "Si O2"
_cell_formula_units_Z 16
_cell_length_a 8.832856
_cell_length_b 13.680660
_cell_length_c 9.652223
_cell_angle_alpha 67.657064
_cell_angle_beta 65.688993
_cell_angle_gamma 110.071117
_cell_volume 791.758278
_symmetry_space_group_name_H-M "P -1"
_symmetry_group_IT_number 2
_symmetry_cell_setting 'triclinic'
loop_
_space_group_symop_operation_xyz
x,y,z
-x,-y,-z
loop_
_atom_site_type_symbol
_atom_site_label
_atom_site_fract_x
_atom_site_fract_y
_atom_site_fract_z
Si Si1 0.080962 0.532364 0.297631
Si Si2 0.398691 0.273866 0.375095
Si Si3 0.368792 0.965614 0.343777
Si Si4 0.056222 0.281953 0.398909
Si Si5 0.475102 0.230089 0.060730
Si Si6 0.866300 0.758353 0.910314
Si Si7 0.844992 0.511488 0.147160
Si Si8 0.721130 0.991315 0.337229
O O1 0.100988 0.422144 0.287682
O O2 0.000000 0.500000 0.500000
O O3 0.921029 0.536660 0.262378
O O4 0.295224 0.674787 0.134519
O O5 0.226469 0.301581 0.432124
O O6 0.463303 0.272501 0.195507
O O7 0.612438 0.382344 0.309348
O O8 0.294041 0.139624 0.570597
O O9 0.325475 0.974810 0.515078
O O10 0.183508 0.830824 0.410738
O O11 0.407048 0.082316 0.171258
O O12 0.574118 0.971652 0.275991
O O13 0.085027 0.227132 0.278003
O O14 0.335738 0.244474 0.997880
O O15 0.048828 0.885172 0.857127
O O16 0.835004 0.628740 0.044158
O O17 0.000000 0.500000 0.000000
#
# Coordination Sequence:
#
# PCOD8041421 Si02
#       8
#     2   2   2   2   2   2   2   2
#     4  12  25  39  55  79 114 151 187 228 277 330
#     4  10  19  32  57  85 113 142 181 233 276 327
#     4   9  17  29  54  80 116 144 178 225 273 335
#     4  10  19  35  54  83 114 146 182 226 281 324
#     4  10  19  35  54  83 114 146 182 226 281 324
#     4  10  19  32  57  85 113 142 181 233 276 327
#     4  12  21  35  57  83 106 144 193 230 272 319
#     4   9  17  27  49  88 117 139 174 227 286 320
#
# _framework density 20.208186999999999
#
# number of rings (size 3 to 8) (size 9 to 14) (size 15 to 20)
#    0.000    1.750    2.500    3.000    3.500    5.000 
#    0.000    3.125    0.000    0.000    0.000    5.250 
#    0.000    0.000    0.000    0.000    0.000    0.000 
#
# Total GULP energy -198335.535205 kJ/mol
# GULP energy per Si atom -12395.970950 kJ/mol
# Density = 2.016219 g / cm^3
# Si number density = 20.208187 Si / 1000 Ang^3
#
#
#
# Elastic Constant Matrix: (Units=GPa)
#
#
# Indices 1 2 3 4 5 6 
#
# 1 125.0356 19.2059 4.7138 -0.3162 12.1445 13.7252
# 2 19.2059 31.5140 19.0271 -17.5724 -6.5525 11.1084
# 3 4.7138 19.0271 39.3865 -4.3789 5.6087 0.7026
# 4 -0.3162 -17.5724 -4.3789 27.9830 4.1420 4.0641
# 5 12.1445 -6.5525 5.6087 4.1420 30.0773 -16.9607
# 6 13.7252 11.1084 0.7026 4.0641 -16.9607 27.3205
#
#
#
# Elastic Compliance Matrix: (Units=1/GPa)
#
#
# Indices 1 2 3 4 5 6 
#
# 1 0.011960 -0.013326 0.006558 -0.004077 -0.013047 -0.008252
# 2 -0.013326 0.159196 -0.062126 0.101461 -0.004094 -0.074071
# 3 0.006558 -0.062126 0.052353 -0.031759 -0.011201 0.018390
# 4 -0.004077 0.101461 -0.031759 0.108192 -0.024542 -0.069719
# 5 -0.013047 -0.004094 -0.011201 -0.024542 0.076852 0.059868
# 6 -0.008252 -0.074071 0.018390 -0.069719 0.059868 0.117930
#
#
# Mechanical properties :
#
#
# Convention : Reuss Voigt Hill
#
# Bulk Modulus (GPa) = 11.66572 31.31440 21.49006
# Shear Modulus (GPa) = 7.21663 27.27545 17.24604
#
# Velocity S-wave (km/s) = 1.89180 3.67784 2.92450
# Velocity P-wave (km/s) = 3.24918 5.79352 4.69692
#
# Compressibility (1/GPa) = 0.08572127
#
# Stress axis : x y z
#
# Youngs Moduli (GPa) = 83.61088 6.28157 19.10120
#
# Poissons Ratio (x) = 0.08371 -0.12527
# Poissons Ratio (y) = 1.11418 1.18668
# Poissons Ratio (z) = -0.54832 0.39025
#
# Static dielectric constant tensor:
#      x y z
#    x 4.097860 0.242570 0.052360 
#    y 0.242570 3.408230 -0.387530 
#    z 0.052360 -0.387530 3.406100 
# 
# 
# High freq. dielectric constant tensor:
#      x y z
#    x 1.812290 0.017130 0.010280 
#    y 0.017130 1.755070 -0.047320 
#    z 0.010280 -0.047320 1.764400 
# 
# From -- ./inp_files/205915.got.cif
#   From: 2010.06.25/outbox.cif.g09.slc.cpg/sg2_103_cif.got.tgz:205915.got - 2010.06.27 13:26:56.
