data_PCOD8041902
_publ_section_title
;
Structure prediction by ZEFSAII (Michael W. Deem and Ramdas Pophale) SiO2 
 PCOD8041902
Probable space group: P -1
;
_chemical_formula_sum "Si O2"
_cell_formula_units_Z 14
_cell_length_a 11.732976
_cell_length_b 10.667021
_cell_length_c 13.337710
_cell_angle_alpha 116.325719
_cell_angle_beta 58.871891
_cell_angle_gamma 154.900725
_cell_volume 604.738000
_symmetry_space_group_name_H-M "P -1"
_symmetry_group_IT_number 2
_symmetry_cell_setting 'triclinic'
loop_
_space_group_symop_operation_xyz
x,y,z
-x,-y,-z
loop_
_atom_site_type_symbol
_atom_site_label
_atom_site_fract_x
_atom_site_fract_y
_atom_site_fract_z
Si Si1 0.598128 0.849284 0.940399
Si Si2 0.690861 0.088359 0.574914
Si Si3 0.112753 0.764450 0.249477
Si Si4 0.995332 0.398021 0.062011
Si Si5 0.280437 0.293419 0.275739
Si Si6 0.286684 0.354056 0.629099
Si Si7 0.675935 0.356503 0.583034
O O1 0.704003 0.785546 0.860870
O O2 0.696796 0.022170 0.856746
O O3 0.265588 0.548109 0.996235
O O4 0.732079 0.048043 0.048175
O O5 0.677753 0.037685 0.680162
O O6 0.571036 0.134664 0.625098
O O7 0.010646 0.380183 0.499790
O O8 0.513423 0.813260 0.492173
O O9 0.982548 0.486878 0.197154
O O10 0.850685 0.626169 0.333483
O O11 0.000000 0.500000 0.000000
O O12 0.526134 0.452475 0.288459
O O13 0.349875 0.519654 0.303388
O O14 0.970970 0.994507 0.361519
O O15 0.500000 0.500000 0.500000
#
# Coordination Sequence:
#
# PCOD8041902 Si02
#       7
#     2   2   2   2   2   2   2
#     4  10  21  34  52  82 110 140 179 226 277 333
#     4  10  22  38  57  80 108 144 192 229 268 326
#     4  10  21  36  58  82 111 146 182 227 279 327
#     4  10  19  34  53  78 111 140 179 225 275 329
#     4  11  21  36  56  77 112 152 183 219 282 337
#     4  11  23  35  52  84 116 146 182 226 276 337
#     4  10  22  39  56  78 109 149 187 229 270 322
#
# _framework density 23.150521999999999
#
# number of rings (size 3 to 8) (size 9 to 14) (size 15 to 20)
#    0.000    1.714    0.000    6.429    0.000   10.286 
#    0.000    0.000    0.000    1.714    0.000    0.000 
#    0.000    1.143    0.000    0.000    0.000    0.000 
#
# Total GULP energy -173565.373769 kJ/mol
# GULP energy per Si atom -12397.526698 kJ/mol
# Density = 2.309783 g / cm^3
# Si number density = 23.150522 Si / 1000 Ang^3
#
#
#
# Elastic Constant Matrix: (Units=GPa)
#
#
# Indices 1 2 3 4 5 6 
#
# 1 68.9996 18.8082 34.6739 6.9280 -27.9888 6.5721
# 2 18.8082 113.6360 12.4605 16.4616 -7.9759 18.5330
# 3 34.6739 12.4605 72.9122 18.9703 -31.8613 -0.0163
# 4 6.9280 16.4616 18.9703 39.5638 -5.4296 -7.4330
# 5 -27.9888 -7.9759 -31.8613 -5.4296 41.4401 11.4401
# 6 6.5721 18.5330 -0.0163 -7.4330 11.4401 35.2215
#
#
#
# Elastic Compliance Matrix: (Units=1/GPa)
#
#
# Indices 1 2 3 4 5 6 
#
# 1 0.024050 -0.000685 -0.004263 -0.001559 0.015226 -0.009404
# 2 -0.000685 0.011469 0.002397 -0.006784 0.005190 -0.009023
# 3 -0.004263 0.002397 0.026935 -0.012270 0.019249 -0.009295
# 4 -0.001559 -0.006784 -0.012270 0.035528 -0.011284 0.015018
# 5 0.015226 0.005190 0.019249 -0.011284 0.055944 -0.026115
# 6 -0.009404 -0.009023 -0.009295 0.015018 -0.026115 0.046542
#
#
# Mechanical properties :
#
#
# Convention : Reuss Voigt Hill
#
# Bulk Modulus (GPa) = 17.43645 43.04810 30.24227
# Shear Modulus (GPa) = 22.25308 35.88542 29.06925
#
# Velocity S-wave (km/s) = 3.10374 3.94139 3.54738
# Velocity P-wave (km/s) = 4.51580 6.27280 5.46536
#
# Compressibility (1/GPa) = 0.05735113
#
# Stress axis : x y z
#
# Youngs Moduli (GPa) = 41.57955 87.18950 37.12673
#
# Poissons Ratio (x) = 0.05972 0.15828
# Poissons Ratio (y) = 0.02848 -0.08898
# Poissons Ratio (z) = 0.17726 -0.20895
#
# Static dielectric constant tensor:
#      x y z
#    x 4.110030 0.027110 -0.395340 
#    y 0.027110 4.452590 0.517820 
#    z -0.395340 0.517820 4.210090 
# 
# 
# High freq. dielectric constant tensor:
#      x y z
#    x 1.884770 0.019200 -0.038260 
#    y 0.019200 1.931280 0.026160 
#    z -0.038260 0.026160 1.897110 
# 
# From -- ./inp_files/519828.got.cif
#   From: 2010.06.25/outbox.cif.g09.slc.cpg/sg2_260_cif.got.tgz:519828.got - 2010.06.27 13:26:56.
