data_PCOD8041790
_publ_section_title
;
Structure prediction by ZEFSAII (Michael W. Deem and Ramdas Pophale) SiO2 
 PCOD8041790
Probable space group: P -1
;
_chemical_formula_sum "Si O2"
_cell_formula_units_Z 12
_cell_length_a 7.274597
_cell_length_b 13.088952
_cell_length_c 8.339280
_cell_angle_alpha 53.057962
_cell_angle_beta 124.317833
_cell_angle_gamma 136.778814
_cell_volume 422.967316
_symmetry_space_group_name_H-M "P -1"
_symmetry_group_IT_number 2
_symmetry_cell_setting 'triclinic'
loop_
_space_group_symop_operation_xyz
x,y,z
-x,-y,-z
loop_
_atom_site_type_symbol
_atom_site_label
_atom_site_fract_x
_atom_site_fract_y
_atom_site_fract_z
Si Si1 0.923929 0.627286 0.096184
Si Si2 0.459787 0.591666 0.166436
Si Si3 0.510848 0.119848 0.028205
Si Si4 0.920669 0.906435 0.884965
Si Si5 0.282404 0.566687 0.465844
Si Si6 0.316084 0.079271 0.542131
O O1 0.969479 0.526642 0.344288
O O2 0.238176 0.762888 0.073885
O O3 0.794329 0.717570 0.011756
O O4 0.771808 0.527519 0.959766
O O5 0.334567 0.546829 0.324307
O O6 0.696160 0.559881 0.304638
O O7 0.560028 0.772636 0.004931
O O8 0.563300 0.020358 0.268349
O O9 0.246764 0.002443 0.887429
O O10 0.709523 0.919753 0.665948
O O11 0.000000 0.000000 0.000000
O O12 0.506526 0.743559 0.470917
O O13 0.000000 0.000000 0.500000
#
# Coordination Sequence:
#
# PCOD8041790 Si02
#       6
#     2   2   2   2   2   2
#     4  11  20  39  63  92 127 162 203 261 309 364
#     4  10  21  34  61  98 127 152 202 265 314 355
#     4  11  22  39  65  94 122 159 214 258 302 363
#     4  12  26  41  61  93 131 167 205 254 313 370
#     4  10  19  33  58  93 125 156 196 255 317 354
#     4  12  21  37  67  93 121 160 214 256 302 363
#
# _framework density 28.370987
#
# number of rings (size 3 to 8) (size 9 to 14) (size 15 to 20)
#    0.000    1.000    5.000    4.500    0.000    4.667 
#    0.000    0.833    0.000    2.000    0.000    0.000 
#    0.000    0.000    0.000    0.000    0.000    0.000 
#
# Total GULP energy -148720.376547 kJ/mol
# GULP energy per Si atom -12393.364712 kJ/mol
# Density = 2.830641 g / cm^3
# Si number density = 28.370987 Si / 1000 Ang^3
#
#
#
# Elastic Constant Matrix: (Units=GPa)
#
#
# Indices 1 2 3 4 5 6 
#
# 1 110.7288 54.2020 56.2920 -10.2575 30.0270 -24.1500
# 2 54.2020 196.7062 101.9685 1.1116 14.7125 -44.3636
# 3 56.2920 101.9685 260.5542 -12.1067 46.3936 -32.7447
# 4 -10.2575 1.1116 -12.1067 72.1280 -7.2575 6.9534
# 5 30.0270 14.7125 46.3936 -7.2575 48.0552 -11.6613
# 6 -24.1500 -44.3636 -32.7447 6.9534 -11.6613 48.7248
#
#
#
# Elastic Compliance Matrix: (Units=1/GPa)
#
#
# Indices 1 2 3 4 5 6 
#
# 1 0.012595 -0.002290 -0.000412 0.000925 -0.006075 0.002295
# 2 -0.002290 0.007997 -0.002468 -0.001120 0.002467 0.005238
# 3 -0.000412 -0.002468 0.005730 0.000473 -0.004379 0.000284
# 4 0.000925 -0.001120 0.000473 0.014390 0.000981 -0.002062
# 5 -0.006075 0.002467 -0.004379 0.000981 0.028974 0.003087
# 6 0.002295 0.005238 0.000284 -0.002062 0.003087 0.027654
#
#
# Mechanical properties :
#
#
# Convention : Reuss Voigt Hill
#
# Bulk Modulus (GPa) = 62.57014 110.32382 86.44698
# Shear Modulus (GPa) = 44.24435 57.48338 50.86387
#
# Velocity S-wave (km/s) = 3.95333 4.50614 4.23876
# Velocity P-wave (km/s) = 6.55290 8.12676 7.38190
#
# Compressibility (1/GPa) = 0.01598206
#
# Stress axis : x y z
#
# Youngs Moduli (GPa) = 79.39650 125.04127 174.51505
#
# Poissons Ratio (x) = 0.28640 0.07186
# Poissons Ratio (y) = 0.18185 0.43071
# Poissons Ratio (z) = 0.03269 0.30861
#
# Static dielectric constant tensor:
#      x y z
#    x 9.995010 0.921040 0.574970 
#    y 0.921040 6.141560 -0.358750 
#    z 0.574970 -0.358750 6.817530 
# 
# 
# High freq. dielectric constant tensor:
#      x y z
#    x 2.223620 -0.010950 -0.009060 
#    y -0.010950 2.161960 -0.013830 
#    z -0.009060 -0.013830 2.193110 
# 
# From -- ./inp_files/159041.got.cif
#   From: 2010.06.25/outbox.cif.g09.slc.cpg/sg2_80_cif.got.tgz:159041.got - 2010.06.27 13:26:56.
