data_PCOD8041677
_publ_section_title
;
Structure prediction by ZEFSAII (Michael W. Deem and Ramdas Pophale) SiO2 
 PCOD8041677
Probable space group: P -1
;
_chemical_formula_sum "Si O2"
_cell_formula_units_Z 16
_cell_length_a 8.952053
_cell_length_b 14.233317
_cell_length_c 8.730409
_cell_angle_alpha 136.012152
_cell_angle_beta 117.859182
_cell_angle_gamma 74.513638
_cell_volume 678.677772
_symmetry_space_group_name_H-M "P -1"
_symmetry_group_IT_number 2
_symmetry_cell_setting 'triclinic'
loop_
_space_group_symop_operation_xyz
x,y,z
-x,-y,-z
loop_
_atom_site_type_symbol
_atom_site_label
_atom_site_fract_x
_atom_site_fract_y
_atom_site_fract_z
Si Si1 0.426769 0.116801 0.198074
Si Si2 0.993452 0.346063 0.500194
Si Si3 0.534145 0.625432 0.863982
Si Si4 0.150841 0.074823 0.257312
Si Si5 0.764961 0.870298 0.168216
Si Si6 0.201495 0.629012 0.875091
Si Si7 0.851249 0.112864 0.671421
Si Si8 0.336368 0.635535 0.465222
O O1 0.332372 0.066857 0.250657
O O2 0.573109 0.240044 0.446062
O O3 0.282889 0.166369 0.073730
O O4 0.500000 0.000000 0.000000
O O5 0.897932 0.322412 0.263587
O O6 0.857580 0.339455 0.565593
O O7 0.118429 0.231269 0.450430
O O8 0.103386 0.491857 0.733821
O O9 0.394737 0.604196 0.905428
O O10 0.433628 0.625038 0.657554
O O11 0.654170 0.503961 0.787134
O O12 0.652029 0.767850 0.107622
O O13 0.154930 0.998326 0.328279
O O14 0.000000 0.000000 0.000000
O O15 0.960464 0.848510 0.258862
O O16 0.737503 0.028090 0.384967
O O17 0.217332 0.747619 0.149259
#
# Coordination Sequence:
#
# PCOD8041677 Si02
#       8
#     2   2   2   2   2   2   2   2
#     4  11  22  36  59  87 119 151 192 240 292 342
#     4  10  19  33  58  85 116 148 196 243 286 341
#     4   9  18  33  55  82 114 145 192 237 285 343
#     4  12  21  36  59  88 117 150 197 245 286 336
#     4  10  22  39  58  83 120 156 193 232 293 347
#     4  10  19  33  56  87 112 153 194 239 290 341
#     4  11  23  38  60  85 120 158 194 238 285 350
#     4   9  18  32  55  84 111 147 187 241 289 333
#
# _framework density 23.575251000000002
#
# number of rings (size 3 to 8) (size 9 to 14) (size 15 to 20)
#    0.000    1.750    2.500    2.250    3.500    4.500 
#    0.000    0.000    2.750    3.750    0.000    0.000 
#    0.000    0.000    0.000    0.000    0.000    0.000 
#
# Total GULP energy -198407.027423 kJ/mol
# GULP energy per Si atom -12400.439214 kJ/mol
# Density = 2.352159 g / cm^3
# Si number density = 23.575251 Si / 1000 Ang^3
#
#
#
# Elastic Constant Matrix: (Units=GPa)
#
#
# Indices 1 2 3 4 5 6 
#
# 1 173.5665 19.4070 48.5239 27.8312 -2.3269 20.9064
# 2 19.4070 45.6650 15.3389 24.1473 1.9297 5.7862
# 3 48.5239 15.3389 118.2602 38.3235 -3.6493 5.8102
# 4 27.8312 24.1473 38.3235 37.6076 -0.8820 -4.8365
# 5 -2.3269 1.9297 -3.6493 -0.8820 38.1685 19.1543
# 6 20.9064 5.7862 5.8102 -4.8365 19.1543 29.9265
#
#
#
# Elastic Compliance Matrix: (Units=1/GPa)
#
#
# Indices 1 2 3 4 5 6 
#
# 1 0.008470 0.002519 -0.000054 -0.009201 0.006078 -0.011770
# 2 0.002519 0.041735 0.007863 -0.039545 0.009999 -0.024146
# 3 -0.000054 0.007863 0.015481 -0.022224 0.006807 -0.012436
# 4 -0.009201 -0.039545 -0.022224 0.086906 -0.022031 0.046534
# 5 0.006078 0.009999 0.006807 -0.022031 0.046784 -0.041005
# 6 -0.011770 -0.024146 -0.012436 0.046534 -0.041005 0.082487
#
#
# Mechanical properties :
#
#
# Convention : Reuss Voigt Hill
#
# Bulk Modulus (GPa) = 11.58200 56.00347 33.79273
# Shear Modulus (GPa) = 17.24206 38.08865 27.66536
#
# Velocity S-wave (km/s) = 2.70731 4.02384 3.42934
# Velocity P-wave (km/s) = 3.83355 6.73759 5.48139
#
# Compressibility (1/GPa) = 0.08634089
#
# Stress axis : x y z
#
# Youngs Moduli (GPa) = 118.06835 23.96072 64.59323
#
# Poissons Ratio (x) = -0.06035 0.00352
# Poissons Ratio (y) = -0.29738 -0.50791
# Poissons Ratio (z) = 0.00643 -0.18841
#
# Static dielectric constant tensor:
#      x y z
#    x 4.398560 0.041340 0.049430 
#    y 0.041340 4.115420 0.077730 
#    z 0.049430 0.077730 4.491850 
# 
# 
# High freq. dielectric constant tensor:
#      x y z
#    x 1.942480 0.007880 0.002520 
#    y 0.007880 1.912880 0.021650 
#    z 0.002520 0.021650 1.933440 
# 
# From -- ./inp_files/209565.got.cif
#   From: 2010.06.25/outbox.cif.g09.slc.cpg/sg2_105_cif.got.tgz:209565.got - 2010.06.27 13:26:56.
