data_PCOD8041933
_publ_section_title
;
Structure prediction by ZEFSAII (Michael W. Deem and Ramdas Pophale) SiO2 
 PCOD8041933
Probable space group: P -1
;
_chemical_formula_sum "Si O2"
_cell_formula_units_Z 16
_cell_length_a 8.404669
_cell_length_b 15.472058
_cell_length_c 14.717223
_cell_angle_alpha 67.856763
_cell_angle_beta 137.965524
_cell_angle_gamma 137.365239
_cell_volume 805.043277
_symmetry_space_group_name_H-M "P -1"
_symmetry_group_IT_number 2
_symmetry_cell_setting 'triclinic'
loop_
_space_group_symop_operation_xyz
x,y,z
-x,-y,-z
loop_
_atom_site_type_symbol
_atom_site_label
_atom_site_fract_x
_atom_site_fract_y
_atom_site_fract_z
Si Si1 0.186871 0.041742 0.281967
Si Si2 0.118793 0.850533 0.906842
Si Si3 0.792212 0.858839 0.356042
Si Si4 0.294356 0.874636 0.170222
Si Si5 0.243761 0.848503 0.654971
Si Si6 0.268797 0.239362 0.891250
Si Si7 0.653694 0.410406 0.828615
Si Si8 0.057282 0.671655 0.804124
O O1 0.112175 0.982090 0.375873
O O2 0.905668 0.909496 0.151240
O O3 0.574322 0.132493 0.369967
O O4 0.152372 0.143608 0.225832
O O5 0.058454 0.752002 0.848603
O O6 0.101925 0.807386 0.019004
O O7 0.500000 0.000000 0.000000
O O8 0.616077 0.896855 0.314396
O O9 0.456496 0.714451 0.222423
O O10 0.947834 0.837189 0.507485
O O11 0.981268 0.769456 0.149874
O O12 0.468957 0.026467 0.202493
O O13 0.052583 0.710545 0.684345
O O14 0.339919 0.330215 0.800833
O O15 0.623162 0.309454 0.063433
O O16 0.700999 0.510047 0.738981
O O17 0.000000 0.500000 0.000000
#
# Coordination Sequence:
#
# PCOD8041933 Si02
#       8
#     2   2   2   2   2   2   2   2
#     4  10  19  34  54  81 108 137 177 219 270 313
#     4  12  18  32  57  82 109 135 172 225 270 306
#     4  11  21  37  54  77 110 146 178 211 264 323
#     4  11  20  33  56  84 109 135 176 225 268 310
#     4  11  22  33  54  81 112 143 172 217 266 324
#     4   9  18  34  56  81 105 134 177 226 264 307
#     4   9  20  38  58  74 103 144 180 222 263 307
#     4  11  20  36  54  80 109 141 178 215 269 314
#
# _framework density 19.874708999999999
#
# number of rings (size 3 to 8) (size 9 to 14) (size 15 to 20)
#    0.000    1.500    3.750    3.000    0.000    2.500 
#    0.000    6.875    0.000    1.500    0.000    0.000 
#    0.000    0.000    0.000    0.000    0.000    0.000 
#
# Total GULP energy -198247.057064 kJ/mol
# GULP energy per Si atom -12390.441066 kJ/mol
# Density = 1.982947 g / cm^3
# Si number density = 19.874709 Si / 1000 Ang^3
#
#
#
# Elastic Constant Matrix: (Units=GPa)
#
#
# Indices 1 2 3 4 5 6 
#
# 1 134.2860 55.1230 24.2176 -17.6617 6.7298 20.1725
# 2 55.1230 100.7593 20.5243 -22.7151 3.8146 25.5674
# 3 24.2176 20.5243 62.3194 -24.4966 2.7981 11.2435
# 4 -17.6617 -22.7151 -24.4966 32.7336 -4.5570 -10.4409
# 5 6.7298 3.8146 2.7981 -4.5570 18.5310 -6.1816
# 6 20.1725 25.5674 11.2435 -10.4409 -6.1816 27.4371
#
#
#
# Elastic Compliance Matrix: (Units=1/GPa)
#
#
# Indices 1 2 3 4 5 6 
#
# 1 0.010232 -0.004186 -0.001968 -0.000697 -0.004061 -0.003996
# 2 -0.004186 0.016340 0.000563 0.005255 -0.004431 -0.011378
# 3 -0.001968 0.000563 0.023379 0.016049 0.000178 -0.002511
# 4 -0.000697 0.005255 0.016049 0.051363 0.013237 0.011567
# 5 -0.004061 -0.004431 0.000178 0.013237 0.068778 0.027575
# 6 -0.003996 -0.011378 -0.002511 0.011567 0.027575 0.061630
#
#
# Mechanical properties :
#
#
# Convention : Reuss Voigt Hill
#
# Bulk Modulus (GPa) = 25.79459 55.23271 40.51365
# Shear Modulus (GPa) = 19.54435 28.90700 24.22567
#
# Velocity S-wave (km/s) = 3.13929 3.81788 3.49509
# Velocity P-wave (km/s) = 5.11341 6.87646 6.05940
#
# Compressibility (1/GPa) = 0.03876782
#
# Stress axis : x y z
#
# Youngs Moduli (GPa) = 97.72941 61.20012 42.77282
#
# Poissons Ratio (x) = 0.25621 0.08419
# Poissons Ratio (y) = 0.40914 -0.02408
# Poissons Ratio (z) = 0.19236 -0.03445
#
# Static dielectric constant tensor:
#      x y z
#    x 4.030850 -0.064070 -0.016680 
#    y -0.064070 4.171140 -0.110700 
#    z -0.016680 -0.110700 3.135920 
# 
# 
# High freq. dielectric constant tensor:
#      x y z
#    x 1.782460 0.012270 -0.005720 
#    y 0.012270 1.762240 -0.014970 
#    z -0.005720 -0.014970 1.747330 
# 
# From -- ./inp_files/223464.got.cif
#   From: 2010.06.25/outbox.cif.g09.slc.cpg/sg2_112_cif.got.tgz:223464.got - 2010.06.27 13:26:56.
