data_PCOD8041227
_publ_section_title
;
Structure prediction by ZEFSAII (Michael W. Deem and Ramdas Pophale) SiO2 
 PCOD8041227
Probable space group: P -1
;
_chemical_formula_sum "Si O2"
_cell_formula_units_Z 16
_cell_length_a 21.529823
_cell_length_b 8.818445
_cell_length_c 11.938859
_cell_angle_alpha 36.963067
_cell_angle_beta 32.046507
_cell_angle_gamma 47.444884
_cell_volume 723.199163
_symmetry_space_group_name_H-M "P -1"
_symmetry_group_IT_number 2
_symmetry_cell_setting 'triclinic'
loop_
_space_group_symop_operation_xyz
x,y,z
-x,-y,-z
loop_
_atom_site_type_symbol
_atom_site_label
_atom_site_fract_x
_atom_site_fract_y
_atom_site_fract_z
Si Si1 0.720030 0.290784 0.026348
Si Si2 0.336010 0.749067 0.286536
Si Si3 0.084511 0.302698 0.270598
Si Si4 0.167949 0.818636 0.307140
Si Si5 0.779390 0.187521 0.236857
Si Si6 0.505423 0.149286 0.729042
Si Si7 0.478862 0.408676 0.401712
Si Si8 0.197893 0.148846 0.406259
O O1 0.762185 0.153853 0.931373
O O2 0.742100 0.588926 0.810318
O O3 0.785208 0.155600 0.112077
O O4 0.579605 0.260520 0.267393
O O5 0.248207 0.689494 0.354883
O O6 0.367993 0.478943 0.451704
O O7 0.284612 0.944575 0.339366
O O8 0.460010 0.866861 0.986362
O O9 0.947232 0.356464 0.429156
O O10 0.130724 0.097324 0.234228
O O11 0.094921 0.203963 0.441691
O O12 0.161895 0.545891 0.981152
O O13 0.643914 0.173622 0.487437
O O14 0.846195 0.973431 0.335352
O O15 0.435656 0.236733 0.672434
O O16 0.466572 0.332014 0.782155
#
# Coordination Sequence:
#
# PCOD8041227 Si02
#       8
#     2   2   2   2   2   2   2   2
#     4  10  21  38  56  88 125 149 185 243 299 339
#     4  11  20  35  60  85 116 157 195 227 280 352
#     4   9  22  44  62  80 111 158 204 239 280 343
#     4  10  23  42  59  80 123 161 186 236 298 349
#     4  10  20  37  65  90 112 148 202 245 280 334
#     4  10  19  32  58  91 114 143 195 242 276 331
#     4  10  19  31  57  86 116 149 187 236 282 334
#     4  10  19  35  63  90 108 150 204 243 278 332
#
# _framework density 22.123919000000001
#
# number of rings (size 3 to 8) (size 9 to 14) (size 15 to 20)
#    0.000    2.000    2.500    1.125    5.250    2.500 
#    0.000   15.625    0.000    0.000    0.000    0.000 
#    0.000    0.000    0.000    0.000    0.000    0.000 
#
# Total GULP energy -198301.986850 kJ/mol
# GULP energy per Si atom -12393.874178 kJ/mol
# Density = 2.207356 g / cm^3
# Si number density = 22.123919 Si / 1000 Ang^3
#
#
#
# Elastic Constant Matrix: (Units=GPa)
#
#
# Indices 1 2 3 4 5 6 
#
# 1 153.8324 32.2263 61.0956 1.9086 29.3790 -13.1380
# 2 32.2263 26.1206 9.4556 13.1484 16.1316 1.8228
# 3 61.0956 9.4556 65.2219 -1.1638 14.3774 -14.0444
# 4 1.9086 13.1484 -1.1638 29.6220 -2.4012 8.7748
# 5 29.3790 16.1316 14.3774 -2.4012 39.4547 1.9264
# 6 -13.1380 1.8228 -14.0444 8.7748 1.9264 21.5068
#
#
#
# Elastic Compliance Matrix: (Units=1/GPa)
#
#
# Indices 1 2 3 4 5 6 
#
# 1 0.014217 -0.017299 -0.010757 0.006251 0.000762 0.000508
# 2 -0.017299 0.103246 0.011073 -0.050827 -0.037045 0.011968
# 3 -0.010757 0.011073 0.028804 -0.008335 -0.008275 0.015442
# 4 0.006251 -0.050827 -0.008335 0.065315 0.024416 -0.026152
# 5 0.000762 -0.037045 -0.008275 0.024416 0.045198 -0.015809
# 6 0.000508 0.011968 0.015442 -0.026152 -0.015809 0.067963
#
#
# Mechanical properties :
#
#
# Convention : Reuss Voigt Hill
#
# Bulk Modulus (GPa) = 8.90466 50.08109 29.49288
# Shear Modulus (GPa) = 12.62175 27.60987 20.11581
#
# Velocity S-wave (km/s) = 2.39111 3.53649 3.01862
# Velocity P-wave (km/s) = 3.41421 6.27387 5.05066
#
# Compressibility (1/GPa) = 0.11230074
#
# Stress axis : x y z
#
# Youngs Moduli (GPa) = 70.33912 9.68559 34.71795
#
# Poissons Ratio (x) = 0.16755 0.37345
# Poissons Ratio (y) = 1.21679 -0.38442
# Poissons Ratio (z) = 0.75661 -0.10724
#
# Static dielectric constant tensor:
#      x y z
#    x 4.434960 -0.179880 0.315830 
#    y -0.179880 3.605930 -0.001300 
#    z 0.315830 -0.001300 3.931490 
# 
# 
# High freq. dielectric constant tensor:
#      x y z
#    x 1.883840 -0.005670 0.015920 
#    y -0.005670 1.836310 0.000960 
#    z 0.015920 0.000960 1.858670 
# 
# From -- ./inp_files/474087.got.cif
#   From: 2010.06.25/outbox.cif.g09.slc.cpg/sg2_238_cif.got.tgz:474087.got - 2010.06.27 13:26:56.
