data_PCOD8041272
_publ_section_title
;
Structure prediction by ZEFSAII (Michael W. Deem and Ramdas Pophale) SiO2 
 PCOD8041272
Probable space group: P -1
;
_chemical_formula_sum "Si O2"
_cell_formula_units_Z 16
_cell_length_a 16.279226
_cell_length_b 28.547323
_cell_length_c 6.647841
_cell_angle_alpha 119.228328
_cell_angle_beta 72.971402
_cell_angle_gamma 159.195852
_cell_volume 813.319580
_symmetry_space_group_name_H-M "P -1"
_symmetry_group_IT_number 2
_symmetry_cell_setting 'triclinic'
loop_
_space_group_symop_operation_xyz
x,y,z
-x,-y,-z
loop_
_atom_site_type_symbol
_atom_site_label
_atom_site_fract_x
_atom_site_fract_y
_atom_site_fract_z
Si Si1 0.680640 0.480113 0.835682
Si Si2 0.517009 0.049009 0.396479
Si Si3 0.168545 0.355525 0.585013
Si Si4 0.382472 0.034168 0.804164
Si Si5 0.193737 0.775713 0.838114
Si Si6 0.546749 0.583373 0.444221
Si Si7 0.159883 0.107464 0.413489
Si Si8 0.069393 0.954812 0.882291
O O1 0.506667 0.426292 0.759337
O O2 0.468394 0.306631 0.668618
O O3 0.894944 0.585124 0.736822
O O4 0.827312 0.589367 0.159656
O O5 0.473745 0.080917 0.601073
O O6 0.500000 0.000000 0.500000
O O7 0.785808 0.212203 0.398471
O O8 0.276065 0.885068 0.079703
O O9 0.270041 0.431098 0.448029
O O10 0.382353 0.436994 0.676359
O O11 0.865854 0.153661 0.368411
O O12 0.308359 0.052535 0.907366
O O13 0.608200 0.152295 0.055740
O O14 0.794084 0.761996 0.751159
O O15 0.995281 0.056732 0.310526
O O16 0.000000 0.000000 0.500000
O O17 0.175636 0.062667 0.181515
#
# Coordination Sequence:
#
# PCOD8041272 Si02
#       8
#     2   2   2   2   2   2   2   2
#     4  11  21  33  55  79 108 139 182 228 268 321
#     4   9  19  34  50  76 113 150 183 211 254 323
#     4  10  19  32  50  79 111 142 173 217 274 323
#     4  10  20  34  55  78 114 147 177 220 265 331
#     4  10  21  33  52  82 111 149 181 215 269 324
#     4   9  20  32  51  78 109 139 174 224 272 324
#     4  10  21  39  61  79 103 140 186 232 277 320
#     4   9  20  39  55  79 106 140 185 226 275 324
#
# _framework density 19.672463
#
# number of rings (size 3 to 8) (size 9 to 14) (size 15 to 20)
#    0.000    2.250    1.250    1.125    5.250    1.000 
#    0.000    0.625    0.000    1.500    0.000    0.000 
#    0.000    0.000    0.000    0.000    0.000    0.000 
#
# Total GULP energy -198251.140634 kJ/mol
# GULP energy per Si atom -12390.696290 kJ/mol
# Density = 1.962769 g / cm^3
# Si number density = 19.672463 Si / 1000 Ang^3
#
#
#
# Elastic Constant Matrix: (Units=GPa)
#
#
# Indices 1 2 3 4 5 6 
#
# 1 80.0170 30.3646 38.4187 -9.3367 -11.1043 -0.0461
# 2 30.3646 148.0549 42.7053 -13.8448 -5.1939 -4.0650
# 3 38.4187 42.7053 79.4657 -6.8482 -3.9635 -9.2413
# 4 -9.3367 -13.8448 -6.8482 32.1890 -3.5300 -1.0768
# 5 -11.1043 -5.1939 -3.9635 -3.5300 20.5449 1.3814
# 6 -0.0461 -4.0650 -9.2413 -1.0768 1.3814 22.9639
#
#
#
# Elastic Compliance Matrix: (Units=1/GPa)
#
#
# Indices 1 2 3 4 5 6 
#
# 1 0.018454 -0.000845 -0.008086 0.004149 0.009164 -0.003723
# 2 -0.000845 0.008311 -0.003758 0.002681 0.001380 0.000000
# 3 -0.008086 -0.003758 0.019260 0.000151 -0.002063 0.007201
# 4 0.004149 0.002681 0.000151 0.034471 0.008763 0.001633
# 5 0.009164 0.001380 -0.002063 0.008763 0.055318 -0.003484
# 6 -0.003723 0.000000 0.007201 0.001633 -0.003484 0.046723
#
#
# Mechanical properties :
#
#
# Convention : Reuss Voigt Hill
#
# Bulk Modulus (GPa) = 48.43270 58.94610 53.68940
# Shear Modulus (GPa) = 23.27783 28.20950 25.74367
#
# Velocity S-wave (km/s) = 3.44360 3.79087 3.62140
# Velocity P-wave (km/s) = 6.36272 7.01354 6.69604
#
# Compressibility (1/GPa) = 0.02064721
#
# Stress axis : x y z
#
# Youngs Moduli (GPa) = 54.18830 120.32854 51.92046
#
# Poissons Ratio (x) = 0.10169 0.41983
# Poissons Ratio (y) = 0.04580 0.19510
# Poissons Ratio (z) = 0.43817 0.45216
#
# Static dielectric constant tensor:
#      x y z
#    x 3.619730 0.125180 -0.052710 
#    y 0.125180 3.593130 0.222530 
#    z -0.052710 0.222530 2.637130 
# 
# 
# High freq. dielectric constant tensor:
#      x y z
#    x 1.752630 0.009220 0.011040 
#    y 0.009220 1.769080 -0.013200 
#    z 0.011040 -0.013200 1.753490 
# 
# From -- ./inp_files/113388.got.cif
#   From: 2010.06.25/outbox.cif.g09.slc.cpg/sg2_57_cif.got.tgz:113388.got - 2010.06.27 13:26:56.
