data_PCOD8041137
_publ_section_title
;
Structure prediction by ZEFSAII (Michael W. Deem and Ramdas Pophale) SiO2 
 PCOD8041137
Probable space group: P -1
;
_chemical_formula_sum "Si O2"
_cell_formula_units_Z 16
_cell_length_a 11.522736
_cell_length_b 18.125878
_cell_length_c 19.854587
_cell_angle_alpha 29.228936
_cell_angle_beta 156.578293
_cell_angle_gamma 140.300963
_cell_volume 794.311750
_symmetry_space_group_name_H-M "P -1"
_symmetry_group_IT_number 2
_symmetry_cell_setting 'triclinic'
loop_
_space_group_symop_operation_xyz
x,y,z
-x,-y,-z
loop_
_atom_site_type_symbol
_atom_site_label
_atom_site_fract_x
_atom_site_fract_y
_atom_site_fract_z
Si Si1 0.668475 0.536117 0.269051
Si Si2 0.709624 0.849546 0.019626
Si Si3 0.543670 0.990796 0.367547
Si Si4 0.612079 0.300850 0.527422
Si Si5 0.936733 0.071309 0.056274
Si Si6 0.228951 0.931681 0.443259
Si Si7 0.275113 0.568029 0.768078
Si Si8 0.269680 0.585937 0.360493
O O1 0.566295 0.716589 0.086530
O O2 0.497145 0.427552 0.308509
O O3 0.628291 0.510535 0.188865
O O4 0.000000 0.500000 0.500000
O O5 0.044196 0.781318 0.228122
O O6 0.503885 0.887167 0.814871
O O7 0.696908 0.997935 0.942650
O O8 0.806820 0.017653 0.537242
O O9 0.603722 0.823186 0.499571
O O10 0.250669 0.006228 0.243847
O O11 0.555656 0.378643 0.507876
O O12 0.882064 0.254620 0.881016
O O13 0.939869 0.005498 0.187148
O O14 0.268849 0.748089 0.610021
O O15 0.500000 0.000000 0.500000
O O16 0.958932 0.527433 0.653044
O O17 0.500000 0.500000 0.000000
O O18 0.500000 0.500000 0.500000
#
# Coordination Sequence:
#
# PCOD8041137 Si02
#       8
#     2   2   2   2   2   2   2   2
#     4  10  17  29  54  87 115 143 187 255 287 330
#     4  10  15  27  53  81 109 135 191 248 287 322
#     4  10  16  30  54  85 109 142 185 246 287 339
#     4  10  18  32  55  84 113 147 201 241 292 340
#     4  10  18  33  51  81 112 149 195 236 288 343
#     4  10  20  31  54  86 121 147 179 243 312 342
#     4  12  22  37  61  94 128 149 194 250 304 351
#     4  12  24  39  58  85 125 165 195 237 298 368
#
# _framework density 20.143225000000001
#
# number of rings (size 3 to 8) (size 9 to 14) (size 15 to 20)
#    0.000    1.500    5.000    6.000    0.000    0.000 
#    0.000    0.625    0.000    3.750    0.000    0.000 
#    0.000    0.000    0.000    0.000    0.000    0.000 
#
# Total GULP energy -198241.259250 kJ/mol
# GULP energy per Si atom -12390.078703 kJ/mol
# Density = 2.009738 g / cm^3
# Si number density = 20.143225 Si / 1000 Ang^3
#
#
#
# Elastic Constant Matrix: (Units=GPa)
#
#
# Indices 1 2 3 4 5 6 
#
# 1 93.3670 48.0131 51.7686 -6.2924 -32.3001 -18.0201
# 2 48.0131 131.6110 36.4335 -28.1158 -15.7590 -6.5831
# 3 51.7686 36.4335 38.8563 -9.7865 -29.5842 -3.6949
# 4 -6.2924 -28.1158 -9.7865 29.6412 -1.1080 -19.1307
# 5 -32.3001 -15.7590 -29.5842 -1.1080 46.0539 -0.7545
# 6 -18.0201 -6.5831 -3.6949 -19.1307 -0.7545 38.3742
#
#
#
# Elastic Compliance Matrix: (Units=1/GPa)
#
#
# Indices 1 2 3 4 5 6 
#
# 1 0.056041 0.001069 -0.091899 -0.010338 -0.019415 0.012115
# 2 0.001069 0.013995 -0.008488 0.017811 0.000695 0.010979
# 3 -0.091899 -0.008488 0.240905 0.062837 0.089098 0.011663
# 4 -0.010338 0.017811 0.062837 0.109209 0.042812 0.059537
# 5 -0.019415 0.000695 0.089098 0.042812 0.066964 0.022241
# 6 0.012115 0.010979 0.011663 0.059537 0.022241 0.064873
#
#
# Mechanical properties :
#
#
# Convention : Reuss Voigt Hill
#
# Bulk Modulus (GPa) = 8.90439 59.58497 34.24468
# Shear Modulus (GPa) = 6.34471 31.32179 18.83325
#
# Velocity S-wave (km/s) = 1.77669 3.94757 3.06104
# Velocity P-wave (km/s) = 2.93921 7.10089 5.43422
#
# Compressibility (1/GPa) = 0.11230417
#
# Stress axis : x y z
#
# Youngs Moduli (GPa) = 17.84419 71.45345 4.15102
#
# Poissons Ratio (x) = -0.07637 0.38148
# Poissons Ratio (y) = -0.01907 0.03523
# Poissons Ratio (z) = 1.63987 0.60648
#
# Static dielectric constant tensor:
#      x y z
#    x 3.924390 -0.214420 -0.836810 
#    y -0.214420 4.466330 -0.178140 
#    z -0.836810 -0.178140 3.485610 
# 
# 
# High freq. dielectric constant tensor:
#      x y z
#    x 1.769740 -0.015670 -0.064140 
#    y -0.015670 1.809210 -0.023170 
#    z -0.064140 -0.023170 1.737780 
# 
# From -- ./inp_files/595998.got.cif
#   From: 2010.06.25/outbox.cif.g09.slc.cpg/sg2_298_cif.got.tgz:595998.got - 2010.06.27 13:26:56.
