data_PCOD8041084
_publ_section_title
;
Structure prediction by ZEFSAII (Michael W. Deem and Ramdas Pophale) SiO2 
 PCOD8041084
Probable space group: P -1
;
_chemical_formula_sum "Si O2"
_cell_formula_units_Z 16
_cell_length_a 14.650883
_cell_length_b 8.172335
_cell_length_c 13.427318
_cell_angle_alpha 148.091762
_cell_angle_beta 77.075210
_cell_angle_gamma 94.499111
_cell_volume 808.619860
_symmetry_space_group_name_H-M "P -1"
_symmetry_group_IT_number 2
_symmetry_cell_setting 'triclinic'
loop_
_space_group_symop_operation_xyz
x,y,z
-x,-y,-z
loop_
_atom_site_type_symbol
_atom_site_label
_atom_site_fract_x
_atom_site_fract_y
_atom_site_fract_z
Si Si1 0.977149 0.380263 0.584886
Si Si2 0.494886 0.614717 0.229299
Si Si3 0.343256 0.208459 0.624735
Si Si4 0.393845 0.353068 0.968864
Si Si5 0.223957 0.169639 0.825832
Si Si6 0.093952 0.720941 0.243781
Si Si7 0.150794 0.534946 0.520618
Si Si8 0.733638 0.977349 0.645392
O O1 0.947875 0.446909 0.740910
O O2 0.885017 0.511049 0.605913
O O3 0.061459 0.562937 0.633103
O O4 0.012059 0.999863 0.360338
O O5 0.589631 0.533937 0.236158
O O6 0.530491 0.772746 0.202297
O O7 0.412379 0.859023 0.433589
O O8 0.448498 0.322644 0.048410
O O9 0.261275 0.228273 0.737534
O O10 0.295324 0.255300 0.551915
O O11 0.306504 0.172564 0.891149
O O12 0.353076 0.732207 0.155927
O O13 0.194120 0.841450 0.675995
O O14 0.132519 0.456422 0.014804
O O15 0.178698 0.882083 0.347091
O O16 0.233919 0.230356 0.370968
#
# Coordination Sequence:
#
# PCOD8041084 Si02
#       8
#     2   2   2   2   2   2   2   2
#     4   9  19  36  53  68  94 131 163 198 244 288
#     4   8  14  27  51  74  93 122 169 204 227 271
#     4   9  16  28  51  76  97 126 163 200 235 280
#     4   8  15  29  50  73  96 126 165 201 232 278
#     4  10  19  30  49  76  99 124 161 202 240 282
#     4   9  18  34  53  71  93 127 170 202 231 282
#     4  10  20  33  49  72 101 128 155 197 252 292
#     4   9  17  31  50  72 101 132 160 195 239 286
#
# _framework density 19.786802000000002
#
# number of rings (size 3 to 8) (size 9 to 14) (size 15 to 20)
#    0.000    3.000    0.000    0.750    0.000    1.000 
#    0.000    6.250    0.000   28.500    0.000    0.000 
#    0.000    0.000    0.000    0.000    0.000    0.000 
#
# Total GULP energy -198211.900088 kJ/mol
# GULP energy per Si atom -12388.243756 kJ/mol
# Density = 1.974177 g / cm^3
# Si number density = 19.786802 Si / 1000 Ang^3
#
#
#
# Elastic Constant Matrix: (Units=GPa)
#
#
# Indices 1 2 3 4 5 6 
#
# 1 76.1388 28.3594 20.2273 5.7941 8.8291 -7.9095
# 2 28.3594 68.0834 22.6379 -4.2991 -9.9211 -6.7608
# 3 20.2273 22.6379 68.1316 -14.0810 -9.0153 5.4345
# 4 5.7941 -4.2991 -14.0810 23.5329 5.7649 -0.3343
# 5 8.8291 -9.9211 -9.0153 5.7649 32.6850 -9.0578
# 6 -7.9095 -6.7608 5.4345 -0.3343 -9.0578 24.3558
#
#
#
# Elastic Compliance Matrix: (Units=1/GPa)
#
#
# Indices 1 2 3 4 5 6 
#
# 1 0.019101 -0.007134 -0.006073 -0.007937 -0.006784 0.002946
# 2 -0.007134 0.021240 -0.004142 0.001003 0.009261 0.007961
# 3 -0.006073 -0.004142 0.021352 0.012908 0.002074 -0.006938
# 4 -0.007937 0.001003 0.012908 0.053538 -0.005202 -0.006379
# 5 -0.006784 0.009261 0.002074 -0.005202 0.040897 0.015043
# 6 0.002946 0.007961 -0.006938 -0.006379 0.015043 0.051280
#
#
# Mechanical properties :
#
#
# Convention : Reuss Voigt Hill
#
# Bulk Modulus (GPa) = 37.04351 39.42254 38.23302
# Shear Modulus (GPa) = 19.91192 25.52336 22.71764
#
# Velocity S-wave (km/s) = 3.17570 3.59544 3.39207
# Velocity P-wave (km/s) = 5.67527 6.09944 5.89118
#
# Compressibility (1/GPa) = 0.02699528
#
# Stress axis : x y z
#
# Youngs Moduli (GPa) = 52.35219 47.08073 46.83328
#
# Poissons Ratio (x) = 0.33589 0.28444
# Poissons Ratio (y) = 0.37349 0.19397
# Poissons Ratio (z) = 0.31796 0.19499
#
# Static dielectric constant tensor:
#      x y z
#    x 4.082280 -0.108240 0.070490 
#    y -0.108240 3.231590 -0.188960 
#    z 0.070490 -0.188960 3.484140 
# 
# 
# High freq. dielectric constant tensor:
#      x y z
#    x 1.797120 -0.000180 0.000510 
#    y -0.000180 1.722260 -0.027940 
#    z 0.000510 -0.027940 1.750740 
# 
# From -- ./inp_files/294546.got.cif
#   From: 2010.06.25/outbox.cif.g09.slc.cpg/sg2_148_cif.got.tgz:294546.got - 2010.06.27 13:26:56.
