data_PCOD8041168
_publ_section_title
;
Structure prediction by ZEFSAII (Michael W. Deem and Ramdas Pophale) SiO2 
 PCOD8041168
Probable space group: P -1
;
_chemical_formula_sum "Si O2"
_cell_formula_units_Z 16
_cell_length_a 14.631000
_cell_length_b 10.249347
_cell_length_c 11.792686
_cell_angle_alpha 97.685569
_cell_angle_beta 133.713901
_cell_angle_gamma 47.714633
_cell_volume 742.366565
_symmetry_space_group_name_H-M "P -1"
_symmetry_group_IT_number 2
_symmetry_cell_setting 'triclinic'
loop_
_space_group_symop_operation_xyz
x,y,z
-x,-y,-z
loop_
_atom_site_type_symbol
_atom_site_label
_atom_site_fract_x
_atom_site_fract_y
_atom_site_fract_z
Si Si1 0.750034 0.925560 0.492069
Si Si2 0.696018 0.700841 0.314701
Si Si3 0.487630 0.733552 0.349257
Si Si4 0.997245 0.220333 0.506332
Si Si5 0.132249 0.219704 0.176279
Si Si6 0.305112 0.352057 0.264523
Si Si7 0.460861 0.510873 0.807638
Si Si8 0.405441 0.792490 0.926446
O O1 0.520969 0.183355 0.355542
O O2 0.714046 0.840717 0.359117
O O3 0.900070 0.898415 0.544514
O O4 0.873952 0.767883 0.691073
O O5 0.560550 0.762388 0.311964
O O6 0.927473 0.433057 0.479091
O O7 0.568061 0.772930 0.097157
O O8 0.660880 0.597152 0.583651
O O9 0.479768 0.587792 0.280992
O O10 0.254055 0.982603 0.218220
O O11 0.791672 0.301381 0.358766
O O12 0.169668 0.050271 0.733470
O O13 0.262758 0.234389 0.241503
O O14 0.891020 0.417760 0.944905
O O15 0.495745 0.637662 0.873462
O O16 0.610473 0.300942 0.997077
#
# Coordination Sequence:
#
# PCOD8041168 Si02
#       8
#     2   2   2   2   2   2   2   2
#     4  11  20  35  48  78 118 139 162 212 256 316
#     4  10  20  33  51  79 112 137 170 210 255 308
#     4   9  16  32  51  76 104 127 171 224 257 294
#     4  10  21  32  54  75 108 145 169 202 265 316
#     4  10  19  32  52  73 105 139 177 211 255 306
#     4  10  19  31  53  75 101 143 176 208 256 310
#     4   9  20  36  56  78 105 131 175 226 255 295
#     4   9  19  36  53  77 103 137 180 215 250 302
#
# _framework density 21.552696000000001
#
# number of rings (size 3 to 8) (size 9 to 14) (size 15 to 20)
#    0.000    2.500    2.500    1.500    0.000    7.500 
#    0.000    0.000    0.000    3.000    0.000   57.750 
#    0.000    0.000    0.000    0.000    0.000    0.000 
#
# Total GULP energy -198301.576373 kJ/mol
# GULP energy per Si atom -12393.848523 kJ/mol
# Density = 2.150364 g / cm^3
# Si number density = 21.552696 Si / 1000 Ang^3
#
#
#
# Elastic Constant Matrix: (Units=GPa)
#
#
# Indices 1 2 3 4 5 6 
#
# 1 37.3315 21.3080 25.1614 -0.1760 0.3974 -17.8038
# 2 21.3080 128.5922 69.2182 28.1685 11.0075 -15.5098
# 3 25.1614 69.2182 185.5132 -7.7385 -1.0125 -9.3988
# 4 -0.1760 28.1685 -7.7385 39.7939 -1.2735 5.4702
# 5 0.3974 11.0075 -1.0125 -1.2735 9.9561 0.0473
# 6 -17.8038 -15.5098 -9.3988 5.4702 0.0473 17.2639
#
#
#
# Elastic Compliance Matrix: (Units=1/GPa)
#
#
# Indices 1 2 3 4 5 6 
#
# 1 0.063079 0.008417 -0.008803 -0.017995 -0.015370 0.073565
# 2 0.008417 0.022638 -0.009117 -0.023021 -0.029386 0.031430
# 3 -0.008803 -0.009117 0.009726 0.010841 0.012880 -0.015444
# 4 -0.017995 -0.023021 0.010841 0.051378 0.034081 -0.049711
# 5 -0.015370 -0.029386 0.012880 0.034081 0.139434 -0.046420
# 6 0.073565 0.031430 -0.015444 -0.049711 -0.046420 0.169497
#
#
# Mechanical properties :
#
#
# Convention : Reuss Voigt Hill
#
# Bulk Modulus (GPa) = 13.08266 64.75689 38.91977
# Shear Modulus (GPa) = 9.99523 29.11938 19.55731
#
# Velocity S-wave (km/s) = 2.15584 3.67969 3.01561
# Velocity P-wave (km/s) = 3.50430 6.94007 5.49748
#
# Compressibility (1/GPa) = 0.07643706
#
# Stress axis : x y z
#
# Youngs Moduli (GPa) = 15.85303 44.17302 102.81621
#
# Poissons Ratio (x) = -0.37179 0.90513
# Poissons Ratio (y) = -0.13343 0.93734
# Poissons Ratio (z) = 0.13956 0.40271
#
# Static dielectric constant tensor:
#      x y z
#    x 3.445190 -0.115020 0.011050 
#    y -0.115020 4.243250 0.244970 
#    z 0.011050 0.244970 4.036700 
# 
# 
# High freq. dielectric constant tensor:
#      x y z
#    x 1.801970 -0.012460 -0.001710 
#    y -0.012460 1.850250 0.002690 
#    z -0.001710 0.002690 1.854270 
# 
# From -- ./inp_files/463866.got.cif
#   From: 2010.06.25/outbox.cif.g09.slc.cpg/sg2_232_cif.got.tgz:463866.got - 2010.06.27 13:26:56.
