data_PCOD8041042
_publ_section_title
;
Structure prediction by ZEFSAII (Michael W. Deem and Ramdas Pophale) SiO2 
 PCOD8041042
Probable space group: P -1
;
_chemical_formula_sum "Si O2"
_cell_formula_units_Z 16
_cell_length_a 21.286819
_cell_length_b 9.247232
_cell_length_c 20.934873
_cell_angle_alpha 148.203948
_cell_angle_beta 27.659850
_cell_angle_gamma 149.295445
_cell_volume 906.373478
_symmetry_space_group_name_H-M "P -1"
_symmetry_group_IT_number 2
_symmetry_cell_setting 'triclinic'
loop_
_space_group_symop_operation_xyz
x,y,z
-x,-y,-z
loop_
_atom_site_type_symbol
_atom_site_label
_atom_site_fract_x
_atom_site_fract_y
_atom_site_fract_z
Si Si1 0.627192 0.315928 0.581628
Si Si2 0.414477 0.666448 0.523140
Si Si3 0.334143 0.477265 0.791390
Si Si4 0.443208 0.656868 0.901220
Si Si5 0.887668 0.228549 0.281370
Si Si6 0.102572 0.563409 0.788092
Si Si7 0.828477 0.840466 0.968650
Si Si8 0.874309 0.262801 0.978434
O O1 0.614902 0.283047 0.504355
O O2 0.588634 0.583414 0.742799
O O3 0.798693 0.365795 0.459736
O O4 0.504755 0.994137 0.599588
O O5 0.512280 0.473901 0.365782
O O6 0.250762 0.503542 0.642837
O O7 0.370022 0.615876 0.881931
O O8 0.224395 0.121611 0.764916
O O9 0.261503 0.648178 0.878019
O O10 0.323348 0.443396 0.980304
O O11 0.500000 0.000000 0.000000
O O12 0.937492 0.420909 0.243431
O O13 0.036754 0.260349 0.194479
O O14 0.960378 0.276943 0.839538
O O15 0.126872 0.881240 0.917874
O O16 0.806229 0.935608 0.952067
O O17 0.000000 0.500000 0.000000
#
# Coordination Sequence:
#
# PCOD8041042 Si02
#       8
#     2   2   2   2   2   2   2   2
#     4   8  15  28  45  74  98 119 158 205 248 283
#     4   8  14  25  48  71 100 126 149 199 253 289
#     4  10  17  32  50  76 102 127 159 198 250 293
#     4  11  21  34  53  72  95 133 171 199 232 285
#     4  10  16  28  55  76  97 124 154 209 262 281
#     4  10  15  27  46  74 100 127 152 192 252 300
#     4  11  19  31  45  75 104 126 160 202 241 290
#     4  10  20  29  45  74 110 125 155 195 251 305
#
# _framework density 17.652767000000001
#
# number of rings (size 3 to 8) (size 9 to 14) (size 15 to 20)
#    0.000    2.250    5.000    2.625    0.000    0.000 
#    0.000    5.000    0.000    0.000    0.000    8.750 
#    0.000    0.000    0.000    0.000    0.000    0.000 
#
# Total GULP energy -198269.271789 kJ/mol
# GULP energy per Si atom -12391.829487 kJ/mol
# Density = 1.761259 g / cm^3
# Si number density = 17.652767 Si / 1000 Ang^3
#
#
#
# Elastic Constant Matrix: (Units=GPa)
#
#
# Indices 1 2 3 4 5 6 
#
# 1 70.8992 29.0469 47.6102 -1.6136 -29.3648 -16.5309
# 2 29.0469 69.2135 52.7627 0.7407 -8.1010 -14.4096
# 3 47.6102 52.7627 136.1578 -15.3909 -32.8154 -5.6704
# 4 -1.6136 0.7407 -15.3909 21.6808 12.9800 0.0528
# 5 -29.3648 -8.1010 -32.8154 12.9800 26.7171 3.5121
# 6 -16.5309 -14.4096 -5.6704 0.0528 3.5121 15.9354
#
#
#
# Elastic Compliance Matrix: (Units=1/GPa)
#
#
# Indices 1 2 3 4 5 6 
#
# 1 0.053708 -0.003533 -0.004150 -0.039062 0.067056 0.036395
# 2 -0.003533 0.027620 -0.011617 -0.002970 -0.010909 0.019591
# 3 -0.004150 -0.011617 0.015929 0.005143 0.010491 -0.011470
# 4 -0.039062 -0.002970 0.005143 0.095336 -0.080691 -0.023909
# 5 0.067056 -0.010909 0.010491 -0.080691 0.156058 0.029303
# 6 0.036395 0.019591 -0.011470 -0.023909 0.029303 0.107763
#
#
# Mechanical properties :
#
#
# Convention : Reuss Voigt Hill
#
# Bulk Modulus (GPa) = 17.04775 59.45668 38.25222
# Shear Modulus (GPa) = 9.71693 22.65670 16.18681
#
# Velocity S-wave (km/s) = 2.34871 3.58643 3.03141
# Velocity P-wave (km/s) = 4.12716 7.13473 5.82829
#
# Compressibility (1/GPa) = 0.05865876
#
# Stress axis : x y z
#
# Youngs Moduli (GPa) = 18.61908 36.20567 62.77799
#
# Poissons Ratio (x) = 0.12791 0.26051
# Poissons Ratio (y) = 0.06578 0.72928
# Poissons Ratio (z) = 0.07726 0.42059
#
# Static dielectric constant tensor:
#      x y z
#    x 3.171380 -0.299900 -0.306390 
#    y -0.299900 3.230580 -0.467150 
#    z -0.306390 -0.467150 3.662330 
# 
# 
# High freq. dielectric constant tensor:
#      x y z
#    x 1.649990 -0.018200 -0.029820 
#    y -0.018200 1.646730 -0.036220 
#    z -0.029820 -0.036220 1.688150 
# 
# From -- ./inp_files/254249.got.cif
#   From: 2010.06.25/outbox.cif.g09.slc.cpg/sg2_128_cif.got.tgz:254249.got - 2010.06.27 13:26:56.
