data_PCOD8041758
_publ_section_title
;
Structure prediction by ZEFSAII (Michael W. Deem and Ramdas Pophale) SiO2 
 PCOD8041758
Probable space group: P -1
;
_chemical_formula_sum "Si O2"
_cell_formula_units_Z 16
_cell_length_a 9.157528
_cell_length_b 7.685002
_cell_length_c 14.330369
_cell_angle_alpha 113.486812
_cell_angle_beta 123.305604
_cell_angle_gamma 87.583012
_cell_volume 752.222302
_symmetry_space_group_name_H-M "P -1"
_symmetry_group_IT_number 2
_symmetry_cell_setting 'triclinic'
loop_
_space_group_symop_operation_xyz
x,y,z
-x,-y,-z
loop_
_atom_site_type_symbol
_atom_site_label
_atom_site_fract_x
_atom_site_fract_y
_atom_site_fract_z
Si Si1 0.599193 0.688260 0.130895
Si Si2 0.504038 0.445369 0.639704
Si Si3 0.690470 0.830672 0.004601
Si Si4 0.059918 0.775026 0.808289
Si Si5 0.652135 0.196959 0.790324
Si Si6 0.321862 0.207573 0.355592
Si Si7 0.684947 0.413887 0.240312
Si Si8 0.012737 0.224291 0.021920
O O1 0.723733 0.820013 0.125909
O O2 0.463093 0.801721 0.155757
O O3 0.712432 0.615970 0.236121
O O4 0.500000 0.500000 0.000000
O O5 0.614438 0.350325 0.733556
O O6 0.408534 0.278475 0.499922
O O7 0.635158 0.621702 0.669841
O O8 0.349558 0.535683 0.654115
O O9 0.771325 0.056900 0.061121
O O10 0.481519 0.757977 0.890592
O O11 0.799313 0.701650 0.952931
O O12 0.129012 0.650646 0.725203
O O13 0.894917 0.853673 0.724152
O O14 0.995960 0.658152 0.858599
O O15 0.601226 0.976919 0.686268
O O16 0.860631 0.254253 0.903311
O O17 0.000000 0.000000 0.000000
#
# Coordination Sequence:
#
# PCOD8041758 Si02
#       8
#     2   2   2   2   2   2   2   2
#     4   9  20  36  54  88 123 158 199 250 301 372
#     4  10  25  42  66  91 119 169 212 262 303 360
#     4  10  19  34  57  88 119 160 198 241 309 373
#     4  11  22  36  61  92 125 161 199 257 310 376
#     4  11  21  41  67  87 126 164 207 257 309 369
#     4  11  23  44  64  92 124 160 220 255 306 366
#     4  10  21  37  57  86 126 158 203 251 310 366
#     4  10  19  33  57  93 122 151 197 252 306 367
#
# _framework density 21.270306000000001
#
# number of rings (size 3 to 8) (size 9 to 14) (size 15 to 20)
#    0.000    1.750    2.500    3.000    3.500    1.500 
#    0.000    6.875    0.000    1.500    0.000    0.000 
#    0.000    0.000    0.000    0.000    0.000    0.000 
#
# Total GULP energy -198260.405013 kJ/mol
# GULP energy per Si atom -12391.275313 kJ/mol
# Density = 2.122189 g / cm^3
# Si number density = 21.270306 Si / 1000 Ang^3
#
#
#
# Elastic Constant Matrix: (Units=GPa)
#
#
# Indices 1 2 3 4 5 6 
#
# 1 157.7418 39.6808 39.2863 -2.7151 -25.7493 -16.7437
# 2 39.6808 59.4041 26.2087 -9.0408 -6.0103 -11.0528
# 3 39.2863 26.2087 62.8855 -0.2176 -20.7177 -8.2349
# 4 -2.7151 -9.0408 -0.2176 30.9620 -3.4190 -9.9622
# 5 -25.7493 -6.0103 -20.7177 -3.4190 27.7648 3.4466
# 6 -16.7437 -11.0528 -8.2349 -9.9622 3.4466 34.6650
#
#
#
# Elastic Compliance Matrix: (Units=1/GPa)
#
#
# Indices 1 2 3 4 5 6 
#
# 1 0.009043 -0.004122 -0.001599 0.001013 0.006134 0.002355
# 2 -0.004122 0.025604 -0.008617 0.008846 -0.004505 0.007116
# 3 -0.001599 -0.008617 0.025793 -0.000443 0.015730 0.000916
# 4 0.001013 0.008846 -0.000443 0.040159 0.005709 0.014178
# 5 0.006134 -0.004505 0.015730 0.005709 0.052967 0.001637
# 6 0.002355 0.007116 0.000916 0.014178 0.001637 0.036383
#
#
# Mechanical properties :
#
#
# Convention : Reuss Voigt Hill
#
# Bulk Modulus (GPa) = 31.48301 54.48700 42.98500
# Shear Modulus (GPa) = 21.81366 30.33538 26.07452
#
# Velocity S-wave (km/s) = 3.20589 3.78058 3.50503
# Velocity P-wave (km/s) = 5.34202 6.68799 6.05253
#
# Compressibility (1/GPa) = 0.03176317
#
# Stress axis : x y z
#
# Youngs Moduli (GPa) = 110.57780 39.05651 38.77066
#
# Poissons Ratio (x) = 0.16101 0.06199
# Poissons Ratio (y) = 0.45585 0.33409
# Poissons Ratio (z) = 0.17679 0.33656
#
# Static dielectric constant tensor:
#      x y z
#    x 4.737080 0.447220 -0.499830 
#    y 0.447220 4.188910 -0.180300 
#    z -0.499830 -0.180300 3.666320 
# 
# 
# High freq. dielectric constant tensor:
#      x y z
#    x 1.853410 0.000200 -0.025240 
#    y 0.000200 1.822080 -0.003560 
#    z -0.025240 -0.003560 1.803290 
# 
# From -- ./inp_files/169422.got.cif
#   From: 2010.06.25/outbox.cif.g09.slc.cpg/sg2_85_cif.got.tgz:169422.got - 2010.06.27 13:26:56.
