data_PCOD8041588
_publ_section_title
;
Structure prediction by ZEFSAII (Michael W. Deem and Ramdas Pophale) SiO2 
 PCOD8041588
Probable space group: P -1
;
_chemical_formula_sum "Si O2"
_cell_formula_units_Z 14
_cell_length_a 15.601843
_cell_length_b 11.894074
_cell_length_c 25.424454
_cell_angle_alpha 29.316320
_cell_angle_beta 161.418549
_cell_angle_gamma 143.343521
_cell_volume 727.168202
_symmetry_space_group_name_H-M "P -1"
_symmetry_group_IT_number 2
_symmetry_cell_setting 'triclinic'
loop_
_space_group_symop_operation_xyz
x,y,z
-x,-y,-z
loop_
_atom_site_type_symbol
_atom_site_label
_atom_site_fract_x
_atom_site_fract_y
_atom_site_fract_z
Si Si1 0.597127 0.169194 0.641615
Si Si2 0.584735 0.665706 0.823408
Si Si3 0.725080 0.673507 0.782811
Si Si4 0.848636 0.247066 0.291144
Si Si5 0.123519 0.526737 0.252126
Si Si6 0.678946 0.606163 0.137075
Si Si7 0.793044 0.177788 0.638744
O O1 0.346634 0.375841 0.407285
O O2 0.778620 0.234158 0.769475
O O3 0.785001 0.153600 0.706227
O O4 0.480014 0.926813 0.677366
O O5 0.591617 0.635477 0.777213
O O6 0.403733 0.493603 0.814620
O O7 0.890336 0.603177 0.044913
O O8 0.476486 0.648623 0.608423
O O9 0.803816 0.929671 0.718123
O O10 0.000000 0.500000 0.000000
O O11 0.772847 0.395153 0.238678
O O12 0.049241 0.375847 0.320151
O O13 0.575806 0.225492 0.107099
O O14 0.000000 0.000000 0.500000
O O15 0.922850 0.737686 0.242823
#
# Coordination Sequence:
#
# PCOD8041588 Si02
#       7
#     2   2   2   2   2   2   2
#     4  10  19  34  54  82 111 148 181 228 273 326
#     4  10  21  36  56  79 112 147 181 230 281 323
#     4  10  22  40  60  81 106 147 194 236 277 326
#     4  10  20  35  54  82 120 153 182 219 275 336
#     4  10  19  33  54  83 112 146 188 222 267 338
#     4  10  21  37  55  83 116 147 184 227 277 337
#     4  10  21  39  58  82 114 145 187 235 278 324
#
# _framework density 19.252766999999999
#
# number of rings (size 3 to 8) (size 9 to 14) (size 15 to 20)
#    0.000    2.000    1.429    2.143    0.000    1.714 
#   10.286    0.714    0.000    0.000    0.000    0.000 
#    0.000    0.000    0.000    0.000    0.000    0.000 
#
# Total GULP energy -173543.317692 kJ/mol
# GULP energy per Si atom -12395.951264 kJ/mol
# Density = 1.920895 g / cm^3
# Si number density = 19.252767 Si / 1000 Ang^3
#
#
#
# Elastic Constant Matrix: (Units=GPa)
#
#
# Indices 1 2 3 4 5 6 
#
# 1 64.7641 25.9745 27.5221 -2.3309 2.2071 -0.7904
# 2 25.9745 97.6936 49.8940 18.0604 2.2248 13.5756
# 3 27.5221 49.8940 107.1950 -0.2267 3.2847 -5.2169
# 4 -2.3309 18.0604 -0.2267 32.8436 1.3994 8.4850
# 5 2.2071 2.2248 3.2847 1.3994 29.8509 -3.8533
# 6 -0.7904 13.5756 -5.2169 8.4850 -3.8533 30.9062
#
#
#
# Elastic Compliance Matrix: (Units=1/GPa)
#
#
# Indices 1 2 3 4 5 6 
#
# 1 0.018456 -0.004282 -0.002672 0.003460 -0.000804 0.000852
# 2 -0.004282 0.017704 -0.007476 -0.008262 -0.000692 -0.006966
# 3 -0.002672 -0.007476 0.013739 0.002806 -0.000278 0.004730
# 4 0.003460 -0.008262 0.002806 0.036982 -0.002492 -0.006273
# 5 -0.000804 -0.000692 -0.000278 -0.002492 0.034431 0.005214
# 6 0.000852 -0.006966 0.004730 -0.006273 0.005214 0.038608
#
#
# Mechanical properties :
#
#
# Convention : Reuss Voigt Hill
#
# Bulk Modulus (GPa) = 47.53195 52.93711 50.23453
# Shear Modulus (GPa) = 25.53710 29.80428 27.67069
#
# Velocity S-wave (km/s) = 3.64595 3.93880 3.79520
# Velocity P-wave (km/s) = 6.51658 6.94558 6.73450
#
# Compressibility (1/GPa) = 0.02103848
#
# Stress axis : x y z
#
# Youngs Moduli (GPa) = 54.18333 56.48485 72.78422
#
# Poissons Ratio (x) = 0.24187 0.19448
# Poissons Ratio (y) = 0.23202 0.54415
# Poissons Ratio (z) = 0.14478 0.42229
#
# Static dielectric constant tensor:
#      x y z
#    x 3.480430 0.098330 0.008560 
#    y 0.098330 3.526670 -0.011110 
#    z 0.008560 -0.011110 3.645540 
# 
# 
# High freq. dielectric constant tensor:
#      x y z
#    x 1.750790 0.002460 0.002720 
#    y 0.002460 1.737790 0.002720 
#    z 0.002720 0.002720 1.757140 
# 
# From -- ./inp_files/74406.got.cif
#   From: 2010.06.25/outbox.cif.g09.slc.cpg/sg2_38_cif.got.tgz:74406.got - 2010.06.27 13:26:56.
