data_PCOD8041059
_publ_section_title
;
Structure prediction by ZEFSAII (Michael W. Deem and Ramdas Pophale) SiO2 
 PCOD8041059
Probable space group: P -1
;
_chemical_formula_sum "Si O2"
_cell_formula_units_Z 16
_cell_length_a 9.273878
_cell_length_b 19.204477
_cell_length_c 8.309135
_cell_angle_alpha 63.154020
_cell_angle_beta 81.613742
_cell_angle_gamma 38.615436
_cell_volume 764.965836
_symmetry_space_group_name_H-M "P -1"
_symmetry_group_IT_number 2
_symmetry_cell_setting 'triclinic'
loop_
_space_group_symop_operation_xyz
x,y,z
-x,-y,-z
loop_
_atom_site_type_symbol
_atom_site_label
_atom_site_fract_x
_atom_site_fract_y
_atom_site_fract_z
Si Si1 0.219192 0.559672 0.877409
Si Si2 0.595272 0.485028 0.670847
Si Si3 0.557889 0.650907 0.679502
Si Si4 0.908866 0.126302 0.270905
Si Si5 0.983165 0.763337 0.968868
Si Si6 0.550471 0.978664 0.322689
Si Si7 0.288482 0.944993 0.661488
Si Si8 0.258972 0.265581 0.397894
O O1 0.457440 0.498385 0.823537
O O2 0.061037 0.692939 0.859269
O O3 0.035611 0.606398 0.721960
O O4 0.298209 0.453854 0.087985
O O5 0.500000 0.500000 0.500000
O O6 0.551748 0.596485 0.582496
O O7 0.892565 0.338689 0.797101
O O8 0.279269 0.789522 0.635960
O O9 0.686404 0.676753 0.577763
O O10 0.892109 0.204989 0.069453
O O11 0.856074 0.069674 0.237805
O O12 0.179435 0.014112 0.429130
O O13 0.684528 0.900467 0.881050
O O14 0.734183 0.975366 0.284969
O O15 0.500000 0.000000 0.500000
O O16 0.676309 0.841355 0.397154
O O17 0.581215 0.801036 0.726007
#
# Coordination Sequence:
#
# PCOD8041059 Si02
#       8
#     2   2   2   2   2   2   2   2
#     4  11  18  33  54  77 105 132 170 215 259 306
#     4  11  24  38  52  70 101 143 182 216 251 299
#     4  10  20  32  52  81 103 133 173 212 255 303
#     4  10  15  27  47  81 110 129 160 206 252 304
#     4  11  17  33  54  79 103 134 169 211 256 304
#     4  10  16  28  48  83 115 127 154 207 267 308
#     4   9  17  24  44  83 118 128 150 201 265 306
#     4  10  18  28  50  83 112 129 156 212 268 306
#
# _framework density 20.915966000000001
#
# number of rings (size 3 to 8) (size 9 to 14) (size 15 to 20)
#    0.000    1.750    7.500    1.125    0.000    0.000 
#    0.000    0.625    0.000    1.500    0.000    0.000 
#    0.000    0.000    0.000    0.000    0.000    0.000 
#
# Total GULP energy -198233.755250 kJ/mol
# GULP energy per Si atom -12389.609703 kJ/mol
# Density = 2.086836 g / cm^3
# Si number density = 20.915966 Si / 1000 Ang^3
#
#
#
# Elastic Constant Matrix: (Units=GPa)
#
#
# Indices 1 2 3 4 5 6 
#
# 1 143.9095 40.1543 27.2625 -11.8746 10.4376 50.8227
# 2 40.1543 50.9802 33.6896 -13.9269 1.3429 27.7317
# 3 27.2625 33.6896 67.6075 -11.9247 19.7136 15.6857
# 4 -11.8746 -13.9269 -11.9247 23.0962 0.4048 1.7897
# 5 10.4376 1.3429 19.7136 0.4048 27.4554 -8.9338
# 6 50.8227 27.7317 15.6857 1.7897 -8.9338 41.6214
#
#
#
# Elastic Compliance Matrix: (Units=1/GPa)
#
#
# Indices 1 2 3 4 5 6 
#
# 1 0.024097 0.006578 0.012791 0.027220 -0.034423 -0.047187
# 2 0.006578 0.056259 -0.009268 0.036388 -0.014318 -0.046662
# 3 0.012791 -0.009268 0.039963 0.025139 -0.044939 -0.035231
# 4 0.027220 0.036388 0.025139 0.099747 -0.058949 -0.083898
# 5 -0.034423 -0.014318 -0.044939 -0.058949 0.114456 0.095610
# 6 -0.047187 -0.046662 -0.035231 -0.083898 0.095610 0.150142
#
#
# Mechanical properties :
#
#
# Convention : Reuss Voigt Hill
#
# Bulk Modulus (GPa) = 7.11635 51.63447 29.37541
# Shear Modulus (GPa) = 9.77892 29.19399 19.48646
#
# Velocity S-wave (km/s) = 2.16460 3.74006 3.05561
# Velocity P-wave (km/s) = 3.10758 6.58718 5.15015
#
# Compressibility (1/GPa) = 0.14052154
#
# Stress axis : x y z
#
# Youngs Moduli (GPa) = 41.49858 17.77485 25.02291
#
# Poissons Ratio (x) = -0.11692 -0.32007
# Poissons Ratio (y) = -0.27297 0.23192
# Poissons Ratio (z) = -0.53081 0.16474
#
# Static dielectric constant tensor:
#      x y z
#    x 4.327650 0.430720 0.116960 
#    y 0.430720 3.593650 -0.570020 
#    z 0.116960 -0.570020 3.352580 
# 
# 
# High freq. dielectric constant tensor:
#      x y z
#    x 1.840770 0.025830 0.020290 
#    y 0.025830 1.778870 -0.059510 
#    z 0.020290 -0.059510 1.776400 
# 
# From -- ./inp_files/189339.got.cif
#   From: 2010.06.25/outbox.cif.g09.slc.cpg/sg2_95_cif.got.tgz:189339.got - 2010.06.27 13:26:56.
