data_PCOD8041982
_publ_section_title
;
Structure prediction by ZEFSAII (Michael W. Deem and Ramdas Pophale) SiO2 
 PCOD8041982
Probable space group: P -1
;
_chemical_formula_sum "Si O2"
_cell_formula_units_Z 14
_cell_length_a 19.617856
_cell_length_b 8.195790
_cell_length_c 12.458718
_cell_angle_alpha 70.423919
_cell_angle_beta 149.429655
_cell_angle_gamma 128.767538
_cell_volume 681.091875
_symmetry_space_group_name_H-M "P -1"
_symmetry_group_IT_number 2
_symmetry_cell_setting 'triclinic'
loop_
_space_group_symop_operation_xyz
x,y,z
-x,-y,-z
loop_
_atom_site_type_symbol
_atom_site_label
_atom_site_fract_x
_atom_site_fract_y
_atom_site_fract_z
Si Si1 0.893927 0.306612 0.805122
Si Si2 0.863392 0.636600 0.053871
Si Si3 0.198797 0.488700 0.513837
Si Si4 0.220471 0.162233 0.247442
Si Si5 0.881166 0.333443 0.273448
Si Si6 0.772787 0.829880 0.507253
Si Si7 0.446753 0.131855 0.952311
O O1 0.761046 0.314950 0.555353
O O2 0.761654 0.023062 0.724891
O O3 0.000000 0.500000 0.000000
O O4 0.065516 0.398517 0.945840
O O5 0.712091 0.643705 0.800065
O O6 0.779185 0.414199 0.068454
O O7 0.038876 0.883446 0.298869
O O8 0.168171 0.292192 0.443885
O O9 0.013020 0.357225 0.361037
O O10 0.376933 0.624076 0.802014
O O11 0.312177 0.278996 0.463486
O O12 0.000000 0.000000 0.000000
O O13 0.000000 0.500000 0.500000
O O14 0.722244 0.051267 0.152348
O O15 0.610727 0.783189 0.234393
O O16 0.500000 0.000000 0.000000
#
# Coordination Sequence:
#
# PCOD8041982 Si02
#       7
#     2   2   2   2   2   2   2
#     4   9  15  29  55  83 109 145 188 225 278 331
#     4   9  17  32  53  80 113 144 186 232 274 333
#     4  11  22  35  58  86 113 149 186 237 279 332
#     4   8  15  28  51  80 109 143 185 231 272 333
#     4  11  21  39  57  83 112 152 190 227 282 335
#     4  10  19  34  55  85 115 145 190 229 283 333
#     4  12  22  38  59  80 115 151 189 231 281 335
#
# _framework density 20.555230999999999
#
# number of rings (size 3 to 8) (size 9 to 14) (size 15 to 20)
#    0.000    2.286    2.857    4.714    0.000    0.571 
#    0.000    0.000    0.000   11.143    0.000    0.000 
#    0.000    1.143    0.000    0.000    0.000    0.000 
#
# Total GULP energy -173473.112695 kJ/mol
# GULP energy per Si atom -12390.936621 kJ/mol
# Density = 2.050845 g / cm^3
# Si number density = 20.555231 Si / 1000 Ang^3
#
#
#
# Elastic Constant Matrix: (Units=GPa)
#
#
# Indices 1 2 3 4 5 6 
#
# 1 86.4969 51.2873 37.2089 -0.6737 -19.5814 -24.8265
# 2 51.2873 97.9417 47.7414 -33.5405 -11.0299 -5.0569
# 3 37.2089 47.7414 103.0892 -29.4310 -21.8884 3.2668
# 4 -0.6737 -33.5405 -29.4310 47.1052 1.2036 -6.0939
# 5 -19.5814 -11.0299 -21.8884 1.2036 30.7064 3.4186
# 6 -24.8265 -5.0569 3.2668 -6.0939 3.4186 37.9576
#
#
#
# Elastic Compliance Matrix: (Units=1/GPa)
#
#
# Indices 1 2 3 4 5 6 
#
# 1 0.028525 -0.014573 -0.005771 -0.011880 0.007681 0.014613
# 2 -0.014573 0.023313 -0.001630 0.014954 -0.002257 -0.003681
# 3 -0.005771 -0.001630 0.016766 0.008411 0.007890 -0.004795
# 4 -0.011880 0.014954 0.008411 0.036794 0.002440 -0.000814
# 5 0.007681 -0.002257 0.007890 0.002440 0.042111 0.000643
# 6 0.014613 -0.003681 -0.004795 -0.000814 0.000643 0.035637
#
#
# Mechanical properties :
#
#
# Convention : Reuss Voigt Hill
#
# Bulk Modulus (GPa) = 40.55596 62.22257 51.38926
# Shear Modulus (GPa) = 21.24843 33.23984 27.24414
#
# Velocity S-wave (km/s) = 3.21865 4.02568 3.64457
# Velocity P-wave (km/s) = 5.79534 7.20727 6.53952
#
# Compressibility (1/GPa) = 0.02465729
#
# Stress axis : x y z
#
# Youngs Moduli (GPa) = 35.05701 42.89543 59.64338
#
# Poissons Ratio (x) = 0.62512 0.34418
# Poissons Ratio (y) = 0.51089 0.09719
# Poissons Ratio (z) = 0.20230 0.06990
#
# Static dielectric constant tensor:
#      x y z
#    x 3.679490 -0.112460 -0.313240 
#    y -0.112460 5.183190 -0.573960 
#    z -0.313240 -0.573960 3.985230 
# 
# 
# High freq. dielectric constant tensor:
#      x y z
#    x 1.781500 -0.013710 -0.028820 
#    y -0.013710 1.810810 -0.033870 
#    z -0.028820 -0.033870 1.797750 
# 
# From -- ./inp_files/401314.got.cif
#   From: 2010.06.25/outbox.cif.g09.slc.cpg/sg2_201_cif.got.tgz:401314.got - 2010.06.27 13:26:56.
