data_PCOD8041709
_publ_section_title
;
Structure prediction by ZEFSAII (Michael W. Deem and Ramdas Pophale) SiO2 
 PCOD8041709
Probable space group: P -1
;
_chemical_formula_sum "Si O2"
_cell_formula_units_Z 16
_cell_length_a 5.069632
_cell_length_b 9.219684
_cell_length_c 17.738067
_cell_angle_alpha 98.802312
_cell_angle_beta 67.279853
_cell_angle_gamma 110.559424
_cell_volume 715.896194
_symmetry_space_group_name_H-M "P -1"
_symmetry_group_IT_number 2
_symmetry_cell_setting 'triclinic'
loop_
_space_group_symop_operation_xyz
x,y,z
-x,-y,-z
loop_
_atom_site_type_symbol
_atom_site_label
_atom_site_fract_x
_atom_site_fract_y
_atom_site_fract_z
Si Si1 0.690475 0.637014 0.041094
Si Si2 0.132313 0.749908 0.882040
Si Si3 0.141817 0.834929 0.450782
Si Si4 0.506116 0.062268 0.920466
Si Si5 0.410267 0.416117 0.178714
Si Si6 0.997947 0.143454 0.757490
Si Si7 0.691039 0.332420 0.703794
Si Si8 0.822628 0.011133 0.400868
O O1 0.570266 0.781060 0.059256
O O2 0.647634 0.568082 0.124407
O O3 0.500000 0.500000 0.000000
O O4 0.033151 0.689220 0.974460
O O5 0.389971 0.682619 0.818069
O O6 0.843304 0.697122 0.855529
O O7 0.263756 0.936028 0.884938
O O8 0.167185 0.678308 0.396036
O O9 0.470855 0.966370 0.414444
O O10 0.881533 0.882749 0.440599
O O11 0.076362 0.826879 0.548503
O O12 0.838968 0.089981 0.851029
O O13 0.500000 0.000000 0.000000
O O14 0.254137 0.486608 0.267850
O O15 0.840027 0.254174 0.743517
O O16 0.340501 0.241042 0.738206
O O17 0.981030 0.989974 0.696260
#
# Coordination Sequence:
#
# PCOD8041709 Si02
#       8
#     2   2   2   2   2   2   2   2
#     4  10  22  39  59  79 102 141 185 235 276 322
#     4  11  25  40  55  81 109 147 186 232 280 327
#     4   8  14  25  46  77 106 138 163 220 272 325
#     4  12  25  40  59  82 115 148 191 231 279 329
#     4  11  22  40  60  80 109 143 188 232 280 327
#     4  10  21  34  53  82 107 148 180 229 274 327
#     4  10  19  33  57  82 109 138 186 226 276 321
#     4   8  14  27  45  72 112 135 170 210 278 327
#
# _framework density 22.349609000000001
#
# number of rings (size 3 to 8) (size 9 to 14) (size 15 to 20)
#    0.000    2.000    1.250    3.000    3.500    2.000 
#    0.000    0.000    0.000    0.000    0.000    1.750 
#    0.000    0.000    0.000    0.375    0.000    0.000 
#
# Total GULP energy -198210.555479 kJ/mol
# GULP energy per Si atom -12388.159717 kJ/mol
# Density = 2.229874 g / cm^3
# Si number density = 22.349609 Si / 1000 Ang^3
#
#
#
# Elastic Constant Matrix: (Units=GPa)
#
#
# Indices 1 2 3 4 5 6 
#
# 1 104.3159 16.4716 16.9896 2.4836 -16.9905 2.4615
# 2 16.4716 93.4848 34.8100 28.8191 -10.4404 -0.4817
# 3 16.9896 34.8100 126.2868 43.1922 -12.8322 -12.4234
# 4 2.4836 28.8191 43.1922 32.0964 -4.1068 -3.4528
# 5 -16.9905 -10.4404 -12.8322 -4.1068 26.7488 3.8113
# 6 2.4615 -0.4817 -12.4234 -3.4528 3.8113 18.2583
#
#
#
# Elastic Compliance Matrix: (Units=1/GPa)
#
#
# Indices 1 2 3 4 5 6 
#
# 1 0.011258 -0.001692 -0.002056 0.003872 0.006613 -0.003609
# 2 -0.001692 0.015673 0.001399 -0.015589 0.003621 -0.002110
# 3 -0.002056 0.001399 0.016213 -0.021853 0.002716 0.006646
# 4 0.003872 -0.015589 -0.021853 0.073789 -0.002593 -0.001307
# 5 0.006613 0.003621 0.002716 -0.002593 0.045167 -0.008867
# 6 -0.003609 -0.002110 0.006646 -0.001307 -0.008867 0.061326
#
#
# Mechanical properties :
#
#
# Convention : Reuss Voigt Hill
#
# Bulk Modulus (GPa) = 26.00900 51.18110 38.59505
# Shear Modulus (GPa) = 20.75206 32.47512 26.61359
#
# Velocity S-wave (km/s) = 3.05047 3.81603 3.45452
# Velocity P-wave (km/s) = 4.90609 6.50892 5.76350
#
# Compressibility (1/GPa) = 0.03844823
#
# Stress axis : x y z
#
# Youngs Moduli (GPa) = 88.82271 63.80354 61.67786
#
# Poissons Ratio (x) = 0.10795 0.12679
# Poissons Ratio (y) = 0.15028 -0.08631
# Poissons Ratio (z) = 0.18259 -0.08929
#
# Static dielectric constant tensor:
#      x y z
#    x 3.892900 0.146410 -0.153360 
#    y 0.146410 3.885770 0.498710 
#    z -0.153360 0.498710 5.000540 
# 
# 
# High freq. dielectric constant tensor:
#      x y z
#    x 1.887120 0.009190 -0.014630 
#    y 0.009190 1.832210 0.055560 
#    z -0.014630 0.055560 1.887600 
# 
# From -- ./inp_files/45137.got.cif
#   From: 2010.06.25/outbox.cif.g09.slc.cpg/sg2_23_cif.got.tgz:45137.got - 2010.06.27 13:26:56.
