data_PCOD8041157
_publ_section_title
;
Structure prediction by ZEFSAII (Michael W. Deem and Ramdas Pophale) SiO2 
 PCOD8041157
Probable space group: P -1
;
_chemical_formula_sum "Si O2"
_cell_formula_units_Z 16
_cell_length_a 22.568324
_cell_length_b 6.609918
_cell_length_c 9.369991
_cell_angle_alpha 98.727893
_cell_angle_beta 136.193310
_cell_angle_gamma 96.075514
_cell_volume 907.763455
_symmetry_space_group_name_H-M "P -1"
_symmetry_group_IT_number 2
_symmetry_cell_setting 'triclinic'
loop_
_space_group_symop_operation_xyz
x,y,z
-x,-y,-z
loop_
_atom_site_type_symbol
_atom_site_label
_atom_site_fract_x
_atom_site_fract_y
_atom_site_fract_z
Si Si1 0.118549 0.528578 0.271159
Si Si2 0.821846 0.781694 0.836476
Si Si3 0.434489 0.718259 0.667011
Si Si4 0.045782 0.829363 0.008019
Si Si5 0.335855 0.335148 0.259288
Si Si6 0.399681 0.429951 0.069630
Si Si7 0.295108 0.475840 0.622124
Si Si8 0.465825 0.111246 0.580940
O O1 0.121070 0.383407 0.116443
O O2 0.101225 0.749464 0.219002
O O3 0.213868 0.578016 0.524899
O O4 0.034551 0.382730 0.207900
O O5 0.770333 0.728822 0.892467
O O6 0.744331 0.733485 0.571758
O O7 0.882280 0.035396 0.969960
O O8 0.390850 0.569882 0.439995
O O9 0.533950 0.705762 0.869060
O O10 0.375934 0.654034 0.701533
O O11 0.441153 0.960097 0.661219
O O12 0.000000 0.000000 0.000000
O O13 0.343491 0.334124 0.102801
O O14 0.376633 0.160849 0.380085
O O15 0.455486 0.678101 0.212696
O O16 0.327640 0.399907 0.815837
O O17 0.500000 0.000000 0.500000
#
# Coordination Sequence:
#
# PCOD8041157 Si02
#       8
#     2   2   2   2   2   2   2   2
#     4   8  17  31  50  77 100 122 153 203 243 290
#     4   8  18  31  49  77  95 125 157 203 242 288
#     4  10  19  35  49  67  98 134 175 209 235 280
#     4   9  15  31  54  77  97 122 157 195 245 295
#     4  10  19  31  52  69  96 130 174 209 232 286
#     4  11  20  34  47  69 103 136 167 203 248 284
#     4   9  20  33  47  75 105 126 159 210 248 285
#     4  11  19  32  50  67  89 139 180 205 238 276
#
# _framework density 17.625737000000001
#
# number of rings (size 3 to 8) (size 9 to 14) (size 15 to 20)
#    0.750    1.750    2.500    1.125    1.750    0.500 
#    2.250    0.000    0.000    0.750    0.000    4.375 
#    0.000    0.000    0.000    0.000    0.000    0.000 
#
# Total GULP energy -198223.956523 kJ/mol
# GULP energy per Si atom -12388.997283 kJ/mol
# Density = 1.758562 g / cm^3
# Si number density = 17.625737 Si / 1000 Ang^3
#
#
#
# Elastic Constant Matrix: (Units=GPa)
#
#
# Indices 1 2 3 4 5 6 
#
# 1 81.2940 43.3365 45.8888 -8.5866 17.3524 21.0405
# 2 43.3365 106.1555 28.1362 -20.4609 10.0283 9.6821
# 3 45.8888 28.1362 70.7142 -25.2612 4.1030 12.8922
# 4 -8.5866 -20.4609 -25.2612 20.9166 -2.8215 1.3319
# 5 17.3524 10.0283 4.1030 -2.8215 16.4266 3.4262
# 6 21.0405 9.6821 12.8922 1.3319 3.4262 25.8050
#
#
#
# Elastic Compliance Matrix: (Units=1/GPa)
#
#
# Indices 1 2 3 4 5 6 
#
# 1 0.042995 -0.012277 -0.033855 -0.039505 -0.034818 -0.006874
# 2 -0.012277 0.016136 0.010568 0.024441 0.005364 -0.003297
# 3 -0.033855 0.010568 0.058055 0.071399 0.029787 -0.013005
# 4 -0.039505 0.024441 0.071399 0.148736 0.039864 -0.025600
# 5 -0.034818 0.005364 0.029787 0.039864 0.094437 -0.003101
# 6 -0.006874 -0.003297 -0.013005 -0.025600 -0.003101 0.053825
#
#
# Mechanical properties :
#
#
# Convention : Reuss Voigt Hill
#
# Bulk Modulus (GPa) = 21.71242 54.76519 38.23880
# Shear Modulus (GPa) = 9.98674 22.01645 16.00159
#
# Velocity S-wave (km/s) = 2.38292 3.53811 3.01633
# Velocity P-wave (km/s) = 4.46278 6.91589 5.82005
#
# Compressibility (1/GPa) = 0.04605660
#
# Stress axis : x y z
#
# Youngs Moduli (GPa) = 23.25875 61.97334 17.22510
#
# Poissons Ratio (x) = 0.76085 0.58315
# Poissons Ratio (y) = 0.28555 -0.18203
# Poissons Ratio (z) = 0.78742 -0.65490
#
# Static dielectric constant tensor:
#      x y z
#    x 3.404410 0.158920 0.306300 
#    y 0.158920 3.478540 -0.032910 
#    z 0.306300 -0.032910 2.925390 
# 
# 
# High freq. dielectric constant tensor:
#      x y z
#    x 1.679430 0.010550 0.029120 
#    y 0.010550 1.686340 -0.010850 
#    z 0.029120 -0.010850 1.634200 
# 
# From -- ./inp_files/350535.got.cif
#   From: 2010.06.25/outbox.cif.g09.slc.cpg/sg2_176_cif.got.tgz:350535.got - 2010.06.27 13:26:56.
