data_PCOD8041008
_publ_section_title
;
Structure prediction by ZEFSAII (Michael W. Deem and Ramdas Pophale) SiO2 
 PCOD8041008
Probable space group: P -1
;
_chemical_formula_sum "Si O2"
_cell_formula_units_Z 16
_cell_length_a 13.813723
_cell_length_b 19.215630
_cell_length_c 11.689260
_cell_angle_alpha 150.314010
_cell_angle_beta 130.115376
_cell_angle_gamma 31.328718
_cell_volume 739.158585
_symmetry_space_group_name_H-M "P -1"
_symmetry_group_IT_number 2
_symmetry_cell_setting 'triclinic'
loop_
_space_group_symop_operation_xyz
x,y,z
-x,-y,-z
loop_
_atom_site_type_symbol
_atom_site_label
_atom_site_fract_x
_atom_site_fract_y
_atom_site_fract_z
Si Si1 0.765750 0.861446 0.453634
Si Si2 0.640914 0.653368 0.687571
Si Si3 0.996428 0.164449 0.773389
Si Si4 0.329272 0.241212 0.377726
Si Si5 0.684861 0.661353 0.251938
Si Si6 0.002678 0.834985 0.762653
Si Si7 0.233431 0.197098 0.877436
Si Si8 0.806417 0.933367 0.992630
O O1 0.781761 0.710065 0.329697
O O2 0.894124 0.875185 0.623798
O O3 0.859427 0.730526 0.217154
O O4 0.550480 0.124278 0.647666
O O5 0.598989 0.733105 0.639175
O O6 0.762042 0.404978 0.413098
O O7 0.426689 0.812624 0.813988
O O8 0.800735 0.625160 0.829047
O O9 0.169903 0.111760 0.774896
O O10 0.048578 0.111311 0.872244
O O11 0.000000 0.000000 0.500000
O O12 0.784366 0.425872 0.952791
O O13 0.245058 0.400273 0.648844
O O14 0.527098 0.000371 0.238211
O O15 0.182201 0.243897 0.227199
O O16 0.892075 0.872372 0.843687
O O17 0.000000 0.000000 0.000000
#
# Coordination Sequence:
#
# PCOD8041008 Si02
#       8
#     2   2   2   2   2   2   2   2
#     4  10  23  44  62  92 127 166 220 262 311 381
#     4  11  22  42  73  95 123 166 215 281 320 360
#     4  12  25  39  61  97 130 169 208 259 333 388
#     4  10  18  41  71  95 116 155 220 279 316 358
#     4  10  22  40  68  91 123 169 213 267 316 373
#     4  12  28  43  62  95 132 176 215 252 321 398
#     4  10  21  40  65  94 124 157 215 268 315 379
#     4  11  23  44  68  96 127 161 219 272 319 379
#
# _framework density 21.646232999999999
#
# number of rings (size 3 to 8) (size 9 to 14) (size 15 to 20)
#    0.000    1.250    3.750    2.250    3.500    4.500 
#    0.000    1.250    0.000    0.000    0.000    0.000 
#    0.000    0.000    0.000    0.000    0.000    0.000 
#
# Total GULP energy -198224.224771 kJ/mol
# GULP energy per Si atom -12389.014048 kJ/mol
# Density = 2.159697 g / cm^3
# Si number density = 21.646233 Si / 1000 Ang^3
#
#
#
# Elastic Constant Matrix: (Units=GPa)
#
#
# Indices 1 2 3 4 5 6 
#
# 1 28.5601 11.6219 25.5477 3.4679 -3.1616 -1.6293
# 2 11.6219 85.2621 55.1777 -7.0042 -1.6992 5.5882
# 3 25.5477 55.1777 143.2925 12.5232 19.6260 6.7779
# 4 3.4679 -7.0042 12.5232 42.0215 4.6815 -10.7491
# 5 -3.1616 -1.6992 19.6260 4.6815 39.0786 -10.6907
# 6 -1.6293 5.5882 6.7779 -10.7491 -10.6907 18.4843
#
#
#
# Elastic Compliance Matrix: (Units=1/GPa)
#
#
# Indices 1 2 3 4 5 6 
#
# 1 0.047665 0.000410 -0.011739 0.002709 0.014457 0.018318
# 2 0.000410 0.017251 -0.008154 0.005765 0.005353 0.004259
# 3 -0.011739 -0.008154 0.015324 -0.007615 -0.012409 -0.015793
# 4 0.002709 0.005765 -0.007615 0.032176 0.007022 0.024061
# 5 0.014457 0.005353 -0.012409 0.007022 0.041163 0.032097
# 6 0.018318 0.004259 -0.015793 0.024061 0.032097 0.092774
#
#
# Mechanical properties :
#
#
# Convention : Reuss Voigt Hill
#
# Bulk Modulus (GPa) = 24.22952 49.08994 36.65973
# Shear Modulus (GPa) = 16.71809 30.90137 23.80973
#
# Velocity S-wave (km/s) = 2.78210 3.78241 3.32014
# Velocity P-wave (km/s) = 4.64089 6.46553 5.62765
#
# Compressibility (1/GPa) = 0.04127196
#
# Stress axis : x y z
#
# Youngs Moduli (GPa) = 20.97996 57.96799 65.25783
#
# Poissons Ratio (x) = -0.02377 0.76608
# Poissons Ratio (y) = -0.00860 0.53214
# Poissons Ratio (z) = 0.24629 0.47270
#
# Static dielectric constant tensor:
#      x y z
#    x 3.187250 -0.003700 -0.150320 
#    y -0.003700 3.971700 -0.050500 
#    z -0.150320 -0.050500 4.137240 
# 
# 
# High freq. dielectric constant tensor:
#      x y z
#    x 1.824870 0.006580 -0.023240 
#    y 0.006580 1.859880 0.003250 
#    z -0.023240 0.003250 1.859860 
# 
# From -- ./inp_files/425547.got.cif
#   From: 2010.06.25/outbox.cif.g09.slc.cpg/sg2_213_cif.got.tgz:425547.got - 2010.06.27 13:26:56.
