data_PCOD8041474
_publ_section_title
;
Structure prediction by ZEFSAII (Michael W. Deem and Ramdas Pophale) SiO2 
 PCOD8041474
Probable space group: P -1
;
_chemical_formula_sum "Si O2"
_cell_formula_units_Z 16
_cell_length_a 11.756804
_cell_length_b 11.710323
_cell_length_c 10.894606
_cell_angle_alpha 80.848870
_cell_angle_beta 129.134947
_cell_angle_gamma 58.418242
_cell_volume 665.639315
_symmetry_space_group_name_H-M "P -1"
_symmetry_group_IT_number 2
_symmetry_cell_setting 'triclinic'
loop_
_space_group_symop_operation_xyz
x,y,z
-x,-y,-z
loop_
_atom_site_type_symbol
_atom_site_label
_atom_site_fract_x
_atom_site_fract_y
_atom_site_fract_z
Si Si1 0.228495 0.101863 0.898457
Si Si2 0.547781 0.627315 0.736585
Si Si3 0.295627 0.219185 0.209157
Si Si4 0.921823 0.161413 0.492794
Si Si5 0.670636 0.796853 0.482551
Si Si6 0.718357 0.697342 0.227454
Si Si7 0.180441 0.575100 0.798498
Si Si8 0.819729 0.463924 0.715148
O O1 0.288775 0.195281 0.893426
O O2 0.154450 0.077734 0.730075
O O3 0.978722 0.261777 0.787893
O O4 0.505833 0.861619 0.164197
O O5 0.535768 0.774988 0.701054
O O6 0.272464 0.751602 0.548524
O O7 0.636860 0.522207 0.681462
O O8 0.734816 0.460173 0.998123
O O9 0.283786 0.193564 0.347246
O O10 0.404936 0.037775 0.233410
O O11 0.012811 0.421633 0.931404
O O12 0.789640 0.327093 0.273507
O O13 0.000000 0.000000 0.500000
O O14 0.671353 0.654104 0.496414
O O15 0.895110 0.708631 0.570979
O O16 0.636009 0.636014 0.107538
O O17 0.000000 0.500000 0.500000
#
# Coordination Sequence:
#
# PCOD8041474 Si02
#       8
#     2   2   2   2   2   2   2   2
#     4  11  25  42  66 101 132 173 218 269 336 391
#     4  11  22  41  64  97 134 181 219 269 330 390
#     4  10  19  36  62  99 132 164 217 274 324 392
#     4  12  27  44  65  93 134 182 226 268 320 404
#     4  10  19  32  64  99 126 165 208 271 339 372
#     4  11  23  42  70 101 132 167 215 283 332 383
#     4  12  21  41  69  95 128 169 225 273 331 385
#     4  11  21  40  66  96 139 162 218 282 331 388
#
# _framework density 24.037044000000002
#
# number of rings (size 3 to 8) (size 9 to 14) (size 15 to 20)
#    0.000    1.000    5.000    2.625    1.750    1.500 
#    0.000    0.000    0.000    1.500    0.000    0.000 
#    0.000    0.000    0.000    0.000    0.000    0.000 
#
# Total GULP energy -198329.805464 kJ/mol
# GULP energy per Si atom -12395.612841 kJ/mol
# Density = 2.398233 g / cm^3
# Si number density = 24.037044 Si / 1000 Ang^3
#
#
#
# Elastic Constant Matrix: (Units=GPa)
#
#
# Indices 1 2 3 4 5 6 
#
# 1 135.4673 52.5994 19.6790 -24.4867 -0.9022 -8.5442
# 2 52.5994 147.0985 24.5849 -29.7406 -1.8107 -15.6051
# 3 19.6790 24.5849 74.1550 -34.9490 -5.0852 5.0841
# 4 -24.4867 -29.7406 -34.9490 33.7261 3.1157 7.7988
# 5 -0.9022 -1.8107 -5.0852 3.1157 27.9412 -5.8407
# 6 -8.5442 -15.6051 5.0841 7.7988 -5.8407 39.5275
#
#
#
# Elastic Compliance Matrix: (Units=1/GPa)
#
#
# Indices 1 2 3 4 5 6 
#
# 1 0.009155 -0.002310 0.001071 0.005817 -0.000365 -0.000272
# 2 -0.002310 0.009019 0.000534 0.006396 0.000264 0.001770
# 3 0.001071 0.000534 0.030199 0.035001 -0.000516 -0.010424
# 4 0.005817 0.006396 0.035001 0.080326 -0.005622 -0.017399
# 5 -0.000365 0.000264 -0.000516 -0.005622 0.037745 0.006778
# 6 -0.000272 0.001770 -0.010424 -0.017399 0.006778 0.031714
#
#
# Mechanical properties :
#
#
# Convention : Reuss Voigt Hill
#
# Bulk Modulus (GPa) = 21.29304 61.16082 41.22693
# Shear Modulus (GPa) = 23.23196 37.56281 30.39738
#
# Velocity S-wave (km/s) = 3.11224 3.95740 3.55999
# Velocity P-wave (km/s) = 4.66823 6.81036 5.83838
#
# Compressibility (1/GPa) = 0.04696369
#
# Stress axis : x y z
#
# Youngs Moduli (GPa) = 109.23015 110.87665 33.11389
#
# Poissons Ratio (x) = 0.25613 -0.03548
# Poissons Ratio (y) = 0.25233 -0.01768
# Poissons Ratio (z) = -0.11704 -0.05921
#
# Static dielectric constant tensor:
#      x y z
#    x 4.335110 -0.415160 -0.137540 
#    y -0.415160 5.147620 -0.257290 
#    z -0.137540 -0.257290 4.430100 
# 
# 
# High freq. dielectric constant tensor:
#      x y z
#    x 1.938970 -0.030920 -0.018570 
#    y -0.030920 1.974360 -0.013990 
#    z -0.018570 -0.013990 1.954610 
# 
# From -- ./inp_files/428230.got.cif
#   From: 2010.06.25/outbox.cif.g09.slc.cpg/sg2_215_cif.got.tgz:428230.got - 2010.06.27 13:26:56.
