data_PCOD8041652
_publ_section_title
;
Structure prediction by ZEFSAII (Michael W. Deem and Ramdas Pophale) SiO2 
 PCOD8041652
Probable space group: P -1
;
_chemical_formula_sum "Si O2"
_cell_formula_units_Z 16
_cell_length_a 13.543339
_cell_length_b 24.267292
_cell_length_c 15.879642
_cell_angle_alpha 155.603469
_cell_angle_beta 22.569563
_cell_angle_gamma 146.237229
_cell_volume 825.847279
_symmetry_space_group_name_H-M "P -1"
_symmetry_group_IT_number 2
_symmetry_cell_setting 'triclinic'
loop_
_space_group_symop_operation_xyz
x,y,z
-x,-y,-z
loop_
_atom_site_type_symbol
_atom_site_label
_atom_site_fract_x
_atom_site_fract_y
_atom_site_fract_z
Si Si1 0.071050 0.101568 0.749452
Si Si2 0.285309 0.709264 0.803784
Si Si3 0.639318 0.463940 0.158170
Si Si4 0.886932 0.934410 0.141088
Si Si5 0.403718 0.040714 0.877818
Si Si6 0.756242 0.857480 0.677308
Si Si7 0.106789 0.628174 0.010631
Si Si8 0.515516 0.178845 0.812676
O O1 0.106202 0.127558 0.857009
O O2 0.346472 0.054903 0.427017
O O3 0.862469 0.992037 0.743152
O O4 0.967208 0.238390 0.976453
O O5 0.391693 0.567372 0.484848
O O6 0.501836 0.817440 0.772921
O O7 0.220534 0.697607 0.936864
O O8 0.898462 0.523852 0.000717
O O9 0.590536 0.331138 0.959487
O O10 0.670144 0.443503 0.206795
O O11 0.747411 0.834242 0.050559
O O12 0.740462 0.081360 0.460246
O O13 0.176075 0.948350 0.897998
O O14 0.476243 0.142617 0.890408
O O15 0.300630 0.127323 0.158090
O O16 0.977026 0.739911 0.330660
#
# Coordination Sequence:
#
# PCOD8041652 Si02
#       8
#     2   2   2   2   2   2   2   2
#     4  10  21  35  52  79 109 140 177 217 261 311
#     4  11  22  35  52  75 109 148 179 209 256 315
#     4  10  21  35  53  77 107 140 175 216 260 313
#     4   9  20  36  58  83 106 130 171 227 270 310
#     4  10  19  33  56  82 108 136 169 219 271 313
#     4  10  20  34  55  81 108 137 174 222 264 308
#     4  10  21  36  53  80 108 139 177 215 262 314
#     4  10  19  36  59  83 105 134 174 218 271 316
#
# _framework density 19.374041999999999
#
# number of rings (size 3 to 8) (size 9 to 14) (size 15 to 20)
#    0.000    2.000    0.000    4.875    0.000    9.000 
#    0.000    0.625    0.000    1.500    0.000    0.000 
#    0.000    0.000    0.000    0.000    0.000    0.000 
#
# Total GULP energy -198423.447722 kJ/mol
# GULP energy per Si atom -12401.465483 kJ/mol
# Density = 1.932995 g / cm^3
# Si number density = 19.374042 Si / 1000 Ang^3
#
#
#
# Elastic Constant Matrix: (Units=GPa)
#
#
# Indices 1 2 3 4 5 6 
#
# 1 49.9444 27.3593 41.1969 10.6258 -17.1755 13.2600
# 2 27.3593 89.3860 53.0218 2.7356 -3.6050 13.8855
# 3 41.1969 53.0218 94.8718 4.8010 -12.1181 12.8546
# 4 10.6258 2.7356 4.8010 29.1857 -0.4269 4.5093
# 5 -17.1755 -3.6050 -12.1181 -0.4269 27.4493 3.6634
# 6 13.2600 13.8855 12.8546 4.5093 3.6634 25.0771
#
#
#
# Elastic Compliance Matrix: (Units=1/GPa)
#
#
# Indices 1 2 3 4 5 6 
#
# 1 0.049729 -0.002832 -0.013224 -0.012213 0.027352 -0.019748
# 2 -0.002832 0.017497 -0.008459 0.001315 -0.002695 -0.003698
# 3 -0.013224 -0.008459 0.020776 0.002079 -0.000273 0.000692
# 4 -0.012213 0.001315 0.002079 0.038376 -0.005769 -0.001393
# 5 0.027352 -0.002695 -0.000273 -0.005769 0.055640 -0.019922
# 6 -0.019748 -0.003698 0.000692 -0.001393 -0.019922 0.055173
#
#
# Mechanical properties :
#
#
# Convention : Reuss Voigt Hill
#
# Bulk Modulus (GPa) = 25.65875 53.03981 39.34928
# Shear Modulus (GPa) = 16.71056 23.85070 20.28063
#
# Velocity S-wave (km/s) = 2.94006 3.51246 3.23893
# Velocity P-wave (km/s) = 4.97975 6.62465 5.86020
#
# Compressibility (1/GPa) = 0.03897306
#
# Stress axis : x y z
#
# Youngs Moduli (GPa) = 20.10893 57.15139 48.13173
#
# Poissons Ratio (x) = 0.16188 0.63648
# Poissons Ratio (y) = 0.05696 0.40713
# Poissons Ratio (z) = 0.26592 0.48343
#
# Static dielectric constant tensor:
#      x y z
#    x 3.295290 0.153700 -0.110300 
#    y 0.153700 3.652260 -0.177550 
#    z -0.110300 -0.177550 3.527280 
# 
# 
# High freq. dielectric constant tensor:
#      x y z
#    x 1.733310 0.005090 -0.006840 
#    y 0.005090 1.751650 -0.015240 
#    z -0.006840 -0.015240 1.750900 
# 
# From -- ./inp_files/75858.got.cif
#   From: 2010.06.25/outbox.cif.g09.slc.cpg/sg2_38_cif.got.tgz:75858.got - 2010.06.27 13:26:56.
