data_PCOD8041807
_publ_section_title
;
Structure prediction by ZEFSAII (Michael W. Deem and Ramdas Pophale) SiO2 
 PCOD8041807
Probable space group: P -1
;
_chemical_formula_sum "Si O2"
_cell_formula_units_Z 16
_cell_length_a 18.981432
_cell_length_b 8.546130
_cell_length_c 11.339662
_cell_angle_alpha 117.606585
_cell_angle_beta 123.163591
_cell_angle_gamma 31.227985
_cell_volume 798.293509
_symmetry_space_group_name_H-M "P -1"
_symmetry_group_IT_number 2
_symmetry_cell_setting 'triclinic'
loop_
_space_group_symop_operation_xyz
x,y,z
-x,-y,-z
loop_
_atom_site_type_symbol
_atom_site_label
_atom_site_fract_x
_atom_site_fract_y
_atom_site_fract_z
Si Si1 0.887337 0.945715 0.237102
Si Si2 0.594788 0.889929 0.188496
Si Si3 0.296818 0.467687 0.621414
Si Si4 0.286491 0.094546 0.898682
Si Si5 0.210668 0.441826 0.300592
Si Si6 0.699565 0.357170 0.986159
Si Si7 0.419224 0.804972 0.159803
Si Si8 0.260950 0.487924 0.124738
O O1 0.829870 0.861403 0.210142
O O2 0.057665 0.639827 0.277143
O O3 0.849393 0.172016 0.368748
O O4 0.818452 0.100360 0.100138
O O5 0.694147 0.701065 0.330015
O O6 0.640752 0.983672 0.188407
O O7 0.433552 0.177958 0.189033
O O8 0.608396 0.689465 0.050467
O O9 0.302733 0.373218 0.465183
O O10 0.424983 0.390192 0.730364
O O11 0.202402 0.410977 0.979490
O O12 0.404707 0.832865 0.013635
O O13 0.194181 0.612483 0.238616
O O14 0.293177 0.131224 0.219107
O O15 0.592258 0.377128 0.870329
O O16 0.779767 0.270367 0.905593
#
# Coordination Sequence:
#
# PCOD8041807 Si02
#       8
#     2   2   2   2   2   2   2   2
#     4  10  23  36  61  81 112 149 181 233 268 337
#     4  10  19  33  59  90 111 138 179 240 279 321
#     4  11  22  37  59  81 106 156 193 222 261 329
#     4   9  18  34  57  88 111 133 183 227 294 312
#     4  11  23  42  51  79 119 155 186 211 281 333
#     4   9  20  35  57  91 111 135 187 228 291 320
#     4  10  21  34  62  84 112 141 183 242 270 323
#     4  10  20  33  60  84 117 141 170 243 281 326
#
# _framework density 20.042753999999999
#
# number of rings (size 3 to 8) (size 9 to 14) (size 15 to 20)
#    0.000    2.000    2.500    2.250    5.250    6.500 
#    0.000    5.000    0.000    0.000    0.000    0.000 
#    0.000    0.000    0.000    0.000    0.000    0.000 
#
# Total GULP energy -198364.247886 kJ/mol
# GULP energy per Si atom -12397.765493 kJ/mol
# Density = 1.999714 g / cm^3
# Si number density = 20.042754 Si / 1000 Ang^3
#
#
#
# Elastic Constant Matrix: (Units=GPa)
#
#
# Indices 1 2 3 4 5 6 
#
# 1 134.1005 19.3454 34.5151 1.8974 -0.5685 17.6889
# 2 19.3454 56.0582 2.6601 6.7837 3.7682 -8.5040
# 3 34.5151 2.6601 69.9455 1.6008 -5.4133 5.5897
# 4 1.8974 6.7837 1.6008 17.5473 -7.3731 -0.0990
# 5 -0.5685 3.7682 -5.4133 -7.3731 19.5616 -3.5889
# 6 17.6889 -8.5040 5.5897 -0.0990 -3.5889 31.6635
#
#
#
# Elastic Compliance Matrix: (Units=1/GPa)
#
#
# Indices 1 2 3 4 5 6 
#
# 1 0.009960 -0.004124 -0.004369 0.000434 -0.001066 -0.006020
# 2 -0.004124 0.022192 0.000303 -0.011125 -0.007153 0.007365
# 3 -0.004369 0.000303 0.016785 0.000839 0.004795 0.000105
# 4 0.000434 -0.011125 0.000839 0.073896 0.030293 0.000286
# 5 -0.001066 -0.007153 0.004795 0.030293 0.066208 0.005427
# 6 -0.006020 0.007365 0.000105 0.000286 0.005427 0.037521
#
#
# Mechanical properties :
#
#
# Convention : Reuss Voigt Hill
#
# Bulk Modulus (GPa) = 30.71544 41.46060 36.08802
# Shear Modulus (GPa) = 19.70108 27.32671 23.51390
#
# Velocity S-wave (km/s) = 3.13861 3.69646 3.42890
# Velocity P-wave (km/s) = 5.33786 6.24095 5.80698
#
# Compressibility (1/GPa) = 0.03255692
#
# Stress axis : x y z
#
# Youngs Moduli (GPa) = 100.40148 45.06213 59.57745
#
# Poissons Ratio (x) = 0.18583 0.26032
# Poissons Ratio (y) = 0.41404 -0.01808
# Poissons Ratio (z) = 0.43869 -0.01367
#
# Static dielectric constant tensor:
#      x y z
#    x 4.090560 0.175680 -0.170650 
#    y 0.175680 3.380300 0.084120 
#    z -0.170650 0.084120 3.492300 
# 
# 
# High freq. dielectric constant tensor:
#      x y z
#    x 1.798260 0.003290 -0.009300 
#    y 0.003290 1.763060 0.002600 
#    z -0.009300 0.002600 1.750930 
# 
# From -- ./inp_files/305509.got.cif
#   From: 2010.06.25/outbox.cif.g09.slc.cpg/sg2_153_cif.got.tgz:305509.got - 2010.06.27 13:26:56.
