data_PCOD8041601
_publ_section_title
;
Structure prediction by ZEFSAII (Michael W. Deem and Ramdas Pophale) SiO2 
 PCOD8041601
Probable space group: P -1
;
_chemical_formula_sum "Si O2"
_cell_formula_units_Z 16
_cell_length_a 12.777408
_cell_length_b 14.850082
_cell_length_c 12.437131
_cell_angle_alpha 41.009621
_cell_angle_beta 60.995423
_cell_angle_gamma 31.838041
_cell_volume 728.999316
_symmetry_space_group_name_H-M "P -1"
_symmetry_group_IT_number 2
_symmetry_cell_setting 'triclinic'
loop_
_space_group_symop_operation_xyz
x,y,z
-x,-y,-z
loop_
_atom_site_type_symbol
_atom_site_label
_atom_site_fract_x
_atom_site_fract_y
_atom_site_fract_z
Si Si1 0.309275 0.173738 0.733840
Si Si2 0.509837 0.704238 0.485427
Si Si3 0.819102 0.198281 0.502754
Si Si4 0.815022 0.665675 0.590880
Si Si5 0.466650 0.729996 0.107350
Si Si6 0.582969 0.119022 0.402504
Si Si7 0.119029 0.863865 0.229353
Si Si8 0.644299 0.264588 0.066993
O O1 0.443348 0.185955 0.678349
O O2 0.254403 0.204560 0.607966
O O3 0.078415 0.395905 0.714587
O O4 0.458201 0.903406 0.947226
O O5 0.345293 0.775209 0.427953
O O6 0.382589 0.831103 0.549456
O O7 0.741008 0.398336 0.653313
O O8 0.680172 0.471822 0.300128
O O9 0.930231 0.112792 0.640342
O O10 0.000000 0.000000 0.500000
O O11 0.684955 0.646437 0.682888
O O12 0.721794 0.842886 0.579344
O O13 0.241253 0.891115 0.128530
O O14 0.488200 0.639306 0.061510
O O15 0.685034 0.090302 0.273098
O O16 0.885467 0.095881 0.073263
O O17 0.500000 0.500000 0.000000
#
# Coordination Sequence:
#
# PCOD8041601 Si02
#       8
#     2   2   2   2   2   2   2   2
#     4  10  20  36  60  93 128 163 208 255 316 368
#     4  10  21  38  66  89 118 173 214 246 307 389
#     4  11  24  48  66  86 123 174 209 257 319 378
#     4   9  19  34  55  83 136 173 185 245 328 385
#     4  11  23  39  64  97 125 160 213 265 305 369
#     4  10  19  33  54  89 127 163 203 240 315 373
#     4  11  24  43  64  86 127 172 212 248 319 380
#     4  12  23  35  60  98 126 156 208 269 306 359
#
# _framework density 21.947896
#
# number of rings (size 3 to 8) (size 9 to 14) (size 15 to 20)
#    0.000    1.500    1.250    5.625    5.250    0.000 
#    0.000    3.125    0.000    0.000    0.000    0.000 
#    0.000    0.000    0.000    0.000    0.000    0.000 
#
# Total GULP energy -198340.113371 kJ/mol
# GULP energy per Si atom -12396.257086 kJ/mol
# Density = 2.189794 g / cm^3
# Si number density = 21.947896 Si / 1000 Ang^3
#
#
#
# Elastic Constant Matrix: (Units=GPa)
#
#
# Indices 1 2 3 4 5 6 
#
# 1 58.1342 9.4472 26.3262 -11.6651 -15.0230 0.8734
# 2 9.4472 94.7857 1.6084 -10.9511 -8.3816 1.2279
# 3 26.3262 1.6084 71.0856 -6.9245 -27.1369 -3.4769
# 4 -11.6651 -10.9511 -6.9245 32.7271 3.4509 0.4647
# 5 -15.0230 -8.3816 -27.1369 3.4509 28.4466 3.0685
# 6 0.8734 1.2279 -3.4769 0.4647 3.0685 41.6724
#
#
#
# Elastic Compliance Matrix: (Units=1/GPa)
#
#
# Indices 1 2 3 4 5 6 
#
# 1 0.022609 -0.000948 -0.005672 0.005963 0.005678 -0.001404
# 2 -0.000948 0.011416 0.002137 0.003463 0.004537 -0.000511
# 3 -0.005672 0.002137 0.024070 0.001634 0.020339 0.000548
# 4 0.005963 0.003463 0.001634 0.034018 0.001665 -0.000593
# 5 0.005678 0.004537 0.020339 0.001665 0.059004 -0.002919
# 6 -0.001404 -0.000511 0.000548 -0.000593 -0.002919 0.024308
#
#
# Mechanical properties :
#
#
# Convention : Reuss Voigt Hill
#
# Bulk Modulus (GPa) = 20.35434 33.19654 26.77544
# Shear Modulus (GPa) = 24.90430 33.01081 28.95756
#
# Velocity S-wave (km/s) = 3.37219 3.88242 3.63626
# Velocity P-wave (km/s) = 4.94533 5.93764 5.46406
#
# Compressibility (1/GPa) = 0.04912957
#
# Stress axis : x y z
#
# Youngs Moduli (GPa) = 44.23015 87.59443 41.54547
#
# Poissons Ratio (x) = 0.08304 0.23564
# Poissons Ratio (y) = 0.04193 -0.08878
# Poissons Ratio (z) = 0.25087 -0.18719
#
# Static dielectric constant tensor:
#      x y z
#    x 3.197130 0.282050 0.408090 
#    y 0.282050 3.900770 -0.205010 
#    z 0.408090 -0.205010 3.182250 
# 
# 
# High freq. dielectric constant tensor:
#      x y z
#    x 1.852220 0.001280 -0.019830 
#    y 0.001280 1.883560 0.001980 
#    z -0.019830 0.001980 1.834700 
# 
# From -- ./inp_files/455476.got.cif
#   From: 2010.06.25/outbox.cif.g09.slc.cpg/sg2_228_cif.got.tgz:455476.got - 2010.06.27 13:26:56.
