data_PCOD8041174
_publ_section_title
;
Structure prediction by ZEFSAII (Michael W. Deem and Ramdas Pophale) SiO2 
 PCOD8041174
Probable space group: P -1
;
_chemical_formula_sum "Si O2"
_cell_formula_units_Z 14
_cell_length_a 13.839498
_cell_length_b 8.840908
_cell_length_c 5.379542
_cell_angle_alpha 82.951055
_cell_angle_beta 106.241989
_cell_angle_gamma 119.549090
_cell_volume 549.652133
_symmetry_space_group_name_H-M "P -1"
_symmetry_group_IT_number 2
_symmetry_cell_setting 'triclinic'
loop_
_space_group_symop_operation_xyz
x,y,z
-x,-y,-z
loop_
_atom_site_type_symbol
_atom_site_label
_atom_site_fract_x
_atom_site_fract_y
_atom_site_fract_z
Si Si1 0.338999 0.243065 0.519590
Si Si2 0.417003 0.631292 0.590911
Si Si3 0.158802 0.540146 0.483138
Si Si4 0.722669 0.906350 0.000340
Si Si5 0.117883 0.171298 0.583059
Si Si6 0.548266 0.200467 0.925718
Si Si7 0.193414 0.701231 0.979267
O O1 0.411220 0.447628 0.579952
O O2 0.203197 0.188179 0.415736
O O3 0.355283 0.137203 0.790613
O O4 0.361044 0.186204 0.274909
O O5 0.295138 0.623681 0.529037
O O6 0.479993 0.709458 0.881732
O O7 0.493341 0.754345 0.382563
O O8 0.095939 0.335510 0.538899
O O9 0.129656 0.629050 0.680751
O O10 0.117829 0.577996 0.179866
O O11 0.793346 0.112408 0.981519
O O12 0.814026 0.834228 0.117307
O O13 0.000000 0.000000 0.500000
O O14 0.684246 0.292138 0.956069
O O15 0.500000 0.000000 0.000000
#
# Coordination Sequence:
#
# PCOD8041174 Si02
#       7
#     2   2   2   2   2   2   2
#     4   9  19  33  56  76 100 141 178 210 256 308
#     4   9  17  31  52  77 100 134 181 212 242 315
#     4   9  19  33  55  76 101 140 179 210 255 314
#     4  10  20  34  56  76 107 137 180 212 262 309
#     4   9  21  36  56  81 105 135 179 222 259 307
#     4  10  19  31  53  79 107 134 171 220 262 300
#     4  10  20  36  54  79 104 139 178 213 258 317
#
# _framework density 25.470652999999999
#
# number of rings (size 3 to 8) (size 9 to 14) (size 15 to 20)
#    0.857    1.714    0.000    2.143    6.000    0.571 
#    0.000    1.429    0.000    5.143    0.000    0.000 
#    0.000    0.000    0.000    0.000    0.000    0.000 
#
# Total GULP energy -173525.214646 kJ/mol
# GULP energy per Si atom -12394.658189 kJ/mol
# Density = 2.541268 g / cm^3
# Si number density = 25.470653 Si / 1000 Ang^3
#
#
#
# Elastic Constant Matrix: (Units=GPa)
#
#
# Indices 1 2 3 4 5 6 
#
# 1 32.5780 26.1188 27.4145 -5.8688 -4.6090 3.8091
# 2 26.1188 193.9455 112.3440 -4.7636 -11.1038 -27.6687
# 3 27.4145 112.3440 224.0633 1.8173 -1.5482 -10.3833
# 4 -5.8688 -4.7636 1.8173 42.0936 -9.4896 5.8693
# 5 -4.6090 -11.1038 -1.5482 -9.4896 27.9919 -0.2145
# 6 3.8091 -27.6687 -10.3833 5.8693 -0.2145 30.3877
#
#
#
# Elastic Compliance Matrix: (Units=1/GPa)
#
#
# Indices 1 2 3 4 5 6 
#
# 1 0.041374 -0.004794 -0.003248 0.008800 0.007620 -0.012307
# 2 -0.004794 0.009163 -0.003632 0.000065 0.002726 0.007710
# 3 -0.003248 -0.003632 0.006664 -0.001590 -0.002148 -0.000331
# 4 0.008800 0.000065 -0.001590 0.028518 0.011001 -0.007018
# 5 0.007620 0.002726 -0.002148 0.011001 0.041663 -0.001038
# 6 -0.012307 0.007710 -0.000331 -0.007018 -0.001038 0.042706
#
#
# Mechanical properties :
#
#
# Convention : Reuss Voigt Hill
#
# Bulk Modulus (GPa) = 29.53855 86.92681 58.23268
# Shear Modulus (GPa) = 24.42348 39.07528 31.74938
#
# Velocity S-wave (km/s) = 3.09995 3.92105 3.53442
# Velocity P-wave (km/s) = 4.94320 7.39606 6.29035
#
# Compressibility (1/GPa) = 0.03385407
#
# Stress axis : x y z
#
# Youngs Moduli (GPa) = 24.16963 109.13157 150.05425
#
# Poissons Ratio (x) = 0.52318 0.48731
# Poissons Ratio (y) = 0.11587 0.54503
# Poissons Ratio (z) = 0.07849 0.39639
#
# Static dielectric constant tensor:
#      x y z
#    x 4.577980 0.064970 -0.068850 
#    y 0.064970 4.236110 -0.159500 
#    z -0.068850 -0.159500 5.205180 
# 
# 
# High freq. dielectric constant tensor:
#      x y z
#    x 2.028980 0.011400 -0.003650 
#    y 0.011400 2.006450 -0.011270 
#    z -0.003650 -0.011270 2.037980 
# 
# From -- ./inp_files/42843.got.cif
#   From: 2010.06.25/outbox.cif.g09.slc.cpg/sg2_22_cif.got.tgz:42843.got - 2010.06.27 13:26:56.
