data_PCOD8041645
_publ_section_title
;
Structure prediction by ZEFSAII (Michael W. Deem and Ramdas Pophale) SiO2 
 PCOD8041645
Probable space group: P -1
;
_chemical_formula_sum "Si O2"
_cell_formula_units_Z 14
_cell_length_a 11.513465
_cell_length_b 11.629571
_cell_length_c 13.437508
_cell_angle_alpha 129.063314
_cell_angle_beta 43.277649
_cell_angle_gamma 95.772874
_cell_volume 708.385292
_symmetry_space_group_name_H-M "P -1"
_symmetry_group_IT_number 2
_symmetry_cell_setting 'triclinic'
loop_
_space_group_symop_operation_xyz
x,y,z
-x,-y,-z
loop_
_atom_site_type_symbol
_atom_site_label
_atom_site_fract_x
_atom_site_fract_y
_atom_site_fract_z
Si Si1 0.974943 0.898064 0.828079
Si Si2 0.846125 0.886675 0.487835
Si Si3 0.425708 0.214253 0.161611
Si Si4 0.315219 0.217200 0.023869
Si Si5 0.762311 0.321497 0.266703
Si Si6 0.081843 0.999350 0.291590
Si Si7 0.072997 0.470350 0.696534
O O1 0.049144 0.849524 0.638902
O O2 0.194380 0.733674 0.671496
O O3 0.773475 0.899321 0.976418
O O4 0.873378 0.121091 0.029436
O O5 0.936842 0.880057 0.536943
O O6 0.908330 0.677488 0.319919
O O7 0.576187 0.066260 0.743422
O O8 0.971030 0.906315 0.335260
O O9 0.272949 0.346987 0.422122
O O10 0.287676 0.318600 0.201729
O O11 0.500000 0.000000 0.000000
O O12 0.653024 0.182176 0.003539
O O13 0.173527 0.392286 0.126896
O O14 0.500000 0.500000 0.500000
O O15 0.895403 0.393471 0.190734
#
# Coordination Sequence:
#
# PCOD8041645 Si02
#       7
#     2   2   2   2   2   2   2
#     4  10  19  36  55  80 107 136 186 228 263 314
#     4  10  20  36  53  80 118 144 174 214 268 330
#     4  11  17  32  57  80 108 137 176 224 270 316
#     4  10  19  33  56  80 106 143 179 221 269 320
#     4  10  21  33  56  81 103 137 183 234 271 302
#     4  10  19  34  58  79 111 151 171 215 277 316
#     4  11  20  34  56  79 106 142 181 224 269 322
#
# _framework density 19.763255999999998
#
# number of rings (size 3 to 8) (size 9 to 14) (size 15 to 20)
#    0.000    1.714    4.286    2.143    0.000    1.143 
#    0.000   11.429    0.000   12.000    0.000    0.000 
#    0.000    0.000    0.000    0.000    0.000    0.000 
#
# Total GULP energy -173558.413051 kJ/mol
# GULP energy per Si atom -12397.029504 kJ/mol
# Density = 1.971827 g / cm^3
# Si number density = 19.763256 Si / 1000 Ang^3
#
#
#
# Elastic Constant Matrix: (Units=GPa)
#
#
# Indices 1 2 3 4 5 6 
#
# 1 80.2944 29.6039 28.2528 -5.2085 -24.8340 -8.8584
# 2 29.6039 114.1458 53.4427 -9.0566 -18.7270 9.4813
# 3 28.2528 53.4427 65.7423 -0.2927 -18.8013 0.7978
# 4 -5.2085 -9.0566 -0.2927 29.5122 2.2053 -3.3962
# 5 -24.8340 -18.7270 -18.8013 2.2053 26.9304 8.2898
# 6 -8.8584 9.4813 0.7978 -3.3962 8.2898 30.2942
#
#
#
# Elastic Compliance Matrix: (Units=1/GPa)
#
#
# Indices 1 2 3 4 5 6 
#
# 1 0.018478 -0.001148 -0.003324 0.002202 0.012955 0.002552
# 2 -0.001148 0.015542 -0.011091 0.003579 0.003385 -0.005433
# 3 -0.003324 -0.011091 0.028501 -0.004624 0.009959 -0.001495
# 4 0.002202 0.003579 -0.004624 0.036074 -0.003057 0.004526
# 5 0.012955 0.003385 0.009959 -0.003057 0.063316 -0.015202
# 6 0.002552 -0.005433 -0.001495 0.004526 -0.015202 0.040163
#
#
# Mechanical properties :
#
#
# Convention : Reuss Voigt Hill
#
# Bulk Modulus (GPa) = 31.85186 53.64237 42.74711
# Shear Modulus (GPa) = 20.52001 27.27290 23.89645
#
# Velocity S-wave (km/s) = 3.22575 3.71884 3.48103
# Velocity P-wave (km/s) = 5.47956 6.75582 6.15088
#
# Compressibility (1/GPa) = 0.03139534
#
# Stress axis : x y z
#
# Youngs Moduli (GPa) = 54.11795 64.34321 35.08665
#
# Poissons Ratio (x) = 0.07386 0.11663
# Poissons Ratio (y) = 0.06212 0.38913
# Poissons Ratio (z) = 0.17990 0.71361
#
# Static dielectric constant tensor:
#      x y z
#    x 4.025420 0.090680 -0.068740 
#    y 0.090680 3.749900 0.127340 
#    z -0.068740 0.127340 3.481730 
# 
# 
# High freq. dielectric constant tensor:
#      x y z
#    x 1.778760 0.007200 -0.019300 
#    y 0.007200 1.767480 0.015090 
#    z -0.019300 0.015090 1.738020 
# 
# From -- ./inp_files/250987.got.cif
#   From: 2010.06.25/outbox.cif.g09.slc.cpg/sg2_126_cif.got.tgz:250987.got - 2010.06.27 13:26:56.
