data_PCOD8041189
_publ_section_title
;
Structure prediction by ZEFSAII (Michael W. Deem and Ramdas Pophale) SiO2 
 PCOD8041189
Probable space group: P -1
;
_chemical_formula_sum "Si O2"
_cell_formula_units_Z 16
_cell_length_a 17.098089
_cell_length_b 14.909338
_cell_length_c 19.973737
_cell_angle_alpha 34.361999
_cell_angle_beta 159.724229
_cell_angle_gamma 133.595885
_cell_volume 897.515981
_symmetry_space_group_name_H-M "P -1"
_symmetry_group_IT_number 2
_symmetry_cell_setting 'triclinic'
loop_
_space_group_symop_operation_xyz
x,y,z
-x,-y,-z
loop_
_atom_site_type_symbol
_atom_site_label
_atom_site_fract_x
_atom_site_fract_y
_atom_site_fract_z
Si Si1 0.440835 0.723191 0.421479
Si Si2 0.476419 0.229552 0.398131
Si Si3 0.331986 0.627678 0.014759
Si Si4 0.791369 0.054936 0.019165
Si Si5 0.890443 0.921588 0.849901
Si Si6 0.610819 0.846114 0.089248
Si Si7 0.607237 0.331612 0.810437
Si Si8 0.799267 0.790013 0.418180
O O1 0.570380 0.769786 0.559879
O O2 0.578142 0.516005 0.642897
O O3 0.442485 0.828664 0.290266
O O4 0.152590 0.781484 0.177912
O O5 0.268412 0.187821 0.221322
O O6 0.750784 0.082681 0.688942
O O7 0.454942 0.416832 0.240843
O O8 0.079715 0.707709 0.720521
O O9 0.533657 0.688736 0.106899
O O10 0.276615 0.697148 0.004061
O O11 0.051514 0.999919 0.221538
O O12 0.752645 0.885167 0.116364
O O13 0.794684 0.172922 0.012578
O O14 0.801087 0.798852 0.333622
O O15 0.352198 0.015446 0.793452
O O16 0.335279 0.331800 0.592550
#
# Coordination Sequence:
#
# PCOD8041189 Si02
#       8
#     2   2   2   2   2   2   2   2
#     4   9  18  32  53  73 100 130 160 199 249 290
#     4  10  19  36  52  76  92 127 175 206 235 292
#     4  10  19  31  54  74  98 131 167 203 236 282
#     4   9  19  33  49  73 107 133 151 201 252 289
#     4   9  20  34  53  70 101 127 165 207 247 283
#     4   9  18  33  47  74 102 128 166 196 236 301
#     4   9  17  32  48  78 106 124 163 199 240 301
#     4   9  17  31  52  70  99 137 162 197 240 281
#
# _framework density 17.826979999999999
#
# number of rings (size 3 to 8) (size 9 to 14) (size 15 to 20)
#    0.750    2.000    0.000    2.625    0.000    0.000 
#    6.750    1.875    0.000    0.750    0.000    0.000 
#    0.000    0.000    0.000    0.000    0.000    0.000 
#
# Total GULP energy -198287.718711 kJ/mol
# GULP energy per Si atom -12392.982419 kJ/mol
# Density = 1.778640 g / cm^3
# Si number density = 17.826980 Si / 1000 Ang^3
#
#
#
# Elastic Constant Matrix: (Units=GPa)
#
#
# Indices 1 2 3 4 5 6 
#
# 1 66.1754 32.0445 0.4049 -9.7232 -10.4748 7.8169
# 2 32.0445 88.6940 14.4455 -8.2068 -8.5706 -1.6223
# 3 0.4049 14.4455 45.5749 5.2385 -13.1312 -10.1338
# 4 -9.7232 -8.2068 5.2385 20.5961 0.4410 -2.3201
# 5 -10.4748 -8.5706 -13.1312 0.4410 23.8573 -1.4676
# 6 7.8169 -1.6223 -10.1338 -2.3201 -1.4676 25.2755
#
#
#
# Elastic Compliance Matrix: (Units=1/GPa)
#
#
# Indices 1 2 3 4 5 6 
#
# 1 0.021069 -0.006804 0.002402 0.005896 0.007712 -0.005001
# 2 -0.006804 0.014913 -0.004913 0.004150 -0.000321 0.001454
# 3 0.002402 -0.004913 0.032288 -0.008047 0.017960 0.012191
# 4 0.005896 0.004150 -0.008047 0.055088 -0.001356 0.000195
# 5 0.007712 -0.000321 0.017960 -0.001356 0.055582 0.007898
# 6 -0.005001 0.001454 0.012191 0.000195 0.007898 0.046568
#
#
# Mechanical properties :
#
#
# Convention : Reuss Voigt Hill
#
# Bulk Modulus (GPa) = 20.14507 32.69268 26.41888
# Shear Modulus (GPa) = 19.18029 24.18243 21.68136
#
# Velocity S-wave (km/s) = 3.28367 3.68707 3.49120
# Velocity P-wave (km/s) = 5.06967 6.04191 5.57702
#
# Compressibility (1/GPa) = 0.04963995
#
# Stress axis : x y z
#
# Youngs Moduli (GPa) = 47.46294 67.05729 30.97125
#
# Poissons Ratio (x) = 0.45626 -0.07438
# Poissons Ratio (y) = 0.32294 0.15215
# Poissons Ratio (z) = -0.11399 0.32942
#
# Static dielectric constant tensor:
#      x y z
#    x 3.183030 0.012250 -0.169500 
#    y 0.012250 3.323230 -0.084270 
#    z -0.169500 -0.084270 3.064700 
# 
# 
# High freq. dielectric constant tensor:
#      x y z
#    x 1.672650 -0.001100 -0.019620 
#    y -0.001100 1.691730 -0.002070 
#    z -0.019620 -0.002070 1.669250 
# 
# From -- ./inp_files/435955.got.cif
#   From: 2010.06.25/outbox.cif.g09.slc.cpg/sg2_218_cif.got.tgz:435955.got - 2010.06.27 13:26:56.
