data_PCOD8041294
_publ_section_title
;
Structure prediction by ZEFSAII (Michael W. Deem and Ramdas Pophale) SiO2 
 PCOD8041294
Probable space group: P -1
;
_chemical_formula_sum "Si O2"
_cell_formula_units_Z 16
_cell_length_a 11.844435
_cell_length_b 24.628591
_cell_length_c 27.531548
_cell_angle_alpha 8.706831
_cell_angle_beta 143.487009
_cell_angle_gamma 144.685656
_cell_volume 702.409428
_symmetry_space_group_name_H-M "P -1"
_symmetry_group_IT_number 2
_symmetry_cell_setting 'triclinic'
loop_
_space_group_symop_operation_xyz
x,y,z
-x,-y,-z
loop_
_atom_site_type_symbol
_atom_site_label
_atom_site_fract_x
_atom_site_fract_y
_atom_site_fract_z
Si Si1 0.694632 0.380439 0.509601
Si Si2 0.360044 0.708930 0.864432
Si Si3 0.497236 0.584387 0.175699
Si Si4 0.975490 0.099580 0.790460
Si Si5 0.137724 0.888285 0.536865
Si Si6 0.329105 0.684193 0.698294
Si Si7 0.783023 0.298598 0.461488
Si Si8 0.181644 0.805061 0.812452
O O1 0.794912 0.705089 0.294911
O O2 0.849778 0.374497 0.525355
O O3 0.637616 0.994708 0.858742
O O4 0.506889 0.466773 0.339983
O O5 0.248912 0.797039 0.702234
O O6 0.332678 0.951222 0.689565
O O7 0.589685 0.694213 0.946576
O O8 0.251436 0.298938 0.202021
O O9 0.282960 0.617120 0.055912
O O10 0.574321 0.311301 0.404913
O O11 0.913381 0.060281 0.746476
O O12 0.922733 0.709589 0.143861
O O13 0.153503 0.619053 0.734783
O O14 0.908008 0.864545 0.489293
O O15 0.263864 0.836063 0.490905
O O16 0.500000 0.000000 0.500000
O O17 0.000000 0.500000 0.000000
#
# Coordination Sequence:
#
# PCOD8041294 Si02
#       8
#     2   2   2   2   2   2   2   2
#     4   9  18  32  52  79 108 133 170 225 279 324
#     4  10  20  36  52  72 101 142 185 222 264 306
#     4  10  19  32  52  78 106 142 176 215 270 325
#     4   9  18  32  52  79 108 133 170 225 279 324
#     4  10  22  34  52  72 103 144 181 222 262 302
#     4  10  21  37  53  79 110 148 185 225 262 318
#     4  10  19  32  52  78 106 142 176 215 270 325
#     4  10  21  37  53  79 110 148 185 225 262 318
#
# _framework density 22.778738000000001
#
# number of rings (size 3 to 8) (size 9 to 14) (size 15 to 20)
#    0.000    2.250    1.250    1.500    0.000   11.000 
#    0.000    0.000    0.000    0.000    0.000    5.250 
#    0.000    0.000    0.000    0.000    0.000    0.000 
#
# Total GULP energy -198358.452820 kJ/mol
# GULP energy per Si atom -12397.403301 kJ/mol
# Density = 2.272689 g / cm^3
# Si number density = 22.778738 Si / 1000 Ang^3
#
#
#
# Elastic Constant Matrix: (Units=GPa)
#
#
# Indices 1 2 3 4 5 6 
#
# 1 121.2471 35.3309 50.1370 19.3630 33.8378 -2.4631
# 2 35.3309 134.8576 17.9651 13.9305 8.7773 -12.0337
# 3 50.1370 17.9651 60.1452 22.7284 0.4011 -9.8258
# 4 19.3630 13.9305 22.7284 41.7735 -7.0867 -13.5634
# 5 33.8378 8.7773 0.4011 -7.0867 29.7793 5.0366
# 6 -2.4631 -12.0337 -9.8258 -13.5634 5.0366 21.5007
#
#
#
# Elastic Compliance Matrix: (Units=1/GPa)
#
#
# Indices 1 2 3 4 5 6 
#
# 1 0.026048 -0.001996 -0.018735 -0.007772 -0.029827 -0.004610
# 2 -0.001996 0.008461 0.000141 -0.000749 -0.001145 0.004367
# 3 -0.018735 0.000141 0.035108 -0.005282 0.018447 0.006323
# 4 -0.007772 -0.000749 -0.005282 0.038864 0.015468 0.017170
# 5 -0.029827 -0.001145 0.018447 0.015468 0.071693 -0.002664
# 6 -0.004610 0.004367 0.006323 0.017170 -0.002664 0.062771
#
#
# Mechanical properties :
#
#
# Convention : Reuss Voigt Hill
#
# Bulk Modulus (GPa) = 35.16577 58.12400 46.64488
# Shear Modulus (GPa) = 17.02983 32.79850 24.91416
#
# Velocity S-wave (km/s) = 2.73723 3.79868 3.31077
# Velocity P-wave (km/s) = 5.04593 6.69419 5.92763
#
# Compressibility (1/GPa) = 0.02843675
#
# Stress axis : x y z
#
# Youngs Moduli (GPa) = 38.39089 118.19054 28.48382
#
# Poissons Ratio (x) = 0.23587 0.53364
# Poissons Ratio (y) = 0.07662 -0.00400
# Poissons Ratio (z) = 0.71924 -0.01661
#
# Static dielectric constant tensor:
#      x y z
#    x -0.364100 -0.365180 -2.292950 
#    y -0.365180 4.181960 -0.149760 
#    z -2.292950 -0.149760 3.239490 
# 
# 
# High freq. dielectric constant tensor:
#      x y z
#    x 1.861410 -0.004630 -0.035290 
#    y -0.004630 1.902580 0.000230 
#    z -0.035290 0.000230 1.916540 
# 
# From -- ./inp_files/75485.got.cif
#   From: 2010.06.25/outbox.cif.g09.slc.cpg/sg2_38_cif.got.tgz:75485.got - 2010.06.27 13:26:56.
