data_PCOD8041140
_publ_section_title
;
Structure prediction by ZEFSAII (Michael W. Deem and Ramdas Pophale) SiO2 
 PCOD8041140
Probable space group: P -1
;
_chemical_formula_sum "Si O2"
_cell_formula_units_Z 14
_cell_length_a 11.553670
_cell_length_b 12.908646
_cell_length_c 11.512671
_cell_angle_alpha 36.118466
_cell_angle_beta 90.239732
_cell_angle_gamma 117.785205
_cell_volume 626.865795
_symmetry_space_group_name_H-M "P -1"
_symmetry_group_IT_number 2
_symmetry_cell_setting 'triclinic'
loop_
_space_group_symop_operation_xyz
x,y,z
-x,-y,-z
loop_
_atom_site_type_symbol
_atom_site_label
_atom_site_fract_x
_atom_site_fract_y
_atom_site_fract_z
Si Si1 0.231594 0.840645 0.289939
Si Si2 0.147032 0.749765 0.120282
Si Si3 0.262597 0.118656 0.348728
Si Si4 0.868235 0.996199 0.302204
Si Si5 0.473254 0.045422 0.306089
Si Si6 0.281916 0.524861 0.911972
Si Si7 0.038624 0.271376 0.469519
O O1 0.275753 0.917092 0.084460
O O2 0.072269 0.498441 0.617283
O O3 0.144104 0.914303 0.279099
O O4 0.424231 0.013450 0.198873
O O5 0.182319 0.605899 0.183441
O O6 0.204105 0.971007 0.833089
O O7 0.358201 0.052451 0.373582
O O8 0.272434 0.151494 0.457659
O O9 0.348077 0.399041 0.036222
O O10 0.043411 0.846611 0.554584
O O11 0.860914 0.789362 0.440078
O O12 0.072628 0.297991 0.072633
O O13 0.686797 0.344605 0.076995
O O14 0.413558 0.780464 0.587334
#
# Coordination Sequence:
#
# PCOD8041140 Si02
#       7
#     2   2   2   2   2   2   2
#     4   8  16  33  46  69  99 126 164 203 235 275
#     4   9  17  31  47  70 101 125 162 205 236 278
#     4  10  20  31  47  76 105 126 156 196 245 297
#     4  11  19  30  50  78 101 125 158 197 247 292
#     4  10  19  34  51  72 100 131 158 197 247 283
#     4  10  19  31  50  74 100 127 161 197 241 294
#     4   8  16  28  44  69  98 123 153 199 242 274
#
# _framework density 22.33333
#
# number of rings (size 3 to 8) (size 9 to 14) (size 15 to 20)
#    0.857    1.714    1.429    2.143    0.000    4.000 
#    0.000    0.000    0.000    0.857    0.000   16.000 
#    0.000    0.000    0.000    0.000    0.000    0.000 
#
# Total GULP energy -173443.729556 kJ/mol
# GULP energy per Si atom -12388.837825 kJ/mol
# Density = 2.228250 g / cm^3
# Si number density = 22.333330 Si / 1000 Ang^3
#
#
#
# Elastic Constant Matrix: (Units=GPa)
#
#
# Indices 1 2 3 4 5 6 
#
# 1 38.8905 22.3134 38.7702 8.3685 27.6816 -0.6907
# 2 22.3134 127.9138 21.6347 39.3726 29.0788 12.6766
# 3 38.7702 21.6347 76.7632 25.4966 40.6981 3.7071
# 4 8.3685 39.3726 25.4966 30.4810 7.9454 -0.0565
# 5 27.6816 29.0788 40.6981 7.9454 30.3541 -3.4165
# 6 -0.6907 12.6766 3.7071 -0.0565 -3.4165 25.7029
#
#
#
# Elastic Compliance Matrix: (Units=1/GPa)
#
#
# Indices 1 2 3 4 5 6 
#
# 1 0.072138 -0.006132 -0.021688 0.015236 -0.034422 0.003549
# 2 -0.006132 -0.014058 -0.045059 0.038837 0.071885 0.022908
# 3 -0.021688 -0.045059 -0.061050 0.081745 0.128775 0.047742
# 4 0.015236 0.038837 0.081745 -0.050042 -0.153347 -0.051028
# 5 -0.034422 0.071885 0.128775 -0.153347 -0.145447 -0.074622
# 6 0.003549 0.022908 0.047742 -0.051028 -0.074622 0.010787
#
#
# Mechanical properties :
#
#
# Convention : Reuss Voigt Hill
#
# Bulk Modulus (GPa) = -6.72371 45.44492 19.36060
# Shear Modulus (GPa) = -54.65068 28.03088 -13.30990
#
# Velocity S-wave (km/s) = -4.95213 3.54660 -2.44389
# Velocity P-wave (km/s) = 5.97622 6.09621 0.85105
#
# Compressibility (1/GPa) = -0.14872747
#
# Stress axis : x y z
#
# Youngs Moduli (GPa) = 13.86226 -71.13562 -16.37991
#
# Poissons Ratio (x) = -0.43619 -0.35525
# Poissons Ratio (y) = 0.08500 -0.73805
# Poissons Ratio (z) = 0.30065 -3.20527
#
# Static dielectric constant tensor:
#      x y z
#    x 3.628720 0.157480 0.249590 
#    y 0.157480 4.251440 -0.133000 
#    z 0.249590 -0.133000 3.735120 
# 
# 
# High freq. dielectric constant tensor:
#      x y z
#    x 1.853630 0.007910 0.019810 
#    y 0.007910 1.879140 -0.005290 
#    z 0.019810 -0.005290 1.856200 
# 
# From -- ./inp_files/454372.got.cif
#   From: 2010.06.25/outbox.cif.g09.slc.cpg/sg2_228_cif.got.tgz:454372.got - 2010.06.27 13:26:56.
