data_PCOD8041673
_publ_section_title
;
Structure prediction by ZEFSAII (Michael W. Deem and Ramdas Pophale) SiO2 
 PCOD8041673
Probable space group: P -1
;
_chemical_formula_sum "Si O2"
_cell_formula_units_Z 14
_cell_length_a 12.520606
_cell_length_b 5.130600
_cell_length_c 25.400129
_cell_angle_alpha 67.046173
_cell_angle_beta 34.933731
_cell_angle_gamma 56.372376
_cell_volume 770.933417
_symmetry_space_group_name_H-M "P -1"
_symmetry_group_IT_number 2
_symmetry_cell_setting 'triclinic'
loop_
_space_group_symop_operation_xyz
x,y,z
-x,-y,-z
loop_
_atom_site_type_symbol
_atom_site_label
_atom_site_fract_x
_atom_site_fract_y
_atom_site_fract_z
Si Si1 0.924553 0.392088 0.590982
Si Si2 0.074265 0.573836 0.909530
Si Si3 0.185211 0.399219 0.683440
Si Si4 0.455238 0.687788 0.605695
Si Si5 0.468587 0.598955 0.725938
Si Si6 0.078683 0.187387 0.843013
Si Si7 0.905823 0.340447 0.408797
O O1 0.952991 0.580232 0.613995
O O2 0.000000 0.500000 0.500000
O O3 0.682013 0.476392 0.680849
O O4 0.057184 0.018605 0.572620
O O5 0.327097 0.433926 0.818329
O O6 0.996372 0.427257 0.905634
O O7 0.000000 0.500000 0.000000
O O8 0.029199 0.048592 0.089637
O O9 0.288493 0.606349 0.650387
O O10 0.029783 0.364578 0.792421
O O11 0.043177 0.591218 0.676428
O O12 0.362249 0.063177 0.619421
O O13 0.512146 0.518781 0.652909
O O14 0.663844 0.567436 0.497409
O O15 0.331929 0.978401 0.758950
#
# Coordination Sequence:
#
# PCOD8041673 Si02
#       7
#     2   2   2   2   2   2   2
#     4  12  25  37  52  74 115 152 190 217 252 318
#     4  10  19  33  56  86 106 127 171 218 286 333
#     4  11  20  37  53  80 107 145 183 227 271 310
#     4  11  20  35  56  75 111 142 184 229 268 304
#     4   9  22  33  57  75 113 142 174 214 279 306
#     4   9  19  33  56  78 111 131 163 227 283 309
#     4  12  25  34  54  78 107 155 192 215 255 317
#
# _framework density 18.159803
#
# number of rings (size 3 to 8) (size 9 to 14) (size 15 to 20)
#    0.857    0.571    2.857    3.429    4.000    0.000 
#    0.000    0.000    0.000    0.000    0.000    6.000 
#    0.000    0.000    0.000    0.000    0.000    0.000 
#
# Total GULP energy -173544.875996 kJ/mol
# GULP energy per Si atom -12396.062571 kJ/mol
# Density = 1.811847 g / cm^3
# Si number density = 18.159803 Si / 1000 Ang^3
#
#
#
# Elastic Constant Matrix: (Units=GPa)
#
#
# Indices 1 2 3 4 5 6 
#
# 1 105.4721 39.8875 29.8164 -17.9344 25.0282 1.5521
# 2 39.8875 93.1164 33.9327 -16.0880 23.1094 4.2327
# 3 29.8164 33.9327 68.5611 -27.6570 23.7881 -7.7055
# 4 -17.9344 -16.0880 -27.6570 24.5380 -6.6566 7.4543
# 5 25.0282 23.1094 23.7881 -6.6566 31.3526 -2.5614
# 6 1.5521 4.2327 -7.7055 7.4543 -2.5614 34.1714
#
#
#
# Elastic Compliance Matrix: (Units=1/GPa)
#
#
# Indices 1 2 3 4 5 6 
#
# 1 0.013498 -0.002716 0.001323 0.008050 -0.008260 -0.002353
# 2 -0.002716 0.015488 -0.002990 0.004242 -0.006395 -0.003874
# 3 0.001323 -0.002990 0.035860 0.034493 -0.018781 -0.000536
# 4 0.008050 0.004242 0.034493 0.087460 -0.018262 -0.013561
# 5 -0.008260 -0.006395 -0.018781 -0.018262 0.053981 0.004962
# 6 -0.002353 -0.003874 -0.000536 -0.013561 0.004962 0.033060
#
#
# Mechanical properties :
#
#
# Convention : Reuss Voigt Hill
#
# Bulk Modulus (GPa) = 17.83170 52.71365 35.27267
# Shear Modulus (GPa) = 18.74007 28.91326 23.82666
#
# Velocity S-wave (km/s) = 3.21589 3.99451 3.62616
# Velocity P-wave (km/s) = 4.86106 7.09687 6.08257
#
# Compressibility (1/GPa) = 0.05607992
#
# Stress axis : x y z
#
# Youngs Moduli (GPa) = 74.08552 64.56420 27.88608
#
# Poissons Ratio (x) = 0.17538 -0.03689
# Poissons Ratio (y) = 0.20125 0.08337
# Poissons Ratio (z) = -0.09800 0.19303
#
# Static dielectric constant tensor:
#      x y z
#    x 3.369870 0.126970 0.230810 
#    y 0.126970 3.377500 -0.164250 
#    z 0.230810 -0.164250 3.100880 
# 
# 
# High freq. dielectric constant tensor:
#      x y z
#    x 1.701680 0.020070 0.027240 
#    y 0.020070 1.705550 -0.019740 
#    z 0.027240 -0.019740 1.672140 
# 
# From -- ./inp_files/104946.got.cif
#   From: 2010.06.25/outbox.cif.g09.slc.cpg/sg2_53_cif.got.tgz:104946.got - 2010.06.27 13:26:56.
