data_PCOD8041202
_publ_section_title
;
Structure prediction by ZEFSAII (Michael W. Deem and Ramdas Pophale) SiO2 
 PCOD8041202
Probable space group: P -1
;
_chemical_formula_sum "Si O2"
_cell_formula_units_Z 14
_cell_length_a 20.655422
_cell_length_b 4.957513
_cell_length_c 8.893025
_cell_angle_alpha 99.843571
_cell_angle_beta 137.791064
_cell_angle_gamma 85.170823
_cell_volume 601.554594
_symmetry_space_group_name_H-M "P -1"
_symmetry_group_IT_number 2
_symmetry_cell_setting 'triclinic'
loop_
_space_group_symop_operation_xyz
x,y,z
-x,-y,-z
loop_
_atom_site_type_symbol
_atom_site_label
_atom_site_fract_x
_atom_site_fract_y
_atom_site_fract_z
Si Si1 0.909728 0.176856 0.334437
Si Si2 0.392507 0.542692 0.013905
Si Si3 0.275051 0.025129 0.854600
Si Si4 0.889443 0.752080 0.842025
Si Si5 0.767605 0.199444 0.565394
Si Si6 0.991922 0.460877 0.232600
Si Si7 0.561876 0.260454 0.203284
O O1 0.808727 0.000304 0.167093
O O2 0.911110 0.297237 0.179802
O O3 0.920180 0.424606 0.498181
O O4 0.000000 0.000000 0.500000
O O5 0.498164 0.433891 0.226921
O O6 0.366492 0.848988 0.046270
O O7 0.395584 0.534008 0.835807
O O8 0.309870 0.341418 0.926227
O O9 0.231140 0.918940 0.611698
O O10 0.806204 0.513007 0.654715
O O11 0.968005 0.745508 0.841730
O O12 0.839401 0.039282 0.779615
O O13 0.943292 0.714421 0.090250
O O14 0.658312 0.167588 0.443085
O O15 0.500000 0.000000 0.000000
#
# Coordination Sequence:
#
# PCOD8041202 Si02
#       7
#     2   2   2   2   2   2   2
#     4  11  24  39  63  85 120 157 209 249 289 343
#     4  10  20  32  51  82 124 151 187 240 302 349
#     4  11  21  35  55  85 119 156 192 241 297 345
#     4  11  24  40  59  87 125 159 197 238 306 354
#     4  11  21  34  58  86 123 156 189 242 302 359
#     4  10  25  40  59  87 118 162 201 252 288 350
#     4  10  19  31  54  86 124 150 190 242 300 350
#
# _framework density 23.273033000000002
#
# number of rings (size 3 to 8) (size 9 to 14) (size 15 to 20)
#    0.000    1.429    4.286    2.571    8.000    1.143 
#    0.000    0.000    0.000    0.000    0.000    6.000 
#    0.000    0.000    0.000    0.000    0.000    0.000 
#
# Total GULP energy -173530.701415 kJ/mol
# GULP energy per Si atom -12395.050101 kJ/mol
# Density = 2.322006 g / cm^3
# Si number density = 23.273033 Si / 1000 Ang^3
#
#
#
# Elastic Constant Matrix: (Units=GPa)
#
#
# Indices 1 2 3 4 5 6 
#
# 1 122.0230 40.6575 49.2069 -22.7993 24.1278 28.9670
# 2 40.6575 87.0615 10.8094 -19.0727 6.3856 23.1716
# 3 49.2069 10.8094 76.9896 -21.5473 14.8937 8.0980
# 4 -22.7993 -19.0727 -21.5473 34.5437 -6.3126 10.1424
# 5 24.1278 6.3856 14.8937 -6.3126 40.3359 -2.8997
# 6 28.9670 23.1716 8.0980 10.1424 -2.8997 43.1845
#
#
#
# Elastic Compliance Matrix: (Units=1/GPa)
#
#
# Indices 1 2 3 4 5 6 
#
# 1 0.016913 -0.001364 -0.005265 0.009398 -0.007372 -0.012328
# 2 -0.001364 0.019056 0.004711 0.016282 -0.002412 -0.014179
# 3 -0.005265 0.004711 0.020760 0.013244 -0.003638 -0.006244
# 4 0.009398 0.016282 0.013244 0.060778 -0.005892 -0.032194
# 5 -0.007372 -0.002412 -0.003638 -0.005892 0.030750 0.010370
# 6 -0.012328 -0.014179 -0.006244 -0.032194 0.010370 0.048462
#
#
# Mechanical properties :
#
#
# Convention : Reuss Voigt Hill
#
# Bulk Modulus (GPa) = 18.90622 54.15794 36.53208
# Shear Modulus (GPa) = 22.91621 35.97284 29.44452
#
# Velocity S-wave (km/s) = 3.14135 3.93579 3.56079
# Velocity P-wave (km/s) = 4.61505 6.63137 5.71287
#
# Compressibility (1/GPa) = 0.05289265
#
# Stress axis : x y z
#
# Youngs Moduli (GPa) = 59.12582 52.47696 48.17061
#
# Poissons Ratio (x) = 0.07158 0.25363
# Poissons Ratio (y) = 0.08065 -0.22695
# Poissons Ratio (z) = 0.31131 -0.24724
#
# Static dielectric constant tensor:
#      x y z
#    x 4.281830 0.103770 0.479370 
#    y 0.103770 4.350350 -0.225490 
#    z 0.479370 -0.225490 4.158980 
# 
# 
# High freq. dielectric constant tensor:
#      x y z
#    x 1.907590 0.011910 0.038310 
#    y 0.011910 1.936800 -0.017160 
#    z 0.038310 -0.017160 1.877930 
# 
# From -- ./inp_files/339754.got.cif
#   From: 2010.06.25/outbox.cif.g09.slc.cpg/sg2_170_cif.got.tgz:339754.got - 2010.06.27 13:26:56.
