data_PCOD8041865
_publ_section_title
;
Structure prediction by ZEFSAII (Michael W. Deem and Ramdas Pophale) SiO2 
 PCOD8041865
Probable space group: P -1
;
_chemical_formula_sum "Si O2"
_cell_formula_units_Z 16
_cell_length_a 11.896384
_cell_length_b 14.769950
_cell_length_c 20.271698
_cell_angle_alpha 154.551798
_cell_angle_beta 34.013410
_cell_angle_gamma 150.652808
_cell_volume 735.182590
_symmetry_space_group_name_H-M "P -1"
_symmetry_group_IT_number 2
_symmetry_cell_setting 'triclinic'
loop_
_space_group_symop_operation_xyz
x,y,z
-x,-y,-z
loop_
_atom_site_type_symbol
_atom_site_label
_atom_site_fract_x
_atom_site_fract_y
_atom_site_fract_z
Si Si1 0.292615 0.835979 0.444816
Si Si2 0.097048 0.224077 0.647274
Si Si3 0.224962 0.566223 0.700365
Si Si4 0.847021 0.038796 0.193707
Si Si5 0.860714 0.645212 0.856865
Si Si6 0.110201 0.240137 0.328385
Si Si7 0.488087 0.756656 0.485121
Si Si8 0.751671 0.854215 0.666633
O O1 0.325756 0.641714 0.257323
O O2 0.052309 0.686294 0.502589
O O3 0.500000 0.000000 0.500000
O O4 0.296904 0.045984 0.534814
O O5 0.099743 0.447781 0.754128
O O6 0.374429 0.312083 0.574529
O O7 0.000000 0.000000 0.500000
O O8 0.934100 0.129075 0.729617
O O9 0.490203 0.784950 0.728460
O O10 0.204182 0.355457 0.522398
O O11 0.088386 0.683524 0.810264
O O12 0.646422 0.108867 0.334958
O O13 0.061975 0.215173 0.158410
O O14 0.954271 0.052391 0.223472
O O15 0.738499 0.759921 0.036388
O O16 0.305246 0.497053 0.369172
O O17 0.214392 0.131388 0.260139
#
# Coordination Sequence:
#
# PCOD8041865 Si02
#       8
#     2   2   2   2   2   2   2   2
#     4  12  22  37  63  93 124 159 209 255 304 369
#     4  10  20  31  57  96 120 151 207 261 308 352
#     4  10  19  37  60  87 122 162 198 264 305 349
#     4  11  25  40  65  89 128 173 202 251 319 371
#     4  11  24  45  60  92 130 165 213 249 307 387
#     4  12  21  41  62  96 127 158 210 262 308 367
#     4  12  21  36  64  94 123 159 207 257 306 365
#     4  10  19  33  62  94 119 152 208 261 305 356
#
# _framework density 21.763301999999999
#
# number of rings (size 3 to 8) (size 9 to 14) (size 15 to 20)
#    0.000    1.000    6.250    1.875    3.500    0.500 
#    0.000    0.625    0.000    0.750    0.000    0.000 
#    0.000    0.125    0.000    0.000    0.000    0.000 
#
# Total GULP energy -198212.468244 kJ/mol
# GULP energy per Si atom -12388.279265 kJ/mol
# Density = 2.171377 g / cm^3
# Si number density = 21.763302 Si / 1000 Ang^3
#
#
#
# Elastic Constant Matrix: (Units=GPa)
#
#
# Indices 1 2 3 4 5 6 
#
# 1 112.8479 25.0295 35.0724 -0.3391 10.5530 0.6372
# 2 25.0295 89.1283 22.0785 12.4303 9.0957 -6.3677
# 3 35.0724 22.0785 63.6593 8.4107 12.5529 2.3816
# 4 -0.3391 12.4303 8.4107 20.9872 3.9874 0.7724
# 5 10.5530 9.0957 12.5529 3.9874 23.0585 0.2363
# 6 0.6372 -6.3677 2.3816 0.7724 0.2363 39.2969
#
#
#
# Elastic Compliance Matrix: (Units=1/GPa)
#
#
# Indices 1 2 3 4 5 6 
#
# 1 0.011283 -0.002169 -0.005609 0.004097 -0.001961 -0.000263
# 2 -0.002169 0.013771 -0.002368 -0.006962 -0.001973 0.002559
# 3 -0.005609 -0.002368 0.021925 -0.006019 -0.007379 -0.001459
# 4 0.004097 -0.006962 -0.006019 0.055346 -0.005403 -0.001885
# 5 -0.001961 -0.001973 -0.007379 -0.005403 0.049995 -0.000035
# 6 -0.000263 0.002559 -0.001459 -0.001885 -0.000035 0.025992
#
#
# Mechanical properties :
#
#
# Convention : Reuss Voigt Hill
#
# Bulk Modulus (GPa) = 37.47191 47.77736 42.62463
# Shear Modulus (GPa) = 24.09662 28.89887 26.49774
#
# Velocity S-wave (km/s) = 3.33109 3.64795 3.49312
# Velocity P-wave (km/s) = 5.66129 6.30430 5.99143
#
# Compressibility (1/GPa) = 0.02668666
#
# Stress axis : x y z
#
# Youngs Moduli (GPa) = 88.62963 72.61887 45.61052
#
# Poissons Ratio (x) = 0.15753 0.25582
# Poissons Ratio (y) = 0.19226 0.10800
# Poissons Ratio (z) = 0.49710 0.17195
#
# Static dielectric constant tensor:
#      x y z
#    x 4.192720 -0.288170 0.082980 
#    y -0.288170 4.352990 0.073770 
#    z 0.082980 0.073770 3.442310 
# 
# 
# High freq. dielectric constant tensor:
#      x y z
#    x 1.875570 -0.004190 0.003920 
#    y -0.004190 1.869900 0.010970 
#    z 0.003920 0.010970 1.789120 
# 
# From -- ./inp_files/595534.got.cif
#   From: 2010.06.25/outbox.cif.g09.slc.cpg/sg2_298_cif.got.tgz:595534.got - 2010.06.27 13:26:56.
