data_PCOD8041728
_publ_section_title
;
Structure prediction by ZEFSAII (Michael W. Deem and Ramdas Pophale) SiO2 
 PCOD8041728
Probable space group: P -1
;
_chemical_formula_sum "Si O2"
_cell_formula_units_Z 16
_cell_length_a 7.943763
_cell_length_b 17.712931
_cell_length_c 13.874970
_cell_angle_alpha 38.102152
_cell_angle_beta 135.975510
_cell_angle_gamma 118.502193
_cell_volume 819.151078
_symmetry_space_group_name_H-M "P -1"
_symmetry_group_IT_number 2
_symmetry_cell_setting 'triclinic'
loop_
_space_group_symop_operation_xyz
x,y,z
-x,-y,-z
loop_
_atom_site_type_symbol
_atom_site_label
_atom_site_fract_x
_atom_site_fract_y
_atom_site_fract_z
Si Si1 0.115352 0.798562 0.904084
Si Si2 0.469133 0.530802 0.160575
Si Si3 0.786954 0.609647 0.947063
Si Si4 0.524676 0.584111 0.336932
Si Si5 0.042796 0.577801 0.627794
Si Si6 0.377279 0.821246 0.803699
Si Si7 0.286202 0.033204 0.301394
Si Si8 0.745708 0.218081 0.411533
O O1 0.209500 0.870684 0.779210
O O2 0.954838 0.704636 0.884675
O O3 0.959199 0.886792 0.830641
O O4 0.352884 0.721802 0.136185
O O5 0.247182 0.487609 0.053951
O O6 0.442098 0.513267 0.281194
O O7 0.722550 0.441012 0.325783
O O8 0.486223 0.673934 0.007234
O O9 0.522001 0.687411 0.795023
O O10 0.931910 0.535430 0.171778
O O11 0.500000 0.500000 0.500000
O O12 0.809977 0.595695 0.442821
O O13 0.038929 0.707497 0.552688
O O14 0.609196 0.893126 0.816974
O O15 0.210654 0.842242 0.617142
O O16 0.500000 0.000000 0.500000
O O17 0.235189 0.896560 0.388017
#
# Coordination Sequence:
#
# PCOD8041728 Si02
#       8
#     2   2   2   2   2   2   2   2
#     4  11  22  36  57  86 119 150 192 238 287 348
#     4  10  20  35  58  87 113 152 190 236 290 344
#     4  11  18  35  61  88 120 141 188 248 292 335
#     4  11  24  35  53  85 123 156 184 229 293 352
#     4  11  19  37  60  84 121 151 190 230 293 356
#     4  10  19  33  57  86 113 151 183 238 298 325
#     4  10  20  37  57  83 115 150 196 242 287 330
#     4  10  19  35  59  86 109 152 192 244 287 328
#
# _framework density 19.532416999999999
#
# number of rings (size 3 to 8) (size 9 to 14) (size 15 to 20)
#    0.000    1.500    6.250    1.125    0.000    5.000 
#    0.000    0.625    0.000    3.000    0.000    0.000 
#    0.000    0.000    0.000    0.000    0.000    0.000 
#
# Total GULP energy -198273.185581 kJ/mol
# GULP energy per Si atom -12392.074099 kJ/mol
# Density = 1.948796 g / cm^3
# Si number density = 19.532417 Si / 1000 Ang^3
#
#
#
# Elastic Constant Matrix: (Units=GPa)
#
#
# Indices 1 2 3 4 5 6 
#
# 1 100.6758 10.0409 19.5382 -5.6121 -12.2044 0.7855
# 2 10.0409 52.1481 21.6769 -7.0176 -6.8825 5.3783
# 3 19.5382 21.6769 74.4029 3.4339 1.2522 -1.4154
# 4 -5.6121 -7.0176 3.4339 30.4259 6.9553 -7.1090
# 5 -12.2044 -6.8825 1.2522 6.9553 35.7068 -0.4185
# 6 0.7855 5.3783 -1.4154 -7.1090 -0.4185 22.8050
#
#
#
# Elastic Compliance Matrix: (Units=1/GPa)
#
#
# Indices 1 2 3 4 5 6 
#
# 1 0.011044 -0.000226 -0.002963 0.001516 0.003540 0.000027
# 2 -0.000226 0.023789 -0.007223 0.004291 0.003871 -0.004642
# 3 -0.002963 -0.007223 0.016541 -0.003116 -0.002357 0.001818
# 4 0.001516 0.004291 -0.003116 0.038303 -0.005883 0.010575
# 5 0.003540 0.003871 -0.002357 -0.005883 0.031162 -0.002443
# 6 0.000027 -0.004642 0.001818 0.010575 -0.002443 0.048308
#
#
# Mechanical properties :
#
#
# Convention : Reuss Voigt Hill
#
# Bulk Modulus (GPa) = 32.73403 36.63766 34.68584
# Shear Modulus (GPa) = 24.98056 29.51893 27.24975
#
# Velocity S-wave (km/s) = 3.58009 3.89173 3.73916
# Velocity P-wave (km/s) = 5.82105 6.24437 6.03642
#
# Compressibility (1/GPa) = 0.03054925
#
# Stress axis : x y z
#
# Youngs Moduli (GPa) = 90.54697 42.03584 60.45614
#
# Poissons Ratio (x) = 0.00951 0.17915
# Poissons Ratio (y) = 0.02048 0.43667
# Poissons Ratio (z) = 0.26832 0.30362
#
# Static dielectric constant tensor:
#      x y z
#    x 3.822300 0.280380 -0.139280 
#    y 0.280380 4.202790 -0.197880 
#    z -0.139280 -0.197880 4.082650 
# 
# 
# High freq. dielectric constant tensor:
#      x y z
#    x 1.764770 0.010650 0.000380 
#    y 0.010650 1.739490 -0.015170 
#    z 0.000380 -0.015170 1.745110 
# 
# From -- ./inp_files/407189.got.cif
#   From: 2010.06.25/outbox.cif.g09.slc.cpg/sg2_204_cif.got.tgz:407189.got - 2010.06.27 13:26:56.
