data_PCOD8041281
_publ_section_title
;
Structure prediction by ZEFSAII (Michael W. Deem and Ramdas Pophale) SiO2 
 PCOD8041281
Probable space group: P -1
;
_chemical_formula_sum "Si O2"
_cell_formula_units_Z 14
_cell_length_a 14.998231
_cell_length_b 14.518332
_cell_length_c 14.121985
_cell_angle_alpha 20.565230
_cell_angle_beta 51.042172
_cell_angle_gamma 43.254170
_cell_volume 721.905057
_symmetry_space_group_name_H-M "P -1"
_symmetry_group_IT_number 2
_symmetry_cell_setting 'triclinic'
loop_
_space_group_symop_operation_xyz
x,y,z
-x,-y,-z
loop_
_atom_site_type_symbol
_atom_site_label
_atom_site_fract_x
_atom_site_fract_y
_atom_site_fract_z
Si Si1 0.830483 0.437878 0.714038
Si Si2 0.654457 0.527854 0.577307
Si Si3 0.291330 0.185169 0.005243
Si Si4 0.926319 0.846992 0.319232
Si Si5 0.532003 0.165007 0.945254
Si Si6 0.109492 0.752472 0.448886
Si Si7 0.064135 0.161719 0.244489
O O1 0.697714 0.521684 0.662877
O O2 0.821532 0.732596 0.485567
O O3 0.955993 0.300625 0.693140
O O4 0.846291 0.209380 0.007431
O O5 0.544473 0.426859 0.739378
O O6 0.780396 0.285424 0.664226
O O7 0.596001 0.866988 0.253624
O O8 0.223307 0.045502 0.254079
O O9 0.391347 0.912724 0.131565
O O10 0.375909 0.290750 0.910323
O O11 0.173822 0.479532 0.745549
O O12 0.987485 0.757183 0.470471
O O13 0.048784 0.085601 0.218388
O O14 0.000000 0.000000 0.500000
O O15 0.000000 0.500000 0.000000
#
# Coordination Sequence:
#
# PCOD8041281 Si02
#       7
#     2   2   2   2   2   2   2
#     4   9  17  29  44  72 104 134 170 206 248 309
#     4  10  19  32  51  77 109 142 173 209 257 315
#     4  10  22  36  53  77 107 141 182 213 259 307
#     4   9  18  28  47  69 100 141 170 201 252 318
#     4  10  21  32  55  77 106 143 179 209 252 322
#     4  10  21  34  53  73 108 144 178 208 266 311
#     4  12  24  37  53  73 105 144 183 224 258 298
#
# _framework density 19.393132999999999
#
# number of rings (size 3 to 8) (size 9 to 14) (size 15 to 20)
#    0.000    2.000    2.857    0.857    4.000    5.143 
#    0.000    0.000    0.000    0.000    0.000    0.000 
#    0.000   22.857    0.000    0.000    0.000    0.000 
#
# Total GULP energy -173440.681256 kJ/mol
# GULP energy per Si atom -12388.620090 kJ/mol
# Density = 1.934899 g / cm^3
# Si number density = 19.393133 Si / 1000 Ang^3
#
#
#
# Elastic Constant Matrix: (Units=GPa)
#
#
# Indices 1 2 3 4 5 6 
#
# 1 163.2837 37.7553 38.2409 18.1427 -17.0199 -11.9829
# 2 37.7553 54.0355 25.8208 8.8137 -4.8823 -11.1307
# 3 38.2409 25.8208 76.6812 15.0203 -16.2931 -5.7035
# 4 18.1427 8.8137 15.0203 17.1086 -1.0205 -14.8525
# 5 -17.0199 -4.8823 -16.2931 -1.0205 41.4596 4.1108
# 6 -11.9829 -11.1307 -5.7035 -14.8525 4.1108 24.0671
#
#
#
# Elastic Compliance Matrix: (Units=1/GPa)
#
#
# Indices 1 2 3 4 5 6 
#
# 1 0.008398 -0.004809 -0.000269 -0.010373 0.003018 -0.005023
# 2 -0.004809 0.027067 -0.008846 0.013379 -0.003610 0.016900
# 3 -0.000269 -0.008846 0.022911 -0.032375 0.009070 -0.020325
# 4 -0.010373 0.013379 -0.032375 0.187736 -0.021985 0.112963
# 5 0.003018 -0.003610 0.009070 -0.021985 0.029607 -0.016642
# 6 -0.005023 0.016900 -0.020325 0.112963 -0.016642 0.114604
#
#
# Mechanical properties :
#
#
# Convention : Reuss Voigt Hill
#
# Bulk Modulus (GPa) = 32.75903 55.29269 44.02586
# Shear Modulus (GPa) = 11.67275 29.33929 20.50602
#
# Velocity S-wave (km/s) = 2.45603 3.89378 3.25527
# Velocity P-wave (km/s) = 4.99715 6.98490 6.07290
#
# Compressibility (1/GPa) = 0.03052593
#
# Stress axis : x y z
#
# Youngs Moduli (GPa) = 119.07865 36.94570 43.64687
#
# Poissons Ratio (x) = 0.17768 0.01175
# Poissons Ratio (y) = 0.57268 0.38612
# Poissons Ratio (z) = 0.03205 0.32684
#
# Static dielectric constant tensor:
#      x y z
#    x 3.864790 -0.038010 -0.184880 
#    y -0.038010 3.329130 0.073680 
#    z -0.184880 0.073680 3.329110 
# 
# 
# High freq. dielectric constant tensor:
#      x y z
#    x 1.768670 -0.002950 -0.021660 
#    y -0.002950 1.687880 0.009900 
#    z -0.021660 0.009900 1.754640 
# 
# From -- ./inp_files/65586.got.cif
#   From: 2010.06.25/outbox.cif.g09.slc.cpg/sg2_33_cif.got.tgz:65586.got - 2010.06.27 13:26:56.
