data_PCOD8041201
_publ_section_title
;
Structure prediction by ZEFSAII (Michael W. Deem and Ramdas Pophale) SiO2 
 PCOD8041201
Probable space group: P -1
;
_chemical_formula_sum "Si O2"
_cell_formula_units_Z 12
_cell_length_a 27.817254
_cell_length_b 27.909343
_cell_length_c 8.567993
_cell_angle_alpha 151.498514
_cell_angle_beta 151.476392
_cell_angle_gamma 10.449686
_cell_volume 567.686353
_symmetry_space_group_name_H-M "P -1"
_symmetry_group_IT_number 2
_symmetry_cell_setting 'triclinic'
loop_
_space_group_symop_operation_xyz
x,y,z
-x,-y,-z
loop_
_atom_site_type_symbol
_atom_site_label
_atom_site_fract_x
_atom_site_fract_y
_atom_site_fract_z
Si Si1 0.614761 0.428375 0.959030
Si Si2 0.130221 0.602685 0.465816
Si Si3 0.082380 0.885552 0.576819
Si Si4 0.118683 0.624036 0.864200
Si Si5 0.443717 0.937398 0.482338
Si Si6 0.434602 0.956241 0.880576
O O1 0.367299 0.671361 0.826743
O O2 0.500000 0.500000 0.000000
O O3 0.765320 0.394771 0.314563
O O4 0.835887 0.142090 0.719885
O O5 0.128754 0.625694 0.711632
O O6 0.314363 0.339074 0.186815
O O7 0.834257 0.848287 0.264178
O O8 0.128311 0.724396 0.254579
O O9 0.000000 0.000000 0.500000
O O10 0.366745 0.329647 0.793094
O O11 0.854634 0.810948 0.705902
O O12 0.441342 0.951093 0.699503
O O13 0.543600 0.949520 0.725406
#
# Coordination Sequence:
#
# PCOD8041201 Si02
#       6
#     2   2   2   2   2   2
#     4  12  26  42  60  89 124 160 203 248 294 357
#     4  10  19  32  54  80 113 154 192 236 291 347
#     4  12  24  40  64  89 118 162 204 244 302 355
#     4  10  19  31  54  83 114 149 189 241 292 346
#     4   9  17  29  47  81 118 144 182 240 296 344
#     4   9  17  29  49  78 115 151 183 233 298 350
#
# _framework density 21.138434
#
# number of rings (size 3 to 8) (size 9 to 14) (size 15 to 20)
#    0.000    1.667    1.667    4.000    4.667    4.000 
#    0.000    0.000    0.000    0.000    0.000   23.333 
#    0.000    0.000    0.000    0.000    0.000    0.000 
#
# Total GULP energy -148816.008899 kJ/mol
# GULP energy per Si atom -12401.334075 kJ/mol
# Density = 2.109032 g / cm^3
# Si number density = 21.138434 Si / 1000 Ang^3
#
#
#
# Elastic Constant Matrix: (Units=GPa)
#
#
# Indices 1 2 3 4 5 6 
#
# 1 65.3605 33.7576 51.6954 -0.3003 25.7118 -17.9171
# 2 33.7576 153.0926 51.7783 10.8860 16.1803 -23.8110
# 3 51.6954 51.7783 118.7238 17.1692 40.7195 -14.3620
# 4 -0.3003 10.8860 17.1692 45.7851 -4.9284 5.3863
# 5 25.7118 16.1803 40.7195 -4.9284 27.7996 -7.6572
# 6 -17.9171 -23.8110 -14.3620 5.3863 -7.6572 25.4774
#
#
#
# Elastic Compliance Matrix: (Units=1/GPa)
#
#
# Indices 1 2 3 4 5 6 
#
# 1 0.029684 -0.001083 -0.005686 -0.000488 -0.015226 0.012185
# 2 -0.001083 0.008704 -0.002869 -0.001597 0.001672 0.006596
# 3 -0.005686 -0.002869 0.024603 -0.011975 -0.031131 0.000364
# 4 -0.000488 -0.001597 -0.011975 0.030053 0.021951 -0.008342
# 5 -0.015226 0.001672 -0.031131 0.021951 0.098059 -0.001863
# 6 0.012185 0.006596 0.000364 -0.008342 -0.001863 0.055393
#
#
# Mechanical properties :
#
#
# Convention : Reuss Voigt Hill
#
# Bulk Modulus (GPa) = 22.87579 67.95993 45.41786
# Shear Modulus (GPa) = 17.83527 33.14212 25.48869
#
# Velocity S-wave (km/s) = 2.90787 3.96392 3.47623
# Velocity P-wave (km/s) = 4.70315 7.29177 6.13553
#
# Compressibility (1/GPa) = 0.04371434
#
# Stress axis : x y z
#
# Youngs Moduli (GPa) = 33.68812 114.89186 40.64508
#
# Poissons Ratio (x) = 0.12446 0.23111
# Poissons Ratio (y) = 0.03649 0.11661
# Poissons Ratio (z) = 0.19156 0.32962
#
# Static dielectric constant tensor:
#      x y z
#    x 3.330470 -0.168620 0.264320 
#    y -0.168620 4.231880 0.046140 
#    z 0.264320 0.046140 4.152250 
# 
# 
# High freq. dielectric constant tensor:
#      x y z
#    x 1.779600 -0.013830 0.030880 
#    y -0.013830 1.850790 0.006960 
#    z 0.030880 0.006960 1.830820 
# 
# From -- ./inp_files/24046.got.cif
#   From: 2010.06.25/outbox.cif.g09.slc.cpg/sg2_13_cif.got.tgz:24046.got - 2010.06.27 13:26:56.
