data_PCOD8041720
_publ_section_title
;
Structure prediction by ZEFSAII (Michael W. Deem and Ramdas Pophale) SiO2 
 PCOD8041720
Probable space group: P -1
;
_chemical_formula_sum "Si O2"
_cell_formula_units_Z 16
_cell_length_a 16.787512
_cell_length_b 10.866206
_cell_length_c 11.466947
_cell_angle_alpha 136.959062
_cell_angle_beta 125.617671
_cell_angle_gamma 37.025269
_cell_volume 859.692975
_symmetry_space_group_name_H-M "P -1"
_symmetry_group_IT_number 2
_symmetry_cell_setting 'triclinic'
loop_
_space_group_symop_operation_xyz
x,y,z
-x,-y,-z
loop_
_atom_site_type_symbol
_atom_site_label
_atom_site_fract_x
_atom_site_fract_y
_atom_site_fract_z
Si Si1 0.874489 0.698562 0.262397
Si Si2 0.415593 0.337343 0.123020
Si Si3 0.730466 0.560161 0.151213
Si Si4 0.696417 0.867208 0.010567
Si Si5 0.873477 0.035907 0.903961
Si Si6 0.829191 0.733380 0.782307
Si Si7 0.645614 0.877869 0.511791
Si Si8 0.262351 0.899890 0.385578
O O1 0.854295 0.529679 0.192003
O O2 0.031387 0.546884 0.284908
O O3 0.797195 0.951487 0.441675
O O4 0.816922 0.762151 0.127265
O O5 0.355792 0.274136 0.123967
O O6 0.347938 0.613858 0.281353
O O7 0.385994 0.280100 0.932662
O O8 0.574938 0.153002 0.136879
O O9 0.696850 0.660358 0.320630
O O10 0.752050 0.320983 0.014428
O O11 0.749285 0.829502 0.900073
O O12 0.863231 0.972243 0.719171
O O13 0.864290 0.896457 0.897727
O O14 0.000000 0.000000 0.000000
O O15 0.737752 0.762595 0.624235
O O16 0.500000 0.000000 0.500000
O O17 0.642373 0.072931 0.577122
#
# Coordination Sequence:
#
# PCOD8041720 Si02
#       8
#     2   2   2   2   2   2   2   2
#     4  10  20  36  55  80 111 146 182 223 268 325
#     4   9  19  39  60  78 105 146 192 227 262 323
#     4   9  18  34  57  82 107 142 181 221 272 327
#     4  10  21  37  57  78 108 151 187 224 269 314
#     4  10  19  33  57  84 109 141 175 221 276 329
#     4  11  22  35  56  84 116 142 180 226 273 329
#     4  10  21  35  55  84 114 142 176 227 279 326
#     4   9  21  36  59  82 107 143 185 226 273 328
#
# _framework density 18.611294000000001
#
# number of rings (size 3 to 8) (size 9 to 14) (size 15 to 20)
#    0.000    2.250    1.250    1.125    1.750    4.000 
#    0.000    5.625    0.000    0.000    0.000    0.000 
#    0.000    0.000    0.000    0.000    0.000    0.000 
#
# Total GULP energy -198324.419159 kJ/mol
# GULP energy per Si atom -12395.276197 kJ/mol
# Density = 1.856893 g / cm^3
# Si number density = 18.611294 Si / 1000 Ang^3
#
#
#
# Elastic Constant Matrix: (Units=GPa)
#
#
# Indices 1 2 3 4 5 6 
#
# 1 86.5552 45.2223 39.6297 -0.9096 -11.6252 -4.3078
# 2 45.2223 96.9688 28.0482 2.4699 -3.6077 -10.3756
# 3 39.6297 28.0482 94.1126 0.3546 -6.9043 6.5901
# 4 -0.9096 2.4699 0.3546 29.4350 1.9330 6.3645
# 5 -11.6252 -3.6077 -6.9043 1.9330 27.7843 -4.9866
# 6 -4.3078 -10.3756 6.5901 6.3645 -4.9866 30.0593
#
#
#
# Elastic Compliance Matrix: (Units=1/GPa)
#
#
# Indices 1 2 3 4 5 6 
#
# 1 0.018419 -0.006493 -0.005566 0.000241 0.005921 0.002550
# 2 -0.006493 0.014487 -0.001941 -0.002451 -0.000255 0.004972
# 3 -0.005566 -0.001941 0.013871 0.000841 -0.000035 -0.004692
# 4 0.000241 -0.002451 0.000841 0.036493 -0.004239 -0.009426
# 5 0.005921 -0.000255 -0.000035 -0.004239 0.040219 0.008338
# 6 0.002550 0.004972 -0.004692 -0.009426 0.008338 0.039757
#
#
# Mechanical properties :
#
#
# Convention : Reuss Voigt Hill
#
# Bulk Modulus (GPa) = 53.25755 55.93747 54.59751
# Shear Modulus (GPa) = 25.31601 28.43814 26.87707
#
# Velocity S-wave (km/s) = 3.69216 3.91321 3.80429
# Velocity P-wave (km/s) = 6.84499 7.10905 6.97827
#
# Compressibility (1/GPa) = 0.01877668
#
# Stress axis : x y z
#
# Youngs Moduli (GPa) = 54.29260 69.02727 72.09429
#
# Poissons Ratio (x) = 0.44818 0.40127
# Poissons Ratio (y) = 0.35251 0.13995
# Poissons Ratio (z) = 0.30219 0.13399
#
# Static dielectric constant tensor:
#      x y z
#    x 3.437890 0.346200 0.335320 
#    y 0.346200 3.749910 -0.053450 
#    z 0.335320 -0.053450 3.418710 
# 
# 
# High freq. dielectric constant tensor:
#      x y z
#    x 1.710250 0.000450 0.001680 
#    y 0.000450 1.729930 -0.007990 
#    z 0.001680 -0.007990 1.723070 
# 
# From -- ./inp_files/243909.got.cif
#   From: 2010.06.25/outbox.cif.g09.slc.cpg/sg2_122_cif.got.tgz:243909.got - 2010.06.27 13:26:56.
