data_PCOD8041905
_publ_section_title
;
Structure prediction by ZEFSAII (Michael W. Deem and Ramdas Pophale) SiO2 
 PCOD8041905
Probable space group: P -1
;
_chemical_formula_sum "Si O2"
_cell_formula_units_Z 14
_cell_length_a 11.977330
_cell_length_b 13.612656
_cell_length_c 13.866996
_cell_angle_alpha 158.273863
_cell_angle_beta 91.939947
_cell_angle_gamma 78.663431
_cell_volume 748.508273
_symmetry_space_group_name_H-M "P -1"
_symmetry_group_IT_number 2
_symmetry_cell_setting 'triclinic'
loop_
_space_group_symop_operation_xyz
x,y,z
-x,-y,-z
loop_
_atom_site_type_symbol
_atom_site_label
_atom_site_fract_x
_atom_site_fract_y
_atom_site_fract_z
Si Si1 0.431326 0.238977 0.491341
Si Si2 0.033285 0.420867 0.038521
Si Si3 0.383816 0.175315 0.225016
Si Si4 0.763651 0.418221 0.570788
Si Si5 0.297625 0.895490 0.119687
Si Si6 0.703905 0.905075 0.167628
Si Si7 0.027307 0.093504 0.364658
O O1 0.429957 0.302144 0.433226
O O2 0.352079 0.055078 0.342504
O O3 0.574991 0.051086 0.357363
O O4 0.367672 0.546823 0.827054
O O5 0.183459 0.257544 0.902714
O O6 0.974597 0.210068 0.881666
O O7 0.000000 0.500000 0.000000
O O8 0.975524 0.723020 0.372980
O O9 0.273949 0.444656 0.411344
O O10 0.326325 0.961692 0.071253
O O11 0.500000 0.000000 0.000000
O O12 0.721792 0.159419 0.342692
O O13 0.912344 0.288806 0.469566
O O14 0.694168 0.671826 0.879835
O O15 0.150468 0.019265 0.239596
#
# Coordination Sequence:
#
# PCOD8041905 Si02
#       7
#     2   2   2   2   2   2   2
#     4  10  20  33  52  77 106 149 183 215 261 300
#     4  10  21  38  65  84  99 133 178 228 275 327
#     4  10  20  32  52  80 108 147 193 220 243 300
#     4  10  20  31  52  77 108 145 178 223 263 298
#     4  10  22  34  52  77 112 157 173 213 266 313
#     4  10  19  34  53  81 107 133 176 233 270 305
#     4  10  21  39  55  80 115 139 172 218 278 327
#
# _framework density 18.703869000000001
#
# number of rings (size 3 to 8) (size 9 to 14) (size 15 to 20)
#    0.857    1.143    1.429    3.000    2.000    1.714 
#    0.000    0.714    0.000    5.143    0.000    0.000 
#    0.000    0.000    0.000    0.000    0.000    0.000 
#
# Total GULP energy -173560.432975 kJ/mol
# GULP energy per Si atom -12397.173784 kJ/mol
# Density = 1.866130 g / cm^3
# Si number density = 18.703869 Si / 1000 Ang^3
#
#
#
# Elastic Constant Matrix: (Units=GPa)
#
#
# Indices 1 2 3 4 5 6 
#
# 1 103.2338 19.2904 26.6437 4.4033 -19.7990 -0.7919
# 2 19.2904 55.3002 -2.1793 3.2921 -1.8913 -14.3482
# 3 26.6437 -2.1793 75.4297 9.0974 0.5078 -4.4271
# 4 4.4033 3.2921 9.0974 16.6436 -0.6447 -1.9389
# 5 -19.7990 -1.8913 0.5078 -0.6447 38.7737 0.1636
# 6 -0.7919 -14.3482 -4.4271 -1.9389 0.1636 18.3889
#
#
#
# Elastic Compliance Matrix: (Units=1/GPa)
#
#
# Indices 1 2 3 4 5 6 
#
# 1 0.013422 -0.006101 -0.005306 0.000173 0.006652 -0.005501
# 2 -0.006101 0.025907 0.004575 -0.003681 -0.002060 0.020683
# 3 -0.005306 0.004575 0.016624 -0.007938 -0.002863 0.006532
# 4 0.000173 -0.003681 -0.007938 0.065392 0.001091 0.002109
# 5 0.006652 -0.002060 -0.002863 0.001091 0.029152 -0.002155
# 6 -0.005501 0.020683 0.006532 0.002109 -0.002155 0.072096
#
#
# Mechanical properties :
#
#
# Convention : Reuss Voigt Hill
#
# Bulk Modulus (GPa) = 23.64652 35.71925 29.68289
# Shear Modulus (GPa) = 19.97175 27.44182 23.70679
#
# Velocity S-wave (km/s) = 3.27125 3.83453 3.56403
# Velocity P-wave (km/s) = 5.19019 6.22443 5.73069
#
# Compressibility (1/GPa) = 0.04228952
#
# Stress axis : x y z
#
# Youngs Moduli (GPa) = 74.50214 38.59972 60.15483
#
# Poissons Ratio (x) = 0.23551 0.31918
# Poissons Ratio (y) = 0.45456 -0.27523
# Poissons Ratio (z) = 0.39530 -0.17661
#
# Static dielectric constant tensor:
#      x y z
#    x 3.506950 -0.214010 0.042800 
#    y -0.214010 3.096680 0.264460 
#    z 0.042800 0.264460 3.653220 
# 
# 
# High freq. dielectric constant tensor:
#      x y z
#    x 1.736090 -0.013400 0.005480 
#    y -0.013400 1.681850 0.016270 
#    z 0.005480 0.016270 1.738870 
# 
# From -- ./inp_files/64722.got.cif
#   From: 2010.06.25/outbox.cif.g09.slc.cpg/sg2_33_cif.got.tgz:64722.got - 2010.06.27 13:26:56.
