data_PCOD8041914
_publ_section_title
;
Structure prediction by ZEFSAII (Michael W. Deem and Ramdas Pophale) SiO2 
 PCOD8041914
Probable space group: P -1
;
_chemical_formula_sum "Si O2"
_cell_formula_units_Z 16
_cell_length_a 8.969344
_cell_length_b 16.635914
_cell_length_c 19.965480
_cell_angle_alpha 149.872087
_cell_angle_beta 144.448048
_cell_angle_gamma 55.785829
_cell_volume 760.587997
_symmetry_space_group_name_H-M "P -1"
_symmetry_group_IT_number 2
_symmetry_cell_setting 'triclinic'
loop_
_space_group_symop_operation_xyz
x,y,z
-x,-y,-z
loop_
_atom_site_type_symbol
_atom_site_label
_atom_site_fract_x
_atom_site_fract_y
_atom_site_fract_z
Si Si1 0.428485 0.418721 0.759117
Si Si2 0.543703 0.901374 0.137856
Si Si3 0.859797 0.748904 0.230439
Si Si4 0.075858 0.705567 0.415597
Si Si5 0.101652 0.215743 0.181348
Si Si6 0.697909 0.693940 0.949754
Si Si7 0.718489 0.184848 0.678981
Si Si8 0.637748 0.538909 0.672287
O O1 0.109525 0.330423 0.610825
O O2 0.431398 0.539284 0.784122
O O3 0.519138 0.277481 0.660308
O O4 0.670470 0.537128 0.988555
O O5 0.678185 0.851843 0.216676
O O6 0.689360 0.877058 0.104011
O O7 0.618056 0.112732 0.324476
O O8 0.195503 0.771374 0.917308
O O9 0.911743 0.754651 0.332551
O O10 0.171764 0.843009 0.373468
O O11 0.127921 0.536128 0.293625
O O12 0.318262 0.357593 0.418665
O O13 0.278732 0.305506 0.241813
O O14 0.000000 0.000000 0.000000
O O15 0.644984 0.650292 0.821249
O O16 0.002465 0.702242 0.089129
O O17 0.500000 0.000000 0.500000
#
# Coordination Sequence:
#
# PCOD8041914 Si02
#       8
#     2   2   2   2   2   2   2   2
#     4  10  19  34  55  83 129 167 204 254 303 377
#     4  10  22  41  62  92 133 162 209 269 309 377
#     4  10  21  35  58  90 128 170 207 253 313 381
#     4  12  21  37  63  98 127 169 212 254 319 377
#     4  11  24  48  68  95 124 162 216 272 320 374
#     4  10  22  41  59  91 123 165 212 255 318 379
#     4  10  19  34  53  85 132 171 204 255 309 375
#     4  11  24  43  73  92 124 170 212 263 323 379
#
# _framework density 21.036355
#
# number of rings (size 3 to 8) (size 9 to 14) (size 15 to 20)
#    0.000    1.750    1.250    6.750    0.000    2.500 
#    4.500    0.625    0.000    0.000    0.000    0.000 
#    0.000    0.000    0.000    0.000    0.000    0.000 
#
# Total GULP energy -198267.925283 kJ/mol
# GULP energy per Si atom -12391.745330 kJ/mol
# Density = 2.098848 g / cm^3
# Si number density = 21.036355 Si / 1000 Ang^3
#
#
#
# Elastic Constant Matrix: (Units=GPa)
#
#
# Indices 1 2 3 4 5 6 
#
# 1 75.9506 26.5297 24.5355 -0.5734 5.3930 11.5913
# 2 26.5297 66.3855 29.1152 9.9782 -1.7416 4.5919
# 3 24.5355 29.1152 71.5779 13.4955 8.2766 11.2792
# 4 -0.5734 9.9782 13.4955 31.2968 -2.4274 -2.3661
# 5 5.3930 -1.7416 8.2766 -2.4274 42.1336 -3.7155
# 6 11.5913 4.5919 11.2792 -2.3661 -3.7155 29.7544
#
#
#
# Elastic Compliance Matrix: (Units=1/GPa)
#
#
# Indices 1 2 3 4 5 6 
#
# 1 0.017004 -0.005591 -0.003155 0.002951 -0.002022 -0.004583
# 2 -0.005591 0.020584 -0.006317 -0.003620 0.002727 0.001449
# 3 -0.003155 -0.006317 0.020786 -0.007919 -0.005008 -0.006931
# 4 0.002951 -0.003620 -0.007919 0.037303 0.003692 0.005839
# 5 -0.002022 0.002727 -0.005008 0.003692 0.025812 0.005782
# 6 -0.004583 0.001449 -0.006931 0.005839 0.005782 0.038984
#
#
# Mechanical properties :
#
#
# Convention : Reuss Voigt Hill
#
# Bulk Modulus (GPa) = 35.40130 41.58611 38.49370
# Shear Modulus (GPa) = 24.99806 29.55252 27.27529
#
# Velocity S-wave (km/s) = 3.45095 3.75217 3.60471
# Velocity P-wave (km/s) = 5.72223 6.21155 5.97190
#
# Compressibility (1/GPa) = 0.02824755
#
# Stress axis : x y z
#
# Youngs Moduli (GPa) = 58.80987 48.58129 48.10903
#
# Poissons Ratio (x) = 0.27164 0.15177
# Poissons Ratio (y) = 0.32883 0.30392
# Poissons Ratio (z) = 0.18552 0.30690
#
# Static dielectric constant tensor:
#      x y z
#    x 3.539070 0.032010 0.267700 
#    y 0.032010 3.650720 0.069490 
#    z 0.267700 0.069490 3.849870 
# 
# 
# High freq. dielectric constant tensor:
#      x y z
#    x 1.818860 -0.009620 0.010760 
#    y -0.009620 1.813480 0.013920 
#    z 0.010760 0.013920 1.824280 
# 
# From -- ./inp_files/590998.got.cif
#   From: 2010.06.25/outbox.cif.g09.slc.cpg/sg2_296_cif.got.tgz:590998.got - 2010.06.27 13:26:56.
