data_PCOD8041440
_publ_section_title
;
Structure prediction by ZEFSAII (Michael W. Deem and Ramdas Pophale) SiO2 
 PCOD8041440
Probable space group: P -1
;
_chemical_formula_sum "Si O2"
_cell_formula_units_Z 16
_cell_length_a 11.659529
_cell_length_b 12.229463
_cell_length_c 11.632641
_cell_angle_alpha 100.053263
_cell_angle_beta 118.244147
_cell_angle_gamma 38.417970
_cell_volume 847.654723
_symmetry_space_group_name_H-M "P -1"
_symmetry_group_IT_number 2
_symmetry_cell_setting 'triclinic'
loop_
_space_group_symop_operation_xyz
x,y,z
-x,-y,-z
loop_
_atom_site_type_symbol
_atom_site_label
_atom_site_fract_x
_atom_site_fract_y
_atom_site_fract_z
Si Si1 0.477782 0.090531 0.348454
Si Si2 0.038027 0.467081 0.283715
Si Si3 0.505780 0.145703 0.131867
Si Si4 0.334482 0.433232 0.935285
Si Si5 0.341480 0.795919 0.154464
Si Si6 0.406964 0.219419 0.576575
Si Si7 0.067658 0.775747 0.016482
Si Si8 0.858507 0.774026 0.100607
O O1 0.208534 0.277723 0.251168
O O2 0.569891 0.102360 0.289501
O O3 0.553484 0.092077 0.507225
O O4 0.567627 0.902236 0.345910
O O5 0.149299 0.410698 0.451597
O O6 0.809866 0.557478 0.202387
O O7 0.997531 0.613749 0.233177
O O8 0.722258 0.966714 0.129574
O O9 0.423131 0.320578 0.076851
O O10 0.311329 0.189241 0.038150
O O11 0.536126 0.324085 0.927235
O O12 0.190374 0.639873 0.938016
O O13 0.513891 0.720689 0.317610
O O14 0.216694 0.772963 0.137772
O O15 0.170489 0.013790 0.093908
O O16 0.034924 0.704033 0.083525
#
# Coordination Sequence:
#
# PCOD8041440 Si02
#       8
#     2   2   2   2   2   2   2   2
#     4   9  18  34  56  83 116 148 178 232 286 336
#     4   9  19  33  55  88 107 146 176 234 286 335
#     4  10  19  32  58  86 114 138 182 246 285 324
#     4  11  21  36  61  88 112 143 191 237 287 327
#     4  11  23  40  57  83 116 153 191 228 271 342
#     4   9  20  36  55  83 118 151 183 223 287 336
#     4  11  23  38  60  81 115 153 189 233 278 328
#     4  10  19  33  54  87 112 143 188 233 286 328
#
# _framework density 18.875610000000002
#
# number of rings (size 3 to 8) (size 9 to 14) (size 15 to 20)
#    0.750    1.250    1.250    3.375    3.500    2.500 
#    0.000    0.625    0.000    0.750    0.000    0.000 
#    0.000    0.000    0.000    0.000    0.000    0.000 
#
# Total GULP energy -198339.592233 kJ/mol
# GULP energy per Si atom -12396.224515 kJ/mol
# Density = 1.883265 g / cm^3
# Si number density = 18.875610 Si / 1000 Ang^3
#
#
#
# Elastic Constant Matrix: (Units=GPa)
#
#
# Indices 1 2 3 4 5 6 
#
# 1 74.3666 20.3896 29.0296 0.0684 -3.4685 -0.8535
# 2 20.3896 83.2638 17.6467 -8.8103 -0.3861 -11.2578
# 3 29.0296 17.6467 79.4730 -5.7813 1.4067 1.1776
# 4 0.0684 -8.8103 -5.7813 31.3872 -1.6303 -3.7482
# 5 -3.4685 -0.3861 1.4067 -1.6303 14.8493 8.1956
# 6 -0.8535 -11.2578 1.1776 -3.7482 8.1956 20.7512
#
#
#
# Elastic Compliance Matrix: (Units=1/GPa)
#
#
# Indices 1 2 3 4 5 6 
#
# 1 0.016878 -0.003684 -0.005563 -0.002232 0.006262 -0.003865
# 2 -0.003684 0.015365 -0.001761 0.005066 -0.006157 0.011631
# 3 -0.005563 -0.001761 0.015209 0.002110 -0.002090 -0.000841
# 4 -0.002232 0.005066 0.002110 0.034717 -0.002096 0.009635
# 5 0.006262 -0.006157 -0.002090 -0.002096 0.090098 -0.038927
# 6 -0.003865 0.011631 -0.000841 0.009635 -0.038927 0.071503
#
#
# Mechanical properties :
#
#
# Convention : Reuss Voigt Hill
#
# Bulk Modulus (GPa) = 39.31338 41.24835 40.28087
# Shear Modulus (GPa) = 18.23046 24.73337 21.48191
#
# Velocity S-wave (km/s) = 3.11114 3.62378 3.37720
# Velocity P-wave (km/s) = 5.81192 6.27768 6.04928
#
# Compressibility (1/GPa) = 0.02543663
#
# Stress axis : x y z
#
# Youngs Moduli (GPa) = 59.24777 65.08131 65.75057
#
# Poissons Ratio (x) = 0.23974 0.36578
# Poissons Ratio (y) = 0.21825 0.11579
# Poissons Ratio (z) = 0.32961 0.11462
#
# Static dielectric constant tensor:
#      x y z
#    x 3.189630 -0.073610 -0.103310 
#    y -0.073610 3.427490 -0.139530 
#    z -0.103310 -0.139530 3.301290 
# 
# 
# High freq. dielectric constant tensor:
#      x y z
#    x 1.707810 -0.009820 -0.016600 
#    y -0.009820 1.740900 -0.009870 
#    z -0.016600 -0.009870 1.714220 
# 
# From -- ./inp_files/423699.got.cif
#   From: 2010.06.25/outbox.cif.g09.slc.cpg/sg2_212_cif.got.tgz:423699.got - 2010.06.27 13:26:56.
