data_PCOD8041658
_publ_section_title
;
Structure prediction by ZEFSAII (Michael W. Deem and Ramdas Pophale) SiO2 
 PCOD8041658
Probable space group: P -1
;
_chemical_formula_sum "Si O2"
_cell_formula_units_Z 16
_cell_length_a 26.283948
_cell_length_b 9.012467
_cell_length_c 26.606221
_cell_angle_alpha 137.161987
_cell_angle_beta 169.186889
_cell_angle_gamma 41.423436
_cell_volume 782.030017
_symmetry_space_group_name_H-M "P -1"
_symmetry_group_IT_number 2
_symmetry_cell_setting 'triclinic'
loop_
_space_group_symop_operation_xyz
x,y,z
-x,-y,-z
loop_
_atom_site_type_symbol
_atom_site_label
_atom_site_fract_x
_atom_site_fract_y
_atom_site_fract_z
Si Si1 0.345473 0.350188 0.750058
Si Si2 0.447317 0.466390 0.102617
Si Si3 0.248353 0.904477 0.070389
Si Si4 0.438243 0.636000 0.408179
Si Si5 0.329081 0.828173 0.457358
Si Si6 0.866261 0.885568 0.884077
Si Si7 0.144952 0.805035 0.725234
Si Si8 0.979948 0.838360 0.393896
O O1 0.473874 0.385865 0.829798
O O2 0.199850 0.597119 0.689054
O O3 0.107547 0.206697 0.484172
O O4 0.581408 0.206597 0.979311
O O5 0.723866 0.335424 0.366826
O O6 0.267875 0.644644 0.011820
O O7 0.262533 0.293981 0.862684
O O8 0.996518 0.068970 0.837860
O O9 0.526520 0.972312 0.337193
O O10 0.221028 0.933941 0.111102
O O11 0.478977 0.708572 0.523127
O O12 0.595698 0.380805 0.482932
O O13 0.613408 0.796970 0.591095
O O14 0.112386 0.676220 0.089359
O O15 0.000000 0.000000 0.000000
O O16 0.081924 0.028976 0.685792
O O17 0.000000 0.000000 0.500000
#
# Coordination Sequence:
#
# PCOD8041658 Si02
#       8
#     2   2   2   2   2   2   2   2
#     4  10  21  36  60  85 112 148 189 241 298 350
#     4  12  24  39  62  87 119 157 202 244 300 361
#     4  10  21  36  57  80 115 150 183 233 288 341
#     4   9  17  30  55  83 103 135 181 237 268 316
#     4   9  17  33  55  81 106 134 184 229 280 321
#     4  10  19  33  56  83 112 150 190 225 273 339
#     4  10  21  37  59  86 115 143 190 248 295 336
#     4  12  24  39  62  91 115 154 204 252 290 351
#
# _framework density 20.459572000000001
#
# number of rings (size 3 to 8) (size 9 to 14) (size 15 to 20)
#    0.000    1.750    1.250    3.750    3.500    3.000 
#    0.000    0.000   16.500    0.000    0.000    0.000 
#    0.000    0.000    0.000    0.000    0.000    0.000 
#
# Total GULP energy -198308.638434 kJ/mol
# GULP energy per Si atom -12394.289902 kJ/mol
# Density = 2.041301 g / cm^3
# Si number density = 20.459572 Si / 1000 Ang^3
#
#
#
# Elastic Constant Matrix: (Units=GPa)
#
#
# Indices 1 2 3 4 5 6 
#
# 1 64.5930 39.5056 11.6482 3.3062 12.0372 10.5315
# 2 39.5056 97.1646 16.8436 -9.2562 -0.3013 4.0672
# 3 11.6482 16.8436 81.5549 4.0369 12.9785 -3.1697
# 4 3.3062 -9.2562 4.0369 37.0276 6.8553 2.0861
# 5 12.0372 -0.3013 12.9785 6.8553 24.4752 1.4442
# 6 10.5315 4.0672 -3.1697 2.0861 1.4442 23.4549
#
#
#
# Elastic Compliance Matrix: (Units=1/GPa)
#
#
# Indices 1 2 3 4 5 6 
#
# 1 0.025402 -0.010225 0.000090 -0.002208 -0.011534 -0.008714
# 2 -0.010225 0.015281 -0.002733 0.003962 0.005505 0.000881
# 3 0.000090 -0.002733 0.014166 -0.001015 -0.007476 0.002899
# 4 -0.002208 0.003962 -0.001015 0.029626 -0.006503 -0.002068
# 5 -0.011534 0.005505 -0.007476 -0.006503 0.052351 0.000569
# 6 -0.008714 0.000881 0.002899 -0.002068 0.000569 0.046936
#
#
# Mechanical properties :
#
#
# Convention : Reuss Voigt Hill
#
# Bulk Modulus (GPa) = 34.35049 42.14529 38.24789
# Shear Modulus (GPa) = 22.81000 28.67922 25.74461
#
# Velocity S-wave (km/s) = 3.34261 3.74806 3.55112
# Velocity P-wave (km/s) = 5.63234 6.27492 5.96229
#
# Compressibility (1/GPa) = 0.02911166
#
# Stress axis : x y z
#
# Youngs Moduli (GPa) = 39.36649 65.44223 70.59118
#
# Poissons Ratio (x) = 0.66915 -0.00634
# Poissons Ratio (y) = 0.40252 0.19295
# Poissons Ratio (z) = -0.00353 0.17888
#
# Static dielectric constant tensor:
#      x y z
#    x 3.384720 0.057290 0.326240 
#    y 0.057290 3.375870 0.961240 
#    z 0.326240 0.961240 1.461950 
# 
# 
# High freq. dielectric constant tensor:
#      x y z
#    x 1.763170 0.016200 0.009610 
#    y 0.016200 1.795000 -0.006080 
#    z 0.009610 -0.006080 1.820790 
# 
# From -- ./inp_files/621181.got.cif
#   From: 2010.06.25/outbox.cif.g09.slc.cpg/sg2_311_cif.got.tgz:621181.got - 2010.06.27 13:26:56.
