data_PCOD8041403
_publ_section_title
;
Structure prediction by ZEFSAII (Michael W. Deem and Ramdas Pophale) SiO2 
 PCOD8041403
Probable space group: P -1
;
_chemical_formula_sum "Si O2"
_cell_formula_units_Z 16
_cell_length_a 8.657345
_cell_length_b 11.786425
_cell_length_c 14.054608
_cell_angle_alpha 90.292457
_cell_angle_beta 137.327863
_cell_angle_gamma 68.268470
_cell_volume 817.672260
_symmetry_space_group_name_H-M "P -1"
_symmetry_group_IT_number 2
_symmetry_cell_setting 'triclinic'
loop_
_space_group_symop_operation_xyz
x,y,z
-x,-y,-z
loop_
_atom_site_type_symbol
_atom_site_label
_atom_site_fract_x
_atom_site_fract_y
_atom_site_fract_z
Si Si1 0.797003 0.665206 0.331295
Si Si2 0.710537 0.358380 0.550623
Si Si3 0.995587 0.327495 0.999694
Si Si4 0.756470 0.350623 0.098525
Si Si5 0.565624 0.623985 0.756920
Si Si6 0.575827 0.151237 0.989015
Si Si7 0.892595 0.383673 0.351257
Si Si8 0.095268 0.155109 0.872691
O O1 0.544849 0.799619 0.172101
O O2 0.743207 0.545557 0.295689
O O3 0.071003 0.619704 0.399993
O O4 0.837994 0.690100 0.460729
O O5 0.500000 0.500000 0.500000
O O6 0.559581 0.321702 0.404066
O O7 0.842437 0.240351 0.687897
O O8 0.885891 0.330920 0.054446
O O9 0.298688 0.296650 0.144887
O O10 0.800530 0.466048 0.855964
O O11 0.011572 0.209947 0.942683
O O12 0.971440 0.332492 0.277688
O O13 0.500000 0.500000 0.000000
O O14 0.676691 0.241924 0.078332
O O15 0.326900 0.652077 0.719746
O O16 0.346352 0.165744 0.955245
O O17 0.826452 0.997909 0.094500
#
# Coordination Sequence:
#
# PCOD8041403 Si02
#       8
#     2   2   2   2   2   2   2   2
#     4   9  19  33  58  83 112 147 189 232 283 336
#     4  10  19  32  56  85 114 145 184 240 282 330
#     4  11  22  33  55  87 115 151 184 235 288 333
#     4  12  22  34  58  86 116 149 191 239 280 334
#     4  10  20  33  53  85 114 139 185 237 285 328
#     4  10  21  40  60  83 114 154 192 230 282 346
#     4  10  19  35  54  85 112 142 187 238 283 329
#     4  10  22  39  60  83 115 154 191 229 285 346
#
# _framework density 19.567743
#
# number of rings (size 3 to 8) (size 9 to 14) (size 15 to 20)
#    0.000    1.750    3.750    0.750    3.500    0.500 
#    0.000    1.250    0.000    7.500    0.000    0.000 
#    0.000    0.000    0.000    0.000    0.000    0.000 
#
# Total GULP energy -198380.935255 kJ/mol
# GULP energy per Si atom -12398.808453 kJ/mol
# Density = 1.952321 g / cm^3
# Si number density = 19.567743 Si / 1000 Ang^3
#
#
#
# Elastic Constant Matrix: (Units=GPa)
#
#
# Indices 1 2 3 4 5 6 
#
# 1 72.4341 38.4007 42.9923 9.5778 -21.8334 -5.9063
# 2 38.4007 112.5395 61.8787 4.1639 -21.7877 0.5791
# 3 42.9923 61.8787 133.0038 8.4888 -31.8461 -5.9444
# 4 9.5778 4.1639 8.4888 34.7570 -0.6015 -3.3214
# 5 -21.8334 -21.7877 -31.8461 -0.6015 32.8063 9.2733
# 6 -5.9063 0.5791 -5.9444 -3.3214 9.2733 30.5302
#
#
#
# Elastic Compliance Matrix: (Units=1/GPa)
#
#
# Indices 1 2 3 4 5 6 
#
# 1 0.020486 -0.003808 -0.002531 -0.004377 0.008424 0.000508
# 2 -0.003808 0.013103 -0.004363 0.000342 0.002677 -0.002611
# 3 -0.002531 -0.004363 0.012220 -0.001680 0.007377 -0.000451
# 4 -0.004377 0.000342 -0.001680 0.030608 -0.004772 0.003599
# 5 0.008424 0.002677 0.007377 -0.004772 0.048389 -0.012202
# 6 0.000508 -0.002611 -0.000451 0.003599 -0.012202 0.036912
#
#
# Mechanical properties :
#
#
# Convention : Reuss Voigt Hill
#
# Bulk Modulus (GPa) = 40.97552 67.16897 54.07225
# Shear Modulus (GPa) = 26.14286 31.26574 28.70430
#
# Velocity S-wave (km/s) = 3.65912 4.00161 3.83419
# Velocity P-wave (km/s) = 6.23202 7.46669 6.87712
#
# Compressibility (1/GPa) = 0.02440481
#
# Stress axis : x y z
#
# Youngs Moduli (GPa) = 48.81315 76.31840 81.83459
#
# Poissons Ratio (x) = 0.29065 0.20714
# Poissons Ratio (y) = 0.18590 0.35701
# Poissons Ratio (z) = 0.12355 0.33295
#
# Static dielectric constant tensor:
#      x y z
#    x 3.648380 -0.047770 -0.305470 
#    y -0.047770 3.453710 0.308120 
#    z -0.305470 0.308120 4.011180 
# 
# 
# High freq. dielectric constant tensor:
#      x y z
#    x 1.760030 0.002230 -0.013050 
#    y 0.002230 1.729430 0.021680 
#    z -0.013050 0.021680 1.771440 
# 
# From -- ./inp_files/277552.got.cif
#   From: 2010.06.25/outbox.cif.g09.slc.cpg/sg2_139_cif.got.tgz:277552.got - 2010.06.27 13:26:56.
