data_PCOD8041026
_publ_section_title
;
Structure prediction by ZEFSAII (Michael W. Deem and Ramdas Pophale) SiO2 
 PCOD8041026
Probable space group: P -1
;
_chemical_formula_sum "Si O2"
_cell_formula_units_Z 16
_cell_length_a 9.971222
_cell_length_b 9.508798
_cell_length_c 12.293435
_cell_angle_alpha 108.337457
_cell_angle_beta 83.583412
_cell_angle_gamma 138.255819
_cell_volume 722.568755
_symmetry_space_group_name_H-M "P -1"
_symmetry_group_IT_number 2
_symmetry_cell_setting 'triclinic'
loop_
_space_group_symop_operation_xyz
x,y,z
-x,-y,-z
loop_
_atom_site_type_symbol
_atom_site_label
_atom_site_fract_x
_atom_site_fract_y
_atom_site_fract_z
Si Si1 0.677972 0.530982 0.483437
Si Si2 0.682518 0.383212 0.810428
Si Si3 0.465628 0.141576 0.552210
Si Si4 0.362890 0.337297 0.072412
Si Si5 0.258162 0.402519 0.755024
Si Si6 0.276976 0.991394 0.873992
Si Si7 0.066633 0.544056 0.881254
Si Si8 0.095773 0.943591 0.658687
O O1 0.500000 0.500000 0.500000
O O2 0.571750 0.291333 0.471118
O O3 0.755019 0.575204 0.365576
O O4 0.860368 0.729019 0.595683
O O5 0.575162 0.299750 0.684737
O O6 0.769670 0.624050 0.878367
O O7 0.865443 0.416548 0.797761
O O8 0.518847 0.200607 0.873608
O O9 0.500000 0.000000 0.500000
O O10 0.227856 0.991560 0.554950
O O11 0.507480 0.412030 0.179477
O O12 0.500000 0.500000 0.000000
O O13 0.224588 0.083196 0.985235
O O14 0.139203 0.437143 0.832208
O O15 0.142294 0.153613 0.731111
O O16 0.241008 0.806443 0.894196
O O17 0.141409 0.888921 0.751261
O O18 0.000000 0.500000 0.000000
#
# Coordination Sequence:
#
# PCOD8041026 Si02
#       8
#     2   2   2   2   2   2   2   2
#     4  12  26  45  70 105 140 179 234 291 354 411
#     4  10  22  44  69  98 135 179 237 281 336 425
#     4  11  25  44  71 102 138 185 233 284 346 420
#     4  10  18  43  74  93 130 181 237 275 334 415
#     4  12  25  45  72 104 144 181 226 300 349 408
#     4  10  23  45  76  94 132 191 231 284 345 414
#     4  12  28  44  63 109 144 174 232 294 354 403
#     4  11  24  48  73 101 138 190 239 276 346 436
#
# _framework density 22.143222000000002
#
# number of rings (size 3 to 8) (size 9 to 14) (size 15 to 20)
#    0.000    1.000    5.000    2.625    5.250    3.000 
#    4.500    0.000    0.000    0.000    0.000    0.000 
#    0.000    0.000    0.000    0.000    0.000    0.000 
#
# Total GULP energy -198377.111750 kJ/mol
# GULP energy per Si atom -12398.569484 kJ/mol
# Density = 2.209282 g / cm^3
# Si number density = 22.143222 Si / 1000 Ang^3
#
#
#
# Elastic Constant Matrix: (Units=GPa)
#
#
# Indices 1 2 3 4 5 6 
#
# 1 130.1645 44.2037 19.6791 10.2392 -12.8417 -12.2299
# 2 44.2037 101.6559 27.3035 -2.0965 -2.7788 -16.8496
# 3 19.6791 27.3035 74.3745 0.4093 -7.7490 -7.7179
# 4 10.2392 -2.0965 0.4093 31.3424 -0.7878 7.9003
# 5 -12.8417 -2.7788 -7.7490 -0.7878 39.8056 10.6283
# 6 -12.2299 -16.8496 -7.7179 7.9003 10.6283 40.3633
#
#
#
# Elastic Compliance Matrix: (Units=1/GPa)
#
#
# Indices 1 2 3 4 5 6 
#
# 1 0.009740 -0.003820 -0.000777 -0.003704 0.002296 0.001328
# 2 -0.003820 0.013086 -0.003604 0.001127 -0.002049 0.003935
# 3 -0.000777 -0.003604 0.015281 -0.000289 0.002298 0.000633
# 4 -0.003704 0.001127 -0.000289 0.035266 0.001675 -0.008051
# 5 0.002296 -0.002049 0.002298 0.001675 0.028195 -0.007472
# 6 0.001328 0.003935 0.000633 -0.008051 -0.007472 0.030485
#
#
# Mechanical properties :
#
#
# Convention : Reuss Voigt Hill
#
# Bulk Modulus (GPa) = 46.07604 54.28527 50.18065
# Shear Modulus (GPa) = 32.11479 36.63618 34.37549
#
# Velocity S-wave (km/s) = 3.81244 4.07198 3.94435
# Velocity P-wave (km/s) = 6.34295 6.83204 6.59203
#
# Compressibility (1/GPa) = 0.02170325
#
# Stress axis : x y z
#
# Youngs Moduli (GPa) = 102.66779 76.41892 65.44048
#
# Poissons Ratio (x) = 0.29192 0.05087
# Poissons Ratio (y) = 0.39220 0.23588
# Poissons Ratio (z) = 0.07981 0.27545
#
# Static dielectric constant tensor:
#      x y z
#    x 5.256390 0.187900 -0.564950 
#    y 0.187900 4.067590 0.048870 
#    z -0.564950 0.048870 4.382330 
# 
# 
# High freq. dielectric constant tensor:
#      x y z
#    x 1.876580 -0.007110 0.001730 
#    y -0.007110 1.868300 -0.004400 
#    z 0.001730 -0.004400 1.876800 
# 
# From -- ./inp_files/382652.got.cif
#   From: 2010.06.25/outbox.cif.g09.slc.cpg/sg2_192_cif.got.tgz:382652.got - 2010.06.27 13:26:56.
