data_PCOD8041706
_publ_section_title
;
Structure prediction by ZEFSAII (Michael W. Deem and Ramdas Pophale) SiO2 
 PCOD8041706
Probable space group: P -1
;
_chemical_formula_sum "Si O2"
_cell_formula_units_Z 16
_cell_length_a 11.419054
_cell_length_b 14.681371
_cell_length_c 11.901934
_cell_angle_alpha 72.235902
_cell_angle_beta 52.066495
_cell_angle_gamma 116.899953
_cell_volume 784.520473
_symmetry_space_group_name_H-M "P -1"
_symmetry_group_IT_number 2
_symmetry_cell_setting 'triclinic'
loop_
_space_group_symop_operation_xyz
x,y,z
-x,-y,-z
loop_
_atom_site_type_symbol
_atom_site_label
_atom_site_fract_x
_atom_site_fract_y
_atom_site_fract_z
Si Si1 0.385060 0.162759 0.026206
Si Si2 0.473521 0.128958 0.749064
Si Si3 0.761998 0.095090 0.642583
Si Si4 0.200162 0.936202 0.770458
Si Si5 0.956921 0.533259 0.840946
Si Si6 0.902720 0.812691 0.782701
Si Si7 0.739768 0.247252 0.203544
Si Si8 0.307871 0.504624 0.178769
O O1 0.384173 0.142676 0.902062
O O2 0.664780 0.379702 0.810726
O O3 0.110472 0.077893 0.252835
O O4 0.373988 0.057515 0.138356
O O5 0.527900 0.048176 0.780539
O O6 0.760738 0.328349 0.450701
O O7 0.213985 0.995601 0.861617
O O8 0.838143 0.088015 0.479806
O O9 0.045184 0.296530 0.456453
O O10 0.273214 0.868147 0.785568
O O11 0.918490 0.791606 0.914322
O O12 0.441518 0.115559 0.481689
O O13 0.752291 0.497370 0.913976
O O14 0.017258 0.610656 0.898452
O O15 0.804156 0.347398 0.018762
O O16 0.606325 0.610500 0.978369
#
# Coordination Sequence:
#
# PCOD8041706 Si02
#       8
#     2   2   2   2   2   2   2   2
#     4  10  24  38  57  88 115 156 188 227 294 342
#     4  10  22  39  56  85 115 150 189 236 284 338
#     4  11  20  39  62  87 112 146 194 241 285 332
#     4  10  19  33  57  81 114 148 189 234 276 339
#     4   9  18  34  56  81 116 145 185 239 286 333
#     4  10  22  37  57  86 114 152 191 235 283 338
#     4   9  18  32  55  88 109 145 190 236 286 326
#     4   9  22  36  59  84 117 148 186 242 277 338
#
# _framework density 20.394625000000001
#
# number of rings (size 3 to 8) (size 9 to 14) (size 15 to 20)
#    0.750    1.500    0.000    4.125    3.500    2.500 
#    2.250    2.500    0.000    1.500    0.000    0.000 
#    0.000    0.000    0.000    0.000    0.000    0.000 
#
# Total GULP energy -198242.581627 kJ/mol
# GULP energy per Si atom -12390.161352 kJ/mol
# Density = 2.034821 g / cm^3
# Si number density = 20.394625 Si / 1000 Ang^3
#
#
#
# Elastic Constant Matrix: (Units=GPa)
#
#
# Indices 1 2 3 4 5 6 
#
# 1 55.7919 9.7768 9.0509 -3.3374 -2.8152 5.5935
# 2 9.7768 75.7321 19.8122 9.8267 7.0178 5.9266
# 3 9.0509 19.8122 32.2646 1.7275 10.7881 -4.6825
# 4 -3.3374 9.8267 1.7275 25.4455 -2.1189 2.8031
# 5 -2.8152 7.0178 10.7881 -2.1189 31.9266 -10.0531
# 6 5.5935 5.9266 -4.6825 2.8031 -10.0531 39.5274
#
#
#
# Elastic Compliance Matrix: (Units=1/GPa)
#
#
# Indices 1 2 3 4 5 6 
#
# 1 0.019971 -0.001562 -0.006515 0.004275 0.003734 -0.002717
# 2 -0.001562 0.017175 -0.009574 -0.005973 -0.002217 -0.003629
# 3 -0.006515 -0.009574 0.043396 -0.001593 -0.011787 0.004613
# 4 0.004275 -0.005973 -0.001593 0.042848 0.004508 -0.001790
# 5 0.003734 -0.002217 -0.011787 0.004508 0.038937 0.007991
# 6 -0.002717 -0.003629 0.004613 -0.001790 0.007991 0.028933
#
#
# Mechanical properties :
#
#
# Convention : Reuss Voigt Hill
#
# Bulk Modulus (GPa) = 22.10400 26.78538 24.44469
# Shear Modulus (GPa) = 20.69190 27.72315 24.20752
#
# Velocity S-wave (km/s) = 3.18870 3.69092 3.44896
# Velocity P-wave (km/s) = 4.94153 5.59695 5.27942
#
# Compressibility (1/GPa) = 0.04524068
#
# Stress axis : x y z
#
# Youngs Moduli (GPa) = 50.07286 58.22411 23.04367
#
# Poissons Ratio (x) = 0.09094 0.15013
# Poissons Ratio (y) = 0.07821 0.22061
# Poissons Ratio (z) = 0.32622 0.55742
#
# Static dielectric constant tensor:
#      x y z
#    x 3.721950 0.128160 0.064820 
#    y 0.128160 3.895380 -0.246880 
#    z 0.064820 -0.246880 3.285490 
# 
# 
# High freq. dielectric constant tensor:
#      x y z
#    x 1.801840 0.010480 0.004920 
#    y 0.010480 1.809590 -0.016120 
#    z 0.004920 -0.016120 1.745100 
# 
# From -- ./inp_files/432884.got.cif
#   From: 2010.06.25/outbox.cif.g09.slc.cpg/sg2_217_cif.got.tgz:432884.got - 2010.06.27 13:26:56.
