data_PCOD8041996
_publ_section_title
;
Structure prediction by ZEFSAII (Michael W. Deem and Ramdas Pophale) SiO2 
 PCOD8041996
Probable space group: P -1
;
_chemical_formula_sum "Si O2"
_cell_formula_units_Z 14
_cell_length_a 14.858901
_cell_length_b 9.032110
_cell_length_c 9.605134
_cell_angle_alpha 75.900700
_cell_angle_beta 86.291709
_cell_angle_gamma 39.642327
_cell_volume 781.753789
_symmetry_space_group_name_H-M "P -1"
_symmetry_group_IT_number 2
_symmetry_cell_setting 'triclinic'
loop_
_space_group_symop_operation_xyz
x,y,z
-x,-y,-z
loop_
_atom_site_type_symbol
_atom_site_label
_atom_site_fract_x
_atom_site_fract_y
_atom_site_fract_z
Si Si1 0.251910 0.833669 0.924398
Si Si2 0.523800 0.795186 0.516337
Si Si3 0.918736 0.766176 0.924396
Si Si4 0.328026 0.850573 0.342694
Si Si5 0.519521 0.558861 0.790536
Si Si6 0.051717 0.883283 0.755711
Si Si7 0.205447 0.708556 0.491038
O O1 0.355810 0.768667 0.812825
O O2 0.136200 0.876003 0.856781
O O3 0.358649 0.598912 0.067224
O O4 0.162093 0.080194 0.959951
O O5 0.394232 0.897130 0.416351
O O6 0.535108 0.700696 0.685494
O O7 0.673422 0.578654 0.470905
O O8 0.500000 0.000000 0.500000
O O9 0.029267 0.751159 0.865539
O O10 0.800340 0.900875 0.785574
O O11 0.000000 0.500000 0.000000
O O12 0.448759 0.620239 0.280269
O O13 0.271922 0.791937 0.466068
O O14 0.134244 0.755274 0.631862
O O15 0.900006 0.160475 0.663415
#
# Coordination Sequence:
#
# PCOD8041996 Si02
#       7
#     2   2   2   2   2   2   2
#     4  10  19  34  56  75  97 134 174 208 241 292
#     4  11  21  32  52  79 104 129 164 210 255 296
#     4  10  22  34  49  76 107 134 162 202 257 304
#     4   9  18  36  55  71  99 137 168 204 249 294
#     4   9  19  35  54  76  99 131 173 207 245 295
#     4  10  19  34  56  75  97 134 174 208 241 292
#     4   9  19  35  54  76  99 131 173 207 245 295
#
# _framework density 17.908453000000002
#
# number of rings (size 3 to 8) (size 9 to 14) (size 15 to 20)
#    0.000    2.286    0.000    4.714    0.000    3.429 
#    0.000    0.000    0.000   13.714    0.000    0.000 
#    0.000    0.000    0.000    0.000    0.000    0.000 
#
# Total GULP energy -173559.694253 kJ/mol
# GULP energy per Si atom -12397.121018 kJ/mol
# Density = 1.786769 g / cm^3
# Si number density = 17.908453 Si / 1000 Ang^3
#
#
#
# Elastic Constant Matrix: (Units=GPa)
#
#
# Indices 1 2 3 4 5 6 
#
# 1 96.1535 60.7399 27.9369 -2.9352 18.6642 -2.0959
# 2 60.7399 116.4843 30.9277 -13.8778 -6.2807 2.9824
# 3 27.9369 30.9277 48.4698 -1.3961 2.6463 0.0504
# 4 -2.9352 -13.8778 -1.3961 23.6023 -6.7005 -8.1635
# 5 18.6642 -6.2807 2.6463 -6.7005 35.3012 2.5043
# 6 -2.0959 2.9824 0.0504 -8.1635 2.5043 28.6414
#
#
#
# Elastic Compliance Matrix: (Units=1/GPa)
#
#
# Indices 1 2 3 4 5 6 
#
# 1 0.022187 -0.012292 -0.004353 -0.008438 -0.015324 0.001846
# 2 -0.012292 0.018513 -0.005054 0.012504 0.012570 -0.000353
# 3 -0.004353 -0.005054 0.026351 -0.002386 -0.000995 -0.000432
# 4 -0.008438 0.012504 -0.002386 0.057864 0.016919 0.013098
# 5 -0.015324 0.012570 -0.000995 0.016919 0.042043 -0.001282
# 6 0.001846 -0.000353 -0.000432 0.013098 -0.001282 0.038933
#
#
# Mechanical properties :
#
#
# Convention : Reuss Voigt Hill
#
# Bulk Modulus (GPa) = 42.27726 55.59072 48.93399
# Shear Modulus (GPa) = 19.44231 26.94253 23.19242
#
# Velocity S-wave (km/s) = 3.29850 3.88294 3.60259
# Velocity P-wave (km/s) = 6.17782 7.15626 6.68496
#
# Compressibility (1/GPa) = 0.02365338
#
# Stress axis : x y z
#
# Youngs Moduli (GPa) = 45.07194 54.01676 37.94938
#
# Poissons Ratio (x) = 0.66398 0.16519
# Poissons Ratio (y) = 0.55403 0.19178
# Poissons Ratio (z) = 0.19619 0.27297
#
# Static dielectric constant tensor:
#      x y z
#    x 3.260630 -0.368500 -0.005780 
#    y -0.368500 3.306900 0.036110 
#    z -0.005780 0.036110 3.532160 
# 
# 
# High freq. dielectric constant tensor:
#      x y z
#    x 1.687650 -0.027130 0.004310 
#    y -0.027130 1.683310 0.002120 
#    z 0.004310 0.002120 1.707930 
# 
# From -- ./inp_files/167568.got.cif
#   From: 2010.06.25/outbox.cif.g09.slc.cpg/sg2_84_cif.got.tgz:167568.got - 2010.06.27 13:26:56.
