data_PCOD8041302
_publ_section_title
;
Structure prediction by ZEFSAII (Michael W. Deem and Ramdas Pophale) SiO2 
 PCOD8041302
Probable space group: P -1
;
_chemical_formula_sum "Si O2"
_cell_formula_units_Z 16
_cell_length_a 8.239522
_cell_length_b 12.452678
_cell_length_c 16.232513
_cell_angle_alpha 111.806789
_cell_angle_beta 35.566253
_cell_angle_gamma 96.987751
_cell_volume 847.679409
_symmetry_space_group_name_H-M "P -1"
_symmetry_group_IT_number 2
_symmetry_cell_setting 'triclinic'
loop_
_space_group_symop_operation_xyz
x,y,z
-x,-y,-z
loop_
_atom_site_type_symbol
_atom_site_label
_atom_site_fract_x
_atom_site_fract_y
_atom_site_fract_z
Si Si1 0.512260 0.785404 0.560902
Si Si2 0.833823 0.902710 0.054816
Si Si3 0.830690 0.727559 0.707016
Si Si4 0.625905 0.313417 0.238225
Si Si5 0.915492 0.063579 0.348569
Si Si6 0.716219 0.990750 0.568735
Si Si7 0.468933 0.561609 0.443036
Si Si8 0.502897 0.111226 0.973746
O O1 0.392850 0.741794 0.679691
O O2 0.243225 0.894792 0.661471
O O3 0.612841 0.671047 0.421468
O O4 0.763963 0.845427 0.493711
O O5 0.581124 0.948324 0.240149
O O6 0.700827 0.875091 0.017298
O O7 0.072206 0.775206 0.952663
O O8 0.000000 0.000000 0.000000
O O9 0.659827 0.682198 0.694514
O O10 0.910959 0.843133 0.670757
O O11 0.124760 0.616784 0.576796
O O12 0.623903 0.764687 0.884865
O O13 0.633408 0.453049 0.279930
O O14 0.683008 0.061007 0.515028
O O15 0.151667 0.924365 0.204975
O O16 0.000000 0.000000 0.500000
O O17 0.500000 0.500000 0.500000
O O18 0.500000 0.000000 0.000000
#
# Coordination Sequence:
#
# PCOD8041302 Si02
#       8
#     2   2   2   2   2   2   2   2
#     4  10  21  36  58  79 116 154 189 236 287 338
#     4  12  22  35  58  86 119 149 190 242 291 339
#     4  10  20  33  59  85 119 149 191 241 283 338
#     4  11  20  35  58  88 112 148 196 246 281 335
#     4  10  20  36  52  84 117 157 184 230 290 355
#     4  12  23  37  56  86 121 153 189 233 294 353
#     4   9  19  36  57  85 112 149 195 241 285 332
#     4  10  19  32  52  81 120 146 185 229 292 332
#
# _framework density 18.875060999999999
#
# number of rings (size 3 to 8) (size 9 to 14) (size 15 to 20)
#    0.000    1.500    2.500    6.000    1.750    0.000 
#    0.000    0.000    0.000    3.750    3.250    0.000 
#    0.000    0.000    0.000    0.000    0.000    0.000 
#
# Total GULP energy -198283.084648 kJ/mol
# GULP energy per Si atom -12392.692791 kJ/mol
# Density = 1.883210 g / cm^3
# Si number density = 18.875061 Si / 1000 Ang^3
#
#
#
# Elastic Constant Matrix: (Units=GPa)
#
#
# Indices 1 2 3 4 5 6 
#
# 1 106.6779 46.0901 39.5156 7.2039 -3.2898 9.0538
# 2 46.0901 91.3205 58.9224 17.8816 -2.9782 21.8869
# 3 39.5156 58.9224 120.7757 11.8609 0.8642 5.6491
# 4 7.2039 17.8816 11.8609 35.1413 -5.2585 3.1376
# 5 -3.2898 -2.9782 0.8642 -5.2585 28.0521 2.0224
# 6 9.0538 21.8869 5.6491 3.1376 2.0224 38.1615
#
#
#
# Elastic Compliance Matrix: (Units=1/GPa)
#
#
# Indices 1 2 3 4 5 6 
#
# 1 0.012207 -0.005439 -0.001449 0.000883 0.001042 0.000310
# 2 -0.005439 0.022744 -0.008212 -0.006558 0.001527 -0.010080
# 3 -0.001449 -0.008212 0.012652 -0.000349 -0.001735 0.003301
# 4 0.000883 -0.006558 -0.000349 0.032490 0.005462 0.000643
# 5 0.001042 0.001527 -0.001735 0.005462 0.037247 -0.003289
# 6 0.000310 -0.010080 0.003301 0.000643 -0.003289 0.031545
#
#
# Mechanical properties :
#
#
# Convention : Reuss Voigt Hill
#
# Bulk Modulus (GPa) = 57.45990 67.53670 62.49830
# Shear Modulus (GPa) = 27.04359 31.88739 29.46549
#
# Velocity S-wave (km/s) = 3.78930 4.11468 3.95534
# Velocity P-wave (km/s) = 7.04651 7.64413 7.35140
#
# Compressibility (1/GPa) = 0.01740344
#
# Stress axis : x y z
#
# Youngs Moduli (GPa) = 81.92066 43.96758 79.03612
#
# Poissons Ratio (x) = 0.23915 0.11451
# Poissons Ratio (y) = 0.44559 0.64903
# Poissons Ratio (z) = 0.11869 0.36105
#
# Static dielectric constant tensor:
#      x y z
#    x 3.699120 0.218150 0.085050 
#    y 0.218150 3.717910 0.336490 
#    z 0.085050 0.336490 3.868910 
# 
# 
# High freq. dielectric constant tensor:
#      x y z
#    x 1.757150 0.006060 -0.000460 
#    y 0.006060 1.704790 0.020560 
#    z -0.000460 0.020560 1.714970 
# 
# From -- ./inp_files/202117.got.cif
#   From: 2010.06.25/outbox.cif.g09.slc.cpg/sg2_102_cif.got.tgz:202117.got - 2010.06.27 13:26:56.
