data_PCOD8041712
_publ_section_title
;
Structure prediction by ZEFSAII (Michael W. Deem and Ramdas Pophale) SiO2 
 PCOD8041712
Probable space group: P -1
;
_chemical_formula_sum "Si O2"
_cell_formula_units_Z 16
_cell_length_a 9.476228
_cell_length_b 17.290232
_cell_length_c 8.593636
_cell_angle_alpha 42.609455
_cell_angle_beta 101.446030
_cell_angle_gamma 114.059918
_cell_volume 858.579387
_symmetry_space_group_name_H-M "P -1"
_symmetry_group_IT_number 2
_symmetry_cell_setting 'triclinic'
loop_
_space_group_symop_operation_xyz
x,y,z
-x,-y,-z
loop_
_atom_site_type_symbol
_atom_site_label
_atom_site_fract_x
_atom_site_fract_y
_atom_site_fract_z
Si Si1 0.974665 0.367700 0.624105
Si Si2 0.667979 0.912064 0.931819
Si Si3 0.021921 0.631880 0.743416
Si Si4 0.178687 0.009413 0.834625
Si Si5 0.893770 0.794470 0.642033
Si Si6 0.326741 0.845395 0.982631
Si Si7 0.763761 0.135915 0.404964
Si Si8 0.857673 0.789767 0.993710
O O1 0.984040 0.372929 0.434480
O O2 0.000000 0.500000 0.500000
O O3 0.808358 0.271130 0.793595
O O4 0.117303 0.331848 0.763806
O O5 0.495175 0.846238 0.066579
O O6 0.709192 0.804924 0.017323
O O7 0.656715 0.014393 0.657029
O O8 0.799856 0.980561 0.989113
O O9 0.190976 0.737977 0.670029
O O10 0.885947 0.670207 0.733164
O O11 0.000000 0.500000 0.000000
O O12 0.198466 0.142583 0.574750
O O13 0.314493 0.972280 0.848736
O O14 0.010273 0.909279 0.898125
O O15 0.818613 0.769084 0.833344
O O16 0.077561 0.885101 0.572596
O O17 0.317746 0.841222 0.800199
#
# Coordination Sequence:
#
# PCOD8041712 Si02
#       8
#     2   2   2   2   2   2   2   2
#     4  11  21  38  62  83 108 145 187 235 275 328
#     4  12  23  33  54  86 118 153 180 227 286 334
#     4  10  19  34  57  86 107 135 188 239 273 315
#     4  11  19  34  53  79 115 149 187 230 268 331
#     4  10  19  33  57  82 110 145 196 235 267 320
#     4  11  23  37  53  84 119 147 185 226 284 337
#     4  10  19  35  54  80 115 147 187 225 276 322
#     4  11  19  35  56  82 110 148 192 231 270 325
#
# _framework density 18.635434
#
# number of rings (size 3 to 8) (size 9 to 14) (size 15 to 20)
#    0.750    0.500    3.750    6.000    0.000    0.000 
#    0.000    0.625    0.000    0.000    0.000    6.125 
#    0.000    0.000    0.000    0.000    0.000    0.000 
#
# Total GULP energy -198339.635876 kJ/mol
# GULP energy per Si atom -12396.227242 kJ/mol
# Density = 1.859302 g / cm^3
# Si number density = 18.635434 Si / 1000 Ang^3
#
#
#
# Elastic Constant Matrix: (Units=GPa)
#
#
# Indices 1 2 3 4 5 6 
#
# 1 102.7841 35.3515 39.7654 -13.2219 10.1588 -21.6210
# 2 35.3515 108.3026 50.8723 8.1503 9.6573 -32.7195
# 3 39.7654 50.8723 125.1919 1.4271 16.3581 -15.7949
# 4 -13.2219 8.1503 1.4271 40.2524 -7.9466 3.3262
# 5 10.1588 9.6573 16.3581 -7.9466 22.2306 -4.3448
# 6 -21.6210 -32.7195 -15.7949 3.3262 -4.3448 26.6317
#
#
#
# Elastic Compliance Matrix: (Units=1/GPa)
#
#
# Indices 1 2 3 4 5 6 
#
# 1 0.013280 -0.001070 -0.002830 0.003946 -0.000707 0.007180
# 2 -0.001070 0.017973 -0.004142 -0.005946 -0.002671 0.019063
# 3 -0.002830 -0.004142 0.011174 -0.001541 -0.005982 -0.001542
# 4 0.003946 -0.005946 -0.001541 0.030214 0.011358 -0.006936
# 5 -0.000707 -0.002671 -0.005982 0.011358 0.054957 0.000143
# 6 0.007180 0.019063 -0.001542 -0.006936 0.000143 0.066774
#
#
# Mechanical properties :
#
#
# Convention : Reuss Voigt Hill
#
# Bulk Modulus (GPa) = 37.95988 65.36188 51.66088
# Shear Modulus (GPa) = 22.80644 31.84225 27.32435
#
# Velocity S-wave (km/s) = 3.50211 4.13812 3.83333
# Velocity P-wave (km/s) = 6.06358 7.61460 6.88292
#
# Compressibility (1/GPa) = 0.02634360
#
# Stress axis : x y z
#
# Youngs Moduli (GPa) = 75.30146 55.63895 89.49155
#
# Poissons Ratio (x) = 0.05955 0.25326
# Poissons Ratio (y) = 0.08059 0.37063
# Poissons Ratio (z) = 0.21310 0.23043
#
# Static dielectric constant tensor:
#      x y z
#    x 3.335670 -0.267240 0.208580 
#    y -0.267240 3.380400 0.139440 
#    z 0.208580 0.139440 3.314330 
# 
# 
# High freq. dielectric constant tensor:
#      x y z
#    x 1.703040 -0.026570 0.015680 
#    y -0.026570 1.720960 0.021310 
#    z 0.015680 0.021310 1.720410 
# 
# From -- ./inp_files/216485.got.cif
#   From: 2010.06.25/outbox.cif.g09.slc.cpg/sg2_109_cif.got.tgz:216485.got - 2010.06.27 13:26:56.
