data_PCOD8041813
_publ_section_title
;
Structure prediction by ZEFSAII (Michael W. Deem and Ramdas Pophale) SiO2 
 PCOD8041813
Probable space group: P -1
;
_chemical_formula_sum "Si O2"
_cell_formula_units_Z 16
_cell_length_a 23.105732
_cell_length_b 16.129513
_cell_length_c 13.836096
_cell_angle_alpha 26.266445
_cell_angle_beta 156.842009
_cell_angle_gamma 156.842179
_cell_volume 752.156821
_symmetry_space_group_name_H-M "P -1"
_symmetry_group_IT_number 2
_symmetry_cell_setting 'triclinic'
loop_
_space_group_symop_operation_xyz
x,y,z
-x,-y,-z
loop_
_atom_site_type_symbol
_atom_site_label
_atom_site_fract_x
_atom_site_fract_y
_atom_site_fract_z
Si Si1 0.136632 0.081827 0.862536
Si Si2 0.932077 0.582809 0.085306
Si Si3 0.329789 0.349428 0.701236
Si Si4 0.828899 0.421917 0.884337
Si Si5 0.504018 0.249634 0.326220
Si Si6 0.205946 0.472078 0.671675
Si Si7 0.198347 0.583580 0.742905
Si Si8 0.550353 0.974376 0.831626
O O1 0.171559 0.186313 0.700728
O O2 0.087897 0.218822 0.716166
O O3 0.304588 0.090681 0.154277
O O4 0.975205 0.828486 0.872910
O O5 0.104329 0.595191 0.372686
O O6 0.791255 0.486223 0.058326
O O7 0.865861 0.436216 0.040065
O O8 0.245311 0.422849 0.413212
O O9 0.477652 0.573416 0.750636
O O10 0.405810 0.214566 0.911797
O O11 0.683482 0.161574 0.915098
O O12 0.000000 0.500000 0.000000
O O13 0.612451 0.386685 0.255411
O O14 0.568958 0.095495 0.630505
O O15 0.249313 0.471387 0.853021
O O16 0.347242 0.851130 0.685094
O O17 0.000000 0.500000 0.500000
#
# Coordination Sequence:
#
# PCOD8041813 Si02
#       8
#     2   2   2   2   2   2   2   2
#     4  11  20  33  59  88 118 149 183 245 308 347
#     4  11  24  39  55  82 117 157 203 237 279 350
#     4  10  21  36  60  92 118 147 193 245 302 355
#     4  11  24  41  62  89 118 152 201 247 291 351
#     4  10  19  33  59  93 118 143 187 244 308 362
#     4  10  20  36  58  88 119 147 191 245 299 357
#     4  10  22  40  61  86 118 158 200 238 289 356
#     4  11  22  39  62  86 122 160 191 245 298 336
#
# _framework density 21.27216
#
# number of rings (size 3 to 8) (size 9 to 14) (size 15 to 20)
#    0.000    1.500    0.000    8.250    0.000    5.500 
#    0.000    5.625    0.000    0.000    0.000    0.000 
#    0.000    0.000    0.000    0.000    0.000    0.000 
#
# Total GULP energy -198312.402558 kJ/mol
# GULP energy per Si atom -12394.525160 kJ/mol
# Density = 2.122374 g / cm^3
# Si number density = 21.272160 Si / 1000 Ang^3
#
#
#
# Elastic Constant Matrix: (Units=GPa)
#
#
# Indices 1 2 3 4 5 6 
#
# 1 130.0804 59.9246 35.2637 -0.5603 -25.8124 -6.9403
# 2 59.9246 138.6118 24.0828 -3.8551 2.1119 -2.8269
# 3 35.2637 24.0828 79.9053 -11.4412 2.2224 -8.8757
# 4 -0.5603 -3.8551 -11.4412 25.3797 -11.9888 4.6032
# 5 -25.8124 2.1119 2.2224 -11.9888 30.8535 2.7172
# 6 -6.9403 -2.8269 -8.8757 4.6032 2.7172 24.2365
#
#
#
# Elastic Compliance Matrix: (Units=1/GPa)
#
#
# Indices 1 2 3 4 5 6 
#
# 1 0.014285 -0.005507 -0.004490 0.004378 0.014410 -0.000643
# 2 -0.005507 0.009740 -0.000553 -0.001769 -0.005953 0.000360
# 3 -0.004490 -0.000553 0.015862 0.004640 -0.003407 0.003959
# 4 0.004378 -0.001769 0.004640 0.055532 0.025971 -0.010712
# 5 0.014410 -0.005953 -0.003407 0.025971 0.056006 -0.009027
# 6 -0.000643 0.000360 0.003959 -0.010712 -0.009027 0.045614
#
#
# Mechanical properties :
#
#
# Convention : Reuss Voigt Hill
#
# Bulk Modulus (GPa) = 53.22592 65.23775 59.23184
# Shear Modulus (GPa) = 22.28140 31.38238 26.83189
#
# Velocity S-wave (km/s) = 3.23994 3.84510 3.55542
# Velocity P-wave (km/s) = 6.25076 7.10266 6.69028
#
# Compressibility (1/GPa) = 0.01878784
#
# Stress axis : x y z
#
# Youngs Moduli (GPa) = 70.00128 102.66972 63.04387
#
# Poissons Ratio (x) = 0.56537 0.28307
# Poissons Ratio (y) = 0.38547 0.03487
# Poissons Ratio (z) = 0.31431 0.05678
#
# Static dielectric constant tensor:
#      x y z
#    x 4.231740 -0.059240 -0.062940 
#    y -0.059240 3.934120 -0.088690 
#    z -0.062940 -0.088690 3.779030 
# 
# 
# High freq. dielectric constant tensor:
#      x y z
#    x 1.825630 -0.013370 -0.004080 
#    y -0.013370 1.833860 -0.005460 
#    z -0.004080 -0.005460 1.823720 
# 
# From -- ./inp_files/471692.got.cif
#   From: 2010.06.25/outbox.cif.g09.slc.cpg/sg2_236_cif.got.tgz:471692.got - 2010.06.27 13:26:56.
