data_PCOD8041495
_publ_section_title
;
Structure prediction by ZEFSAII (Michael W. Deem and Ramdas Pophale) SiO2 
 PCOD8041495
Probable space group: P -1
;
_chemical_formula_sum "Si O2"
_cell_formula_units_Z 16
_cell_length_a 12.671379
_cell_length_b 22.677113
_cell_length_c 16.203594
_cell_angle_alpha 152.476410
_cell_angle_beta 23.912109
_cell_angle_gamma 153.459153
_cell_volume 779.727618
_symmetry_space_group_name_H-M "P -1"
_symmetry_group_IT_number 2
_symmetry_cell_setting 'triclinic'
loop_
_space_group_symop_operation_xyz
x,y,z
-x,-y,-z
loop_
_atom_site_type_symbol
_atom_site_label
_atom_site_fract_x
_atom_site_fract_y
_atom_site_fract_z
Si Si1 0.713807 0.241550 0.433444
Si Si2 0.753159 0.958282 0.241240
Si Si3 0.897658 0.272071 0.524122
Si Si4 0.426353 0.645844 0.861253
Si Si5 0.249633 0.303878 0.010662
Si Si6 0.306611 0.376202 0.882867
Si Si7 0.052320 0.495244 0.093022
Si Si8 0.619268 0.942145 0.129704
O O1 0.522153 0.311790 0.618186
O O2 0.808816 0.300417 0.531421
O O3 0.001291 0.287489 0.231117
O O4 0.522314 0.069038 0.354337
O O5 0.688887 0.915343 0.139409
O O6 0.619158 0.812186 0.212171
O O7 0.702593 0.100652 0.479253
O O8 0.098036 0.012344 0.073897
O O9 0.232089 0.304021 0.319419
O O10 0.873534 0.371690 0.735127
O O11 0.273549 0.564846 0.785584
O O12 0.283902 0.542015 0.911393
O O13 0.374643 0.788825 0.082588
O O14 0.519605 0.455943 0.016853
O O15 0.138416 0.291369 0.980156
O O16 0.075880 0.364858 0.963124
#
# Coordination Sequence:
#
# PCOD8041495 Si02
#       8
#     2   2   2   2   2   2   2   2
#     4  10  20  34  56  81 106 136 166 212 268 308
#     4   8  15  29  54  81 102 126 164 219 268 302
#     4  10  19  35  58  81 103 130 173 221 262 302
#     4  10  21  38  57  74 102 138 175 220 256 296
#     4  10  19  33  51  77 110 138 166 209 263 312
#     4  11  22  33  48  77 112 141 171 203 250 319
#     4  11  23  36  52  77 106 141 177 208 251 307
#     4   8  15  31  54  78 100 130 172 214 259 302
#
# _framework density 20.519987
#
# number of rings (size 3 to 8) (size 9 to 14) (size 15 to 20)
#    0.000    2.250    0.000    6.000    0.000    2.000 
#    0.000    3.750    0.000    6.750    0.000    0.000 
#    0.000    0.000    0.000    0.000    0.000    0.000 
#
# Total GULP energy -198340.541498 kJ/mol
# GULP energy per Si atom -12396.283844 kJ/mol
# Density = 2.047328 g / cm^3
# Si number density = 20.519987 Si / 1000 Ang^3
#
#
#
# Elastic Constant Matrix: (Units=GPa)
#
#
# Indices 1 2 3 4 5 6 
#
# 1 93.1521 38.7453 51.6333 17.4833 2.5220 -17.6400
# 2 38.7453 83.4925 26.4559 12.8128 -1.3747 -14.4095
# 3 51.6333 26.4559 104.1591 14.8874 -6.3498 -11.3847
# 4 17.4833 12.8128 14.8874 31.0651 -9.6429 -0.2468
# 5 2.5220 -1.3747 -6.3498 -9.6429 25.8310 3.6510
# 6 -17.6400 -14.4095 -11.3847 -0.2468 3.6510 31.1530
#
#
#
# Elastic Compliance Matrix: (Units=1/GPa)
#
#
# Indices 1 2 3 4 5 6 
#
# 1 0.019722 -0.004482 -0.007142 -0.008267 -0.008046 0.007361
# 2 -0.004482 0.015652 -0.000774 -0.003833 -0.000987 0.004504
# 3 -0.007142 -0.000774 0.013739 -0.001131 0.003584 0.000190
# 4 -0.008267 -0.003833 -0.001131 0.044539 0.018173 -0.008644
# 5 -0.008046 -0.000987 0.003584 0.018173 0.048417 -0.009233
# 6 0.007361 0.004504 0.000190 -0.008644 -0.009233 0.039434
#
#
# Mechanical properties :
#
#
# Convention : Reuss Voigt Hill
#
# Bulk Modulus (GPa) = 41.12547 57.16363 49.14455
# Shear Modulus (GPa) = 23.32062 28.54111 25.93087
#
# Velocity S-wave (km/s) = 3.37483 3.73351 3.55870
# Velocity P-wave (km/s) = 5.93895 6.81935 6.39432
#
# Compressibility (1/GPa) = 0.02431583
#
# Stress axis : x y z
#
# Youngs Moduli (GPa) = 50.70538 63.89155 72.78759
#
# Poissons Ratio (x) = 0.28638 0.51987
# Poissons Ratio (y) = 0.22728 0.05630
# Poissons Ratio (z) = 0.36215 0.04942
#
# Static dielectric constant tensor:
#      x y z
#    x 3.794480 -0.254370 -0.128980 
#    y -0.254370 4.071040 0.187860 
#    z -0.128980 0.187860 3.999340 
# 
# 
# High freq. dielectric constant tensor:
#      x y z
#    x 1.771510 -0.023120 -0.002850 
#    y -0.023120 1.809260 -0.000700 
#    z -0.002850 -0.000700 1.824330 
# 
# From -- ./inp_files/418260.got.cif
#   From: 2010.06.25/outbox.cif.g09.slc.cpg/sg2_210_cif.got.tgz:418260.got - 2010.06.27 13:26:56.
