data_PCOD8041976
_publ_section_title
;
Structure prediction by ZEFSAII (Michael W. Deem and Ramdas Pophale) SiO2 
 PCOD8041976
Probable space group: P -1
;
_chemical_formula_sum "Si O2"
_cell_formula_units_Z 16
_cell_length_a 7.460769
_cell_length_b 13.463563
_cell_length_c 13.378024
_cell_angle_alpha 124.952420
_cell_angle_beta 44.501726
_cell_angle_gamma 105.074881
_cell_volume 745.772429
_symmetry_space_group_name_H-M "P -1"
_symmetry_group_IT_number 2
_symmetry_cell_setting 'triclinic'
loop_
_space_group_symop_operation_xyz
x,y,z
-x,-y,-z
loop_
_atom_site_type_symbol
_atom_site_label
_atom_site_fract_x
_atom_site_fract_y
_atom_site_fract_z
Si Si1 0.431223 0.553214 0.924944
Si Si2 0.597221 0.483054 0.315235
Si Si3 0.973710 0.251412 0.677227
Si Si4 0.374276 0.323812 0.440118
Si Si5 0.153131 0.873999 0.812929
Si Si6 0.485758 0.272377 0.781212
Si Si7 0.887791 0.677485 0.876035
Si Si8 0.487640 0.119338 0.505899
O O1 0.358878 0.529022 0.825992
O O2 0.491301 0.418752 0.879349
O O3 0.681153 0.613154 0.865824
O O4 0.160822 0.644285 0.127174
O O5 0.370121 0.414657 0.399434
O O6 0.519500 0.626498 0.468151
O O7 0.854649 0.424259 0.247097
O O8 0.753071 0.189888 0.681451
O O9 0.080901 0.312253 0.572507
O O10 0.215968 0.146618 0.566968
O O11 0.587591 0.190283 0.260199
O O12 0.251976 0.903305 0.680350
O O13 0.961340 0.779059 0.830861
O O14 0.000000 0.000000 0.000000
O O15 0.473048 0.238174 0.651649
O O16 0.242960 0.249506 0.929021
O O17 0.500000 0.000000 0.500000
#
# Coordination Sequence:
#
# PCOD8041976 Si02
#       8
#     2   2   2   2   2   2   2   2
#     4  11  21  34  61  93 119 153 189 229 289 348
#     4  10  19  34  55  83 120 151 187 232 282 342
#     4  10  21  38  58  86 120 147 189 239 285 344
#     4   9  19  35  55  80 113 154 187 233 290 335
#     4  10  21  39  60  81 111 152 196 241 287 337
#     4  11  22  37  61  90 120 154 189 233 289 345
#     4  10  21  37  58  86 121 154 186 231 286 344
#     4  11  24  41  63  86 111 154 201 240 288 339
#
# _framework density 21.454266000000001
#
# number of rings (size 3 to 8) (size 9 to 14) (size 15 to 20)
#    0.000    1.750    0.000    6.000    0.000    4.000 
#    0.000    8.125    0.000    9.000    0.000    0.000 
#    0.000    0.000    0.000    0.000    0.000    0.000 
#
# Total GULP energy -198292.308556 kJ/mol
# GULP energy per Si atom -12393.269285 kJ/mol
# Density = 2.140544 g / cm^3
# Si number density = 21.454266 Si / 1000 Ang^3
#
#
#
# Elastic Constant Matrix: (Units=GPa)
#
#
# Indices 1 2 3 4 5 6 
#
# 1 55.3808 15.5688 22.9148 0.4696 -10.8399 -4.8571
# 2 15.5688 96.1808 35.4609 -16.6357 -15.0123 2.8366
# 3 22.9148 35.4609 119.3181 -16.5013 -6.4162 0.1965
# 4 0.4696 -16.6357 -16.5013 37.5890 0.9248 2.4843
# 5 -10.8399 -15.0123 -6.4162 0.9248 26.2910 -3.5327
# 6 -4.8571 2.8366 0.1965 2.4843 -3.5327 21.6645
#
#
#
# Elastic Compliance Matrix: (Units=1/GPa)
#
#
# Indices 1 2 3 4 5 6 
#
# 1 0.022408 -0.001698 -0.003826 -0.003383 0.008400 0.007038
# 2 -0.001698 0.013466 -0.002695 0.004764 0.005936 -0.001698
# 3 -0.003826 -0.002695 0.010356 0.003498 -0.000866 -0.001141
# 4 -0.003383 0.004764 0.003498 0.030599 0.000451 -0.004849
# 5 0.008400 0.005936 -0.000866 0.000451 0.045808 0.008532
# 6 0.007038 -0.001698 -0.001141 -0.004849 0.008532 0.049916
#
#
# Mechanical properties :
#
#
# Convention : Reuss Voigt Hill
#
# Bulk Modulus (GPa) = 33.56776 46.52987 40.04882
# Shear Modulus (GPa) = 25.13543 30.23790 27.68666
#
# Velocity S-wave (km/s) = 3.42655 3.75829 3.59625
# Velocity P-wave (km/s) = 5.59778 6.36930 5.99596
#
# Compressibility (1/GPa) = 0.02979049
#
# Stress axis : x y z
#
# Youngs Moduli (GPa) = 44.62778 74.26019 96.56344
#
# Poissons Ratio (x) = 0.12609 0.36949
# Poissons Ratio (y) = 0.07578 0.26026
# Poissons Ratio (z) = 0.17077 0.20015
#
# Static dielectric constant tensor:
#      x y z
#    x 3.558450 0.029480 -0.067380 
#    y 0.029480 3.942330 -0.273590 
#    z -0.067380 -0.273590 4.121450 
# 
# 
# High freq. dielectric constant tensor:
#      x y z
#    x 1.812330 -0.001560 -0.009220 
#    y -0.001560 1.839980 -0.019710 
#    z -0.009220 -0.019710 1.859920 
# 
# From -- ./inp_files/504231.got.cif
#   From: 2010.06.25/outbox.cif.g09.slc.cpg/sg2_253_cif.got.tgz:504231.got - 2010.06.27 13:26:56.
