data_PCOD8041233
_publ_section_title
;
Structure prediction by ZEFSAII (Michael W. Deem and Ramdas Pophale) SiO2 
 PCOD8041233
Probable space group: P -1
;
_chemical_formula_sum "Si O2"
_cell_formula_units_Z 16
_cell_length_a 14.858052
_cell_length_b 9.794013
_cell_length_c 11.559409
_cell_angle_alpha 79.168378
_cell_angle_beta 28.603491
_cell_angle_gamma 70.882017
_cell_volume 742.211929
_symmetry_space_group_name_H-M "P -1"
_symmetry_group_IT_number 2
_symmetry_cell_setting 'triclinic'
loop_
_space_group_symop_operation_xyz
x,y,z
-x,-y,-z
loop_
_atom_site_type_symbol
_atom_site_label
_atom_site_fract_x
_atom_site_fract_y
_atom_site_fract_z
Si Si1 0.701156 0.625539 0.817889
Si Si2 0.326063 0.656927 0.641059
Si Si3 0.696490 0.042318 0.265328
Si Si4 0.619103 0.657026 0.650095
Si Si5 0.309911 0.668060 0.393034
Si Si6 0.066734 0.712099 0.451530
Si Si7 0.824884 0.180023 0.906926
Si Si8 0.930617 0.766823 0.178253
O O1 0.638260 0.706446 0.752362
O O2 0.781326 0.448086 0.738359
O O3 0.850139 0.695656 0.700947
O O4 0.513146 0.667767 0.106742
O O5 0.500000 0.500000 0.500000
O O6 0.356894 0.788243 0.660207
O O7 0.315096 0.714659 0.512288
O O8 0.107468 0.648532 0.921897
O O9 0.500000 0.000000 0.500000
O O10 0.871296 0.928461 0.161712
O O11 0.786255 0.037761 0.032866
O O12 0.729776 0.484849 0.537406
O O13 0.729565 0.728790 0.422562
O O14 0.391034 0.691387 0.867626
O O15 0.124902 0.762962 0.503365
O O16 0.085669 0.838318 0.321076
O O17 0.981913 0.231213 0.793523
#
# Coordination Sequence:
#
# PCOD8041233 Si02
#       8
#     2   2   2   2   2   2   2   2
#     4  10  19  32  54  91 128 168 212 260 319 385
#     4  11  26  43  66  98 140 170 208 279 331 380
#     4  11  24  45  70  93 124 181 229 258 317 397
#     4  11  19  34  63  95 126 171 219 266 314 389
#     4  11  21  36  55  92 139 162 203 268 341 370
#     4  10  19  31  58  88 123 171 212 263 319 383
#     4  11  18  35  62  91 118 160 226 270 303 370
#     4  11  24  42  67  93 128 175 224 264 314 397
#
# _framework density 21.557183999999999
#
# number of rings (size 3 to 8) (size 9 to 14) (size 15 to 20)
#    0.000    1.250    5.000    3.750    0.000    0.500 
#    2.250    0.000    0.000    6.000    0.000    0.000 
#    0.000    0.000    0.000    0.000    0.000    0.000 
#
# Total GULP energy -198215.791029 kJ/mol
# GULP energy per Si atom -12388.486939 kJ/mol
# Density = 2.150812 g / cm^3
# Si number density = 21.557184 Si / 1000 Ang^3
#
#
#
# Elastic Constant Matrix: (Units=GPa)
#
#
# Indices 1 2 3 4 5 6 
#
# 1 118.8308 32.3133 29.6737 -7.4137 -0.9259 -26.6282
# 2 32.3133 76.3339 39.3475 -14.6733 2.2799 -19.2596
# 3 29.6737 39.3475 80.5593 -23.6945 -1.2747 -4.5605
# 4 -7.4137 -14.6733 -23.6945 40.6837 -7.1020 -0.7812
# 5 -0.9259 2.2799 -1.2747 -7.1020 35.2825 -7.4746
# 6 -26.6282 -19.2596 -4.5605 -0.7812 -7.4746 28.8478
#
#
#
# Elastic Compliance Matrix: (Units=1/GPa)
#
#
# Indices 1 2 3 4 5 6 
#
# 1 0.011853 -0.000586 -0.003208 0.000751 0.002662 0.010753
# 2 -0.000586 0.021684 -0.008661 0.003216 0.001691 0.013092
# 3 -0.003208 -0.008661 0.019971 0.008143 0.001798 -0.004900
# 4 0.000751 0.003216 0.008143 0.032167 0.008084 0.007094
# 5 0.002662 0.001691 0.001798 0.008084 0.032654 0.012551
# 6 0.010753 0.013092 -0.004900 0.007094 0.012551 0.056000
#
#
# Mechanical properties :
#
#
# Convention : Reuss Voigt Hill
#
# Bulk Modulus (GPa) = 34.96795 53.15477 44.06136
# Shear Modulus (GPa) = 23.94957 32.58875 28.26916
#
# Velocity S-wave (km/s) = 3.33675 3.89232 3.62519
# Velocity P-wave (km/s) = 5.57687 6.70159 6.16493
#
# Compressibility (1/GPa) = 0.02859761
#
# Stress axis : x y z
#
# Youngs Moduli (GPa) = 84.36781 46.11705 50.07171
#
# Poissons Ratio (x) = 0.02703 0.16062
# Poissons Ratio (y) = 0.04944 0.43369
# Poissons Ratio (z) = 0.27064 0.39944
#
# Static dielectric constant tensor:
#      x y z
#    x 4.315510 -0.566630 0.068440 
#    y -0.566630 3.694420 -0.328180 
#    z 0.068440 -0.328180 3.965480 
# 
# 
# High freq. dielectric constant tensor:
#      x y z
#    x 1.858010 -0.037720 -0.014190 
#    y -0.037720 1.811760 -0.034090 
#    z -0.014190 -0.034090 1.849950 
# 
# From -- ./inp_files/415901.got.cif
#   From: 2010.06.25/outbox.cif.g09.slc.cpg/sg2_208_cif.got.tgz:415901.got - 2010.06.27 13:26:56.
