data_PCOD8041305
_publ_section_title
;
Structure prediction by ZEFSAII (Michael W. Deem and Ramdas Pophale) SiO2 
 PCOD8041305
Probable space group: P -1
;
_chemical_formula_sum "Si O2"
_cell_formula_units_Z 16
_cell_length_a 20.544053
_cell_length_b 8.157688
_cell_length_c 11.922753
_cell_angle_alpha 139.739595
_cell_angle_beta 44.857727
_cell_angle_gamma 107.175203
_cell_volume 767.271380
_symmetry_space_group_name_H-M "P -1"
_symmetry_group_IT_number 2
_symmetry_cell_setting 'triclinic'
loop_
_space_group_symop_operation_xyz
x,y,z
-x,-y,-z
loop_
_atom_site_type_symbol
_atom_site_label
_atom_site_fract_x
_atom_site_fract_y
_atom_site_fract_z
Si Si1 0.230284 0.402176 0.726303
Si Si2 0.999703 0.261505 0.202612
Si Si3 0.997399 0.260461 0.707623
Si Si4 0.378923 0.914551 0.775579
Si Si5 0.772867 0.167125 0.224812
Si Si6 0.234911 0.016573 0.343291
Si Si7 0.236815 0.435526 0.368373
Si Si8 0.625744 0.511108 0.252901
O O1 0.254726 0.575469 0.694468
O O2 0.303293 0.352559 0.720705
O O3 0.267765 0.077945 0.457466
O O4 0.101346 0.596432 0.009201
O O5 0.019724 0.472758 0.210501
O O6 0.876818 0.445379 0.500296
O O7 0.099963 0.110053 0.089793
O O8 0.000000 0.000000 0.000000
O O9 0.111377 0.099481 0.551011
O O10 0.000000 0.000000 0.500000
O O11 0.308302 0.944502 0.766743
O O12 0.502988 0.781365 0.515858
O O13 0.373056 0.704781 0.766359
O O14 0.333142 0.241079 0.059469
O O15 0.752647 0.301766 0.447797
O O16 0.238240 0.230417 0.358705
O O17 0.318919 0.671172 0.024622
#
# Coordination Sequence:
#
# PCOD8041305 Si02
#       8
#     2   2   2   2   2   2   2   2
#     4  10  19  32  53  76 104 141 176 215 265 316
#     4   9  19  35  54  78 113 144 170 217 267 318
#     4  11  20  34  55  80 112 142 172 218 268 317
#     4   9  17  28  48  72 103 137 171 221 267 306
#     4   9  18  32  51  76 103 136 177 215 258 317
#     4   9  17  30  48  72 103 134 171 215 259 311
#     4   8  16  30  46  71 104 134 167 214 261 306
#     4   9  17  30  45  74 106 132 174 223 266 303
#
# _framework density 20.853117000000001
#
# number of rings (size 3 to 8) (size 9 to 14) (size 15 to 20)
#    0.000    2.750    1.250    1.125    1.750    1.500 
#    0.000    5.000    0.000    0.750    0.000    4.375 
#    0.000    0.000    0.000    0.000    0.000    0.000 
#
# Total GULP energy -198240.167746 kJ/mol
# GULP energy per Si atom -12390.010484 kJ/mol
# Density = 2.080565 g / cm^3
# Si number density = 20.853117 Si / 1000 Ang^3
#
#
#
# Elastic Constant Matrix: (Units=GPa)
#
#
# Indices 1 2 3 4 5 6 
#
# 1 132.5538 11.5677 98.0347 -6.7950 5.5119 12.2973
# 2 11.5677 18.3498 4.8103 5.6838 8.7962 11.5936
# 3 98.0347 4.8103 177.3839 -15.0155 4.2425 12.1908
# 4 -6.7950 5.6838 -15.0155 21.5317 5.4799 -3.6349
# 5 5.5119 8.7962 4.2425 5.4799 42.2951 3.2544
# 6 12.2973 11.5936 12.1908 -3.6349 3.2544 16.3548
#
#
#
# Elastic Compliance Matrix: (Units=1/GPa)
#
#
# Indices 1 2 3 4 5 6 
#
# 1 0.013543 -0.007916 -0.007232 0.001413 0.000342 0.001065
# 2 -0.007916 0.160111 0.003724 -0.058424 -0.015825 -0.120159
# 3 -0.007232 0.003724 0.010104 0.003396 -0.000995 -0.003781
# 4 0.001413 -0.058424 0.003396 0.074507 -0.002246 0.054828
# 5 0.000342 -0.015825 -0.000995 -0.002246 0.026830 0.005865
# 6 0.001065 -0.120159 -0.003781 0.054828 0.005865 0.159358
#
#
# Mechanical properties :
#
#
# Convention : Reuss Voigt Hill
#
# Bulk Modulus (GPa) = 6.21464 61.90143 34.05804
# Shear Modulus (GPa) = 9.59807 30.29465 19.94636
#
# Velocity S-wave (km/s) = 2.14772 3.81565 3.09612
# Velocity P-wave (km/s) = 3.02273 7.01150 5.39899
#
# Compressibility (1/GPa) = 0.16091038
#
# Stress axis : x y z
#
# Youngs Moduli (GPa) = 73.83955 6.24566 98.96634
#
# Poissons Ratio (x) = 0.04944 0.71571
# Poissons Ratio (y) = 0.58454 -0.36856
# Poissons Ratio (z) = 0.53399 -0.02326
#
# Static dielectric constant tensor:
#      x y z
#    x 4.148210 0.220150 -0.016330 
#    y 0.220150 3.194530 0.105410 
#    z -0.016330 0.105410 4.237510 
# 
# 
# High freq. dielectric constant tensor:
#      x y z
#    x 1.820160 0.018120 0.004990 
#    y 0.018120 1.759200 0.004870 
#    z 0.004990 0.004870 1.822150 
# 
# From -- ./inp_files/208394.got.cif
#   From: 2010.06.25/outbox.cif.g09.slc.cpg/sg2_105_cif.got.tgz:208394.got - 2010.06.27 13:26:56.
