data_PCOD8041904
_publ_section_title
;
Structure prediction by ZEFSAII (Michael W. Deem and Ramdas Pophale) SiO2 
 PCOD8041904
Probable space group: P -1
;
_chemical_formula_sum "Si O2"
_cell_formula_units_Z 12
_cell_length_a 12.110674
_cell_length_b 13.672846
_cell_length_c 5.308890
_cell_angle_alpha 63.088410
_cell_angle_beta 127.464083
_cell_angle_gamma 119.752340
_cell_volume 591.105023
_symmetry_space_group_name_H-M "P -1"
_symmetry_group_IT_number 2
_symmetry_cell_setting 'triclinic'
loop_
_space_group_symop_operation_xyz
x,y,z
-x,-y,-z
loop_
_atom_site_type_symbol
_atom_site_label
_atom_site_fract_x
_atom_site_fract_y
_atom_site_fract_z
Si Si1 0.826828 0.438700 0.312689
Si Si2 0.585973 0.553451 0.806994
Si Si3 0.723648 0.815037 0.652771
Si Si4 0.114061 0.627619 0.027595
Si Si5 0.208749 0.067128 0.884895
Si Si6 0.005659 0.835520 0.764873
O O1 0.779658 0.365410 0.591371
O O2 0.000000 0.500000 0.500000
O O3 0.742759 0.532174 0.054961
O O4 0.791702 0.351986 0.123939
O O5 0.500000 0.500000 0.500000
O O6 0.608615 0.689137 0.675321
O O7 0.500000 0.500000 0.000000
O O8 0.686981 0.875603 0.276303
O O9 0.887937 0.804901 0.865992
O O10 0.710092 0.890757 0.788290
O O11 0.029068 0.720349 0.826038
O O12 0.000000 0.500000 0.000000
O O13 0.061639 0.106959 0.622700
O O14 0.158604 0.927563 0.962075
#
# Coordination Sequence:
#
# PCOD8041904 Si02
#       6
#     2   2   2   2   2   2
#     4  10  22  37  55  86 114 155 192 236 302 350
#     4  12  25  40  61  87 123 164 203 243 293 358
#     4  10  19  34  53  79 116 154 192 244 298 339
#     4  10  20  30  53  81 117 154 179 229 297 359
#     4   9  20  30  54  83 120 153 191 250 300 343
#     4   9  20  31  55  85 125 144 200 240 310 341
#
# _framework density 20.30096
#
# number of rings (size 3 to 8) (size 9 to 14) (size 15 to 20)
#    1.000    1.000    0.000    4.500    7.000    0.000 
#    0.000    0.000    0.000    0.000    0.000   23.333 
#    0.000    0.000    0.000    0.000    0.000    0.000 
#
# Total GULP energy -148682.183307 kJ/mol
# GULP energy per Si atom -12390.181942 kJ/mol
# Density = 2.025475 g / cm^3
# Si number density = 20.300960 Si / 1000 Ang^3
#
#
#
# Elastic Constant Matrix: (Units=GPa)
#
#
# Indices 1 2 3 4 5 6 
#
# 1 84.3471 36.2191 43.9788 12.7047 -35.9338 2.5534
# 2 36.2191 127.4595 18.5951 9.5502 -14.3542 2.8209
# 3 43.9788 18.5951 88.3131 12.4104 -31.7914 -10.2752
# 4 12.7047 9.5502 12.4104 25.8086 -12.5993 -0.7522
# 5 -35.9338 -14.3542 -31.7914 -12.5993 50.6266 3.5200
# 6 2.5534 2.8209 -10.2752 -0.7522 3.5200 33.5705
#
#
#
# Elastic Compliance Matrix: (Units=1/GPa)
#
#
# Indices 1 2 3 4 5 6 
#
# 1 0.021578 -0.003838 -0.006666 -0.001222 0.010046 -0.004440
# 2 -0.003838 0.009012 0.000001 -0.001737 -0.000570 -0.000444
# 3 -0.006666 0.000001 0.017496 -0.002394 0.005295 0.005253
# 4 -0.001222 -0.001737 -0.002394 0.045243 0.008422 -0.000363
# 5 0.010046 -0.000570 0.005295 0.008422 0.032302 -0.002294
# 6 -0.004440 -0.000444 0.005253 -0.000363 -0.002294 0.032003
#
#
# Mechanical properties :
#
#
# Convention : Reuss Voigt Hill
#
# Bulk Modulus (GPa) = 36.92673 55.30064 46.11369
# Shear Modulus (GPa) = 26.64308 35.42292 31.03300
#
# Velocity S-wave (km/s) = 3.62664 4.18172 3.91403
# Velocity P-wave (km/s) = 5.98046 7.11444 6.57195
#
# Compressibility (1/GPa) = 0.02708065
#
# Stress axis : x y z
#
# Youngs Moduli (GPa) = 46.34442 110.96448 57.15467
#
# Poissons Ratio (x) = 0.42587 0.38098
# Poissons Ratio (y) = 0.17787 -0.00006
# Poissons Ratio (z) = 0.30892 -0.00011
#
# Static dielectric constant tensor:
#      x y z
#    x 2.915480 0.208960 0.193290 
#    y 0.208960 3.489050 -0.196530 
#    z 0.193290 -0.196530 3.002920 
# 
# 
# High freq. dielectric constant tensor:
#      x y z
#    x 1.772210 -0.006670 -0.042790 
#    y -0.006670 1.783900 0.004890 
#    z -0.042790 0.004890 1.773890 
# 
# From -- ./inp_files/70209.got.cif
#   From: 2010.06.25/outbox.cif.g09.slc.cpg/sg2_36_cif.got.tgz:70209.got - 2010.06.27 13:26:56.
