data_PCOD8041192
_publ_section_title
;
Structure prediction by ZEFSAII (Michael W. Deem and Ramdas Pophale) SiO2 
 PCOD8041192
Probable space group: P -1
;
_chemical_formula_sum "Si O2"
_cell_formula_units_Z 16
_cell_length_a 20.166592
_cell_length_b 9.054446
_cell_length_c 17.107590
_cell_angle_alpha 42.720682
_cell_angle_beta 32.771314
_cell_angle_gamma 31.660235
_cell_volume 885.526952
_symmetry_space_group_name_H-M "P -1"
_symmetry_group_IT_number 2
_symmetry_cell_setting 'triclinic'
loop_
_space_group_symop_operation_xyz
x,y,z
-x,-y,-z
loop_
_atom_site_type_symbol
_atom_site_label
_atom_site_fract_x
_atom_site_fract_y
_atom_site_fract_z
Si Si1 0.465066 0.902908 0.697672
Si Si2 0.605198 0.620007 0.513741
Si Si3 0.024142 0.216350 0.423208
Si Si4 0.892700 0.786531 0.042990
Si Si5 0.267655 0.389705 0.330968
Si Si6 0.067376 0.921616 0.229982
Si Si7 0.050452 0.565668 0.745815
Si Si8 0.231346 0.977732 0.453490
O O1 0.503459 0.707403 0.660349
O O2 0.579863 0.718337 0.727718
O O3 0.484857 0.128781 0.558680
O O4 0.291883 0.060138 0.843362
O O5 0.773227 0.539319 0.400932
O O6 0.629006 0.358755 0.551371
O O7 0.182208 0.056042 0.380520
O O8 0.881015 0.459701 0.523324
O O9 0.035270 0.364013 0.280203
O O10 0.000000 0.000000 0.500000
O O11 0.941854 0.682792 0.124936
O O12 0.000000 0.500000 0.000000
O O13 0.920626 0.002000 0.901036
O O14 0.228098 0.613893 0.216039
O O15 0.300634 0.122828 0.360568
O O16 0.917951 0.928867 0.381931
O O17 0.049470 0.149370 0.215413
#
# Coordination Sequence:
#
# PCOD8041192 Si02
#       8
#     2   2   2   2   2   2   2   2
#     4  10  19  31  54  78  98 128 168 212 258 291
#     4   9  17  32  49  77 101 124 170 217 247 288
#     4  11  15  28  52  79 103 127 168 215 247 286
#     4   9  19  33  51  77 100 128 165 216 249 296
#     4  11  20  30  49  80 108 133 162 206 262 301
#     4   9  17  31  49  75 107 131 166 202 247 297
#     4   9  15  28  52  76  99 126 166 214 249 277
#     4  10  20  31  51  78 107 135 160 208 256 298
#
# _framework density 18.068339000000002
#
# number of rings (size 3 to 8) (size 9 to 14) (size 15 to 20)
#    0.000    2.250    5.000    2.250    0.000    1.000 
#    0.000    0.000    0.000    3.750    6.500    0.000 
#    0.000    0.000    0.000    0.000    0.000    0.000 
#
# Total GULP energy -198273.004879 kJ/mol
# GULP energy per Si atom -12392.062805 kJ/mol
# Density = 1.802721 g / cm^3
# Si number density = 18.068339 Si / 1000 Ang^3
#
#
#
# Elastic Constant Matrix: (Units=GPa)
#
#
# Indices 1 2 3 4 5 6 
#
# 1 40.2691 20.8813 22.3588 -14.3941 14.3092 -2.3961
# 2 20.8813 105.1135 29.1338 -5.3291 6.2453 -4.0664
# 3 22.3588 29.1338 73.6443 -12.7243 22.9156 -9.5715
# 4 -14.3941 -5.3291 -12.7243 32.4412 -11.0973 8.9348
# 5 14.3092 6.2453 22.9156 -11.0973 21.5293 -5.8593
# 6 -2.3961 -4.0664 -9.5715 8.9348 -5.8593 27.6438
#
#
#
# Elastic Compliance Matrix: (Units=1/GPa)
#
#
# Indices 1 2 3 4 5 6 
#
# 1 0.039053 -0.005509 -0.003317 0.010962 -0.016718 -0.005660
# 2 -0.005509 0.011539 -0.004420 -0.000909 0.004823 0.001006
# 3 -0.003317 -0.004420 0.022983 -0.001095 -0.020729 0.002980
# 4 0.010962 -0.000909 -0.001095 0.042519 0.013201 -0.010508
# 5 -0.016718 0.004823 -0.020729 0.013201 0.086715 0.006196
# 6 -0.005660 0.001006 0.002980 -0.010508 0.006196 0.041573
#
#
# Mechanical properties :
#
#
# Convention : Reuss Voigt Hill
#
# Bulk Modulus (GPa) = 21.23868 40.41943 30.82905
# Shear Modulus (GPa) = 17.44788 26.09974 21.77381
#
# Velocity S-wave (km/s) = 3.11088 3.80478 3.47519
# Velocity P-wave (km/s) = 4.96826 6.45916 5.76213
#
# Compressibility (1/GPa) = 0.04708391
#
# Stress axis : x y z
#
# Youngs Moduli (GPa) = 25.60613 86.66226 43.51116
#
# Poissons Ratio (x) = 0.47739 0.14434
# Poissons Ratio (y) = 0.14105 0.19230
# Poissons Ratio (z) = 0.08494 0.38301
#
# Static dielectric constant tensor:
#      x y z
#    x 3.267220 -0.289180 0.548430 
#    y -0.289180 3.670970 -0.173500 
#    z 0.548430 -0.173500 3.341000 
# 
# 
# High freq. dielectric constant tensor:
#      x y z
#    x 1.669870 -0.018180 0.037360 
#    y -0.018180 1.717390 -0.004370 
#    z 0.037360 -0.004370 1.662240 
# 
# From -- ./inp_files/247761.got.cif
#   From: 2010.06.25/outbox.cif.g09.slc.cpg/sg2_124_cif.got.tgz:247761.got - 2010.06.27 13:26:56.
