data_PCOD8041636
_publ_section_title
;
Structure prediction by ZEFSAII (Michael W. Deem and Ramdas Pophale) SiO2 
 PCOD8041636
Probable space group: P -1
;
_chemical_formula_sum "Si O2"
_cell_formula_units_Z 16
_cell_length_a 16.774845
_cell_length_b 28.036120
_cell_length_c 20.673947
_cell_angle_alpha 16.099364
_cell_angle_beta 27.245821
_cell_angle_gamma 17.819452
_cell_volume 786.535410
_symmetry_space_group_name_H-M "P -1"
_symmetry_group_IT_number 2
_symmetry_cell_setting 'triclinic'
loop_
_space_group_symop_operation_xyz
x,y,z
-x,-y,-z
loop_
_atom_site_type_symbol
_atom_site_label
_atom_site_fract_x
_atom_site_fract_y
_atom_site_fract_z
Si Si1 0.241047 0.950863 0.876506
Si Si2 0.273074 0.836410 0.363024
Si Si3 0.103875 0.616490 0.536526
Si Si4 0.295321 0.632407 0.745581
Si Si5 0.612339 0.705725 0.464708
Si Si6 0.824192 0.820944 0.919611
Si Si7 0.791441 0.187974 0.698496
Si Si8 0.219127 0.127625 0.790930
O O1 0.363377 0.928691 0.884724
O O2 0.486315 0.685431 0.004263
O O3 0.116066 0.202628 0.597530
O O4 0.000000 0.000000 0.000000
O O5 0.595504 0.580386 0.451445
O O6 0.215171 0.758299 0.567668
O O7 0.108377 0.908848 0.322286
O O8 0.173613 0.104349 0.106277
O O9 0.021406 0.823151 0.380801
O O10 0.081312 0.445998 0.805308
O O11 0.424066 0.679359 0.639164
O O12 0.018798 0.780453 0.784696
O O13 0.612934 0.828506 0.367702
O O14 0.919338 0.411084 0.613309
O O15 0.489083 0.916453 0.220994
O O16 0.500000 0.500000 0.500000
O O17 0.788527 0.001567 0.975919
#
# Coordination Sequence:
#
# PCOD8041636 Si02
#       8
#     2   2   2   2   2   2   2   2
#     4  12  19  39  63  89 116 154 203 243 296 358
#     4  10  19  36  61  85 116 159 203 244 291 348
#     4  11  21  36  62  89 119 152 202 254 290 347
#     4  11  22  40  62  85 123 163 196 241 303 360
#     4  10  20  37  58  84 120 154 197 243 294 348
#     4  11  24  39  58  89 125 162 195 243 302 360
#     4  10  19  33  55  90 122 146 194 258 300 334
#     4  11  21  35  62  95 116 151 203 258 296 339
#
# _framework density 20.342376000000002
#
# number of rings (size 3 to 8) (size 9 to 14) (size 15 to 20)
#    0.000    1.250    3.750    4.875    0.000    3.500 
#    0.000    3.750    0.000    7.500    0.000    0.000 
#    0.000    0.000    0.000    0.000    0.000    0.000 
#
# Total GULP energy -198290.148344 kJ/mol
# GULP energy per Si atom -12393.134272 kJ/mol
# Density = 2.029608 g / cm^3
# Si number density = 20.342376 Si / 1000 Ang^3
#
#
#
# Elastic Constant Matrix: (Units=GPa)
#
#
# Indices 1 2 3 4 5 6 
#
# 1 138.9752 45.7096 59.6019 2.3735 -9.8538 26.6044
# 2 45.7096 59.4309 30.5483 -5.4617 -1.3221 10.5860
# 3 59.6019 30.5483 124.7534 -1.0413 -3.2994 -0.1814
# 4 2.3735 -5.4617 -1.0413 22.9463 4.7403 0.1063
# 5 -9.8538 -1.3221 -3.2994 4.7403 34.7191 -8.4792
# 6 26.6044 10.5860 -0.1814 0.1063 -8.4792 18.7971
#
#
#
# Elastic Compliance Matrix: (Units=1/GPa)
#
#
# Indices 1 2 3 4 5 6 
#
# 1 0.015144 -0.005560 -0.005942 -0.002944 -0.000625 -0.018625
# 2 -0.005560 0.024893 -0.003494 0.007183 -0.003891 -0.007979
# 3 -0.005942 -0.003494 0.011781 -0.000173 0.002120 0.011448
# 4 -0.002944 0.007183 -0.000173 0.047244 -0.007939 -0.003728
# 5 -0.000625 -0.003891 0.002120 -0.007939 0.034309 0.018618
# 6 -0.018625 -0.007979 0.011448 -0.003728 0.018618 0.092584
#
#
# Mechanical properties :
#
#
# Convention : Reuss Voigt Hill
#
# Bulk Modulus (GPa) = 45.81468 66.09766 55.95617
# Shear Modulus (GPa) = 18.99526 27.77916 23.38721
#
# Velocity S-wave (km/s) = 3.05909 3.69939 3.39437
# Velocity P-wave (km/s) = 5.92014 7.12814 6.55204
#
# Compressibility (1/GPa) = 0.02182706
#
# Stress axis : x y z
#
# Youngs Moduli (GPa) = 66.03251 40.17124 84.88013
#
# Poissons Ratio (x) = 0.22337 0.50434
# Poissons Ratio (y) = 0.36716 0.29655
# Poissons Ratio (z) = 0.39235 0.14035
#
# Static dielectric constant tensor:
#      x y z
#    x 4.333340 0.171150 -0.151170 
#    y 0.171150 3.321270 -0.266840 
#    z -0.151170 -0.266840 3.891320 
# 
# 
# High freq. dielectric constant tensor:
#      x y z
#    x 1.806810 0.011100 -0.006990 
#    y 0.011100 1.746430 -0.023610 
#    z -0.006990 -0.023610 1.808870 
# 
# From -- ./inp_files/437147.got.cif
#   From: 2010.06.25/outbox.cif.g09.slc.cpg/sg2_219_cif.got.tgz:437147.got - 2010.06.27 13:26:56.
