data_PCOD8041038
_publ_section_title
;
Structure prediction by ZEFSAII (Michael W. Deem and Ramdas Pophale) SiO2 
 PCOD8041038
Probable space group: P -1
;
_chemical_formula_sum "Si O2"
_cell_formula_units_Z 16
_cell_length_a 6.915103
_cell_length_b 12.240360
_cell_length_c 15.382518
_cell_angle_alpha 105.018741
_cell_angle_beta 72.010972
_cell_angle_gamma 60.048177
_cell_volume 928.268795
_symmetry_space_group_name_H-M "P -1"
_symmetry_group_IT_number 2
_symmetry_cell_setting 'triclinic'
loop_
_space_group_symop_operation_xyz
x,y,z
-x,-y,-z
loop_
_atom_site_type_symbol
_atom_site_label
_atom_site_fract_x
_atom_site_fract_y
_atom_site_fract_z
Si Si1 0.924982 0.155238 0.046877
Si Si2 0.091915 0.555060 0.427513
Si Si3 0.877482 0.229789 0.431917
Si Si4 0.444813 0.199673 0.526264
Si Si5 0.442741 0.981401 0.369599
Si Si6 0.363493 0.021378 0.834406
Si Si7 0.889607 0.810539 0.792126
Si Si8 0.577796 0.716117 0.787013
O O1 0.607217 0.271897 0.107995
O O2 0.985966 0.189182 0.137745
O O3 0.091210 0.155287 0.946361
O O4 0.000000 0.000000 0.000000
O O5 0.190091 0.632715 0.478117
O O6 0.335109 0.417291 0.313432
O O7 0.000000 0.500000 0.500000
O O8 0.856954 0.661069 0.414964
O O9 0.632230 0.234679 0.478478
O O10 0.914900 0.242015 0.327123
O O11 0.139944 0.082630 0.404476
O O12 0.492183 0.153014 0.611388
O O13 0.514366 0.067656 0.431145
O O14 0.631712 0.918365 0.246451
O O15 0.614456 0.974115 0.847389
O O16 0.401729 0.870426 0.787915
O O17 0.826777 0.697309 0.787289
#
# Coordination Sequence:
#
# PCOD8041038 Si02
#       8
#     2   2   2   2   2   2   2   2
#     4  10  19  28  50  72  99 130 165 205 251 300
#     4  11  20  35  47  75 109 135 165 202 243 301
#     4  10  20  31  53  76 104 130 169 201 245 311
#     4  10  21  31  54  71 101 142 163 203 252 295
#     4   9  18  37  49  74 102 128 172 212 247 288
#     4   8  17  33  50  71 100 126 162 215 243 296
#     4   9  18  29  46  74 102 126 156 201 251 296
#     4   9  19  32  47  70 108 129 158 207 242 298
#
# _framework density 17.236388000000002
#
# number of rings (size 3 to 8) (size 9 to 14) (size 15 to 20)
#    0.750    1.750    1.250    1.500    5.250    1.500 
#    0.000    0.000    0.000    0.750    0.000    1.750 
#    0.000    0.000    0.000    0.000    0.000    0.000 
#
# Total GULP energy -198224.111866 kJ/mol
# GULP energy per Si atom -12389.006992 kJ/mol
# Density = 1.719716 g / cm^3
# Si number density = 17.236388 Si / 1000 Ang^3
#
#
#
# Elastic Constant Matrix: (Units=GPa)
#
#
# Indices 1 2 3 4 5 6 
#
# 1 75.3471 16.3694 45.8995 -5.4976 -3.4909 16.0353
# 2 16.3694 43.9084 33.9248 -2.7527 -0.7188 0.0810
# 3 45.8995 33.9248 128.1792 -1.2943 -11.2455 7.4876
# 4 -5.4976 -2.7527 -1.2943 19.8894 2.1540 2.4923
# 5 -3.4909 -0.7188 -11.2455 2.1540 27.1415 -6.3476
# 6 16.0353 0.0810 7.4876 2.4923 -6.3476 15.3964
#
#
#
# Elastic Compliance Matrix: (Units=1/GPa)
#
#
# Indices 1 2 3 4 5 6 
#
# 1 0.023997 -0.003216 -0.006705 0.009731 -0.006636 -0.026026
# 2 -0.003216 0.029570 -0.007111 0.002178 -0.001412 0.005717
# 3 -0.006705 -0.007111 0.012291 -0.003052 0.005139 0.003657
# 4 0.009731 0.002178 -0.003052 0.056839 -0.009566 -0.021807
# 5 -0.006636 -0.001412 0.005139 -0.009566 0.044531 0.024327
# 6 -0.026026 0.005717 0.003657 -0.021807 0.024327 0.103807
#
#
# Mechanical properties :
#
#
# Convention : Reuss Voigt Hill
#
# Bulk Modulus (GPa) = 31.45222 48.86910 40.16066
# Shear Modulus (GPa) = 15.83800 22.56820 19.20310
#
# Velocity S-wave (km/s) = 3.03458 3.62240 3.34144
# Velocity P-wave (km/s) = 5.52860 6.77566 6.18364
#
# Compressibility (1/GPa) = 0.03179425
#
# Stress axis : x y z
#
# Youngs Moduli (GPa) = 41.67242 33.81778 81.35966
#
# Poissons Ratio (x) = 0.10875 0.54555
# Poissons Ratio (y) = 0.13401 0.57851
# Poissons Ratio (z) = 0.27943 0.24046
#
# Static dielectric constant tensor:
#      x y z
#    x 3.286260 0.094510 -0.140890 
#    y 0.094510 3.019340 -0.010270 
#    z -0.140890 -0.010270 3.290660 
# 
# 
# High freq. dielectric constant tensor:
#      x y z
#    x 1.671630 0.008920 -0.009620 
#    y 0.008920 1.614020 -0.005490 
#    z -0.009620 -0.005490 1.668060 
# 
# From -- ./inp_files/548907.got.cif
#   From: 2010.06.25/outbox.cif.g09.slc.cpg/sg2_275_cif.got.tgz:548907.got - 2010.06.27 13:26:56.
