data_PCOD8041057
_publ_section_title
;
Structure prediction by ZEFSAII (Michael W. Deem and Ramdas Pophale) SiO2 
 PCOD8041057
Probable space group: P -1
;
_chemical_formula_sum "Si O2"
_cell_formula_units_Z 16
_cell_length_a 15.698400
_cell_length_b 14.073480
_cell_length_c 19.359926
_cell_angle_alpha 126.661293
_cell_angle_beta 19.017302
_cell_angle_gamma 114.801223
_cell_volume 930.178460
_symmetry_space_group_name_H-M "P -1"
_symmetry_group_IT_number 2
_symmetry_cell_setting 'triclinic'
loop_
_space_group_symop_operation_xyz
x,y,z
-x,-y,-z
loop_
_atom_site_type_symbol
_atom_site_label
_atom_site_fract_x
_atom_site_fract_y
_atom_site_fract_z
Si Si1 0.820703 0.589066 0.999828
Si Si2 0.655743 0.842229 0.729155
Si Si3 0.679233 0.532698 0.228843
Si Si4 0.361634 0.640916 0.259157
Si Si5 0.726178 0.338424 0.284921
Si Si6 0.364521 0.163085 0.098403
Si Si7 0.389230 0.669803 0.093380
Si Si8 0.510431 0.673403 0.670046
O O1 0.923270 0.696890 0.990418
O O2 0.123216 0.439709 0.677388
O O3 0.651149 0.569280 0.185764
O O4 0.570789 0.661504 0.161571
O O5 0.569288 0.831912 0.869481
O O6 0.473730 0.795755 0.799987
O O7 0.024795 0.738928 0.388612
O O8 0.540920 0.001825 0.866875
O O9 0.403683 0.667948 0.543048
O O10 0.643389 0.400110 0.205058
O O11 0.000000 0.500000 0.000000
O O12 0.462298 0.658950 0.113961
O O13 0.002197 0.760261 0.602422
O O14 0.416807 0.486220 0.157328
O O15 0.500000 0.500000 0.500000
O O16 0.690389 0.248637 0.213170
O O17 0.503511 0.236180 0.981545
#
# Coordination Sequence:
#
# PCOD8041057 Si02
#       8
#     2   2   2   2   2   2   2   2
#     4  10  17  30  47  76 104 131 161 206 260 304
#     4  10  21  36  53  77 103 138 177 213 250 310
#     4  10  15  27  47  74 108 129 157 210 264 295
#     4  10  21  33  53  78 104 131 176 214 256 311
#     4   8  16  27  43  69 104 128 156 206 251 298
#     4  10  22  37  52  74 106 138 176 214 257 300
#     4  10  20  37  54  72 104 136 175 219 257 298
#     4  10  18  28  48  74 104 131 165 206 252 303
#
# _framework density 17.201001000000002
#
# number of rings (size 3 to 8) (size 9 to 14) (size 15 to 20)
#    0.000    2.500    5.000    0.750    1.750    2.000 
#    0.000    0.000    0.000    0.750    0.000    1.750 
#    0.000    0.000    0.000    0.000    0.000    0.000 
#
# Total GULP energy -198329.408151 kJ/mol
# GULP energy per Si atom -12395.588009 kJ/mol
# Density = 1.716185 g / cm^3
# Si number density = 17.201001 Si / 1000 Ang^3
#
#
#
# Elastic Constant Matrix: (Units=GPa)
#
#
# Indices 1 2 3 4 5 6 
#
# 1 133.8514 52.7232 36.0792 -8.9338 -10.5079 18.6535
# 2 52.7232 86.0071 27.6793 -11.4760 1.1300 -3.6208
# 3 36.0792 27.6793 36.1760 -4.0114 3.3784 -4.2065
# 4 -8.9338 -11.4760 -4.0114 28.2645 -3.4505 3.1973
# 5 -10.5079 1.1300 3.3784 -3.4505 20.3254 -4.9160
# 6 18.6535 -3.6208 -4.2065 3.1973 -4.9160 23.9647
#
#
#
# Elastic Compliance Matrix: (Units=1/GPa)
#
#
# Indices 1 2 3 4 5 6 
#
# 1 0.016590 -0.005876 -0.014176 0.003555 0.008216 -0.015078
# 2 -0.005876 0.018211 -0.006932 0.003826 -0.000941 0.005405
# 3 -0.014176 -0.006932 0.049739 -0.003570 -0.011758 0.016782
# 4 0.003555 0.003826 -0.003570 0.039181 0.007286 -0.006548
# 5 0.008216 -0.000941 -0.011758 0.007286 0.057214 0.002163
# 6 -0.015078 0.005405 0.016782 -0.006548 0.002163 0.058544
#
#
# Mechanical properties :
#
#
# Convention : Reuss Voigt Hill
#
# Bulk Modulus (GPa) = 32.71191 54.33311 43.52251
# Shear Modulus (GPa) = 16.46695 23.81444 20.14069
#
# Velocity S-wave (km/s) = 3.09742 3.72490 3.42556
# Velocity P-wave (km/s) = 5.64365 7.08206 6.40337
#
# Compressibility (1/GPa) = 0.03056990
#
# Stress axis : x y z
#
# Youngs Moduli (GPa) = 60.27609 54.91322 20.10506
#
# Poissons Ratio (x) = 0.32268 0.28502
# Poissons Ratio (y) = 0.35419 0.13938
# Poissons Ratio (z) = 0.85449 0.38068
#
# Static dielectric constant tensor:
#      x y z
#    x 3.664310 0.036120 0.101190 
#    y 0.036120 3.033500 -0.217920 
#    z 0.101190 -0.217920 3.192270 
# 
# 
# High freq. dielectric constant tensor:
#      x y z
#    x 1.679140 0.004170 0.003000 
#    y 0.004170 1.636130 -0.029790 
#    z 0.003000 -0.029790 1.648220 
# 
# From -- ./inp_files/349545.got.cif
#   From: 2010.06.25/outbox.cif.g09.slc.cpg/sg2_175_cif.got.tgz:349545.got - 2010.06.27 13:26:56.
