data_PCOD8041020
_publ_section_title
;
Structure prediction by ZEFSAII (Michael W. Deem and Ramdas Pophale) SiO2 
 PCOD8041020
Probable space group: P -1
;
_chemical_formula_sum "Si O2"
_cell_formula_units_Z 16
_cell_length_a 11.290037
_cell_length_b 17.240051
_cell_length_c 9.258759
_cell_angle_alpha 46.430669
_cell_angle_beta 78.930288
_cell_angle_gamma 44.592692
_cell_volume 741.859090
_symmetry_space_group_name_H-M "P -1"
_symmetry_group_IT_number 2
_symmetry_cell_setting 'triclinic'
loop_
_space_group_symop_operation_xyz
x,y,z
-x,-y,-z
loop_
_atom_site_type_symbol
_atom_site_label
_atom_site_fract_x
_atom_site_fract_y
_atom_site_fract_z
Si Si1 0.490607 0.481593 0.192732
Si Si2 0.718568 0.687895 0.170737
Si Si3 0.909303 0.600817 0.740379
Si Si4 0.229047 0.113155 0.001931
Si Si5 0.893736 0.181640 0.644402
Si Si6 0.392063 0.307554 0.497034
Si Si7 0.279264 0.054876 0.732584
Si Si8 0.893471 0.186055 0.968671
O O1 0.708408 0.365289 0.357727
O O2 0.462183 0.377728 0.366947
O O3 0.303783 0.684745 0.046550
O O4 0.500000 0.500000 0.000000
O O5 0.787566 0.760625 0.081678
O O6 0.697650 0.639450 0.387766
O O7 0.900434 0.499221 0.279486
O O8 0.506247 0.838140 0.931853
O O9 0.781492 0.596465 0.703926
O O10 0.761731 0.811206 0.527981
O O11 0.000000 0.500000 0.000000
O O12 0.282841 0.092577 0.848490
O O13 0.007258 0.215301 0.941588
O O14 0.410853 0.912398 0.290718
O O15 0.815220 0.238269 0.754925
O O16 0.106733 0.092006 0.691093
O O17 0.939498 0.029209 0.771495
#
# Coordination Sequence:
#
# PCOD8041020 Si02
#       8
#     2   2   2   2   2   2   2   2
#     4  12  27  43  62  96 133 170 212 263 321 382
#     4  11  22  41  71  93 121 169 213 262 311 366
#     4  12  26  40  61  99 135 163 201 258 325 384
#     4  10  18  42  71  95 120 158 220 270 298 366
#     4  10  23  43  65  93 125 167 220 262 310 375
#     4  11  22  44  68  93 122 168 219 258 309 377
#     4  10  22  40  64  95 127 160 212 262 308 370
#     4  10  22  42  69  92 124 167 213 269 317 365
#
# _framework density 21.567437000000002
#
# number of rings (size 3 to 8) (size 9 to 14) (size 15 to 20)
#    0.000    1.250    3.750    2.250    7.000    2.000 
#    0.000    0.000    0.000    0.000    0.000    0.000 
#    0.000    0.000    0.000    0.000    0.000    0.000 
#
# Total GULP energy -198475.095836 kJ/mol
# GULP energy per Si atom -12404.693490 kJ/mol
# Density = 2.151835 g / cm^3
# Si number density = 21.567437 Si / 1000 Ang^3
#
#
#
# Elastic Constant Matrix: (Units=GPa)
#
#
# Indices 1 2 3 4 5 6 
#
# 1 87.9254 30.8873 32.0338 4.6948 6.0513 -8.2277
# 2 30.8873 81.6621 49.5202 1.4376 10.6814 -6.0777
# 3 32.0338 49.5202 126.1264 12.6986 22.1140 -5.7275
# 4 4.6948 1.4376 12.6986 25.6259 -6.7515 4.2619
# 5 6.0513 10.6814 22.1140 -6.7515 39.2876 -4.7370
# 6 -8.2277 -6.0777 -5.7275 4.2619 -4.7370 12.4256
#
#
#
# Elastic Compliance Matrix: (Units=1/GPa)
#
#
# Indices 1 2 3 4 5 6 
#
# 1 0.014137 -0.003847 -0.001451 -0.002929 0.000130 0.007864
# 2 -0.003847 0.017486 -0.005986 0.002256 -0.000112 0.002430
# 3 -0.001451 -0.005986 0.012625 -0.007677 -0.006315 0.002157
# 4 -0.002929 0.002256 -0.007677 0.048850 0.010488 -0.017131
# 5 0.000130 -0.000112 -0.006315 0.010488 0.031487 0.005527
# 6 0.007864 0.002430 0.002157 -0.017131 0.005527 0.095852
#
#
# Mechanical properties :
#
#
# Convention : Reuss Voigt Hill
#
# Bulk Modulus (GPa) = 46.12392 57.84408 51.98400
# Shear Modulus (GPa) = 19.98150 27.68598 23.83374
#
# Velocity S-wave (km/s) = 3.04709 3.58675 3.32788
# Velocity P-wave (km/s) = 5.81481 6.63562 6.23873
#
# Compressibility (1/GPa) = 0.02168073
#
# Stress axis : x y z
#
# Youngs Moduli (GPa) = 70.73771 57.18791 79.20677
#
# Poissons Ratio (x) = 0.22003 0.11490
# Poissons Ratio (y) = 0.27216 0.47410
# Poissons Ratio (z) = 0.10262 0.34230
#
# Static dielectric constant tensor:
#      x y z
#    x 3.883540 -0.109060 0.131380 
#    y -0.109060 3.659800 -0.248320 
#    z 0.131380 -0.248320 4.014720 
# 
# 
# High freq. dielectric constant tensor:
#      x y z
#    x 1.854280 -0.006370 0.008270 
#    y -0.006370 1.819090 -0.022700 
#    z 0.008270 -0.022700 1.855330 
# 
# From -- ./inp_files/271013.got.cif
#   From: 2010.06.25/outbox.cif.g09.slc.cpg/sg2_136_cif.got.tgz:271013.got - 2010.06.27 13:26:56.
