data_PCOD8041304
_publ_section_title
;
Structure prediction by ZEFSAII (Michael W. Deem and Ramdas Pophale) SiO2 
 PCOD8041304
Probable space group: P -1
;
_chemical_formula_sum "Si O2"
_cell_formula_units_Z 14
_cell_length_a 10.674931
_cell_length_b 14.779510
_cell_length_c 11.351184
_cell_angle_alpha 79.823959
_cell_angle_beta 140.454542
_cell_angle_gamma 126.705307
_cell_volume 759.326391
_symmetry_space_group_name_H-M "P -1"
_symmetry_group_IT_number 2
_symmetry_cell_setting 'triclinic'
loop_
_space_group_symop_operation_xyz
x,y,z
-x,-y,-z
loop_
_atom_site_type_symbol
_atom_site_label
_atom_site_fract_x
_atom_site_fract_y
_atom_site_fract_z
Si Si1 0.816116 0.142187 0.830652
Si Si2 0.990058 0.874726 0.783243
Si Si3 0.306354 0.393964 0.486530
Si Si4 0.135861 0.429310 0.019528
Si Si5 0.185060 0.990067 0.347562
Si Si6 0.862325 0.371246 0.087371
Si Si7 0.780507 0.906756 0.256834
O O1 0.897747 0.085687 0.818359
O O2 0.479447 0.050305 0.598989
O O3 0.878905 0.137785 0.011864
O O4 0.012344 0.296409 0.896455
O O5 0.798415 0.743706 0.591119
O O6 0.786564 0.889313 0.678620
O O7 0.247798 0.007535 0.858943
O O8 0.500000 0.500000 0.500000
O O9 0.513757 0.459173 0.736090
O O10 0.037485 0.372808 0.312910
O O11 0.964202 0.377570 0.030053
O O12 0.079024 0.499856 0.881990
O O13 0.929003 0.882351 0.282389
O O14 0.524088 0.232388 0.884493
O O15 0.000000 0.000000 0.500000
#
# Coordination Sequence:
#
# PCOD8041304 Si02
#       7
#     2   2   2   2   2   2   2
#     4  11  19  40  59  84 107 151 190 225 279 329
#     4  10  21  35  59  81 116 142 184 237 272 328
#     4  10  19  32  52  87 106 139 186 223 278 324
#     4  10  21  33  59  80 109 147 185 236 267 326
#     4   9  24  36  58  84 113 145 188 230 276 332
#     4  10  20  35  51  81 115 141 182 226 281 322
#     4  10  21  37  55  82 120 146 178 234 282 330
#
# _framework density 18.437394000000001
#
# number of rings (size 3 to 8) (size 9 to 14) (size 15 to 20)
#    0.857    1.143    2.857    2.143    6.000    0.571 
#    2.571    0.714    0.000    0.857    0.000    0.000 
#    0.000    0.000    0.000    0.000    0.000    0.000 
#
# Total GULP energy -173474.063327 kJ/mol
# GULP energy per Si atom -12391.004523 kJ/mol
# Density = 1.839543 g / cm^3
# Si number density = 18.437394 Si / 1000 Ang^3
#
#
#
# Elastic Constant Matrix: (Units=GPa)
#
#
# Indices 1 2 3 4 5 6 
#
# 1 44.4535 40.7811 42.6412 1.3136 13.1514 -5.9368
# 2 40.7811 113.6023 30.2976 11.8643 5.9968 -19.2910
# 3 42.6412 30.2976 82.1086 9.7461 15.1642 -4.2525
# 4 1.3136 11.8643 9.7461 26.5080 -0.6751 4.7752
# 5 13.1514 5.9968 15.1642 -0.6751 23.2036 1.0769
# 6 -5.9368 -19.2910 -4.2525 4.7752 1.0769 29.8727
#
#
#
# Elastic Compliance Matrix: (Units=1/GPa)
#
#
# Indices 1 2 3 4 5 6 
#
# 1 0.073065 -0.019972 -0.029843 0.016733 -0.016041 -0.004722
# 2 -0.019972 0.017076 0.005260 -0.010199 0.002739 0.009338
# 3 -0.029843 0.005260 0.027909 -0.011838 -0.003188 0.003446
# 4 0.016733 -0.010199 -0.011838 0.048183 0.002882 -0.012752
# 5 -0.016041 0.002739 -0.003188 0.002882 0.053846 -0.004275
# 6 -0.004722 0.009338 0.003446 -0.012752 -0.004275 0.041250
#
#
# Mechanical properties :
#
#
# Convention : Reuss Voigt Hill
#
# Bulk Modulus (GPa) = 34.55637 51.95602 43.25619
# Shear Modulus (GPa) = 13.88549 24.34651 19.11600
#
# Velocity S-wave (km/s) = 2.74727 3.63781 3.22344
# Velocity P-wave (km/s) = 5.37090 6.77390 6.11279
#
# Compressibility (1/GPa) = 0.02893823
#
# Stress axis : x y z
#
# Youngs Moduli (GPa) = 13.68645 58.56186 35.83070
#
# Poissons Ratio (x) = 1.16962 1.06930
# Poissons Ratio (y) = 0.27335 -0.18846
# Poissons Ratio (z) = 0.40845 -0.30801
#
# Static dielectric constant tensor:
#      x y z
#    x 3.284570 -0.249840 0.262860 
#    y -0.249840 3.530810 -0.131430 
#    z 0.262860 -0.131430 3.754680 
# 
# 
# High freq. dielectric constant tensor:
#      x y z
#    x 1.677350 -0.017840 0.014900 
#    y -0.017840 1.723830 -0.001350 
#    z 0.014900 -0.001350 1.714610 
# 
# From -- ./inp_files/431445.got.cif
#   From: 2010.06.25/outbox.cif.g09.slc.cpg/sg2_216_cif.got.tgz:431445.got - 2010.06.27 13:26:56.
