data_PCOD8041226
_publ_section_title
;
Structure prediction by ZEFSAII (Michael W. Deem and Ramdas Pophale) SiO2 
 PCOD8041226
Probable space group: P -1
;
_chemical_formula_sum "Si O2"
_cell_formula_units_Z 16
_cell_length_a 12.929177
_cell_length_b 21.107823
_cell_length_c 10.148025
_cell_angle_alpha 129.966027
_cell_angle_beta 131.568617
_cell_angle_gamma 23.117451
_cell_volume 808.635027
_symmetry_space_group_name_H-M "P -1"
_symmetry_group_IT_number 2
_symmetry_cell_setting 'triclinic'
loop_
_space_group_symop_operation_xyz
x,y,z
-x,-y,-z
loop_
_atom_site_type_symbol
_atom_site_label
_atom_site_fract_x
_atom_site_fract_y
_atom_site_fract_z
Si Si1 0.165153 0.957072 0.463915
Si Si2 0.303398 0.497602 0.366119
Si Si3 0.045825 0.894749 0.056672
Si Si4 0.981178 0.514741 0.159686
Si Si5 0.865271 0.851289 0.026208
Si Si6 0.582856 0.246114 0.042012
Si Si7 0.616933 0.811076 0.792512
Si Si8 0.165300 0.713702 0.364896
O O1 0.191267 0.879941 0.264359
O O2 0.472846 0.822905 0.584483
O O3 0.000000 0.000000 0.500000
O O4 0.008726 0.120207 0.504641
O O5 0.102083 0.542016 0.338759
O O6 0.120381 0.660022 0.354134
O O7 0.513577 0.430021 0.556832
O O8 0.480046 0.356060 0.220106
O O9 0.234442 0.791561 0.949856
O O10 0.015351 0.818086 0.986670
O O11 0.751992 0.082416 0.023485
O O12 0.153226 0.353541 0.153172
O O13 0.667052 0.664417 0.133470
O O14 0.000000 0.500000 0.000000
O O15 0.071635 0.736784 0.170425
O O16 0.611377 0.039422 0.100402
O O17 0.758137 0.816225 0.845167
#
# Coordination Sequence:
#
# PCOD8041226 Si02
#       8
#     2   2   2   2   2   2   2   2
#     4  11  19  35  60  83 112 143 189 232 275 322
#     4  10  19  34  56  85 112 144 184 235 277 325
#     4  11  21  37  59  80 112 154 185 226 276 338
#     4  10  19  33  55  78 110 143 183 230 274 320
#     4  10  19  33  55  86 108 141 185 236 275 318
#     4  10  22  36  56  80 112 150 189 220 281 342
#     4  10  20  32  56  87 109 136 190 235 276 318
#     4  10  19  31  57  86 110 139 188 232 277 321
#
# _framework density 19.786428999999998
#
# number of rings (size 3 to 8) (size 9 to 14) (size 15 to 20)
#    0.000    1.750    3.750    3.750    0.000    2.000 
#    0.000    3.125    5.500    2.250    0.000    0.000 
#    0.000    0.000    0.000    0.000    0.000    0.000 
#
# Total GULP energy -198377.870086 kJ/mol
# GULP energy per Si atom -12398.616880 kJ/mol
# Density = 1.974139 g / cm^3
# Si number density = 19.786429 Si / 1000 Ang^3
#
#
#
# Elastic Constant Matrix: (Units=GPa)
#
#
# Indices 1 2 3 4 5 6 
#
# 1 101.7901 43.1027 38.4250 -7.7823 24.9113 16.5464
# 2 43.1027 98.8338 31.3401 -24.7701 10.9849 15.4912
# 3 38.4250 31.3401 84.8222 -24.7856 26.4131 0.7108
# 4 -7.7823 -24.7701 -24.7856 30.0421 -0.3058 -1.0936
# 5 24.9113 10.9849 26.4131 -0.3058 32.1793 2.8307
# 6 16.5464 15.4912 0.7108 -1.0936 2.8307 23.0732
#
#
#
# Elastic Compliance Matrix: (Units=1/GPa)
#
#
# Indices 1 2 3 4 5 6 
#
# 1 0.016026 -0.004547 -0.004606 -0.003743 -0.006433 -0.007686
# 2 -0.004547 0.016364 0.000017 0.012060 -0.001350 -0.006989
# 3 -0.004606 0.000017 0.024781 0.019293 -0.017084 0.005539
# 4 -0.003743 0.012060 0.019293 0.057966 -0.016395 -0.001248
# 5 -0.006433 -0.001350 -0.017084 -0.016395 0.050465 -0.000922
# 6 -0.007686 -0.006989 0.005539 -0.001248 -0.000922 0.053428
#
#
# Mechanical properties :
#
#
# Convention : Reuss Voigt Hill
#
# Bulk Modulus (GPa) = 25.70797 56.79795 41.25296
# Shear Modulus (GPa) = 19.97862 28.56414 24.27138
#
# Velocity S-wave (km/s) = 3.18105 3.80363 3.50618
# Velocity P-wave (km/s) = 5.14908 6.93238 6.10618
#
# Compressibility (1/GPa) = 0.03889844
#
# Stress axis : x y z
#
# Youngs Moduli (GPa) = 62.39949 61.11100 40.35363
#
# Poissons Ratio (x) = 0.27786 0.18586
# Poissons Ratio (y) = 0.28372 -0.00068
# Poissons Ratio (z) = 0.28741 -0.00103
#
# Static dielectric constant tensor:
#      x y z
#    x 3.768950 0.129320 0.531410 
#    y 0.129320 3.604850 -0.333720 
#    z 0.531410 -0.333720 3.904590 
# 
# 
# High freq. dielectric constant tensor:
#      x y z
#    x 1.756450 0.026750 0.032980 
#    y 0.026750 1.766570 -0.027860 
#    z 0.032980 -0.027860 1.764240 
# 
# From -- ./inp_files/435903.got.cif
#   From: 2010.06.25/outbox.cif.g09.slc.cpg/sg2_218_cif.got.tgz:435903.got - 2010.06.27 13:26:56.
