data_PCOD8041998
_publ_section_title
;
Structure prediction by ZEFSAII (Michael W. Deem and Ramdas Pophale) SiO2 
 PCOD8041998
Probable space group: P -1
;
_chemical_formula_sum "Si O2"
_cell_formula_units_Z 14
_cell_length_a 14.079026
_cell_length_b 5.011459
_cell_length_c 12.318001
_cell_angle_alpha 66.986873
_cell_angle_beta 84.201889
_cell_angle_gamma 53.249802
_cell_volume 630.467009
_symmetry_space_group_name_H-M "P -1"
_symmetry_group_IT_number 2
_symmetry_cell_setting 'triclinic'
loop_
_space_group_symop_operation_xyz
x,y,z
-x,-y,-z
loop_
_atom_site_type_symbol
_atom_site_label
_atom_site_fract_x
_atom_site_fract_y
_atom_site_fract_z
Si Si1 0.808906 0.405213 0.859706
Si Si2 0.346685 0.441553 0.338975
Si Si3 0.862366 0.685457 0.005559
Si Si4 0.827427 0.832234 0.417721
Si Si5 0.128833 0.903215 0.425021
Si Si6 0.431417 0.755837 0.569579
Si Si7 0.043475 0.943361 0.758227
O O1 0.693943 0.637599 0.755244
O O2 0.798291 0.675122 0.907117
O O3 0.799589 0.110154 0.968970
O O4 0.935112 0.209793 0.812319
O O5 0.232394 0.826322 0.341991
O O6 0.469009 0.405583 0.318361
O O7 0.377663 0.161482 0.475359
O O8 0.857621 0.464077 0.139431
O O9 0.000000 0.500000 0.000000
O O10 0.842231 0.459967 0.464264
O O11 0.891258 0.814685 0.526227
O O12 0.686270 0.199006 0.381923
O O13 0.887364 0.884321 0.300775
O O14 0.005718 0.103949 0.339933
O O15 0.500000 0.500000 0.500000
#
# Coordination Sequence:
#
# PCOD8041998 Si02
#       7
#     2   2   2   2   2   2   2
#     4  10  22  36  57  81 106 141 180 219 266 310
#     4   9  20  34  55  80 106 140 177 224 260 311
#     4  10  21  36  55  80 107 142 182 218 260 312
#     4  11  22  34  52  81 111 143 170 213 270 319
#     4  10  21  34  51  81 110 142 171 208 268 326
#     4  10  19  34  56  78 109 137 182 215 262 320
#     4  10  21  35  55  78 113 139 174 218 263 319
#
# _framework density 22.205762
#
# number of rings (size 3 to 8) (size 9 to 14) (size 15 to 20)
#    0.000    2.000    1.429    2.571    2.000   11.429 
#    0.000    0.000    0.000    1.714    0.000    0.000 
#    0.000    0.000    0.000    0.000    0.000    0.000 
#
# Total GULP energy -173501.894298 kJ/mol
# GULP energy per Si atom -12392.992450 kJ/mol
# Density = 2.215522 g / cm^3
# Si number density = 22.205762 Si / 1000 Ang^3
#
#
#
# Elastic Constant Matrix: (Units=GPa)
#
#
# Indices 1 2 3 4 5 6 
#
# 1 103.1208 8.7598 49.6827 2.6219 14.8156 -5.4368
# 2 8.7598 37.6598 0.9533 7.1993 0.7650 6.4483
# 3 49.6827 0.9533 78.1247 -8.0418 2.5643 -14.2146
# 4 2.6219 7.1993 -8.0418 13.2418 1.2233 3.2301
# 5 14.8156 0.7650 2.5643 1.2233 35.5347 -0.4892
# 6 -5.4368 6.4483 -14.2146 3.2301 -0.4892 32.3981
#
#
#
# Elastic Compliance Matrix: (Units=1/GPa)
#
#
# Indices 1 2 3 4 5 6 
#
# 1 0.016153 -0.001584 -0.011125 -0.008302 -0.005627 -0.001113
# 2 -0.001584 0.031112 -0.002142 -0.016561 0.000636 -0.005737
# 3 -0.011125 -0.002142 0.022655 0.015169 0.002624 0.007026
# 4 -0.008302 -0.016561 0.015169 0.095674 -0.000584 -0.000989
# 5 -0.005627 0.000636 0.002624 -0.000584 0.030313 0.000596
# 6 -0.001113 -0.005737 0.007026 -0.000989 0.000596 0.035012
#
#
# Mechanical properties :
#
#
# Convention : Reuss Voigt Hill
#
# Bulk Modulus (GPa) = 24.86479 37.52188 31.19334
# Shear Modulus (GPa) = 18.24647 26.86888 22.55767
#
# Velocity S-wave (km/s) = 2.86964 3.48227 3.19069
# Velocity P-wave (km/s) = 4.71185 5.75346 5.25851
#
# Compressibility (1/GPa) = 0.04021752
#
# Stress axis : x y z
#
# Youngs Moduli (GPa) = 61.90853 32.14245 44.14045
#
# Poissons Ratio (x) = 0.05090 0.49107
# Poissons Ratio (y) = 0.09804 0.09455
# Poissons Ratio (z) = 0.68875 0.06885
#
# Static dielectric constant tensor:
#      x y z
#    x 4.648290 -0.240340 0.090600 
#    y -0.240340 3.983190 -0.397170 
#    z 0.090600 -0.397170 4.282510 
# 
# 
# High freq. dielectric constant tensor:
#      x y z
#    x 1.878160 0.017480 0.012830 
#    y 0.017480 1.849640 -0.016130 
#    z 0.012830 -0.016130 1.849010 
# 
# From -- ./inp_files/67981.got.cif
#   From: 2010.06.25/outbox.cif.g09.slc.cpg/sg2_34_cif.got.tgz:67981.got - 2010.06.27 13:26:56.
