data_PCOD8041212
_publ_section_title
;
Structure prediction by ZEFSAII (Michael W. Deem and Ramdas Pophale) SiO2 
 PCOD8041212
Probable space group: P -1
;
_chemical_formula_sum "Si O2"
_cell_formula_units_Z 14
_cell_length_a 14.193726
_cell_length_b 15.071044
_cell_length_c 12.969527
_cell_angle_alpha 152.646654
_cell_angle_beta 120.303660
_cell_angle_gamma 42.705592
_cell_volume 760.702776
_symmetry_space_group_name_H-M "P -1"
_symmetry_group_IT_number 2
_symmetry_cell_setting 'triclinic'
loop_
_space_group_symop_operation_xyz
x,y,z
-x,-y,-z
loop_
_atom_site_type_symbol
_atom_site_label
_atom_site_fract_x
_atom_site_fract_y
_atom_site_fract_z
Si Si1 0.836417 0.736133 0.840470
Si Si2 0.240698 0.640060 0.306706
Si Si3 0.062052 0.752174 0.913422
Si Si4 0.079678 0.496265 0.138743
Si Si5 0.438768 0.624863 0.706287
Si Si6 0.789134 0.388235 0.354820
Si Si7 0.932779 0.063203 0.682789
O O1 0.858540 0.726130 0.966930
O O2 0.810761 0.546485 0.601982
O O3 0.994138 0.622729 0.758336
O O4 0.688806 0.043567 0.033208
O O5 0.230673 0.425161 0.107568
O O6 0.416033 0.490586 0.264450
O O7 0.204304 0.714739 0.243980
O O8 0.104734 0.924823 0.594223
O O9 0.202005 0.563912 0.711804
O O10 0.124951 0.759609 0.062541
O O11 0.925779 0.065321 0.122456
O O12 0.950624 0.807901 0.440561
O O13 0.000000 0.500000 0.000000
O O14 0.500000 0.500000 0.500000
O O15 0.373972 0.511930 0.606957
#
# Coordination Sequence:
#
# PCOD8041212 Si02
#       7
#     2   2   2   2   2   2   2
#     4  11  21  35  56  86 113 141 184 229 274 324
#     4   9  19  35  53  79 113 142 180 224 275 324
#     4  10  19  36  60  80 110 144 186 231 268 321
#     4  10  19  31  55  87 109 136 183 228 276 319
#     4  11  23  36  55  80 117 148 176 223 280 334
#     4  10  21  37  55  84 111 147 183 222 277 326
#     4   9  18  36  57  79 110 140 187 227 273 317
#
# _framework density 18.404035
#
# number of rings (size 3 to 8) (size 9 to 14) (size 15 to 20)
#    0.857    1.143    1.429    3.857    2.000    2.286 
#    0.000    0.714    0.000    0.857    0.000    0.000 
#    0.000    0.000    0.000    0.000    0.000    0.000 
#
# Total GULP energy -173475.161250 kJ/mol
# GULP energy per Si atom -12391.082946 kJ/mol
# Density = 1.836215 g / cm^3
# Si number density = 18.404035 Si / 1000 Ang^3
#
#
#
# Elastic Constant Matrix: (Units=GPa)
#
#
# Indices 1 2 3 4 5 6 
#
# 1 142.5957 69.9890 38.2965 -13.1562 4.6218 -12.5056
# 2 69.9890 132.8387 28.8477 -18.6294 -7.6431 0.8032
# 3 38.2965 28.8477 43.8953 -19.6348 3.4112 -7.0497
# 4 -13.1562 -18.6294 -19.6348 28.3511 4.4614 2.1406
# 5 4.6218 -7.6431 3.4112 4.4614 29.9473 -5.0220
# 6 -12.5056 0.8032 -7.0497 2.1406 -5.0220 26.4221
#
#
#
# Elastic Compliance Matrix: (Units=1/GPa)
#
#
# Indices 1 2 3 4 5 6 
#
# 1 0.011551 -0.004980 -0.007603 -0.003282 -0.001087 0.003650
# 2 -0.004980 0.011304 -0.002337 0.003267 0.002924 -0.003033
# 3 -0.007603 -0.002337 0.044041 0.026277 -0.007574 0.004655
# 4 -0.003282 0.003267 0.026277 0.055773 -0.010144 -0.001088
# 5 -0.001087 0.002924 -0.007574 -0.010144 0.037575 0.005340
# 6 0.003650 -0.003033 0.004655 -0.001088 0.005340 0.042012
#
#
# Mechanical properties :
#
#
# Convention : Reuss Voigt Hill
#
# Bulk Modulus (GPa) = 26.98569 65.95511 46.47040
# Shear Modulus (GPa) = 20.45428 29.09055 24.77241
#
# Velocity S-wave (km/s) = 3.33739 3.98007 3.67281
# Velocity P-wave (km/s) = 5.43559 7.55224 6.57959
#
# Compressibility (1/GPa) = 0.03705668
#
# Stress axis : x y z
#
# Youngs Moduli (GPa) = 86.56959 88.46393 22.70632
#
# Poissons Ratio (x) = 0.44054 0.17263
# Poissons Ratio (y) = 0.43111 0.05307
# Poissons Ratio (z) = 0.65815 0.20675
#
# Static dielectric constant tensor:
#      x y z
#    x 3.668010 0.277730 0.074080 
#    y 0.277730 3.017310 -0.314260 
#    z 0.074080 -0.314260 3.220050 
# 
# 
# High freq. dielectric constant tensor:
#      x y z
#    x 1.713070 0.014390 0.020930 
#    y 0.014390 1.710170 -0.018160 
#    z 0.020930 -0.018160 1.689240 
# 
# From -- ./inp_files/456038.got.cif
#   From: 2010.06.25/outbox.cif.g09.slc.cpg/sg2_229_cif.got.tgz:456038.got - 2010.06.27 13:26:56.
