data_PCOD8041074
_publ_section_title
;
Structure prediction by ZEFSAII (Michael W. Deem and Ramdas Pophale) SiO2 
 PCOD8041074
Probable space group: P -1
;
_chemical_formula_sum "Si O2"
_cell_formula_units_Z 16
_cell_length_a 13.005006
_cell_length_b 11.368380
_cell_length_c 14.074318
_cell_angle_alpha 75.934587
_cell_angle_beta 45.737905
_cell_angle_gamma 112.560360
_cell_volume 874.121398
_symmetry_space_group_name_H-M "P -1"
_symmetry_group_IT_number 2
_symmetry_cell_setting 'triclinic'
loop_
_space_group_symop_operation_xyz
x,y,z
-x,-y,-z
loop_
_atom_site_type_symbol
_atom_site_label
_atom_site_fract_x
_atom_site_fract_y
_atom_site_fract_z
Si Si1 0.457258 0.401141 0.685001
Si Si2 0.939217 0.686734 0.797094
Si Si3 0.105819 0.591376 0.016374
Si Si4 0.669797 0.442320 0.356461
Si Si5 0.692224 0.563827 0.798301
Si Si6 0.179335 0.206941 0.507599
Si Si7 0.279920 0.211303 0.025503
Si Si8 0.579866 0.872326 0.582520
O O1 0.530523 0.361521 0.560712
O O2 0.303863 0.410804 0.742190
O O3 0.692804 0.612611 0.540887
O O4 0.304281 0.216755 0.894112
O O5 0.866603 0.513669 0.924316
O O6 0.895737 0.644898 0.719320
O O7 0.776771 0.684585 0.943515
O O8 0.210831 0.891000 0.612172
O O9 0.938563 0.576957 0.179200
O O10 0.380807 0.813764 0.781090
O O11 0.000000 0.500000 0.000000
O O12 0.522734 0.245314 0.428516
O O13 0.832015 0.747880 0.600377
O O14 0.500000 0.500000 0.000000
O O15 0.538160 0.360065 0.878617
O O16 0.317772 0.173288 0.416359
O O17 0.916841 0.009130 0.759779
#
# Coordination Sequence:
#
# PCOD8041074 Si02
#       8
#     2   2   2   2   2   2   2   2
#     4   9  17  34  49  69  97 122 159 201 233 273
#     4  10  19  30  47  73  98 123 155 188 233 287
#     4  10  19  32  47  67  96 129 156 190 235 278
#     4   9  18  32  51  68  94 129 160 196 235 275
#     4   9  17  28  47  73 100 124 151 193 238 283
#     4   9  17  30  49  73  97 124 157 193 238 281
#     4   9  17  30  50  73  98 125 153 195 241 280
#     4   9  18  31  47  70  99 125 153 192 233 281
#
# _framework density 18.304093999999999
#
# number of rings (size 3 to 8) (size 9 to 14) (size 15 to 20)
#    0.000    2.750    0.000    3.750    0.000    7.500 
#    0.000   15.000    0.000    3.000    0.000    5.250 
#    0.000    0.000    0.000    0.000    0.000    0.000 
#
# Total GULP energy -198246.709808 kJ/mol
# GULP energy per Si atom -12390.419363 kJ/mol
# Density = 1.826243 g / cm^3
# Si number density = 18.304094 Si / 1000 Ang^3
#
#
#
# Elastic Constant Matrix: (Units=GPa)
#
#
# Indices 1 2 3 4 5 6 
#
# 1 69.8659 21.2166 35.2457 11.1634 13.2592 14.5394
# 2 21.2166 36.9337 32.6274 7.1060 -3.3721 2.8961
# 3 35.2457 32.6274 118.0923 7.8942 10.3247 11.7369
# 4 11.1634 7.1060 7.8942 15.9830 1.2283 -0.7406
# 5 13.2592 -3.3721 10.3247 1.2283 37.8679 2.3006
# 6 14.5394 2.8961 11.7369 -0.7406 2.3006 13.7751
#
#
#
# Elastic Compliance Matrix: (Units=1/GPa)
#
#
# Indices 1 2 3 4 5 6 
#
# 1 0.027066 -0.010767 -0.000968 -0.014162 -0.008202 -0.024871
# 2 -0.010767 0.043916 -0.010183 -0.007352 0.010166 0.008715
# 3 -0.000968 -0.010183 0.012659 -0.001105 -0.003553 -0.007090
# 4 -0.014162 -0.007352 -0.001105 0.077205 0.000798 0.021452
# 5 -0.008202 0.010166 -0.003553 0.000798 0.030858 0.004436
# 6 -0.024871 0.008715 -0.007090 0.021452 0.004436 0.103467
#
#
# Mechanical properties :
#
#
# Convention : Reuss Voigt Hill
#
# Bulk Modulus (GPa) = 25.12231 44.78570 34.95400
# Shear Modulus (GPa) = 14.19339 22.57869 18.38604
#
# Velocity S-wave (km/s) = 2.78766 3.51598 3.17279
# Velocity P-wave (km/s) = 4.91082 6.40340 5.70612
#
# Compressibility (1/GPa) = 0.03980526
#
# Stress axis : x y z
#
# Youngs Moduli (GPa) = 36.94652 22.77062 78.99228
#
# Poissons Ratio (x) = 0.24518 0.07644
# Poissons Ratio (y) = 0.39781 0.80441
# Poissons Ratio (z) = 0.03575 0.23188
#
# Static dielectric constant tensor:
#      x y z
#    x 3.324260 0.299630 -0.111010 
#    y 0.299630 3.063510 0.079470 
#    z -0.111010 0.079470 3.595210 
# 
# 
# High freq. dielectric constant tensor:
#      x y z
#    x 1.708410 0.018260 0.005610 
#    y 0.018260 1.659180 -0.002930 
#    z 0.005610 -0.002930 1.717940 
# 
# From -- ./inp_files/451359.got.cif
#   From: 2010.06.25/outbox.cif.g09.slc.cpg/sg2_226_cif.got.tgz:451359.got - 2010.06.27 13:26:56.
