data_PCOD8041732
_publ_section_title
;
Structure prediction by ZEFSAII (Michael W. Deem and Ramdas Pophale) SiO2 
 PCOD8041732
Probable space group: P -1
;
_chemical_formula_sum "Si O2"
_cell_formula_units_Z 14
_cell_length_a 10.852984
_cell_length_b 7.463518
_cell_length_c 8.903096
_cell_angle_alpha 50.886098
_cell_angle_beta 125.044795
_cell_angle_gamma 104.105166
_cell_volume 450.053792
_symmetry_space_group_name_H-M "P -1"
_symmetry_group_IT_number 2
_symmetry_cell_setting 'triclinic'
loop_
_space_group_symop_operation_xyz
x,y,z
-x,-y,-z
loop_
_atom_site_type_symbol
_atom_site_label
_atom_site_fract_x
_atom_site_fract_y
_atom_site_fract_z
Si Si1 0.039916 0.172695 0.076321
Si Si2 0.570202 0.410125 0.408226
Si Si3 0.169583 0.255601 0.830117
Si Si4 0.660433 0.880116 0.247410
Si Si5 0.787769 0.249540 0.386081
Si Si6 0.782457 0.407410 0.973246
Si Si7 0.474447 0.034621 0.289580
O O1 0.148361 0.367570 0.048281
O O2 0.106151 0.967977 0.345309
O O3 0.058366 0.124369 0.927724
O O4 0.871147 0.289890 0.949991
O O5 0.671608 0.600454 0.423216
O O6 0.619997 0.307786 0.325605
O O7 0.393070 0.519093 0.227064
O O8 0.594797 0.206469 0.661705
O O9 0.196279 0.105323 0.770535
O O10 0.118700 0.536682 0.625095
O O11 0.343162 0.244026 0.029150
O O12 0.644741 0.001006 0.340279
O O13 0.500000 0.000000 0.000000
O O14 0.786814 0.226031 0.214420
O O15 0.500000 0.000000 0.500000
#
# Coordination Sequence:
#
# PCOD8041732 Si02
#       7
#     2   2   2   2   2   2   2
#     4  10  19  37  56  85 127 179 204 256 312 373
#     4  11  21  36  60  95 124 163 206 261 315 367
#     4   9  19  37  58  88 121 163 206 250 306 376
#     4   9  21  39  59  89 129 165 200 260 316 368
#     4  10  19  33  57  86 124 167 212 255 312 363
#     4  10  22  34  54  89 134 162 214 259 311 370
#     4  11  20  35  63  95 123 157 206 258 308 366
#
# _framework density 31.107395
#
# number of rings (size 3 to 8) (size 9 to 14) (size 15 to 20)
#    0.000    2.000    1.429    3.000    0.000    2.286 
#    0.000    0.000    0.000    4.286    0.000    0.000 
#    0.000    0.000    0.000    0.000    0.000    0.000 
#
# Total GULP energy -173503.555534 kJ/mol
# GULP energy per Si atom -12393.111110 kJ/mol
# Density = 3.103659 g / cm^3
# Si number density = 31.107395 Si / 1000 Ang^3
#
#
#
# Elastic Constant Matrix: (Units=GPa)
#
#
# Indices 1 2 3 4 5 6 
#
# 1 224.3646 82.9115 27.7557 -13.7515 -42.0238 -37.6493
# 2 82.9115 109.3808 27.9171 5.3549 -28.1390 -52.7448
# 3 27.7557 27.9171 88.2392 -34.8529 -33.2914 3.7388
# 4 -13.7515 5.3549 -34.8529 47.3466 6.3387 -16.3905
# 5 -42.0238 -28.1390 -33.2914 6.3387 63.6792 1.6168
# 6 -37.6493 -52.7448 3.7388 -16.3905 1.6168 78.3008
#
#
#
# Elastic Compliance Matrix: (Units=1/GPa)
#
#
# Indices 1 2 3 4 5 6 
#
# 1 0.006922 -0.004788 0.002003 0.003873 0.003095 0.000754
# 2 -0.004788 0.020546 -0.006400 -0.005090 0.002808 0.010720
# 3 0.002003 -0.006400 0.022471 0.016276 0.008652 -0.001192
# 4 0.003873 -0.005090 0.016276 0.035869 0.005117 0.005059
# 5 0.003095 0.002808 0.008652 0.005117 0.022910 0.003565
# 6 0.000754 0.010720 -0.001192 0.005059 0.003565 0.021397
#
#
# Mechanical properties :
#
#
# Convention : Reuss Voigt Hill
#
# Bulk Modulus (GPa) = 31.67564 77.68369 54.67967
# Shear Modulus (GPa) = 31.44493 56.75869 44.10181
#
# Velocity S-wave (km/s) = 3.18284 4.27617 3.76936
# Velocity P-wave (km/s) = 4.86950 7.02907 6.04648
#
# Compressibility (1/GPa) = 0.03157000
#
# Stress axis : x y z
#
# Youngs Moduli (GPa) = 144.46117 48.67134 44.50208
#
# Poissons Ratio (x) = 0.23304 -0.08914
# Poissons Ratio (y) = 0.69169 0.28479
# Poissons Ratio (z) = -0.28936 0.31147
#
# Static dielectric constant tensor:
#      x y z
#    x 7.457040 1.737120 -2.039070 
#    y 1.737120 11.187310 -2.495500 
#    z -2.039070 -2.495500 6.953530 
# 
# 
# High freq. dielectric constant tensor:
#      x y z
#    x 2.317780 0.009600 -0.048650 
#    y 0.009600 2.339590 -0.019280 
#    z -0.048650 -0.019280 2.264470 
# 
# From -- ./inp_files/233309.got.cif
#   From: 2010.06.25/outbox.cif.g09.slc.cpg/sg2_117_cif.got.tgz:233309.got - 2010.06.27 13:26:56.
