data_PCOD8041078
_publ_section_title
;
Structure prediction by ZEFSAII (Michael W. Deem and Ramdas Pophale) SiO2 
 PCOD8041078
Probable space group: P -1
;
_chemical_formula_sum "Si O2"
_cell_formula_units_Z 16
_cell_length_a 13.342195
_cell_length_b 20.211557
_cell_length_c 13.469129
_cell_angle_alpha 132.821344
_cell_angle_beta 33.982027
_cell_angle_gamma 152.216677
_cell_volume 925.832274
_symmetry_space_group_name_H-M "P -1"
_symmetry_group_IT_number 2
_symmetry_cell_setting 'triclinic'
loop_
_space_group_symop_operation_xyz
x,y,z
-x,-y,-z
loop_
_atom_site_type_symbol
_atom_site_label
_atom_site_fract_x
_atom_site_fract_y
_atom_site_fract_z
Si Si1 0.212799 0.925354 0.611930
Si Si2 0.744968 0.848459 0.209117
Si Si3 0.726272 0.682030 0.909060
Si Si4 0.111306 0.370966 0.095237
Si Si5 0.261557 0.940996 0.362061
Si Si6 0.443360 0.748992 0.548803
Si Si7 0.816613 0.085556 0.965140
Si Si8 0.073285 0.128341 0.601948
O O1 0.184960 0.881983 0.476481
O O2 0.935607 0.774202 0.738241
O O3 0.500000 0.000000 0.500000
O O4 0.220447 0.035360 0.734751
O O5 0.488830 0.733122 0.382380
O O6 0.044811 0.936948 0.102936
O O7 0.673762 0.757749 0.081477
O O8 0.867250 0.664351 0.848985
O O9 0.420243 0.525945 0.960913
O O10 0.895993 0.372623 0.275623
O O11 0.990714 0.248216 0.994847
O O12 0.974305 0.828501 0.413283
O O13 0.401379 0.094201 0.408695
O O14 0.489117 0.963156 0.146917
O O15 0.599630 0.740069 0.487761
O O16 0.834587 0.063450 0.813358
O O17 0.000000 0.000000 0.500000
#
# Coordination Sequence:
#
# PCOD8041078 Si02
#       8
#     2   2   2   2   2   2   2   2
#     4  11  20  32  48  68  99 127 152 192 238 277
#     4   9  17  29  47  71  95 121 154 193 236 277
#     4  10  19  30  48  69  95 129 162 191 225 278
#     4   9  18  32  47  69  96 126 161 192 228 277
#     4   9  17  28  45  70  94 120 155 189 232 282
#     4   8  15  28  45  67  95 120 150 196 239 267
#     4   9  16  30  50  71  97 122 150 194 238 273
#     4   9  16  27  47  73  95 118 151 196 239 276
#
# _framework density 17.281748
#
# number of rings (size 3 to 8) (size 9 to 14) (size 15 to 20)
#    0.000    2.750    0.000    4.500    0.000    0.500 
#    0.000    2.500    0.000    1.500    0.000    0.000 
#    0.000    0.000    0.000    0.000    0.000    0.000 
#
# Total GULP energy -198307.364313 kJ/mol
# GULP energy per Si atom -12394.210270 kJ/mol
# Density = 1.724241 g / cm^3
# Si number density = 17.281748 Si / 1000 Ang^3
#
#
#
# Elastic Constant Matrix: (Units=GPa)
#
#
# Indices 1 2 3 4 5 6 
#
# 1 109.3817 36.4761 63.9341 -14.2274 -2.1317 1.1630
# 2 36.4761 55.8925 39.0271 -17.8459 2.8496 0.2936
# 3 63.9341 39.0271 131.8374 -11.4731 1.4397 5.8941
# 4 -14.2274 -17.8459 -11.4731 21.7475 1.5735 -2.3193
# 5 -2.1317 2.8496 1.4397 1.5735 33.4786 1.2216
# 6 1.1630 0.2936 5.8941 -2.3193 1.2216 14.3026
#
#
#
# Elastic Compliance Matrix: (Units=1/GPa)
#
#
# Indices 1 2 3 4 5 6 
#
# 1 0.014202 -0.004802 -0.005319 0.002599 0.001367 0.001440
# 2 -0.004802 0.031654 -0.005438 0.020859 -0.003955 0.005702
# 3 -0.005319 -0.005438 0.011792 -0.002211 -0.000109 -0.004664
# 4 0.002599 0.020859 -0.002211 0.065196 -0.004990 0.011270
# 5 0.001367 -0.003955 -0.000109 -0.004990 0.030657 -0.003413
# 6 0.001440 0.005702 -0.004664 0.011270 -0.003413 0.073724
#
#
# Mechanical properties :
#
#
# Convention : Reuss Voigt Hill
#
# Bulk Modulus (GPa) = 37.69314 63.99848 50.84581
# Shear Modulus (GPa) = 18.71348 24.41736 21.56542
#
# Velocity S-wave (km/s) = 3.29423 3.76293 3.53636
# Velocity P-wave (km/s) = 6.02724 7.48280 6.79411
#
# Compressibility (1/GPa) = 0.02653002
#
# Stress axis : x y z
#
# Youngs Moduli (GPa) = 70.41333 31.59127 84.80584
#
# Poissons Ratio (x) = 0.15169 0.45107
# Poissons Ratio (y) = 0.33810 0.46121
# Poissons Ratio (z) = 0.37452 0.17180
#
# Static dielectric constant tensor:
#      x y z
#    x 3.580110 0.171400 -0.193130 
#    y 0.171400 2.804630 0.067690 
#    z -0.193130 0.067690 3.610370 
# 
# 
# High freq. dielectric constant tensor:
#      x y z
#    x 1.667650 0.014310 -0.012030 
#    y 0.014310 1.610470 0.009310 
#    z -0.012030 0.009310 1.685690 
# 
# From -- ./inp_files/275036.got.cif
#   From: 2010.06.25/outbox.cif.g09.slc.cpg/sg2_138_cif.got.tgz:275036.got - 2010.06.27 13:26:56.
