data_PCOD8041906
_publ_section_title
;
Structure prediction by ZEFSAII (Michael W. Deem and Ramdas Pophale) SiO2 
 PCOD8041906
Probable space group: P -1
;
_chemical_formula_sum "Si O2"
_cell_formula_units_Z 14
_cell_length_a 24.003088
_cell_length_b 7.434467
_cell_length_c 9.155102
_cell_angle_alpha 132.905834
_cell_angle_beta 148.359865
_cell_angle_gamma 51.200101
_cell_volume 623.034748
_symmetry_space_group_name_H-M "P -1"
_symmetry_group_IT_number 2
_symmetry_cell_setting 'triclinic'
loop_
_space_group_symop_operation_xyz
x,y,z
-x,-y,-z
loop_
_atom_site_type_symbol
_atom_site_label
_atom_site_fract_x
_atom_site_fract_y
_atom_site_fract_z
Si Si1 0.492006 0.001671 0.732897
Si Si2 0.981870 0.709255 0.694077
Si Si3 0.136940 0.097245 0.718489
Si Si4 0.010958 0.283153 0.791068
Si Si5 0.636768 0.183697 0.402095
Si Si6 0.362586 0.258108 0.333937
Si Si7 0.136381 0.074382 0.205231
O O1 0.426212 0.832399 0.594966
O O2 0.558362 0.824166 0.667637
O O3 0.417258 0.207895 0.586677
O O4 0.565899 0.143552 0.080821
O O5 0.891685 0.899738 0.514105
O O6 0.000000 0.500000 0.500000
O O7 0.918657 0.674009 0.688168
O O8 0.087231 0.839300 0.035145
O O9 0.067445 0.329527 0.785245
O O10 0.262166 0.101838 0.021030
O O11 0.097333 0.842948 0.550487
O O12 0.000000 0.500000 0.000000
O O13 0.103052 0.088882 0.968949
O O14 0.675452 0.452473 0.616881
O O15 0.736756 0.968269 0.513825
#
# Coordination Sequence:
#
# PCOD8041906 Si02
#       7
#     2   2   2   2   2   2   2
#     4  10  24  41  61  91 121 156 213 255 303 370
#     4  10  19  34  53  81 114 146 187 239 287 349
#     4  10  21  35  57  86 114 152 201 236 290 366
#     4  10  21  38  56  85 125 157 189 244 296 353
#     4  11  22  41  62  88 124 160 201 259 308 352
#     4  11  22  41  65  88 120 163 202 255 309 356
#     4  10  21  34  56  85 114 152 199 236 290 363
#
# _framework density 22.470656000000002
#
# number of rings (size 3 to 8) (size 9 to 14) (size 15 to 20)
#    0.000    1.714    0.000    4.286    0.000    3.429 
#    0.000    8.571    0.000    0.000    0.000    0.000 
#    0.000    0.000    0.000    0.000    0.000    0.000 
#
# Total GULP energy -173478.081492 kJ/mol
# GULP energy per Si atom -12391.291535 kJ/mol
# Density = 2.241951 g / cm^3
# Si number density = 22.470656 Si / 1000 Ang^3
#
#
#
# Elastic Constant Matrix: (Units=GPa)
#
#
# Indices 1 2 3 4 5 6 
#
# 1 123.7175 24.8748 66.0975 -11.4199 -16.1485 5.0486
# 2 24.8748 44.7323 32.1076 2.1322 -2.9428 -9.4745
# 3 66.0975 32.1076 132.7556 -11.7950 2.3433 -4.4985
# 4 -11.4199 2.1322 -11.7950 38.6110 -2.9510 -3.2852
# 5 -16.1485 -2.9428 2.3433 -2.9510 41.7460 -2.9361
# 6 5.0486 -9.4745 -4.4985 -3.2852 -2.9361 35.6747
#
#
#
# Elastic Compliance Matrix: (Units=1/GPa)
#
#
# Indices 1 2 3 4 5 6 
#
# 1 0.012671 -0.003538 -0.005419 0.002427 0.004932 -0.002787
# 2 -0.003538 0.030251 -0.005650 -0.003693 0.001354 0.007594
# 3 -0.005419 -0.005650 0.011866 0.002169 -0.002957 0.000719
# 4 0.002427 -0.003693 0.002169 0.027833 0.002646 0.001730
# 5 0.004932 0.001354 -0.002957 0.002646 0.026431 0.001708
# 6 -0.002787 0.007594 0.000719 0.001730 0.001708 0.030833
#
#
# Mechanical properties :
#
#
# Convention : Reuss Voigt Hill
#
# Bulk Modulus (GPa) = 39.09983 60.81835 49.95909
# Shear Modulus (GPa) = 28.14946 35.08137 31.61541
#
# Velocity S-wave (km/s) = 3.54322 3.95550 3.75502
# Velocity P-wave (km/s) = 5.84614 6.92717 6.40949
#
# Compressibility (1/GPa) = 0.02557556
#
# Stress axis : x y z
#
# Youngs Moduli (GPa) = 78.92119 33.05650 84.27249
#
# Poissons Ratio (x) = 0.11696 0.45665
# Poissons Ratio (y) = 0.27923 0.47610
# Poissons Ratio (z) = 0.42766 0.18675
#
# Static dielectric constant tensor:
#      x y z
#    x 5.219780 0.725700 -0.737430 
#    y 0.725700 4.469890 -0.427220 
#    z -0.737430 -0.427220 4.202960 
# 
# 
# High freq. dielectric constant tensor:
#      x y z
#    x 1.904310 0.010370 -0.025750 
#    y 0.010370 1.880530 -0.006680 
#    z -0.025750 -0.006680 1.888940 
# 
# From -- ./inp_files/352491.got.cif
#   From: 2010.06.25/outbox.cif.g09.slc.cpg/sg2_177_cif.got.tgz:352491.got - 2010.06.27 13:26:56.
