data_PCOD8041466
_publ_section_title
;
Structure prediction by ZEFSAII (Michael W. Deem and Ramdas Pophale) SiO2 
 PCOD8041466
Probable space group: P -1
;
_chemical_formula_sum "Si O2"
_cell_formula_units_Z 14
_cell_length_a 9.275266
_cell_length_b 12.110107
_cell_length_c 7.769735
_cell_angle_alpha 95.373427
_cell_angle_beta 49.866058
_cell_angle_gamma 103.194760
_cell_volume 647.943292
_symmetry_space_group_name_H-M "P -1"
_symmetry_group_IT_number 2
_symmetry_cell_setting 'triclinic'
loop_
_space_group_symop_operation_xyz
x,y,z
-x,-y,-z
loop_
_atom_site_type_symbol
_atom_site_label
_atom_site_fract_x
_atom_site_fract_y
_atom_site_fract_z
Si Si1 0.889123 0.998752 0.409855
Si Si2 0.933607 0.370997 0.979170
Si Si3 0.440972 0.959817 0.782784
Si Si4 0.451760 0.739985 0.887496
Si Si5 0.447568 0.206558 0.818037
Si Si6 0.793691 0.187796 0.342559
Si Si7 0.764884 0.759267 0.347889
O O1 0.669310 0.999163 0.619843
O O2 0.902162 0.886522 0.274076
O O3 0.956801 0.119370 0.272411
O O4 0.000000 0.000000 0.500000
O O5 0.739556 0.358361 0.012064
O O6 0.899057 0.293353 0.164492
O O7 0.000000 0.500000 0.000000
O O8 0.104223 0.332445 0.736406
O O9 0.381515 0.860842 0.958818
O O10 0.370975 0.903292 0.645525
O O11 0.353316 0.070911 0.900770
O O12 0.602031 0.739022 0.617137
O O13 0.552838 0.726570 0.990589
O O14 0.673971 0.231034 0.593259
O O15 0.330105 0.258205 0.771012
#
# Coordination Sequence:
#
# PCOD8041466 Si02
#       7
#     2   2   2   2   2   2   2
#     4  10  19  32  62 101 135 162 205 258 323 397
#     4  11  26  46  67  91 127 174 225 277 317 364
#     4   9  17  36  59  90 136 174 197 251 326 393
#     4  10  23  41  65  95 127 172 215 259 326 385
#     4  11  18  39  67  92 132 170 207 259 330 396
#     4  10  19  41  64  90 136 175 207 259 328 378
#     4  11  23  43  65  95 132 167 212 266 329 392
#
# _framework density 21.606828
#
# number of rings (size 3 to 8) (size 9 to 14) (size 15 to 20)
#    0.000    1.714    5.714    1.286    4.000    3.429 
#    2.571    1.429    0.000    0.000    0.000    0.000 
#    0.000    0.000    0.000    0.000    0.000    0.000 
#
# Total GULP energy -173525.729423 kJ/mol
# GULP energy per Si atom -12394.694959 kJ/mol
# Density = 2.155765 g / cm^3
# Si number density = 21.606828 Si / 1000 Ang^3
#
#
#
# Elastic Constant Matrix: (Units=GPa)
#
#
# Indices 1 2 3 4 5 6 
#
# 1 128.8882 47.7964 51.6346 -2.6968 34.2152 -4.1567
# 2 47.7964 110.6978 37.1162 9.5359 0.8510 11.7796
# 3 51.6346 37.1162 74.5542 2.8472 16.1603 1.0092
# 4 -2.6968 9.5359 2.8472 18.7340 -5.4585 -1.7828
# 5 34.2152 0.8510 16.1603 -5.4585 36.1313 2.8670
# 6 -4.1567 11.7796 1.0092 -1.7828 2.8670 20.9664
#
#
#
# Elastic Compliance Matrix: (Units=1/GPa)
#
#
# Indices 1 2 3 4 5 6 
#
# 1 0.016011 -0.006232 -0.005474 0.003446 -0.012759 0.008977
# 2 -0.006232 0.014835 -0.004248 -0.006715 0.007305 -0.010935
# 3 -0.005474 -0.004248 0.020357 -0.002913 -0.004314 0.000664
# 4 0.003446 -0.006715 -0.002913 0.060510 0.006639 0.008833
# 5 -0.012759 0.007305 -0.004314 0.006639 0.043456 -0.011804
# 6 0.008977 -0.010935 0.000664 0.008833 -0.011804 0.057952
#
#
# Mechanical properties :
#
#
# Convention : Reuss Voigt Hill
#
# Bulk Modulus (GPa) = 51.82963 65.24830 58.53896
# Shear Modulus (GPa) = 19.88383 27.00588 23.44485
#
# Velocity S-wave (km/s) = 3.03686 3.53920 3.29761
# Velocity P-wave (km/s) = 6.02797 6.85308 6.45373
#
# Compressibility (1/GPa) = 0.01929398
#
# Stress axis : x y z
#
# Youngs Moduli (GPa) = 62.45617 67.40949 49.12402
#
# Poissons Ratio (x) = 0.42008 0.26891
# Poissons Ratio (y) = 0.38921 0.20870
# Poissons Ratio (z) = 0.34189 0.28638
#
# Static dielectric constant tensor:
#      x y z
#    x 4.112710 -0.261330 0.048920 
#    y -0.261330 3.843540 -0.074010 
#    z 0.048920 -0.074010 3.699650 
# 
# 
# High freq. dielectric constant tensor:
#      x y z
#    x 1.856730 -0.003880 0.001720 
#    y -0.003880 1.805380 -0.007910 
#    z 0.001720 -0.007910 1.837640 
# 
# From -- ./inp_files/172035.got.cif
#   From: 2010.06.25/outbox.cif.g09.slc.cpg/sg2_87_cif.got.tgz:172035.got - 2010.06.27 13:26:56.
