data_PCOD8041013
_publ_section_title
;
Structure prediction by ZEFSAII (Michael W. Deem and Ramdas Pophale) SiO2 
 PCOD8041013
Probable space group: P -1
;
_chemical_formula_sum "Si O2"
_cell_formula_units_Z 16
_cell_length_a 13.561522
_cell_length_b 9.863381
_cell_length_c 9.211668
_cell_angle_alpha 124.836747
_cell_angle_beta 68.005633
_cell_angle_gamma 73.739124
_cell_volume 713.392730
_symmetry_space_group_name_H-M "P -1"
_symmetry_group_IT_number 2
_symmetry_cell_setting 'triclinic'
loop_
_space_group_symop_operation_xyz
x,y,z
-x,-y,-z
loop_
_atom_site_type_symbol
_atom_site_label
_atom_site_fract_x
_atom_site_fract_y
_atom_site_fract_z
Si Si1 0.434316 0.801003 0.417384
Si Si2 0.696799 0.508584 0.916185
Si Si3 0.025979 0.291953 0.914601
Si Si4 0.749438 0.816734 0.063403
Si Si5 0.391239 0.490525 0.346261
Si Si6 0.858946 0.221739 0.145487
Si Si7 0.303124 0.908291 0.995104
Si Si8 0.780190 0.064197 0.623954
O O1 0.401798 0.677804 0.462701
O O2 0.348408 0.874108 0.360740
O O3 0.395474 0.002157 0.657427
O O4 0.596426 0.636104 0.187175
O O5 0.608194 0.573278 0.858289
O O6 0.789760 0.254094 0.740252
O O7 0.788919 0.582838 0.899809
O O8 0.136828 0.185832 0.919501
O O9 0.076868 0.136605 0.652778
O O10 0.000000 0.500000 0.000000
O O11 0.892480 0.333169 0.079694
O O12 0.737603 0.886661 0.946339
O O13 0.242951 0.591824 0.564014
O O14 0.528213 0.275577 0.214049
O O15 0.767214 0.180147 0.089062
O O16 0.000000 0.000000 0.000000
O O17 0.239248 0.994760 0.243275
#
# Coordination Sequence:
#
# PCOD8041013 Si02
#       8
#     2   2   2   2   2   2   2   2
#     4  10  18  42  65  99 143 179 220 278 347 406
#     4  11  21  40  68 103 141 176 225 281 355 397
#     4  11  27  51  68  98 138 187 236 278 341 420
#     4  11  25  41  66 104 142 178 227 290 339 407
#     4  11  22  41  73 104 135 184 233 287 342 416
#     4  12  24  46  71  99 141 189 227 283 352 411
#     4  12  23  43  73 107 135 174 240 286 347 407
#     4  10  22  44  73  96 138 180 230 289 334 415
#
# _framework density 22.428039999999999
#
# number of rings (size 3 to 8) (size 9 to 14) (size 15 to 20)
#    0.000    1.000    5.000    3.000    1.750    2.000 
#    6.750    1.250    0.000    0.000    0.000    0.000 
#    0.000    0.000    0.000    0.000    0.000    0.000 
#
# Total GULP energy -198392.985055 kJ/mol
# GULP energy per Si atom -12399.561566 kJ/mol
# Density = 2.237699 g / cm^3
# Si number density = 22.428040 Si / 1000 Ang^3
#
#
#
# Elastic Constant Matrix: (Units=GPa)
#
#
# Indices 1 2 3 4 5 6 
#
# 1 59.9176 26.1964 34.4963 -4.4966 -5.2827 5.5991
# 2 26.1964 128.3211 83.4299 -17.5779 2.8493 16.8944
# 3 34.4963 83.4299 135.3140 -12.9207 -12.9434 9.8742
# 4 -4.4966 -17.5779 -12.9207 35.1390 6.7809 5.7899
# 5 -5.2827 2.8493 -12.9434 6.7809 35.6535 0.1697
# 6 5.5991 16.8944 9.8742 5.7899 0.1697 38.1746
#
#
#
# Elastic Compliance Matrix: (Units=1/GPa)
#
#
# Indices 1 2 3 4 5 6 
#
# 1 0.019832 -0.001243 -0.004007 0.000378 0.001518 -0.001386
# 2 -0.001243 0.015440 -0.008763 0.006334 -0.005779 -0.005319
# 3 -0.004007 -0.008763 0.014183 -0.000876 0.005418 0.000906
# 4 0.000378 0.006334 -0.000876 0.034022 -0.007202 -0.007760
# 5 0.001518 -0.005779 0.005418 -0.007202 0.032062 0.001883
# 6 -0.001386 -0.005319 0.000906 -0.007760 0.001883 0.029687
#
#
# Mechanical properties :
#
#
# Convention : Reuss Voigt Hill
#
# Bulk Modulus (GPa) = 46.66407 67.97753 57.32080
# Shear Modulus (GPa) = 27.71699 33.75544 30.73622
#
# Velocity S-wave (km/s) = 3.51923 3.88371 3.70596
# Velocity P-wave (km/s) = 6.11266 7.10535 6.62762
#
# Compressibility (1/GPa) = 0.02142976
#
# Stress axis : x y z
#
# Youngs Moduli (GPa) = 50.42445 64.76553 70.50603
#
# Poissons Ratio (x) = 0.08048 0.28253
# Poissons Ratio (y) = 0.06266 0.61784
# Poissons Ratio (z) = 0.20206 0.56754
#
# Static dielectric constant tensor:
#      x y z
#    x 3.897760 -0.029430 0.027770 
#    y -0.029430 4.065260 -0.184670 
#    z 0.027770 -0.184670 4.174180 
# 
# 
# High freq. dielectric constant tensor:
#      x y z
#    x 1.870070 -0.002640 0.004640 
#    y -0.002640 1.884550 -0.012500 
#    z 0.004640 -0.012500 1.887950 
# 
# From -- ./inp_files/299450.got.cif
#   From: 2010.06.25/outbox.cif.g09.slc.cpg/sg2_150_cif.got.tgz:299450.got - 2010.06.27 13:26:56.
