data_PCOD8041536
_publ_section_title
;
Structure prediction by ZEFSAII (Michael W. Deem and Ramdas Pophale) SiO2 
 PCOD8041536
Probable space group: P -1
;
_chemical_formula_sum "Si O2"
_cell_formula_units_Z 16
_cell_length_a 14.856963
_cell_length_b 7.958927
_cell_length_c 8.434087
_cell_angle_alpha 112.155372
_cell_angle_beta 121.435107
_cell_angle_gamma 66.519248
_cell_volume 761.973590
_symmetry_space_group_name_H-M "P -1"
_symmetry_group_IT_number 2
_symmetry_cell_setting 'triclinic'
loop_
_space_group_symop_operation_xyz
x,y,z
-x,-y,-z
loop_
_atom_site_type_symbol
_atom_site_label
_atom_site_fract_x
_atom_site_fract_y
_atom_site_fract_z
Si Si1 0.990263 0.855374 0.307344
Si Si2 0.601182 0.883902 0.842522
Si Si3 0.347977 0.598523 0.764988
Si Si4 0.959324 0.551726 0.803443
Si Si5 0.783324 0.084534 0.044458
Si Si6 0.447552 0.238418 0.920805
Si Si7 0.270525 0.448211 0.336005
Si Si8 0.872414 0.255214 0.905143
O O1 0.010259 0.648347 0.332279
O O2 0.076408 0.855724 0.245574
O O3 0.870300 0.916097 0.146514
O O4 0.000000 0.000000 0.500000
O O5 0.622857 0.716522 0.673787
O O6 0.482610 0.035382 0.790084
O O7 0.624793 0.790450 0.005272
O O8 0.676759 0.014142 0.905804
O O9 0.244443 0.724991 0.809121
O O10 0.376549 0.391151 0.792793
O O11 0.311542 0.580897 0.544688
O O12 0.449279 0.692257 0.893472
O O13 0.827389 0.635171 0.708269
O O14 0.000000 0.500000 0.000000
O O15 0.033129 0.693029 0.874803
O O16 0.820450 0.122155 0.916005
O O17 0.222354 0.565454 0.175806
#
# Coordination Sequence:
#
# PCOD8041536 Si02
#       8
#     2   2   2   2   2   2   2   2
#     4  10  19  33  53  81 113 142 182 229 264 302
#     4  10  20  37  59  76 105 140 183 222 272 328
#     4  10  21  37  58  80 108 135 182 227 275 330
#     4   8  17  34  52  74 110 145 173 208 260 313
#     4  11  20  35  56  78 107 152 185 213 263 332
#     4   9  21  40  56  78 105 143 174 225 286 329
#     4  10  19  35  57  83 105 138 179 226 265 318
#     4  10  20  35  55  79 114 150 181 211 264 323
#
# _framework density 20.998104000000001
#
# number of rings (size 3 to 8) (size 9 to 14) (size 15 to 20)
#    0.000    2.500    0.000    4.875    0.000    1.000 
#    0.000   10.000    0.000    0.000    0.000    0.000 
#    0.000    0.000    0.000    0.000    0.000    0.000 
#
# Total GULP energy -198235.659039 kJ/mol
# GULP energy per Si atom -12389.728690 kJ/mol
# Density = 2.095031 g / cm^3
# Si number density = 20.998104 Si / 1000 Ang^3
#
#
#
# Elastic Constant Matrix: (Units=GPa)
#
#
# Indices 1 2 3 4 5 6 
#
# 1 92.0437 26.6448 20.4760 7.6878 -12.6939 6.0396
# 2 26.6448 86.8037 13.0268 12.9578 -17.2650 -17.4970
# 3 20.4760 13.0268 68.0895 22.1392 -9.3761 -6.8773
# 4 7.6878 12.9578 22.1392 32.2587 -12.1027 -8.3104
# 5 -12.6939 -17.2650 -9.3761 -12.1027 22.0466 7.1471
# 6 6.0396 -17.4970 -6.8773 -8.3104 7.1471 39.1938
#
#
#
# Elastic Compliance Matrix: (Units=1/GPa)
#
#
# Indices 1 2 3 4 5 6 
#
# 1 0.013811 -0.003789 -0.003666 0.001667 0.006029 -0.005209
# 2 -0.003789 0.015513 0.000160 -0.001091 0.007512 0.005936
# 3 -0.003666 0.000160 0.019960 -0.012884 -0.001090 0.001606
# 4 0.001667 -0.001091 -0.012884 0.048304 0.019978 0.003595
# 5 0.006029 0.007512 -0.001090 0.019978 0.067084 -0.005764
# 6 -0.005209 0.005936 0.001606 0.003595 -0.005764 0.031062
#
#
# Mechanical properties :
#
#
# Convention : Reuss Voigt Hill
#
# Bulk Modulus (GPa) = 28.82373 40.80357 34.81365
# Shear Modulus (GPa) = 22.53393 31.15243 26.84318
#
# Velocity S-wave (km/s) = 3.27944 3.85591 3.57930
# Velocity P-wave (km/s) = 5.30059 6.26883 5.80493
#
# Compressibility (1/GPa) = 0.03469364
#
# Stress axis : x y z
#
# Youngs Moduli (GPa) = 72.40699 64.46385 50.10075
#
# Poissons Ratio (x) = 0.24423 0.18368
# Poissons Ratio (y) = 0.27432 -0.00802
# Poissons Ratio (z) = 0.26545 -0.01032
#
# Static dielectric constant tensor:
#      x y z
#    x 4.193550 0.044150 0.250560 
#    y 0.044150 4.571700 0.493020 
#    z 0.250560 0.493020 3.757620 
# 
# 
# High freq. dielectric constant tensor:
#      x y z
#    x 1.816930 -0.014260 -0.002340 
#    y -0.014260 1.832580 0.020390 
#    z -0.002340 0.020390 1.788900 
# 
# From -- ./inp_files/206081.got.cif
#   From: 2010.06.25/outbox.cif.g09.slc.cpg/sg2_104_cif.got.tgz:206081.got - 2010.06.27 13:26:56.
