data_PCOD8041252
_publ_section_title
;
Structure prediction by ZEFSAII (Michael W. Deem and Ramdas Pophale) SiO2 
 PCOD8041252
Probable space group: P -1
;
_chemical_formula_sum "Si O2"
_cell_formula_units_Z 16
_cell_length_a 11.626232
_cell_length_b 18.313814
_cell_length_c 18.334723
_cell_angle_alpha 151.343125
_cell_angle_beta 148.407337
_cell_angle_gamma 31.574476
_cell_volume 891.891366
_symmetry_space_group_name_H-M "P -1"
_symmetry_group_IT_number 2
_symmetry_cell_setting 'triclinic'
loop_
_space_group_symop_operation_xyz
x,y,z
-x,-y,-z
loop_
_atom_site_type_symbol
_atom_site_label
_atom_site_fract_x
_atom_site_fract_y
_atom_site_fract_z
Si Si1 0.979494 0.927799 0.039970
Si Si2 0.676271 0.219636 0.029985
Si Si3 0.677787 0.460268 0.815362
Si Si4 0.109787 0.480859 0.156791
Si Si5 0.765691 0.862222 0.009804
Si Si6 0.201157 0.865878 0.333834
Si Si7 0.258659 0.202252 0.699149
Si Si8 0.573892 0.138991 0.688995
O O1 0.181666 0.962396 0.222969
O O2 0.790572 0.099480 0.054780
O O3 0.845199 0.856854 0.963199
O O4 0.121236 0.798345 0.937560
O O5 0.571932 0.409110 0.169799
O O6 0.458234 0.173107 0.844112
O O7 0.689999 0.505824 0.777388
O O8 0.706013 0.269197 0.669141
O O9 0.897008 0.467325 0.984575
O O10 0.231567 0.319328 0.132193
O O11 0.999707 0.650026 0.293447
O O12 0.931120 0.906948 0.196275
O O13 0.500000 0.000000 0.000000
O O14 0.375471 0.772426 0.276930
O O15 0.221917 0.032913 0.518645
O O16 0.361035 0.260872 0.733622
O O17 0.500000 0.000000 0.500000
#
# Coordination Sequence:
#
# PCOD8041252 Si02
#       8
#     2   2   2   2   2   2   2   2
#     4   9  17  29  49  73  93 123 160 187 229 282
#     4   9  17  30  50  72  96 121 152 195 234 272
#     4   9  17  30  46  68  95 124 157 192 229 274
#     4   9  18  30  46  68  93 124 159 191 229 274
#     4  10  19  32  49  68  95 126 156 192 230 276
#     4   9  18  31  50  72  92 123 160 188 232 282
#     4   9  17  31  50  71  96 121 151 196 234 273
#     4   8  15  29  49  71  95 122 152 190 232 273
#
# _framework density 17.939405000000001
#
# number of rings (size 3 to 8) (size 9 to 14) (size 15 to 20)
#    0.000    3.000    0.000    0.750    0.000    2.500 
#    0.000    5.625    0.000   16.500    0.000    0.000 
#    0.000    0.000    0.000    0.000    0.000    0.000 
#
# Total GULP energy -198228.048471 kJ/mol
# GULP energy per Si atom -12389.253029 kJ/mol
# Density = 1.789857 g / cm^3
# Si number density = 17.939405 Si / 1000 Ang^3
#
#
#
# Elastic Constant Matrix: (Units=GPa)
#
#
# Indices 1 2 3 4 5 6 
#
# 1 143.0077 80.7764 34.1268 12.9187 0.5509 3.2390
# 2 80.7764 120.8360 33.6767 21.2513 0.5767 -1.2762
# 3 34.1268 33.6767 53.6687 14.5703 0.5955 -1.0754
# 4 12.9187 21.2513 14.5703 23.8773 0.1671 -1.6974
# 5 0.5509 0.5767 0.5955 0.1671 18.5772 2.5544
# 6 3.2390 -1.2762 -1.0754 -1.6974 2.5544 33.2045
#
#
#
# Elastic Compliance Matrix: (Units=1/GPa)
#
#
# Indices 1 2 3 4 5 6 
#
# 1 0.011794 -0.007295 -0.003542 0.002168 0.000170 -0.001448
# 2 -0.007295 0.015341 -0.002817 -0.007929 -0.000211 0.000821
# 3 -0.003542 -0.002817 0.025718 -0.011228 -0.000606 0.000543
# 4 0.002168 -0.007929 -0.011228 0.054755 -0.000217 0.001936
# 5 0.000170 -0.000211 -0.000606 -0.000217 0.054436 -0.004243
# 6 -0.001448 0.000821 0.000543 0.001936 -0.004243 0.030732
#
#
# Mechanical properties :
#
#
# Convention : Reuss Voigt Hill
#
# Bulk Modulus (GPa) = 39.14329 68.29694 53.72012
# Shear Modulus (GPa) = 21.87238 26.39396 24.13317
#
# Velocity S-wave (km/s) = 3.49555 3.83989 3.67176
# Velocity P-wave (km/s) = 6.17729 7.60350 6.92720
#
# Compressibility (1/GPa) = 0.02554716
#
# Stress axis : x y z
#
# Youngs Moduli (GPa) = 84.78556 65.18469 38.88274
#
# Poissons Ratio (x) = 0.47550 0.13773
# Poissons Ratio (y) = 0.61848 0.10952
# Poissons Ratio (z) = 0.30032 0.18360
#
# Static dielectric constant tensor:
#      x y z
#    x 3.980710 -1.332920 -0.710570 
#    y -1.332920 3.261520 0.018830 
#    z -0.710570 0.018830 3.061500 
# 
# 
# High freq. dielectric constant tensor:
#      x y z
#    x 1.714210 -0.003110 -0.003270 
#    y -0.003110 1.682290 0.000460 
#    z -0.003270 0.000460 1.659160 
# 
# From -- ./inp_files/178841.got.cif
#   From: 2010.06.25/outbox.cif.g09.slc.cpg/sg2_90_cif.got.tgz:178841.got - 2010.06.27 13:26:56.
