data_PCOD8041953
_publ_section_title
;
Structure prediction by ZEFSAII (Michael W. Deem and Ramdas Pophale) SiO2 
 PCOD8041953
Probable space group: P -1
;
_chemical_formula_sum "Si O2"
_cell_formula_units_Z 16
_cell_length_a 18.089281
_cell_length_b 12.793994
_cell_length_c 11.840153
_cell_angle_alpha 97.783986
_cell_angle_beta 128.634198
_cell_angle_gamma 39.121455
_cell_volume 953.866587
_symmetry_space_group_name_H-M "P -1"
_symmetry_group_IT_number 2
_symmetry_cell_setting 'triclinic'
loop_
_space_group_symop_operation_xyz
x,y,z
-x,-y,-z
loop_
_atom_site_type_symbol
_atom_site_label
_atom_site_fract_x
_atom_site_fract_y
_atom_site_fract_z
Si Si1 0.456038 0.393251 0.537120
Si Si2 0.176346 0.340111 0.426979
Si Si3 0.227711 0.736621 0.199764
Si Si4 0.649966 0.602445 0.778114
Si Si5 0.720619 0.875686 0.088730
Si Si6 0.060543 0.334974 0.100317
Si Si7 0.430421 0.970768 0.791337
Si Si8 0.549437 0.125484 0.737538
O O1 0.255399 0.664830 0.345659
O O2 0.646212 0.283936 0.708047
O O3 0.483830 0.274834 0.448621
O O4 0.441922 0.345842 0.636350
O O5 0.135611 0.289758 0.290195
O O6 0.378003 0.206524 0.560529
O O7 0.973734 0.617323 0.287979
O O8 0.234351 0.226403 0.583933
O O9 0.289432 0.577776 0.151799
O O10 0.000000 0.000000 0.000000
O O11 0.503531 0.798871 0.762323
O O12 0.859186 0.460725 0.933066
O O13 0.647923 0.993306 0.157236
O O14 0.630900 0.847638 0.979174
O O15 0.627210 0.047280 0.930010
O O16 0.247022 0.090283 0.178158
O O17 0.000000 0.500000 0.000000
#
# Coordination Sequence:
#
# PCOD8041953 Si02
#       8
#     2   2   2   2   2   2   2   2
#     4   9  20  34  52  79 102 128 169 212 270 315
#     4  11  20  33  49  75 106 148 176 211 250 297
#     4   9  19  35  54  78 104 130 165 217 272 314
#     4  10  19  34  55  77 105 138 170 213 262 306
#     4  10  21  35  50  73 108 145 180 210 246 294
#     4  12  19  30  49  78 113 139 170 206 261 312
#     4  10  20  36  51  73 105 143 184 214 238 301
#     4  11  21  32  51  74 108 140 170 214 261 313
#
# _framework density 16.773834999999998
#
# number of rings (size 3 to 8) (size 9 to 14) (size 15 to 20)
#    0.750    1.000    2.500    3.750    0.000    0.000 
#    0.000    0.000    0.000    0.750    0.000    1.750 
#    0.000    0.000    0.000    0.000    0.000    0.000 
#
# Total GULP energy -198235.797835 kJ/mol
# GULP energy per Si atom -12389.737365 kJ/mol
# Density = 1.673566 g / cm^3
# Si number density = 16.773835 Si / 1000 Ang^3
#
#
#
# Elastic Constant Matrix: (Units=GPa)
#
#
# Indices 1 2 3 4 5 6 
#
# 1 94.3083 49.8833 53.3571 6.8600 -10.0722 3.7004
# 2 49.8833 64.3265 48.2962 0.1900 -1.8643 -1.1578
# 3 53.3571 48.2962 101.7822 -3.8266 -2.0198 6.6441
# 4 6.8600 0.1900 -3.8266 26.9657 4.8401 0.3602
# 5 -10.0722 -1.8643 -2.0198 4.8401 32.2670 0.5529
# 6 3.7004 -1.1578 6.6441 0.3602 0.5529 23.9355
#
#
#
# Elastic Compliance Matrix: (Units=1/GPa)
#
#
# Indices 1 2 3 4 5 6 
#
# 1 0.021669 -0.012610 -0.005353 -0.007379 0.006851 -0.002521
# 2 -0.012610 0.032085 -0.008987 0.002178 -0.003075 0.006034
# 3 -0.005353 -0.008987 0.017312 0.004240 -0.001667 -0.004438
# 4 -0.007379 0.002178 0.004240 0.040999 -0.008056 -0.000362
# 5 0.006851 -0.003075 -0.001667 -0.008056 0.034080 -0.001411
# 6 -0.002521 0.006034 -0.004438 -0.000362 -0.001411 0.043731
#
#
# Mechanical properties :
#
#
# Convention : Reuss Voigt Hill
#
# Bulk Modulus (GPa) = 58.25575 62.61001 60.43288
# Shear Modulus (GPa) = 20.04029 23.89233 21.96631
#
# Velocity S-wave (km/s) = 3.46024 3.77819 3.62271
# Velocity P-wave (km/s) = 7.12530 7.51266 7.32154
#
# Compressibility (1/GPa) = 0.01716569
#
# Stress axis : x y z
#
# Youngs Moduli (GPa) = 46.14805 31.16743 57.76480
#
# Poissons Ratio (x) = 0.39302 0.30922
# Poissons Ratio (y) = 0.58192 0.51913
# Poissons Ratio (z) = 0.24704 0.28010
#
# Static dielectric constant tensor:
#      x y z
#    x 3.102500 0.104640 -0.100410 
#    y 0.104640 3.005520 -0.016910 
#    z -0.100410 -0.016910 3.402450 
# 
# 
# High freq. dielectric constant tensor:
#      x y z
#    x 1.632100 0.008500 -0.001260 
#    y 0.008500 1.614090 -0.007190 
#    z -0.001260 -0.007190 1.669580 
# 
# From -- ./inp_files/99793.got.cif
#   From: 2010.06.25/outbox.cif.g09.slc.cpg/sg2_50_cif.got.tgz:99793.got - 2010.06.27 13:26:56.
