data_PCOD8041912
_publ_section_title
;
Structure prediction by ZEFSAII (Michael W. Deem and Ramdas Pophale) SiO2 
 PCOD8041912
Probable space group: P -1
;
_chemical_formula_sum "Si O2"
_cell_formula_units_Z 16
_cell_length_a 21.716621
_cell_length_b 28.009908
_cell_length_c 9.081394
_cell_angle_alpha 34.023070
_cell_angle_beta 153.810537
_cell_angle_gamma 161.081333
_cell_volume 782.656302
_symmetry_space_group_name_H-M "P -1"
_symmetry_group_IT_number 2
_symmetry_cell_setting 'triclinic'
loop_
_space_group_symop_operation_xyz
x,y,z
-x,-y,-z
loop_
_atom_site_type_symbol
_atom_site_label
_atom_site_fract_x
_atom_site_fract_y
_atom_site_fract_z
Si Si1 0.845810 0.414925 0.535641
Si Si2 0.184387 0.435766 0.726863
Si Si3 0.757127 0.106137 0.714968
Si Si4 0.479364 0.089512 0.556479
Si Si5 0.848648 0.138763 0.321075
Si Si6 0.526909 0.452392 0.516111
Si Si7 0.848836 0.558539 0.691198
Si Si8 0.869418 0.753097 0.609770
O O1 0.773526 0.470318 0.301960
O O2 0.598545 0.241704 0.407263
O O3 0.000000 0.500000 0.500000
O O4 0.981739 0.433096 0.911998
O O5 0.232410 0.496637 0.510169
O O6 0.904528 0.263685 0.575554
O O7 0.370280 0.452630 0.115548
O O8 0.500000 0.000000 0.500000
O O9 0.715171 0.020915 0.707747
O O10 0.908751 0.132901 0.094238
O O11 0.330078 0.011300 0.588415
O O12 0.686584 0.119615 0.917958
O O13 0.015608 0.281849 0.417448
O O14 0.020863 0.162491 0.528553
O O15 0.611473 0.438010 0.596650
O O16 0.763814 0.604446 0.726028
O O17 0.357694 0.313356 0.625127
#
# Coordination Sequence:
#
# PCOD8041912 Si02
#       8
#     2   2   2   2   2   2   2   2
#     4  11  25  37  57  88 130 154 189 239 313 350
#     4  11  22  38  59  93 116 155 196 248 296 350
#     4  11  19  31  57  88 115 144 202 242 286 339
#     4  10  19  34  53  84 118 154 185 244 295 346
#     4   9  17  32  55  83 112 148 194 241 287 339
#     4   9  20  34  62  87 119 151 203 244 290 340
#     4  10  20  38  59  88 118 153 199 248 287 349
#     4   9  18  31  54  87 112 145 191 247 285 333
#
# _framework density 20.443200000000001
#
# number of rings (size 3 to 8) (size 9 to 14) (size 15 to 20)
#    0.000    2.000    2.500    1.500   10.500    0.000 
#    0.000    0.000    0.000    3.750    3.250    0.000 
#    0.000    0.000    0.000    0.000    0.000    0.000 
#
# Total GULP energy -198240.692759 kJ/mol
# GULP energy per Si atom -12390.043297 kJ/mol
# Density = 2.039667 g / cm^3
# Si number density = 20.443200 Si / 1000 Ang^3
#
#
#
# Elastic Constant Matrix: (Units=GPa)
#
#
# Indices 1 2 3 4 5 6 
#
# 1 106.2539 47.3731 9.4942 10.0970 -1.0382 7.3859
# 2 47.3731 111.7552 17.0466 14.9519 2.8205 5.5834
# 3 9.4942 17.0466 55.8226 10.9018 -5.8585 -10.3733
# 4 10.0970 14.9519 10.9018 29.0995 0.4301 0.0205
# 5 -1.0382 2.8205 -5.8585 0.4301 30.4747 10.9912
# 6 7.3859 5.5834 -10.3733 0.0205 10.9912 36.4436
#
#
#
# Elastic Compliance Matrix: (Units=1/GPa)
#
#
# Indices 1 2 3 4 5 6 
#
# 1 0.011863 -0.004662 -0.000560 -0.001533 0.001589 -0.002328
# 2 -0.004662 0.011869 -0.002498 -0.003525 -0.001253 -0.001205
# 3 -0.000560 -0.002498 0.021392 -0.006574 0.002290 0.005899
# 4 -0.001533 -0.003525 -0.006574 0.039191 -0.001309 -0.000648
# 5 0.001589 -0.001253 0.002290 -0.001309 0.037313 -0.010731
# 6 -0.002328 -0.001205 0.005899 -0.000648 -0.010731 0.033012
#
#
# Mechanical properties :
#
#
# Convention : Reuss Voigt Hill
#
# Bulk Modulus (GPa) = 33.68975 46.85107 40.27041
# Shear Modulus (GPa) = 27.78142 32.53142 30.15642
#
# Velocity S-wave (km/s) = 3.69040 3.99345 3.84491
# Velocity P-wave (km/s) = 5.88848 6.65063 6.28113
#
# Compressibility (1/GPa) = 0.02968262
#
# Stress axis : x y z
#
# Youngs Moduli (GPa) = 84.29546 84.25343 46.74537
#
# Poissons Ratio (x) = 0.39279 0.02620
# Poissons Ratio (y) = 0.39298 0.11679
# Poissons Ratio (z) = 0.04725 0.21050
#
# Static dielectric constant tensor:
#      x y z
#    x 4.012110 0.284190 -0.132250 
#    y 0.284190 3.674430 0.378500 
#    z -0.132250 0.378500 3.554130 
# 
# 
# High freq. dielectric constant tensor:
#      x y z
#    x 1.817600 0.026290 -0.017380 
#    y 0.026290 1.774330 0.033720 
#    z -0.017380 0.033720 1.771660 
# 
# From -- ./inp_files/238540.got.cif
#   From: 2010.06.25/outbox.cif.g09.slc.cpg/sg2_120_cif.got.tgz:238540.got - 2010.06.27 13:26:56.
