data_PCOD8041944
_publ_section_title
;
Structure prediction by ZEFSAII (Michael W. Deem and Ramdas Pophale) SiO2 
 PCOD8041944
Probable space group: P -1
;
_chemical_formula_sum "Si O2"
_cell_formula_units_Z 16
_cell_length_a 11.587055
_cell_length_b 16.346210
_cell_length_c 16.756462
_cell_angle_alpha 25.030255
_cell_angle_beta 142.376615
_cell_angle_gamma 142.175194
_cell_volume 787.029171
_symmetry_space_group_name_H-M "P -1"
_symmetry_group_IT_number 2
_symmetry_cell_setting 'triclinic'
loop_
_space_group_symop_operation_xyz
x,y,z
-x,-y,-z
loop_
_atom_site_type_symbol
_atom_site_label
_atom_site_fract_x
_atom_site_fract_y
_atom_site_fract_z
Si Si1 0.220124 0.970820 0.938679
Si Si2 0.871863 0.470499 0.779616
Si Si3 0.684719 0.517788 0.963391
Si Si4 0.522616 0.992643 0.212438
Si Si5 0.476014 0.917186 0.688811
Si Si6 0.361077 0.276074 0.610591
Si Si7 0.230661 0.049967 0.312461
Si Si8 0.768814 0.420848 0.935918
O O1 0.000689 0.995896 0.791580
O O2 0.356764 0.111870 0.822090
O O3 0.218475 0.738193 0.132620
O O4 0.325476 0.029118 0.030759
O O5 0.852092 0.675829 0.545994
O O6 0.725766 0.452685 0.792241
O O7 0.097388 0.504150 0.890335
O O8 0.662729 0.713237 0.823054
O O9 0.535918 0.317175 0.094945
O O10 0.656309 0.531863 0.838897
O O11 0.488984 0.957018 0.320547
O O12 0.707804 0.185698 0.131954
O O13 0.584644 0.808697 0.368749
O O14 0.667331 0.012327 0.654677
O O15 0.279370 0.933288 0.519999
O O16 0.500000 0.500000 0.500000
O O17 0.000000 0.500000 0.000000
#
# Coordination Sequence:
#
# PCOD8041944 Si02
#       8
#     2   2   2   2   2   2   2   2
#     4  11  22  40  58  87 119 156 195 240 294 349
#     4  10  19  34  54  85 121 155 193 230 291 352
#     4   9  19  35  58  84 114 152 191 243 290 347
#     4  11  22  38  59  87 125 151 196 243 287 350
#     4  10  22  41  59  89 112 150 202 246 291 344
#     4  12  22  34  59  85 122 162 188 234 290 355
#     4  10  22  40  65  80 115 155 197 247 293 343
#     4   9  18  34  53  84 122 153 187 233 284 349
#
# _framework density 20.329616000000001
#
# number of rings (size 3 to 8) (size 9 to 14) (size 15 to 20)
#    0.000    1.750    2.500    2.250    1.750    0.500 
#    0.000    2.500    0.000    0.750    0.000    0.000 
#    0.000    0.000    0.000    0.000    0.000    0.000 
#
# Total GULP energy -198209.793844 kJ/mol
# GULP energy per Si atom -12388.112115 kJ/mol
# Density = 2.028334 g / cm^3
# Si number density = 20.329616 Si / 1000 Ang^3
#
#
#
# Elastic Constant Matrix: (Units=GPa)
#
#
# Indices 1 2 3 4 5 6 
#
# 1 102.9526 47.4989 34.8731 9.5413 -5.9512 -19.4896
# 2 47.4989 94.4391 22.4694 1.5445 0.1970 -10.1291
# 3 34.8731 22.4694 76.9249 7.2966 5.8521 -5.2721
# 4 9.5413 1.5445 7.2966 29.4598 -4.2631 -2.0188
# 5 -5.9512 0.1970 5.8521 -4.2631 28.4028 3.7558
# 6 -19.4896 -10.1291 -5.2721 -2.0188 3.7558 23.6711
#
#
#
# Elastic Compliance Matrix: (Units=1/GPa)
#
#
# Indices 1 2 3 4 5 6 
#
# 1 0.016300 -0.006005 -0.004979 -0.002694 0.002881 0.009056
# 2 -0.006005 0.014023 -0.001368 0.001476 -0.000989 0.001035
# 3 -0.004979 -0.001368 0.016272 -0.003076 -0.004773 -0.000565
# 4 -0.002694 0.001476 -0.003076 0.036296 0.005514 -0.000051
# 5 0.002881 -0.000989 -0.004773 0.005514 0.038253 -0.004713
# 6 0.009056 0.001035 -0.000565 -0.000051 -0.004713 0.050762
#
#
# Mechanical properties :
#
#
# Convention : Reuss Voigt Hill
#
# Bulk Modulus (GPa) = 45.67506 53.77770 49.72638
# Shear Modulus (GPa) = 24.52095 27.60509 26.06302
#
# Velocity S-wave (km/s) = 3.47676 3.68893 3.58442
# Velocity P-wave (km/s) = 6.21556 6.68241 6.45321
#
# Compressibility (1/GPa) = 0.02189379
#
# Stress axis : x y z
#
# Youngs Moduli (GPa) = 61.34782 71.31006 61.45359
#
# Poissons Ratio (x) = 0.42819 0.30596
# Poissons Ratio (y) = 0.36837 0.08406
# Poissons Ratio (z) = 0.30544 0.09754
#
# Static dielectric constant tensor:
#      x y z
#    x 3.741350 -0.287280 -0.111880 
#    y -0.287280 3.905250 0.211270 
#    z -0.111880 0.211270 4.533330 
# 
# 
# High freq. dielectric constant tensor:
#      x y z
#    x 1.781770 -0.008030 -0.003240 
#    y -0.008030 1.795580 0.000100 
#    z -0.003240 0.000100 1.794120 
# 
# From -- ./inp_files/570303.got.cif
#   From: 2010.06.25/outbox.cif.g09.slc.cpg/sg2_286_cif.got.tgz:570303.got - 2010.06.27 13:26:56.
