data_PCOD8041486
_publ_section_title
;
Structure prediction by ZEFSAII (Michael W. Deem and Ramdas Pophale) SiO2 
 PCOD8041486
Probable space group: P -1
;
_chemical_formula_sum "Si O2"
_cell_formula_units_Z 14
_cell_length_a 12.058455
_cell_length_b 14.677919
_cell_length_c 12.980211
_cell_angle_alpha 89.685510
_cell_angle_beta 87.964366
_cell_angle_gamma 19.365411
_cell_volume 758.593269
_symmetry_space_group_name_H-M "P -1"
_symmetry_group_IT_number 2
_symmetry_cell_setting 'triclinic'
loop_
_space_group_symop_operation_xyz
x,y,z
-x,-y,-z
loop_
_atom_site_type_symbol
_atom_site_label
_atom_site_fract_x
_atom_site_fract_y
_atom_site_fract_z
Si Si1 0.897804 0.065124 0.385595
Si Si2 0.784904 0.808735 0.348620
Si Si3 0.735127 0.119038 0.805218
Si Si4 0.553258 0.804001 0.313665
Si Si5 0.589414 0.449430 0.113930
Si Si6 0.903331 0.708357 0.575424
Si Si7 0.783518 0.361437 0.697691
O O1 0.504242 0.389882 0.377147
O O2 0.000000 0.000000 0.500000
O O3 0.113215 0.965936 0.307979
O O4 0.974863 0.901528 0.356060
O O5 0.788397 0.710875 0.283832
O O6 0.972714 0.649942 0.452357
O O7 0.977827 0.737832 0.281131
O O8 0.391524 0.136255 0.385099
O O9 0.537323 0.178036 0.789029
O O10 0.482752 0.389508 0.857478
O O11 0.020416 0.875734 0.880716
O O12 0.746997 0.582960 0.380523
O O13 0.218642 0.096475 0.384228
O O14 0.369594 0.552315 0.190185
O O15 0.500000 0.500000 0.000000
#
# Coordination Sequence:
#
# PCOD8041486 Si02
#       7
#     2   2   2   2   2   2   2
#     4  10  22  33  49  77 112 144 166 216 259 311
#     4   9  21  31  51  75 110 140 189 198 255 300
#     4  10  21  35  57  82 103 136 183 209 276 321
#     4  10  19  33  50  76 107 140 174 213 248 306
#     4  10  21  41  59  78 100 134 181 233 273 315
#     4   9  20  29  48  75 105 155 174 198 242 305
#     4  10  22  34  54  79 103 140 183 213 261 319
#
# _framework density 18.455213000000001
#
# number of rings (size 3 to 8) (size 9 to 14) (size 15 to 20)
#    0.857    1.429    0.000    2.143    6.000    0.000 
#    0.000    0.000    0.000    1.714    0.000    0.000 
#    0.000    0.000    0.000    0.000    0.000    0.000 
#
# Total GULP energy -173516.366798 kJ/mol
# GULP energy per Si atom -12394.026200 kJ/mol
# Density = 1.841321 g / cm^3
# Si number density = 18.455213 Si / 1000 Ang^3
#
#
#
# Elastic Constant Matrix: (Units=GPa)
#
#
# Indices 1 2 3 4 5 6 
#
# 1 115.7221 37.7460 46.7405 -4.8320 21.1635 3.9888
# 2 37.7460 84.9651 23.3807 -13.8181 -2.7787 25.4484
# 3 46.7405 23.3807 95.2214 -19.7454 10.5262 0.0900
# 4 -4.8320 -13.8181 -19.7454 23.6842 0.7881 -0.4206
# 5 21.1635 -2.7787 10.5262 0.7881 18.9355 0.2224
# 6 3.9888 25.4484 0.0900 -0.4206 0.2224 22.9068
#
#
#
# Elastic Compliance Matrix: (Units=1/GPa)
#
#
# Indices 1 2 3 4 5 6 
#
# 1 0.016459 -0.009905 -0.005005 -0.005885 -0.016919 0.008214
# 2 -0.009905 0.027596 -0.001089 0.012142 0.015559 -0.028857
# 3 -0.005005 -0.001089 0.016161 0.011993 -0.004076 0.002277
# 4 -0.005885 0.012142 0.011993 0.057920 -0.000584 -0.011442
# 5 -0.016919 0.015559 -0.004076 -0.000584 0.076470 -0.015077
# 6 0.008214 -0.028857 0.002277 -0.011442 -0.015077 0.074211
#
#
# Mechanical properties :
#
#
# Convention : Reuss Voigt Hill
#
# Bulk Modulus (GPa) = 35.43750 56.84923 46.14336
# Shear Modulus (GPa) = 16.11746 25.64140 20.87943
#
# Velocity S-wave (km/s) = 2.95842 3.73149 3.36721
# Velocity P-wave (km/s) = 5.55997 7.03108 6.33835
#
# Compressibility (1/GPa) = 0.02821869
#
# Stress axis : x y z
#
# Youngs Moduli (GPa) = 60.75727 36.23676 61.87646
#
# Poissons Ratio (x) = 0.35894 0.30967
# Poissons Ratio (y) = 0.60182 0.06737
# Poissons Ratio (z) = 0.30407 0.03946
#
# Static dielectric constant tensor:
#      x y z
#    x 3.377530 0.114320 0.112760 
#    y 0.114320 3.505770 -0.051400 
#    z 0.112760 -0.051400 3.010370 
# 
# 
# High freq. dielectric constant tensor:
#      x y z
#    x 1.712080 0.010940 0.019680 
#    y 0.010940 1.727180 -0.012260 
#    z 0.019680 -0.012260 1.673300 
# 
# From -- ./inp_files/64646.got.cif
#   From: 2010.06.25/outbox.cif.g09.slc.cpg/sg2_33_cif.got.tgz:64646.got - 2010.06.27 13:26:56.
