data_PCOD8041358
_publ_section_title
;
Structure prediction by ZEFSAII (Michael W. Deem and Ramdas Pophale) SiO2 
 PCOD8041358
Probable space group: P -1
;
_chemical_formula_sum "Si O2"
_cell_formula_units_Z 16
_cell_length_a 17.409595
_cell_length_b 11.619016
_cell_length_c 21.791438
_cell_angle_alpha 20.498873
_cell_angle_beta 149.798476
_cell_angle_gamma 149.879358
_cell_volume 737.067471
_symmetry_space_group_name_H-M "P -1"
_symmetry_group_IT_number 2
_symmetry_cell_setting 'triclinic'
loop_
_space_group_symop_operation_xyz
x,y,z
-x,-y,-z
loop_
_atom_site_type_symbol
_atom_site_label
_atom_site_fract_x
_atom_site_fract_y
_atom_site_fract_z
Si Si1 0.850022 0.213824 0.339422
Si Si2 0.672607 0.895634 0.078659
Si Si3 0.612581 0.855363 0.258062
Si Si4 0.925746 0.532861 0.741632
Si Si5 0.187429 0.634385 0.960653
Si Si6 0.428132 0.265664 0.283801
Si Si7 0.638759 0.435906 0.170130
Si Si8 0.382876 0.859131 0.340946
O O1 0.802137 0.438917 0.246896
O O2 0.977627 0.466010 0.255552
O O3 0.681547 0.023530 0.286050
O O4 0.920925 0.918790 0.560744
O O5 0.579355 0.604767 0.208120
O O6 0.709078 0.729177 0.124193
O O7 0.827082 0.160720 0.088454
O O8 0.568084 0.145929 0.867863
O O9 0.610498 0.460768 0.453041
O O10 0.722056 0.069589 0.172828
O O11 0.751511 0.249738 0.751461
O O12 0.012512 0.430953 0.912081
O O13 0.290401 0.368567 0.175105
O O14 0.500000 0.000000 0.500000
O O15 0.346628 0.125073 0.231822
O O16 0.556096 0.055579 0.332475
O O17 0.500000 0.500000 0.000000
#
# Coordination Sequence:
#
# PCOD8041358 Si02
#       8
#     2   2   2   2   2   2   2   2
#     4   9  18  36  58  83 117 151 190 231 283 341
#     4  10  19  33  56  80 113 154 186 234 289 334
#     4   9  16  32  55  84 111 145 191 241 279 328
#     4   9  20  36  59  86 114 153 191 230 283 346
#     4  10  19  33  56  81 118 154 188 231 287 344
#     4  10  19  32  54  87 120 143 191 246 287 325
#     4  11  22  38  56  88 116 149 193 241 288 331
#     4  10  21  34  59  91 114 148 192 240 289 329
#
# _framework density 21.707647999999999
#
# number of rings (size 3 to 8) (size 9 to 14) (size 15 to 20)
#    0.000    2.250    1.250    3.750    1.750    2.500 
#    0.000    0.625    0.000    0.750    0.000    0.000 
#    0.000    0.000    0.000    0.000    0.000    0.000 
#
# Total GULP energy -198260.921077 kJ/mol
# GULP energy per Si atom -12391.307567 kJ/mol
# Density = 2.165824 g / cm^3
# Si number density = 21.707648 Si / 1000 Ang^3
#
#
#
# Elastic Constant Matrix: (Units=GPa)
#
#
# Indices 1 2 3 4 5 6 
#
# 1 74.1259 30.8924 24.4880 3.3809 28.7868 -15.1016
# 2 30.8924 101.6135 34.2442 3.4002 13.6839 -26.4810
# 3 24.4880 34.2442 94.1194 10.0670 5.8111 -10.6658
# 4 3.3809 3.4002 10.0670 26.2295 -2.2211 -0.5472
# 5 28.7868 13.6839 5.8111 -2.2211 29.7250 -3.8422
# 6 -15.1016 -26.4810 -10.6658 -0.5472 -3.8422 27.6604
#
#
#
# Elastic Compliance Matrix: (Units=1/GPa)
#
#
# Indices 1 2 3 4 5 6 
#
# 1 0.026048 -0.001329 -0.003539 -0.003611 -0.023119 0.008302
# 2 -0.001329 0.014972 -0.003506 -0.000469 -0.003434 0.011770
# 3 -0.003539 -0.003506 0.013106 -0.003935 0.002184 -0.000009
# 4 -0.003611 -0.000469 -0.003935 0.040731 0.007252 -0.002125
# 5 -0.023119 -0.003434 0.002184 0.007252 0.056818 -0.007032
# 6 0.008302 0.011770 -0.000009 -0.002125 -0.007032 0.050931
#
#
# Mechanical properties :
#
#
# Convention : Reuss Voigt Hill
#
# Bulk Modulus (GPa) = 26.75307 49.90088 38.32697
# Shear Modulus (GPa) = 21.56911 28.73859 25.15385
#
# Velocity S-wave (km/s) = 3.15559 3.64248 3.40774
# Velocity P-wave (km/s) = 5.06241 6.38184 5.76003
#
# Compressibility (1/GPa) = 0.03737889
#
# Stress axis : x y z
#
# Youngs Moduli (GPa) = 38.39111 66.79080 76.30024
#
# Poissons Ratio (x) = 0.08874 0.27005
# Poissons Ratio (y) = 0.05101 0.26748
# Poissons Ratio (z) = 0.13588 0.23415
#
# Static dielectric constant tensor:
#      x y z
#    x 3.698540 -0.309690 0.030510 
#    y -0.309690 3.987880 0.040010 
#    z 0.030510 0.040010 3.941920 
# 
# 
# High freq. dielectric constant tensor:
#      x y z
#    x 1.823330 -0.029520 0.004120 
#    y -0.029520 1.846110 -0.004110 
#    z 0.004120 -0.004110 1.850600 
# 
# From -- ./inp_files/238966.got.cif
#   From: 2010.06.25/outbox.cif.g09.slc.cpg/sg2_120_cif.got.tgz:238966.got - 2010.06.27 13:26:56.
