data_PCOD8041360
_publ_section_title
;
Structure prediction by ZEFSAII (Michael W. Deem and Ramdas Pophale) SiO2 
 PCOD8041360
Probable space group: P -1
;
_chemical_formula_sum "Si O2"
_cell_formula_units_Z 16
_cell_length_a 12.015736
_cell_length_b 11.654543
_cell_length_c 6.379638
_cell_angle_alpha 63.138354
_cell_angle_beta 89.965257
_cell_angle_gamma 113.375139
_cell_volume 713.715397
_symmetry_space_group_name_H-M "P -1"
_symmetry_group_IT_number 2
_symmetry_cell_setting 'triclinic'
loop_
_space_group_symop_operation_xyz
x,y,z
-x,-y,-z
loop_
_atom_site_type_symbol
_atom_site_label
_atom_site_fract_x
_atom_site_fract_y
_atom_site_fract_z
Si Si1 0.154079 0.447444 0.965335
Si Si2 0.309474 0.860800 0.542096
Si Si3 0.095306 0.048310 0.650923
Si Si4 0.401649 0.678199 0.930734
Si Si5 0.018886 0.215602 0.849022
Si Si6 0.942416 0.340965 0.385664
Si Si7 0.629501 0.841545 0.552770
Si Si8 0.535870 0.159838 0.796893
O O1 0.294921 0.521891 0.991637
O O2 0.130653 0.312887 0.926051
O O3 0.118647 0.550658 0.735035
O O4 0.069355 0.393682 0.215620
O O5 0.351887 0.796673 0.789569
O O6 0.160760 0.810329 0.584690
O O7 0.346104 0.797138 0.389960
O O8 0.376899 0.031812 0.412725
O O9 0.071012 0.156090 0.711695
O O10 0.231557 0.140814 0.475132
O O11 0.000000 0.000000 0.500000
O O12 0.084080 0.913063 0.904637
O O13 0.528191 0.700488 0.789574
O O14 0.429054 0.707351 0.152385
O O15 0.960822 0.313093 0.655080
O O16 0.584544 0.845452 0.315379
O O17 0.500000 0.000000 0.000000
#
# Coordination Sequence:
#
# PCOD8041360 Si02
#       8
#     2   2   2   2   2   2   2   2
#     4  10  22  40  61  93 132 165 202 249 315 376
#     4  10  19  32  54  88 126 156 201 248 304 368
#     4  11  26  44  65  92 120 161 215 267 310 357
#     4  10  21  36  55  87 128 161 195 248 305 373
#     4  11  23  42  65  88 122 164 210 262 311 365
#     4  10  22  37  64  95 126 165 204 254 312 374
#     4  11  21  36  58  88 121 160 209 252 308 366
#     4  11  19  32  55  87 123 162 194 246 311 366
#
# _framework density 22.417897
#
# number of rings (size 3 to 8) (size 9 to 14) (size 15 to 20)
#    0.000    1.500    2.500    3.375    1.750    8.000 
#    0.000    0.625    0.000    3.750    0.000    0.000 
#    0.000    0.000    0.000    0.000    0.000    0.000 
#
# Total GULP energy -198281.270982 kJ/mol
# GULP energy per Si atom -12392.579436 kJ/mol
# Density = 2.236687 g / cm^3
# Si number density = 22.417897 Si / 1000 Ang^3
#
#
#
# Elastic Constant Matrix: (Units=GPa)
#
#
# Indices 1 2 3 4 5 6 
#
# 1 121.6302 32.7419 38.6651 9.4342 -21.1433 37.2897
# 2 32.7419 113.6494 27.3887 24.7963 -8.4105 32.1181
# 3 38.6651 27.3887 93.5187 7.1296 -0.7139 11.7862
# 4 9.4342 24.7963 7.1296 38.2649 2.5587 -1.4984
# 5 -21.1433 -8.4105 -0.7139 2.5587 28.1252 -5.7918
# 6 37.2897 32.1181 11.7862 -1.4984 -5.7918 35.1782
#
#
#
# Elastic Compliance Matrix: (Units=1/GPa)
#
#
# Indices 1 2 3 4 5 6 
#
# 1 0.016763 0.003867 -0.005156 -0.007093 0.010537 -0.018139
# 2 0.003867 0.016499 -0.003234 -0.012085 0.005205 -0.017737
# 3 -0.005156 -0.003234 0.013214 0.001301 -0.003926 0.003400
# 4 -0.007093 -0.012085 0.001301 0.036755 -0.008491 0.018284
# 5 0.010537 0.005205 -0.003926 -0.008491 0.044119 -0.007704
# 6 -0.018139 -0.017737 0.003400 0.018284 -0.007704 0.062219
#
#
# Mechanical properties :
#
#
# Convention : Reuss Voigt Hill
#
# Bulk Modulus (GPa) = 26.71706 58.48776 42.60241
# Shear Modulus (GPa) = 23.68633 35.64717 29.66675
#
# Velocity S-wave (km/s) = 3.25404 3.99196 3.64174
# Velocity P-wave (km/s) = 5.10509 6.88433 6.06036
#
# Compressibility (1/GPa) = 0.03742926
#
# Stress axis : x y z
#
# Youngs Moduli (GPa) = 59.65678 60.61027 75.67574
#
# Poissons Ratio (x) = -0.23437 0.39016
# Poissons Ratio (y) = -0.23068 0.24476
# Poissons Ratio (z) = 0.30757 0.19603
#
# Static dielectric constant tensor:
#      x y z
#    x 3.814290 0.333670 -0.039920 
#    y 0.333670 4.066470 0.018970 
#    z -0.039920 0.018970 4.308510 
# 
# 
# High freq. dielectric constant tensor:
#      x y z
#    x 1.863460 0.027470 -0.007130 
#    y 0.027470 1.879150 0.008970 
#    z -0.007130 0.008970 1.886100 
# 
# From -- ./inp_files/69206.got.cif
#   From: 2010.06.25/outbox.cif.g09.slc.cpg/sg2_35_cif.got.tgz:69206.got - 2010.06.27 13:26:56.
