data_PCOD8041231
_publ_section_title
;
Structure prediction by ZEFSAII (Michael W. Deem and Ramdas Pophale) SiO2 
 PCOD8041231
Probable space group: P -1
;
_chemical_formula_sum "Si O2"
_cell_formula_units_Z 16
_cell_length_a 8.004614
_cell_length_b 19.371912
_cell_length_c 7.303205
_cell_angle_alpha 144.619867
_cell_angle_beta 78.146030
_cell_angle_gamma 99.313474
_cell_volume 641.682857
_symmetry_space_group_name_H-M "P -1"
_symmetry_group_IT_number 2
_symmetry_cell_setting 'triclinic'
loop_
_space_group_symop_operation_xyz
x,y,z
-x,-y,-z
loop_
_atom_site_type_symbol
_atom_site_label
_atom_site_fract_x
_atom_site_fract_y
_atom_site_fract_z
Si Si1 0.135126 0.562318 0.732665
Si Si2 0.731479 0.534594 0.159782
Si Si3 0.013386 0.040588 0.797034
Si Si4 0.206401 0.826422 0.325461
Si Si5 0.634762 0.549033 0.830899
Si Si6 0.564304 0.798628 0.272265
Si Si7 0.340731 0.932366 0.148690
Si Si8 0.332652 0.203856 0.157668
O O1 0.120961 0.518014 0.852391
O O2 0.316505 0.519962 0.515871
O O3 0.000000 0.500000 0.500000
O O4 0.112676 0.704467 0.028699
O O5 0.560146 0.475041 0.139154
O O6 0.718672 0.677030 0.468980
O O7 0.756619 0.501101 0.867128
O O8 0.824308 0.096577 0.007342
O O9 0.062751 0.919043 0.636958
O O10 0.158501 0.134693 0.010454
O O11 0.000000 0.000000 0.500000
O O12 0.361509 0.800073 0.373978
O O13 0.297963 0.896197 0.288007
O O14 0.660043 0.692323 0.127816
O O15 0.645976 0.925418 0.566695
O O16 0.579960 0.761904 0.977382
O O17 0.521473 0.869413 0.914465
#
# Coordination Sequence:
#
# PCOD8041231 Si02
#       8
#     2   2   2   2   2   2   2   2
#     4  12  26  40  69 100 131 177 222 268 337 402
#     4  11  25  44  66  95 134 173 226 276 325 396
#     4  10  19  31  57  95 130 161 214 273 326 393
#     4  10  19  34  57  96 123 165 216 265 330 392
#     4  11  24  44  66  95 132 175 224 278 325 394
#     4  11  17  35  63  88 122 165 217 267 323 392
#     4  10  20  31  59  95 124 165 214 268 328 386
#     4  11  19  37  62  94 126 169 220 269 328 397
#
# _framework density 24.934435000000001
#
# number of rings (size 3 to 8) (size 9 to 14) (size 15 to 20)
#    0.000    1.250    6.250    2.625    5.250    0.500 
#    0.000    0.625    0.000    0.750    0.000    0.000 
#    0.000    0.000    0.000    0.000    0.000    0.000 
#
# Total GULP energy -198235.818271 kJ/mol
# GULP energy per Si atom -12389.738642 kJ/mol
# Density = 2.487768 g / cm^3
# Si number density = 24.934435 Si / 1000 Ang^3
#
#
#
# Elastic Constant Matrix: (Units=GPa)
#
#
# Indices 1 2 3 4 5 6 
#
# 1 132.1181 14.1992 19.2980 11.6320 19.1132 -20.4646
# 2 14.1992 75.0491 28.8452 16.6236 13.3431 -22.3939
# 3 19.2980 28.8452 92.7702 42.1675 10.3714 6.5070
# 4 11.6320 16.6236 42.1675 35.0447 5.0378 7.1226
# 5 19.1132 13.3431 10.3714 5.0378 26.7837 4.1410
# 6 -20.4646 -22.3939 6.5070 7.1226 4.1410 23.2322
#
#
#
# Elastic Compliance Matrix: (Units=1/GPa)
#
#
# Indices 1 2 3 4 5 6 
#
# 1 0.018130 0.019526 -0.001537 -0.019028 -0.025542 0.045608
# 2 0.019526 0.056798 -0.004943 -0.039765 -0.047364 0.093966
# 3 -0.001537 -0.004943 0.024817 -0.025923 -0.000394 -0.005052
# 4 -0.019028 -0.039765 -0.025923 0.096523 0.038297 -0.084249
# 5 -0.025542 -0.047364 -0.000394 0.038297 0.086837 -0.095264
# 6 0.045608 0.093966 -0.005052 -0.084249 -0.095264 0.218018
#
#
# Mechanical properties :
#
#
# Convention : Reuss Voigt Hill
#
# Bulk Modulus (GPa) = 7.94683 47.18024 27.56354
# Shear Modulus (GPa) = 9.67159 32.85180 21.26169
#
# Velocity S-wave (km/s) = 1.97161 3.63371 2.92328
# Velocity P-wave (km/s) = 2.89430 6.04715 4.74051
#
# Compressibility (1/GPa) = 0.12583630
#
# Stress axis : x y z
#
# Youngs Moduli (GPa) = 55.15721 17.60638 40.29416
#
# Poissons Ratio (x) = -0.34378 0.06193
# Poissons Ratio (y) = -1.07698 0.19918
# Poissons Ratio (z) = 0.08477 0.08703
#
# Static dielectric constant tensor:
#      x y z
#    x 5.327550 -0.139400 -0.931230 
#    y -0.139400 4.634950 -0.309570 
#    z -0.931230 -0.309570 6.169040 
# 
# 
# High freq. dielectric constant tensor:
#      x y z
#    x 2.006870 -0.015970 0.004530 
#    y -0.015970 1.975290 0.022580 
#    z 0.004530 0.022580 1.977390 
# 
# From -- ./inp_files/224377.got.cif
#   From: 2010.06.25/outbox.cif.g09.slc.cpg/sg2_113_cif.got.tgz:224377.got - 2010.06.27 13:26:56.
