data_PCOD8041389
_publ_section_title
;
Structure prediction by ZEFSAII (Michael W. Deem and Ramdas Pophale) SiO2 
 PCOD8041389
Probable space group: P -1
;
_chemical_formula_sum "Si O2"
_cell_formula_units_Z 16
_cell_length_a 8.982797
_cell_length_b 15.962653
_cell_length_c 15.032005
_cell_angle_alpha 37.023581
_cell_angle_beta 124.969176
_cell_angle_gamma 133.635395
_cell_volume 938.114242
_symmetry_space_group_name_H-M "P -1"
_symmetry_group_IT_number 2
_symmetry_cell_setting 'triclinic'
loop_
_space_group_symop_operation_xyz
x,y,z
-x,-y,-z
loop_
_atom_site_type_symbol
_atom_site_label
_atom_site_fract_x
_atom_site_fract_y
_atom_site_fract_z
Si Si1 0.426840 0.283975 0.010502
Si Si2 0.064040 0.385421 0.566087
Si Si3 0.303276 0.007926 0.957961
Si Si4 0.873451 0.473102 0.069290
Si Si5 0.894695 0.508865 0.702433
Si Si6 0.551481 0.640230 0.249709
Si Si7 0.054344 0.282968 0.979084
Si Si8 0.163525 0.953312 0.139680
O O1 0.488749 0.352917 0.874321
O O2 0.268341 0.335331 0.956723
O O3 0.634730 0.349946 0.082136
O O4 0.320464 0.094116 0.137044
O O5 0.028569 0.383156 0.450043
O O6 0.305252 0.443170 0.617781
O O7 0.000000 0.500000 0.500000
O O8 0.932995 0.206322 0.703673
O O9 0.333154 0.184366 0.818486
O O10 0.500000 0.000000 0.000000
O O11 0.281419 0.935172 0.110665
O O12 0.098043 0.905515 0.914342
O O13 0.897689 0.643317 0.966938
O O14 0.963770 0.404032 0.236265
O O15 0.000000 0.500000 0.000000
O O16 0.660102 0.462763 0.683898
O O17 0.922435 0.354474 0.821717
O O18 0.000000 0.000000 0.000000
#
# Coordination Sequence:
#
# PCOD8041389 Si02
#       8
#     2   2   2   2   2   2   2   2
#     4  11  18  36  59  86 112 149 198 248 275 342
#     4  12  23  38  56  87 126 149 188 238 299 363
#     4  11  18  32  57  86 118 143 193 242 286 345
#     4  10  21  36  55  84 117 154 198 241 280 342
#     4  10  22  35  53  82 117 155 189 228 300 338
#     4  11  20  34  59  86 119 152 187 241 299 341
#     4  10  19  32  55  88 113 147 196 235 292 333
#     4  11  21  36  59  85 115 151 189 243 291 339
#
# _framework density 17.055492000000001
#
# number of rings (size 3 to 8) (size 9 to 14) (size 15 to 20)
#    0.750    0.500    6.250    2.250    1.750    0.000 
#    0.000    0.625    0.000    0.000    0.000    2.625 
#    0.000    0.000    0.000    0.000    0.000    0.000 
#
# Total GULP energy -198270.862776 kJ/mol
# GULP energy per Si atom -12391.928923 kJ/mol
# Density = 1.701667 g / cm^3
# Si number density = 17.055492 Si / 1000 Ang^3
#
#
#
# Elastic Constant Matrix: (Units=GPa)
#
#
# Indices 1 2 3 4 5 6 
#
# 1 148.4490 53.8324 51.5682 -1.3759 -4.3475 6.3185
# 2 53.8324 135.0697 41.0473 -1.4818 0.8309 3.0291
# 3 51.5682 41.0473 86.0498 8.0108 -7.4023 -0.9217
# 4 -1.3759 -1.4818 8.0108 19.8567 -2.6392 2.0533
# 5 -4.3475 0.8309 -7.4023 -2.6392 28.1751 5.4589
# 6 6.3185 3.0291 -0.9217 2.0533 5.4589 34.9802
#
#
#
# Elastic Compliance Matrix: (Units=1/GPa)
#
#
# Indices 1 2 3 4 5 6 
#
# 1 0.009310 -0.002209 -0.004721 0.002700 0.000884 -0.001911
# 2 -0.002209 0.009361 -0.003423 0.001800 -0.001268 -0.000410
# 3 -0.004721 -0.003423 0.017020 -0.007231 0.002861 0.001576
# 4 0.002700 0.001800 -0.007231 0.054689 0.004506 -0.004748
# 5 0.000884 -0.001268 0.002861 0.004506 0.038036 -0.006175
# 6 -0.001911 -0.000410 0.001576 -0.004748 -0.006175 0.030252
#
#
# Mechanical properties :
#
#
# Convention : Reuss Voigt Hill
#
# Bulk Modulus (GPa) = 66.73518 73.60712 70.17115
# Shear Modulus (GPa) = 27.11971 31.47713 29.29842
#
# Velocity S-wave (km/s) = 3.99191 4.30067 4.14917
# Velocity P-wave (km/s) = 7.77563 8.24088 8.01163
#
# Compressibility (1/GPa) = 0.01498460
#
# Stress axis : x y z
#
# Youngs Moduli (GPa) = 107.41633 106.82967 58.75600
#
# Poissons Ratio (x) = 0.23593 0.27741
# Poissons Ratio (y) = 0.23723 0.20111
# Poissons Ratio (z) = 0.50715 0.36565
#
# Static dielectric constant tensor:
#      x y z
#    x 3.471580 0.030400 0.046470 
#    y 0.030400 3.199980 -0.061510 
#    z 0.046470 -0.061510 2.959300 
# 
# 
# High freq. dielectric constant tensor:
#      x y z
#    x 1.688590 0.003120 0.000130 
#    y 0.003120 1.652540 -0.004590 
#    z 0.000130 -0.004590 1.617770 
# 
# From -- ./inp_files/561728.got.cif
#   From: 2010.06.25/outbox.cif.g09.slc.cpg/sg2_281_cif.got.tgz:561728.got - 2010.06.27 13:26:56.
