data_PCOD8041572
_publ_section_title
;
Structure prediction by ZEFSAII (Michael W. Deem and Ramdas Pophale) SiO2 
 PCOD8041572
Probable space group: P -1
;
_chemical_formula_sum "Si O2"
_cell_formula_units_Z 16
_cell_length_a 13.933390
_cell_length_b 11.512256
_cell_length_c 15.109562
_cell_angle_alpha 29.135950
_cell_angle_beta 126.874926
_cell_angle_gamma 108.184988
_cell_volume 791.787145
_symmetry_space_group_name_H-M "P -1"
_symmetry_group_IT_number 2
_symmetry_cell_setting 'triclinic'
loop_
_space_group_symop_operation_xyz
x,y,z
-x,-y,-z
loop_
_atom_site_type_symbol
_atom_site_label
_atom_site_fract_x
_atom_site_fract_y
_atom_site_fract_z
Si Si1 0.331050 0.049944 0.423097
Si Si2 0.220292 0.368501 0.966845
Si Si3 0.908406 0.633233 0.620045
Si Si4 0.405415 0.828465 0.323502
Si Si5 0.459315 0.384257 0.290396
Si Si6 0.171643 0.859391 0.860731
Si Si7 0.711163 0.425363 0.697325
Si Si8 0.117140 0.017801 0.452634
O O1 0.411930 0.168434 0.443870
O O2 0.446464 0.721866 0.676762
O O3 0.201571 0.077644 0.386259
O O4 0.286037 0.244050 0.181398
O O5 0.190973 0.681217 0.729706
O O6 0.073130 0.376960 0.877015
O O7 0.323756 0.161228 0.083668
O O8 0.810660 0.509216 0.649478
O O9 0.875724 0.814608 0.390752
O O10 0.882855 0.841889 0.548926
O O11 0.441979 0.630955 0.563411
O O12 0.555838 0.714679 0.432687
O O13 0.300640 0.790041 0.229136
O O14 0.315379 0.689521 0.992806
O O15 0.209845 0.745183 0.056856
O O16 0.046095 0.824313 0.777150
#
# Coordination Sequence:
#
# PCOD8041572 Si02
#       8
#     2   2   2   2   2   2   2   2
#     4  10  19  33  54  81 109 142 175 216 272 320
#     4  10  21  37  55  82 115 138 173 225 269 318
#     4  11  22  35  56  83 110 142 177 219 271 321
#     4   9  20  39  57  77 108 144 183 225 262 309
#     4   9  18  34  54  77 110 141 177 223 264 314
#     4  10  20  36  54  79 109 139 177 221 267 320
#     4  10  21  39  59  77 105 146 185 220 264 315
#     4  11  21  34  56  84 111 141 175 216 273 327
#
# _framework density 20.207452
#
# number of rings (size 3 to 8) (size 9 to 14) (size 15 to 20)
#    0.000    2.000    0.000    5.250    0.000    3.000 
#    0.000   17.500    0.000    0.000    0.000    0.000 
#    0.000    0.000    0.000    0.000    0.000    0.000 
#
# Total GULP energy -198287.756296 kJ/mol
# GULP energy per Si atom -12392.984768 kJ/mol
# Density = 2.016146 g / cm^3
# Si number density = 20.207452 Si / 1000 Ang^3
#
#
#
# Elastic Constant Matrix: (Units=GPa)
#
#
# Indices 1 2 3 4 5 6 
#
# 1 56.3962 -1.3572 23.4275 8.2755 -1.3582 2.3561
# 2 -1.3572 41.2174 20.6552 4.5124 2.8181 -1.1820
# 3 23.4275 20.6552 74.5809 1.3381 13.9723 1.2972
# 4 8.2755 4.5124 1.3381 18.7326 -1.0275 11.1945
# 5 -1.3582 2.8181 13.9723 -1.0275 28.4568 -5.9109
# 6 2.3561 -1.1820 1.2972 11.1945 -5.9109 25.3246
#
#
#
# Elastic Compliance Matrix: (Units=1/GPa)
#
#
# Indices 1 2 3 4 5 6 
#
# 1 0.024714 0.007846 -0.011042 -0.016001 0.006759 0.007283
# 2 0.007846 0.032287 -0.012135 -0.015758 0.004523 0.009420
# 3 -0.011042 -0.012135 0.022361 0.010319 -0.011583 -0.007950
# 4 -0.016001 -0.015758 0.010319 0.087225 -0.009545 -0.040561
# 5 0.006759 0.004523 -0.011583 -0.009545 0.043374 0.014519
# 6 0.007283 0.009420 -0.007950 -0.040561 0.014519 0.060975
#
#
# Mechanical properties :
#
#
# Convention : Reuss Voigt Hill
#
# Bulk Modulus (GPa) = 20.53418 28.62728 24.58073
# Shear Modulus (GPa) = 15.73161 23.13405 19.43283
#
# Velocity S-wave (km/s) = 2.79320 3.38720 3.10444
# Velocity P-wave (km/s) = 4.53722 5.43093 5.00406
#
# Compressibility (1/GPa) = 0.04869929
#
# Stress axis : x y z
#
# Youngs Moduli (GPa) = 40.46316 30.97211 44.72141
#
# Poissons Ratio (x) = -0.24300 0.49381
# Poissons Ratio (y) = -0.31746 0.54269
# Poissons Ratio (z) = 0.44679 0.37584
#
# Static dielectric constant tensor:
#      x y z
#    x 3.724040 -0.079490 0.326960 
#    y -0.079490 3.594130 0.084880 
#    z 0.326960 0.084880 3.782940 
# 
# 
# High freq. dielectric constant tensor:
#      x y z
#    x 1.781530 -0.004520 0.026570 
#    y -0.004520 1.773610 0.012180 
#    z 0.026570 0.012180 1.794880 
# 
# From -- ./inp_files/424507.got.cif
#   From: 2010.06.25/outbox.cif.g09.slc.cpg/sg2_213_cif.got.tgz:424507.got - 2010.06.27 13:26:56.
