data_PCOD8041243
_publ_section_title
;
Structure prediction by ZEFSAII (Michael W. Deem and Ramdas Pophale) SiO2 
 PCOD8041243
Probable space group: P -1
;
_chemical_formula_sum "Si O2"
_cell_formula_units_Z 14
_cell_length_a 11.684320
_cell_length_b 11.684609
_cell_length_c 7.981934
_cell_angle_alpha 111.121719
_cell_angle_beta 104.599384
_cell_angle_gamma 131.557567
_cell_volume 540.544869
_symmetry_space_group_name_H-M "P -1"
_symmetry_group_IT_number 2
_symmetry_cell_setting 'triclinic'
loop_
_space_group_symop_operation_xyz
x,y,z
-x,-y,-z
loop_
_atom_site_type_symbol
_atom_site_label
_atom_site_fract_x
_atom_site_fract_y
_atom_site_fract_z
Si Si1 0.633941 0.432990 0.980822
Si Si2 0.757611 0.796420 0.142305
Si Si3 0.569477 0.371879 0.290846
Si Si4 0.038864 0.149736 0.208650
Si Si5 0.162876 0.773894 0.861991
Si Si6 0.254613 0.724419 0.193123
Si Si7 0.300243 0.757307 0.591948
O O1 0.386183 0.271269 0.795870
O O2 0.696665 0.451404 0.204436
O O3 0.786426 0.675213 0.100181
O O4 0.660158 0.340696 0.821937
O O5 0.643027 0.734492 0.887869
O O6 0.990934 0.062142 0.340087
O O7 0.529252 0.203641 0.274208
O O8 0.720051 0.589323 0.575266
O O9 0.869832 0.109485 0.074656
O O10 0.000000 0.000000 0.000000
O O11 0.291671 0.856868 0.780280
O O12 0.933280 0.508449 0.642358
O O13 0.311496 0.853877 0.115814
O O14 0.352755 0.860841 0.479115
O O15 0.000000 0.500000 0.000000
#
# Coordination Sequence:
#
# PCOD8041243 Si02
#       7
#     2   2   2   2   2   2   2
#     4   9  19  40  60  91 124 164 207 254 316 364
#     4   9  21  40  61  89 127 168 199 258 315 365
#     4   9  19  40  62  87 121 165 203 249 314 362
#     4  11  24  37  60  95 123 166 210 250 313 378
#     4   9  18  36  54  88 125 152 205 255 309 360
#     4  10  19  31  63  93 118 160 213 259 299 371
#     4   9  17  32  61  89 115 163 205 250 307 364
#
# _framework density 25.899794
#
# number of rings (size 3 to 8) (size 9 to 14) (size 15 to 20)
#    0.857    1.714    1.429    0.000    8.000    1.143 
#    0.000    4.286    0.000    1.714    0.000    0.000 
#    0.000    0.000    0.000    0.000    0.000    0.000 
#
# Total GULP energy -173504.137126 kJ/mol
# GULP energy per Si atom -12393.152652 kJ/mol
# Density = 2.584084 g / cm^3
# Si number density = 25.899794 Si / 1000 Ang^3
#
#
#
# Elastic Constant Matrix: (Units=GPa)
#
#
# Indices 1 2 3 4 5 6 
#
# 1 114.8459 40.7577 43.2921 -0.9009 -31.0789 -21.8163
# 2 40.7577 145.8353 18.9663 -25.5577 -22.0922 -25.6733
# 3 43.2921 18.9663 92.6445 -19.9963 -18.3626 -11.2279
# 4 -0.9009 -25.5577 -19.9963 37.6643 -1.3938 -6.0679
# 5 -31.0789 -22.0922 -18.3626 -1.3938 39.7049 -0.7528
# 6 -21.8163 -25.6733 -11.2279 -6.0679 -0.7528 36.7904
#
#
#
# Elastic Compliance Matrix: (Units=1/GPa)
#
#
# Indices 1 2 3 4 5 6 
#
# 1 0.014246 -0.001326 -0.004291 -0.001535 0.008491 0.006134
# 2 -0.001326 0.011986 0.003669 0.012093 0.007958 0.010855
# 3 -0.004291 0.003669 0.017207 0.013009 0.007241 0.007561
# 4 -0.001535 0.012093 0.013009 0.045224 0.013496 0.019234
# 5 0.008491 0.007958 0.007241 0.013496 0.040384 0.015851
# 6 0.006134 0.010855 0.007561 0.019234 0.015851 0.044197
#
#
# Mechanical properties :
#
#
# Convention : Reuss Voigt Hill
#
# Bulk Modulus (GPa) = 25.28825 62.15087 43.71956
# Shear Modulus (GPa) = 26.27124 39.51923 32.89523
#
# Velocity S-wave (km/s) = 3.18833 3.91045 3.56771
# Velocity P-wave (km/s) = 4.83104 6.66615 5.82137
#
# Compressibility (1/GPa) = 0.03954406
#
# Stress axis : x y z
#
# Youngs Moduli (GPa) = 70.19303 83.42748 58.11553
#
# Poissons Ratio (x) = 0.11066 0.24935
# Poissons Ratio (y) = 0.09311 -0.21323
# Poissons Ratio (z) = 0.30117 -0.30610
#
# Static dielectric constant tensor:
#      x y z
#    x 4.477530 0.088620 0.216260 
#    y 0.088620 5.098450 -0.211610 
#    z 0.216260 -0.211610 4.546790 
# 
# 
# High freq. dielectric constant tensor:
#      x y z
#    x 2.029340 0.003170 0.016860 
#    y 0.003170 2.063600 0.012590 
#    z 0.016860 0.012590 2.022740 
# 
# From -- ./inp_files/250412.got.cif
#   From: 2010.06.25/outbox.cif.g09.slc.cpg/sg2_126_cif.got.tgz:250412.got - 2010.06.27 13:26:56.
