data_PCOD8041337
_publ_section_title
;
Structure prediction by ZEFSAII (Michael W. Deem and Ramdas Pophale) SiO2 
 PCOD8041337
Probable space group: P -1
;
_chemical_formula_sum "Si O2"
_cell_formula_units_Z 14
_cell_length_a 8.643551
_cell_length_b 13.711144
_cell_length_c 9.671600
_cell_angle_alpha 97.065459
_cell_angle_beta 115.847123
_cell_angle_gamma 129.536897
_cell_volume 649.707620
_symmetry_space_group_name_H-M "P -1"
_symmetry_group_IT_number 2
_symmetry_cell_setting 'triclinic'
loop_
_space_group_symop_operation_xyz
x,y,z
-x,-y,-z
loop_
_atom_site_type_symbol
_atom_site_label
_atom_site_fract_x
_atom_site_fract_y
_atom_site_fract_z
Si Si1 0.850160 0.775495 0.640766
Si Si2 0.273256 0.321447 0.848687
Si Si3 0.309912 0.166057 0.636317
Si Si4 0.662726 0.734153 0.858108
Si Si5 0.882541 0.617867 0.431439
Si Si6 0.468588 0.067884 0.846080
Si Si7 0.433068 0.835708 0.806857
O O1 0.655502 0.773100 0.493429
O O2 0.800254 0.750786 0.779631
O O3 0.777962 0.638187 0.522486
O O4 0.162372 0.936311 0.761427
O O5 0.394707 0.283952 0.803929
O O6 0.056192 0.282549 0.659712
O O7 0.500000 0.500000 0.000000
O O8 0.164072 0.230055 0.936650
O O9 0.495677 0.151735 0.737481
O O10 0.000000 0.000000 0.500000
O O11 0.349017 0.563395 0.723339
O O12 0.659917 0.852018 0.875099
O O13 0.161562 0.687023 0.591135
O O14 0.549638 0.992265 0.823983
O O15 0.646396 0.186181 0.065155
#
# Coordination Sequence:
#
# PCOD8041337 Si02
#       7
#     2   2   2   2   2   2   2
#     4   9  19  32  55  80 103 131 174 219 260 299
#     4   9  18  32  53  78 101 134 179 214 249 308
#     4   9  16  33  53  73  99 143 174 203 254 321
#     4  11  19  32  55  83 103 127 175 229 253 290
#     4   9  19  35  54  74 106 142 168 202 265 323
#     4   9  18  34  53  73 101 143 173 204 255 321
#     4  10  19  32  54  76 102 135 178 207 253 312
#
# _framework density 21.548155999999999
#
# number of rings (size 3 to 8) (size 9 to 14) (size 15 to 20)
#    0.000    2.571    1.429    1.714    0.000    0.571 
#    0.000    0.714    9.429    0.857    0.000    0.000 
#    0.000    0.000    0.000    0.000    0.000    0.000 
#
# Total GULP energy -173444.212247 kJ/mol
# GULP energy per Si atom -12388.872303 kJ/mol
# Density = 2.149911 g / cm^3
# Si number density = 21.548156 Si / 1000 Ang^3
#
#
#
# Elastic Constant Matrix: (Units=GPa)
#
#
# Indices 1 2 3 4 5 6 
#
# 1 60.7506 31.5856 23.7827 -17.6251 -8.1069 -21.2690
# 2 31.5856 54.5707 25.1550 -24.8534 -3.3088 -20.0063
# 3 23.7827 25.1550 94.7686 -22.3451 -7.5288 -5.9470
# 4 -17.6251 -24.8534 -22.3451 48.1843 -5.6386 -0.4127
# 5 -8.1069 -3.3088 -7.5288 -5.6386 30.5778 -4.9657
# 6 -21.2690 -20.0063 -5.9470 -0.4127 -4.9657 31.2215
#
#
#
# Elastic Compliance Matrix: (Units=1/GPa)
#
#
# Indices 1 2 3 4 5 6 
#
# 1 0.031050 -0.004603 -0.002085 0.009617 0.012222 0.019877
# 2 -0.004603 0.040495 -0.002735 0.019309 0.009968 0.024133
# 3 -0.002085 -0.002735 0.013040 0.004238 0.003121 -0.000136
# 4 0.009617 0.019309 0.004238 0.038318 0.016460 0.022856
# 5 0.012222 0.009968 0.003121 0.016460 0.044497 0.022603
# 6 0.019877 0.024133 -0.000136 0.022856 0.022603 0.064905
#
#
# Mechanical properties :
#
#
# Convention : Reuss Voigt Hill
#
# Bulk Modulus (GPa) = 15.21118 41.23740 28.22429
# Shear Modulus (GPa) = 18.31081 30.63448 24.47265
#
# Velocity S-wave (km/s) = 2.91823 3.77460 3.37370
# Velocity P-wave (km/s) = 4.29293 6.17865 5.32001
#
# Compressibility (1/GPa) = 0.06574110
#
# Stress axis : x y z
#
# Youngs Moduli (GPa) = 32.20622 24.69426 76.68846
#
# Poissons Ratio (x) = 0.11366 0.15986
# Poissons Ratio (y) = 0.14823 0.20973
# Poissons Ratio (z) = 0.06713 0.06753
#
# Static dielectric constant tensor:
#      x y z
#    x 3.443710 -0.698220 0.085180 
#    y -0.698220 3.969680 -0.426010 
#    z 0.085180 -0.426010 4.544980 
# 
# 
# High freq. dielectric constant tensor:
#      x y z
#    x 1.796360 -0.057260 -0.003650 
#    y -0.057260 1.821680 -0.014330 
#    z -0.003650 -0.014330 1.874860 
# 
# From -- ./inp_files/163336.got.cif
#   From: 2010.06.25/outbox.cif.g09.slc.cpg/sg2_82_cif.got.tgz:163336.got - 2010.06.27 13:26:56.
