data_PCOD8041627
_publ_section_title
;
Structure prediction by ZEFSAII (Michael W. Deem and Ramdas Pophale) SiO2 
 PCOD8041627
Probable space group: P -1
;
_chemical_formula_sum "Si O2"
_cell_formula_units_Z 16
_cell_length_a 12.119443
_cell_length_b 12.626445
_cell_length_c 12.658045
_cell_angle_alpha 138.769246
_cell_angle_beta 70.565051
_cell_angle_gamma 76.153332
_cell_volume 741.743396
_symmetry_space_group_name_H-M "P -1"
_symmetry_group_IT_number 2
_symmetry_cell_setting 'triclinic'
loop_
_space_group_symop_operation_xyz
x,y,z
-x,-y,-z
loop_
_atom_site_type_symbol
_atom_site_label
_atom_site_fract_x
_atom_site_fract_y
_atom_site_fract_z
Si Si1 0.212629 0.737420 0.197639
Si Si2 0.552594 0.223110 0.813358
Si Si3 0.130657 0.671587 0.960290
Si Si4 0.693189 0.061896 0.413653
Si Si5 0.984731 0.924844 0.839986
Si Si6 0.477322 0.093711 0.345592
Si Si7 0.383209 0.581182 0.437470
Si Si8 0.348815 0.882676 0.857160
O O1 0.315557 0.794022 0.177728
O O2 0.208454 0.617187 0.012335
O O3 0.338652 0.521918 0.089514
O O4 0.000000 0.000000 0.500000
O O5 0.653003 0.077619 0.560465
O O6 0.543737 0.074410 0.775618
O O7 0.139941 0.830876 0.016450
O O8 0.269272 0.397457 0.651568
O O9 0.917968 0.831232 0.147578
O O10 0.616079 0.992870 0.321643
O O11 0.582060 0.344422 0.621310
O O12 0.197352 0.673009 0.540709
O O13 0.874376 0.873895 0.854252
O O14 0.000000 0.000000 0.000000
O O15 0.572111 0.040354 0.162727
O O16 0.362288 0.726915 0.650008
O O17 0.541723 0.280219 0.191569
#
# Coordination Sequence:
#
# PCOD8041627 Si02
#       8
#     2   2   2   2   2   2   2   2
#     4  11  24  43  59  79 110 155 203 234 273 339
#     4  11  24  40  58  80 117 152 189 237 285 339
#     4  11  21  34  62  88 114 148 193 236 284 334
#     4  10  19  33  55  87 113 142 186 237 284 329
#     4   9  16  29  49  84 115 142 178 233 280 330
#     4  11  22  35  55  89 119 149 180 235 295 341
#     4   8  15  26  46  76 110 139 176 221 272 327
#     4   9  16  28  48  76 115 144 173 218 285 334
#
# _framework density 21.570802
#
# number of rings (size 3 to 8) (size 9 to 14) (size 15 to 20)
#    0.000    2.000    2.500    4.125    0.000    1.500 
#    0.000    0.000    0.000    0.750    0.000    5.250 
#    0.000    0.000    0.000    0.000    0.000    0.000 
#
# Total GULP energy -198279.389170 kJ/mol
# GULP energy per Si atom -12392.461823 kJ/mol
# Density = 2.152171 g / cm^3
# Si number density = 21.570802 Si / 1000 Ang^3
#
#
#
# Elastic Constant Matrix: (Units=GPa)
#
#
# Indices 1 2 3 4 5 6 
#
# 1 75.1373 33.0116 34.4856 14.4333 -21.3634 19.8085
# 2 33.0116 94.6382 20.8868 9.2198 -14.7161 30.5408
# 3 34.4856 20.8868 63.5145 5.7743 -24.7627 21.2329
# 4 14.4333 9.2198 5.7743 18.7777 -2.1919 -3.6624
# 5 -21.3634 -14.7161 -24.7627 -2.1919 25.4133 -4.1738
# 6 19.8085 30.5408 21.2329 -3.6624 -4.1738 39.5191
#
#
#
# Elastic Compliance Matrix: (Units=1/GPa)
#
#
# Indices 1 2 3 4 5 6 
#
# 1 0.025681 -0.000440 -0.002011 -0.019317 0.015807 -0.011573
# 2 -0.000440 0.017708 0.005384 -0.011845 0.011441 -0.016246
# 3 -0.002011 0.005384 0.034905 -0.012042 0.031159 -0.019732
# 4 -0.019317 -0.011845 -0.012042 0.080880 -0.022866 0.030388
# 5 0.015807 0.011441 0.031159 -0.022866 0.083245 -0.026833
# 6 -0.011573 -0.016246 -0.019732 0.030388 -0.026833 0.054244
#
#
# Mechanical properties :
#
#
# Convention : Reuss Voigt Hill
#
# Bulk Modulus (GPa) = 11.88209 45.56201 28.72205
# Shear Modulus (GPa) = 15.68133 26.40240 21.04187
#
# Velocity S-wave (km/s) = 2.69916 3.50235 3.12665
# Velocity P-wave (km/s) = 3.90312 6.12562 5.13603
#
# Compressibility (1/GPa) = 0.08416028
#
# Stress axis : x y z
#
# Youngs Moduli (GPa) = 38.93872 56.47312 28.64896
#
# Poissons Ratio (x) = 0.02482 0.05762
# Poissons Ratio (y) = 0.01712 -0.15425
# Poissons Ratio (z) = 0.07832 -0.30405
#
# Static dielectric constant tensor:
#      x y z
#    x 3.980460 0.044080 -0.635080 
#    y 0.044080 4.071390 -0.157730 
#    z -0.635080 -0.157730 3.811770 
# 
# 
# High freq. dielectric constant tensor:
#      x y z
#    x 1.835820 -0.002560 -0.049070 
#    y -0.002560 1.846760 -0.012460 
#    z -0.049070 -0.012460 1.819200 
# 
# From -- ./inp_files/519905.got.cif
#   From: 2010.06.25/outbox.cif.g09.slc.cpg/sg2_260_cif.got.tgz:519905.got - 2010.06.27 13:26:56.
