data_PCOD8041357
_publ_section_title
;
Structure prediction by ZEFSAII (Michael W. Deem and Ramdas Pophale) SiO2 
 PCOD8041357
Probable space group: P -1
;
_chemical_formula_sum "Si O2"
_cell_formula_units_Z 16
_cell_length_a 11.730531
_cell_length_b 8.456469
_cell_length_c 10.852126
_cell_angle_alpha 43.830923
_cell_angle_beta 116.108113
_cell_angle_gamma 117.200882
_cell_volume 652.355596
_symmetry_space_group_name_H-M "P -1"
_symmetry_group_IT_number 2
_symmetry_cell_setting 'triclinic'
loop_
_space_group_symop_operation_xyz
x,y,z
-x,-y,-z
loop_
_atom_site_type_symbol
_atom_site_label
_atom_site_fract_x
_atom_site_fract_y
_atom_site_fract_z
Si Si1 0.673097 0.973904 0.574376
Si Si2 0.718828 0.507260 0.285043
Si Si3 0.038351 0.339630 0.829923
Si Si4 0.477267 0.981484 0.294693
Si Si5 0.484756 0.754259 0.063807
Si Si6 0.871251 0.671505 0.496386
Si Si7 0.369262 0.537359 0.357925
Si Si8 0.956061 0.982624 0.777719
O O1 0.655026 0.236395 0.387455
O O2 0.600765 0.896454 0.711909
O O3 0.818224 0.935216 0.667167
O O4 0.584662 0.849134 0.485587
O O5 0.807580 0.612703 0.151385
O O6 0.618697 0.667475 0.176978
O O7 0.812133 0.507119 0.447064
O O8 0.989000 0.579282 0.666071
O O9 0.956904 0.165522 0.786915
O O10 0.016822 0.246893 0.012701
O O11 0.368158 0.794516 0.271649
O O12 0.552302 0.197157 0.121636
O O13 0.376489 0.562611 0.196422
O O14 0.500000 0.000000 0.000000
O O15 0.758088 0.660274 0.551658
O O16 0.932843 0.929701 0.323384
O O17 0.500000 0.500000 0.500000
#
# Coordination Sequence:
#
# PCOD8041357 Si02
#       8
#     2   2   2   2   2   2   2   2
#     4  11  19  36  58  84 130 153 190 245 317 378
#     4  11  18  34  58  86 122 154 190 249 312 352
#     4  10  19  32  56  92 118 149 197 252 309 351
#     4  10  22  35  56  88 117 160 196 245 305 362
#     4  10  22  36  55  85 118 156 210 248 278 355
#     4  11  19  34  59  88 118 150 203 249 300 350
#     4  11  20  39  60  82 115 160 204 249 290 345
#     4  10  19  32  54  87 118 153 187 247 308 354
#
# _framework density 24.526499999999999
#
# number of rings (size 3 to 8) (size 9 to 14) (size 15 to 20)
#    0.000    1.500    5.000    1.500    0.000    5.500 
#    0.000    1.250    0.000    1.500    0.000    0.000 
#    0.000    0.000    0.000    0.000    0.000    0.000 
#
# Total GULP energy -198254.977522 kJ/mol
# GULP energy per Si atom -12390.936095 kJ/mol
# Density = 2.447068 g / cm^3
# Si number density = 24.526500 Si / 1000 Ang^3
#
#
#
# Elastic Constant Matrix: (Units=GPa)
#
#
# Indices 1 2 3 4 5 6 
#
# 1 170.4949 16.9295 78.6797 -3.8633 -36.4282 34.2003
# 2 16.9295 27.1011 15.2929 8.7201 -8.5786 8.7990
# 3 78.6797 15.2929 157.1712 -9.5001 -36.9051 12.8732
# 4 -3.8633 8.7201 -9.5001 31.6662 5.7860 -0.6665
# 5 -36.4282 -8.5786 -36.9051 5.7860 59.2156 -12.4415
# 6 34.2003 8.7990 12.8732 -0.6665 -12.4415 28.4219
#
#
#
# Elastic Compliance Matrix: (Units=1/GPa)
#
#
# Indices 1 2 3 4 5 6 
#
# 1 0.009865 -0.000362 -0.003749 -0.000339 0.001759 -0.009298
# 2 -0.000362 0.049279 -0.003735 -0.015646 0.003614 -0.011913
# 3 -0.003749 -0.003735 0.009305 0.002822 0.003299 0.002963
# 4 -0.000339 -0.015646 0.002822 0.037436 -0.003694 0.003233
# 5 0.001759 0.003614 0.003299 -0.003694 0.021914 0.004776
# 6 -0.009298 -0.011913 0.002963 0.003233 0.004776 0.050885
#
#
# Mechanical properties :
#
#
# Convention : Reuss Voigt Hill
#
# Bulk Modulus (GPa) = 18.95498 64.06351 41.50925
# Shear Modulus (GPa) = 23.58930 40.11842 31.85386
#
# Velocity S-wave (km/s) = 3.10464 4.04879 3.60773
# Velocity P-wave (km/s) = 4.53837 6.93064 5.85792
#
# Compressibility (1/GPa) = 0.05275658
#
# Stress axis : x y z
#
# Youngs Moduli (GPa) = 101.37353 20.29272 107.46910
#
# Poissons Ratio (x) = 0.00735 0.40288
# Poissons Ratio (y) = 0.03672 0.40138
# Poissons Ratio (z) = 0.38003 0.07579
#
# Static dielectric constant tensor:
#      x y z
#    x 4.488730 0.170970 -0.477710 
#    y 0.170970 4.364860 -0.135180 
#    z -0.477710 -0.135180 4.719260 
# 
# 
# High freq. dielectric constant tensor:
#      x y z
#    x 1.970000 0.013080 -0.019590 
#    y 0.013080 1.943150 -0.008580 
#    z -0.019590 -0.008580 1.983230 
# 
# From -- ./inp_files/427454.got.cif
#   From: 2010.06.25/outbox.cif.g09.slc.cpg/sg2_214_cif.got.tgz:427454.got - 2010.06.27 13:26:56.
