data_PCOD8041453
_publ_section_title
;
Structure prediction by ZEFSAII (Michael W. Deem and Ramdas Pophale) SiO2 
 PCOD8041453
Probable space group: P -1
;
_chemical_formula_sum "Si O2"
_cell_formula_units_Z 16
_cell_length_a 5.087538
_cell_length_b 8.939921
_cell_length_c 24.044134
_cell_angle_alpha 125.962668
_cell_angle_beta 69.738003
_cell_angle_gamma 121.462946
_cell_volume 753.752329
_symmetry_space_group_name_H-M "P -1"
_symmetry_group_IT_number 2
_symmetry_cell_setting 'triclinic'
loop_
_space_group_symop_operation_xyz
x,y,z
-x,-y,-z
loop_
_atom_site_type_symbol
_atom_site_label
_atom_site_fract_x
_atom_site_fract_y
_atom_site_fract_z
Si Si1 0.899111 0.151213 0.669755
Si Si2 0.979458 0.139062 0.787320
Si Si3 0.196111 0.481944 0.275221
Si Si4 0.989814 0.850126 0.919554
Si Si5 0.733453 0.058157 0.192999
Si Si6 0.330709 0.071083 0.462917
Si Si7 0.379877 0.595609 0.853755
Si Si8 0.514791 0.293020 0.596755
O O1 0.980553 0.095924 0.711961
O O2 0.737266 0.309098 0.718525
O O3 0.701935 0.937211 0.604072
O O4 0.193453 0.286875 0.640379
O O5 0.629924 0.033842 0.811380
O O6 0.186319 0.042690 0.781271
O O7 0.119512 0.377509 0.843265
O O8 0.464828 0.418813 0.219631
O O9 0.220692 0.519536 0.348924
O O10 0.862986 0.301326 0.247484
O O11 0.642350 0.677381 0.900066
O O12 0.222958 0.749760 0.893467
O O13 0.102526 0.979229 0.882268
O O14 0.000000 0.000000 0.000000
O O15 0.487570 0.919813 0.430912
O O16 0.534885 0.292159 0.526600
O O17 0.000000 0.000000 0.500000
#
# Coordination Sequence:
#
# PCOD8041453 Si02
#       8
#     2   2   2   2   2   2   2   2
#     4  10  19  32  59  83 119 157 209 246 311 353
#     4  12  23  39  58  94 128 159 194 254 305 358
#     4  10  20  35  59  88 115 161 208 258 294 356
#     4  11  24  46  69  91 120 162 203 243 293 364
#     4  11  25  38  60  90 127 154 200 250 308 354
#     4   8  16  29  47  88 113 152 197 271 285 350
#     4  11  22  40  67  92 122 160 206 243 295 361
#     4   9  16  29  56  82 115 147 214 254 298 339
#
# _framework density 21.227132000000001
#
# number of rings (size 3 to 8) (size 9 to 14) (size 15 to 20)
#    0.000    1.750    1.250    4.875    3.500    0.000 
#    0.000    3.750    0.000    1.500    0.000    0.000 
#    0.000    0.000    0.000    0.000    0.000    0.000 
#
# Total GULP energy -198211.939124 kJ/mol
# GULP energy per Si atom -12388.246195 kJ/mol
# Density = 2.117882 g / cm^3
# Si number density = 21.227132 Si / 1000 Ang^3
#
#
#
# Elastic Constant Matrix: (Units=GPa)
#
#
# Indices 1 2 3 4 5 6 
#
# 1 82.5174 8.7380 29.6392 9.9150 4.4874 9.9494
# 2 8.7380 55.0197 28.7509 2.9704 8.9723 13.2991
# 3 29.6392 28.7509 147.4739 15.6136 28.8979 6.6282
# 4 9.9150 2.9704 15.6136 17.3096 -2.5003 6.6864
# 5 4.4874 8.9723 28.8979 -2.5003 41.8502 7.3525
# 6 9.9494 13.2991 6.6282 6.6864 7.3525 39.6634
#
#
#
# Elastic Compliance Matrix: (Units=1/GPa)
#
#
# Indices 1 2 3 4 5 6 
#
# 1 0.013770 -0.000315 -0.002091 -0.005097 0.000110 -0.002160
# 2 -0.000315 0.021988 -0.004113 0.002751 -0.000448 -0.006987
# 3 -0.002091 -0.004113 0.010271 -0.009594 -0.007108 0.003122
# 4 -0.005097 0.002751 -0.009594 0.075972 0.013465 -0.013344
# 5 0.000110 -0.000448 -0.007108 0.013465 0.030865 -0.006681
# 6 -0.002160 -0.006987 0.003122 -0.013344 -0.006681 0.031063
#
#
# Mechanical properties :
#
#
# Convention : Reuss Voigt Hill
#
# Bulk Modulus (GPa) = 30.31029 46.58524 38.44777
# Shear Modulus (GPa) = 24.04261 34.29018 29.16639
#
# Velocity S-wave (km/s) = 3.36912 4.02356 3.71079
# Velocity P-wave (km/s) = 5.42629 6.60144 6.04250
#
# Compressibility (1/GPa) = 0.03299209
#
# Stress axis : x y z
#
# Youngs Moduli (GPa) = 72.62186 45.47956 97.35976
#
# Poissons Ratio (x) = 0.01432 0.20357
# Poissons Ratio (y) = 0.02286 0.40042
# Poissons Ratio (z) = 0.15184 0.18705
#
# Static dielectric constant tensor:
#      x y z
#    x 4.270850 0.027920 0.240630 
#    y 0.027920 3.460680 0.129650 
#    z 0.240630 0.129650 4.300010 
# 
# 
# High freq. dielectric constant tensor:
#      x y z
#    x 1.860260 0.001130 0.010380 
#    y 0.001130 1.767330 0.014230 
#    z 0.010380 0.014230 1.840830 
# 
# From -- ./inp_files/603860.got.cif
#   From: 2010.06.25/outbox.cif.g09.slc.cpg/sg2_302_cif.got.tgz:603860.got - 2010.06.27 13:26:56.
