data_PCOD8041075
_publ_section_title
;
Structure prediction by ZEFSAII (Michael W. Deem and Ramdas Pophale) SiO2 
 PCOD8041075
Probable space group: P -1
;
_chemical_formula_sum "Si O2"
_cell_formula_units_Z 14
_cell_length_a 5.280860
_cell_length_b 13.200443
_cell_length_c 21.325589
_cell_angle_alpha 148.708782
_cell_angle_beta 93.664892
_cell_angle_gamma 102.080051
_cell_volume 663.193884
_symmetry_space_group_name_H-M "P -1"
_symmetry_group_IT_number 2
_symmetry_cell_setting 'triclinic'
loop_
_space_group_symop_operation_xyz
x,y,z
-x,-y,-z
loop_
_atom_site_type_symbol
_atom_site_label
_atom_site_fract_x
_atom_site_fract_y
_atom_site_fract_z
Si Si1 0.473102 0.097535 0.736344
Si Si2 0.005068 0.817853 0.493027
Si Si3 0.206096 0.511106 0.789761
Si Si4 0.515006 0.530952 0.622630
Si Si5 0.843612 0.733206 0.856993
Si Si6 0.668515 0.298504 0.397392
Si Si7 0.062454 0.244129 0.766372
O O1 0.824401 0.243825 0.810142
O O2 0.332936 0.260932 0.821041
O O3 0.373005 0.948440 0.720145
O O4 0.334852 0.925114 0.583064
O O5 0.985082 0.732440 0.376714
O O6 0.794122 0.597417 0.414329
O O7 0.913718 0.010241 0.599488
O O8 0.546212 0.631543 0.838943
O O9 0.067846 0.667279 0.856130
O O10 0.182712 0.459282 0.836054
O O11 0.779117 0.645254 0.737587
O O12 0.532458 0.349749 0.482997
O O13 0.516192 0.723248 0.679807
O O14 0.000000 0.000000 0.000000
O O15 0.000000 0.500000 0.500000
#
# Coordination Sequence:
#
# PCOD8041075 Si02
#       7
#     2   2   2   2   2   2   2
#     4  10  19  30  47  77 119 146 175 222 261 351
#     4   9  19  31  49  80 120 142 181 215 280 345
#     4  11  22  36  59  79 108 153 186 235 283 327
#     4  10  21  34  54  83 117 151 185 232 282 333
#     4  11  25  43  59  82 111 149 199 239 273 325
#     4  11  18  32  53  83 118 152 181 224 288 342
#     4  10  20  32  50  81 116 150 181 214 283 348
#
# _framework density 21.109967999999999
#
# number of rings (size 3 to 8) (size 9 to 14) (size 15 to 20)
#    0.857    0.857    2.857    2.571    6.000    0.571 
#    0.000    0.000    0.000    0.000    0.000    6.000 
#    0.000    0.000    0.000    0.000    0.000    0.000 
#
# Total GULP energy -173494.358654 kJ/mol
# GULP energy per Si atom -12392.454190 kJ/mol
# Density = 2.106192 g / cm^3
# Si number density = 21.109968 Si / 1000 Ang^3
#
#
#
# Elastic Constant Matrix: (Units=GPa)
#
#
# Indices 1 2 3 4 5 6 
#
# 1 116.5667 41.7064 1.1242 9.2285 -17.2602 -6.0244
# 2 41.7064 146.9426 9.1180 17.8495 -5.3597 -13.1407
# 3 1.1242 9.1180 31.9471 9.8071 -1.5636 -3.8078
# 4 9.2285 17.8495 9.8071 13.9388 -2.2976 -6.3890
# 5 -17.2602 -5.3597 -1.5636 -2.2976 13.1919 9.5238
# 6 -6.0244 -13.1407 -3.8078 -6.3890 9.5238 35.3145
#
#
#
# Elastic Compliance Matrix: (Units=1/GPa)
#
#
# Indices 1 2 3 4 5 6 
#
# 1 0.012332 -0.002739 0.002350 -0.005426 0.017508 -0.004365
# 2 -0.002739 0.008754 0.000568 -0.009393 -0.003014 0.001965
# 3 0.002350 0.000568 0.040544 -0.030928 0.003932 -0.001672
# 4 -0.005426 -0.009393 -0.030928 0.114892 -0.004941 0.014363
# 5 0.017508 -0.003014 0.003932 -0.004941 0.119315 -0.030782
# 6 -0.004365 0.001965 -0.001672 0.014363 -0.030782 0.039023
#
#
# Mechanical properties :
#
#
# Convention : Reuss Voigt Hill
#
# Bulk Modulus (GPa) = 16.13178 44.37261 30.25219
# Shear Modulus (GPa) = 14.07794 28.72291 21.40042
#
# Velocity S-wave (km/s) = 2.58521 3.69268 3.18741
# Velocity P-wave (km/s) = 4.07056 6.26470 5.28280
#
# Compressibility (1/GPa) = 0.06198944
#
# Stress axis : x y z
#
# Youngs Moduli (GPa) = 81.08718 114.23065 24.66440
#
# Poissons Ratio (x) = 0.31285 -0.05796
# Poissons Ratio (y) = 0.22208 -0.01401
# Poissons Ratio (z) = -0.19056 -0.06487
#
# Static dielectric constant tensor:
#      x y z
#    x 3.811060 -0.128450 -0.043400 
#    y -0.128450 3.963260 0.055090 
#    z -0.043400 0.055090 3.276820 
# 
# 
# High freq. dielectric constant tensor:
#      x y z
#    x 1.830770 -0.007230 -0.004360 
#    y -0.007230 1.839290 0.018120 
#    z -0.004360 0.018120 1.766340 
# 
# From -- ./inp_files/583160.got.cif
#   From: 2010.06.25/outbox.cif.g09.slc.cpg/sg2_292_cif.got.tgz:583160.got - 2010.06.27 13:26:56.
