data_PCOD8041022
_publ_section_title
;
Structure prediction by ZEFSAII (Michael W. Deem and Ramdas Pophale) SiO2 
 PCOD8041022
Probable space group: P -1
;
_chemical_formula_sum "Si O2"
_cell_formula_units_Z 14
_cell_length_a 12.221038
_cell_length_b 15.852275
_cell_length_c 8.891742
_cell_angle_alpha 59.959674
_cell_angle_beta 150.130921
_cell_angle_gamma 135.575981
_cell_volume 564.606970
_symmetry_space_group_name_H-M "P -1"
_symmetry_group_IT_number 2
_symmetry_cell_setting 'triclinic'
loop_
_space_group_symop_operation_xyz
x,y,z
-x,-y,-z
loop_
_atom_site_type_symbol
_atom_site_label
_atom_site_fract_x
_atom_site_fract_y
_atom_site_fract_z
Si Si1 0.380048 0.189313 0.707752
Si Si2 0.814798 0.144779 0.761145
Si Si3 0.223605 0.709759 0.180769
Si Si4 0.439708 0.367006 0.260716
Si Si5 0.930240 0.788055 0.295450
Si Si6 0.792204 0.957822 0.086620
Si Si7 0.718982 0.634161 0.465353
O O1 0.575759 0.201854 0.799058
O O2 0.436890 0.141508 0.969946
O O3 0.456864 0.324357 0.715685
O O4 0.041317 0.088530 0.353425
O O5 0.683313 0.197998 0.647393
O O6 0.803630 0.156301 0.554496
O O7 0.161240 0.240737 0.129758
O O8 0.666536 0.998944 0.773018
O O9 0.275072 0.612361 0.374650
O O10 0.892288 0.629789 0.808889
O O11 0.485691 0.492603 0.246010
O O12 0.370769 0.336505 0.028025
O O13 0.920308 0.901344 0.204947
O O14 0.950986 0.736747 0.523358
#
# Coordination Sequence:
#
# PCOD8041022 Si02
#       7
#     2   2   2   2   2   2   2
#     4  10  22  38  65  93 122 161 203 258 308 351
#     4  10  22  40  63  90 128 159 202 249 313 358
#     4  12  22  40  62  99 121 161 208 249 311 362
#     4  10  23  41  64  91 126 163 203 252 309 362
#     4   9  22  43  66  86 124 168 202 251 310 359
#     4  10  18  43  64  86 125 163 205 251 302 371
#     4  11  22  43  66  91 123 161 211 254 299 364
#
# _framework density 24.796009999999999
#
# number of rings (size 3 to 8) (size 9 to 14) (size 15 to 20)
#    0.857    0.857    2.857    1.286    0.000    4.000 
#    5.143    2.143    0.000    0.000    0.000    0.000 
#    0.000    0.000    0.000    0.000    0.000    0.000 
#
# Total GULP energy -173534.860641 kJ/mol
# GULP energy per Si atom -12395.347189 kJ/mol
# Density = 2.473957 g / cm^3
# Si number density = 24.796010 Si / 1000 Ang^3
#
#
#
# Elastic Constant Matrix: (Units=GPa)
#
#
# Indices 1 2 3 4 5 6 
#
# 1 158.4366 24.6152 -9.9675 -10.2077 -4.0123 -15.2750
# 2 24.6152 112.0636 2.6735 -7.2242 -1.7615 -30.2640
# 3 -9.9675 2.6735 50.6744 -14.5136 -18.2254 -1.0999
# 4 -10.2077 -7.2242 -14.5136 30.7501 2.1863 -2.8448
# 5 -4.0123 -1.7615 -18.2254 2.1863 24.3678 4.0362
# 6 -15.2750 -30.2640 -1.0999 -2.8448 4.0362 39.3993
#
#
#
# Elastic Compliance Matrix: (Units=1/GPa)
#
#
# Indices 1 2 3 4 5 6 
#
# 1 0.007232 -0.000752 0.003836 0.004014 0.003266 0.002289
# 2 -0.000752 0.011748 0.000033 0.003443 -0.001065 0.009091
# 3 0.003836 0.000033 0.033690 0.015559 0.024255 0.001092
# 4 0.004014 0.003443 0.015559 0.042101 0.007628 0.006894
# 5 0.003266 -0.001065 0.024255 0.007628 0.059690 -0.004439
# 6 0.002289 0.009091 0.001092 0.006894 -0.004439 0.034235
#
#
# Mechanical properties :
#
#
# Convention : Reuss Voigt Hill
#
# Bulk Modulus (GPa) = 16.97665 39.53523 28.25594
# Shear Modulus (GPa) = 24.74066 39.16034 31.95050
#
# Velocity S-wave (km/s) = 3.16217 3.97835 3.59351
# Velocity P-wave (km/s) = 4.49376 6.08949 5.35143
#
# Compressibility (1/GPa) = 0.05890444
#
# Stress axis : x y z
#
# Youngs Moduli (GPa) = 138.27789 85.11874 29.68234
#
# Poissons Ratio (x) = 0.06400 -0.11387
# Poissons Ratio (y) = 0.10396 -0.00097
# Poissons Ratio (z) = -0.53048 -0.00278
#
# Static dielectric constant tensor:
#      x y z
#    x 4.510520 -0.042210 -0.375070 
#    y -0.042210 4.203440 -0.048470 
#    z -0.375070 -0.048470 4.201520 
# 
# 
# High freq. dielectric constant tensor:
#      x y z
#    x 1.998560 -0.006220 -0.021370 
#    y -0.006220 1.981410 -0.002610 
#    z -0.021370 -0.002610 1.976040 
# 
# From -- ./inp_files/272288.got.cif
#   From: 2010.06.25/outbox.cif.g09.slc.cpg/sg2_137_cif.got.tgz:272288.got - 2010.06.27 13:26:56.
