data_PCOD8041796
_publ_section_title
;
Structure prediction by ZEFSAII (Michael W. Deem and Ramdas Pophale) SiO2 
 PCOD8041796
Probable space group: P -1
;
_chemical_formula_sum "Si O2"
_cell_formula_units_Z 16
_cell_length_a 11.397003
_cell_length_b 19.079090
_cell_length_c 12.025201
_cell_angle_alpha 142.885425
_cell_angle_beta 115.479557
_cell_angle_gamma 38.761739
_cell_volume 851.347765
_symmetry_space_group_name_H-M "P -1"
_symmetry_group_IT_number 2
_symmetry_cell_setting 'triclinic'
loop_
_space_group_symop_operation_xyz
x,y,z
-x,-y,-z
loop_
_atom_site_type_symbol
_atom_site_label
_atom_site_fract_x
_atom_site_fract_y
_atom_site_fract_z
Si Si1 0.199595 0.165762 0.883712
Si Si2 0.148926 0.461778 0.926950
Si Si3 0.820878 0.971793 0.095466
Si Si4 0.371031 0.276966 0.183613
Si Si5 0.477747 0.790936 0.087055
Si Si6 0.627511 0.881586 0.575589
Si Si7 0.988753 0.290052 0.360377
Si Si8 0.016105 0.046398 0.184227
O O1 0.138046 0.102394 0.857259
O O2 0.407880 0.982023 0.661723
O O3 0.252677 0.238648 0.074358
O O4 0.991654 0.339991 0.941764
O O5 0.341995 0.387093 0.979306
O O6 0.245078 0.301585 0.676991
O O7 0.000000 0.500000 0.000000
O O8 0.576384 0.117997 0.145920
O O9 0.864572 0.080324 0.248903
O O10 0.991257 0.788615 0.849219
O O11 0.208643 0.480133 0.436074
O O12 0.437579 0.277806 0.091550
O O13 0.435824 0.956118 0.312937
O O14 0.261752 0.868489 0.107358
O O15 0.783051 0.808500 0.648472
O O16 0.942563 0.232700 0.371159
O O17 0.000000 0.000000 0.000000
#
# Coordination Sequence:
#
# PCOD8041796 Si02
#       8
#     2   2   2   2   2   2   2   2
#     4  11  23  35  54  83 118 149 176 222 286 336
#     4  12  21  35  58  86 111 140 187 230 275 329
#     4  11  22  38  53  78 121 152 178 223 276 335
#     4  11  19  34  57  85 112 137 185 230 284 323
#     4  10  19  35  58  84 108 140 183 237 272 315
#     4  10  19  35  55  84 113 137 179 231 285 319
#     4  10  19  33  59  84 109 143 185 234 272 319
#     4   9  18  38  57  78 112 146 186 229 267 318
#
# _framework density 18.793728999999999
#
# number of rings (size 3 to 8) (size 9 to 14) (size 15 to 20)
#    0.000    1.500    8.750    0.750    0.000    2.000 
#    0.000    0.625    0.000    0.750    0.000    0.000 
#    0.000    0.000    0.000    0.000    0.000    0.000 
#
# Total GULP energy -198368.825255 kJ/mol
# GULP energy per Si atom -12398.051578 kJ/mol
# Density = 1.875095 g / cm^3
# Si number density = 18.793729 Si / 1000 Ang^3
#
#
#
# Elastic Constant Matrix: (Units=GPa)
#
#
# Indices 1 2 3 4 5 6 
#
# 1 85.8764 40.2901 12.8903 6.3806 -2.8969 12.6019
# 2 40.2901 108.1382 9.0060 13.2348 -2.3290 6.9233
# 3 12.8903 9.0060 82.5825 12.4521 -16.0652 8.9462
# 4 6.3806 13.2348 12.4521 20.6802 -1.7216 1.9339
# 5 -2.8969 -2.3290 -16.0652 -1.7216 11.7343 -1.9310
# 6 12.6019 6.9233 8.9462 1.9339 -1.9310 29.0985
#
#
#
# Elastic Compliance Matrix: (Units=1/GPa)
#
#
# Indices 1 2 3 4 5 6 
#
# 1 0.014969 -0.005145 -0.001181 -0.000140 0.000235 -0.004871
# 2 -0.005145 0.011927 0.000705 -0.006350 0.001076 -0.000333
# 3 -0.001181 0.000705 0.018434 -0.008953 0.023249 -0.003186
# 4 -0.000140 -0.006350 -0.008953 0.057413 -0.005101 0.000170
# 5 0.000235 0.001076 0.023249 -0.005101 0.116667 0.000575
# 6 -0.004871 -0.000333 -0.003186 0.000170 0.000575 0.037561
#
#
# Mechanical properties :
#
#
# Convention : Reuss Voigt Hill
#
# Bulk Modulus (GPa) = 29.33461 44.55220 36.94341
# Shear Modulus (GPa) = 17.88431 26.59667 22.24049
#
# Velocity S-wave (km/s) = 3.08816 3.76598 3.44379
# Velocity P-wave (km/s) = 5.32525 6.53204 5.95927
#
# Compressibility (1/GPa) = 0.03408942
#
# Stress axis : x y z
#
# Youngs Moduli (GPa) = 66.80643 83.84260 54.24659
#
# Poissons Ratio (x) = 0.43134 0.06406
# Poissons Ratio (y) = 0.34370 -0.03826
# Poissons Ratio (z) = 0.07889 -0.05913
#
# Static dielectric constant tensor:
#      x y z
#    x 3.577490 -0.132920 0.017600 
#    y -0.132920 3.512150 0.170970 
#    z 0.017600 0.170970 3.393930 
# 
# 
# High freq. dielectric constant tensor:
#      x y z
#    x 1.707130 -0.010040 -0.010670 
#    y -0.010040 1.725490 0.013830 
#    z -0.010670 0.013830 1.715670 
# 
# From -- ./inp_files/423505.got.cif
#   From: 2010.06.25/outbox.cif.g09.slc.cpg/sg2_212_cif.got.tgz:423505.got - 2010.06.27 13:26:56.
