data_PCOD8041167
_publ_section_title
;
Structure prediction by ZEFSAII (Michael W. Deem and Ramdas Pophale) SiO2 
 PCOD8041167
Probable space group: P -1
;
_chemical_formula_sum "Si O2"
_cell_formula_units_Z 16
_cell_length_a 11.943727
_cell_length_b 12.150944
_cell_length_c 17.202255
_cell_angle_alpha 124.949498
_cell_angle_beta 149.203793
_cell_angle_gamma 77.670585
_cell_volume 783.608217
_symmetry_space_group_name_H-M "P -1"
_symmetry_group_IT_number 2
_symmetry_cell_setting 'triclinic'
loop_
_space_group_symop_operation_xyz
x,y,z
-x,-y,-z
loop_
_atom_site_type_symbol
_atom_site_label
_atom_site_fract_x
_atom_site_fract_y
_atom_site_fract_z
Si Si1 0.771308 0.288931 0.758790
Si Si2 0.853896 0.625498 0.678124
Si Si3 0.674726 0.884160 0.089997
Si Si4 0.116028 0.550176 0.675834
Si Si5 0.127102 0.974776 0.279759
Si Si6 0.438151 0.670036 0.495078
Si Si7 0.218650 0.020360 0.061743
Si Si8 0.713964 0.166155 0.303665
O O1 0.897768 0.195017 0.817962
O O2 0.713622 0.279792 0.628428
O O3 0.455494 0.166933 0.564448
O O4 0.000000 0.500000 0.000000
O O5 0.552518 0.590244 0.478483
O O6 0.799499 0.480080 0.645608
O O7 0.960512 0.611934 0.653128
O O8 0.095888 0.826154 0.937161
O O9 0.955806 0.927562 0.238960
O O10 0.793150 0.045155 0.284606
O O11 0.468534 0.703950 0.947244
O O12 0.472458 0.857234 0.889858
O O13 0.000000 0.500000 0.500000
O O14 0.016856 0.369182 0.580706
O O15 0.987701 0.994481 0.131509
O O16 0.724203 0.855638 0.781521
O O17 0.535145 0.115560 0.254735
#
# Coordination Sequence:
#
# PCOD8041167 Si02
#       8
#     2   2   2   2   2   2   2   2
#     4  11  26  43  61  86 125 167 205 256 303 369
#     4  11  22  35  59  96 128 158 200 252 318 361
#     4   9  18  32  54  83 120 156 193 253 301 353
#     4  10  19  31  52  90 129 156 192 249 307 364
#     4  10  24  40  62  91 121 159 215 247 308 365
#     4  11  25  38  62  93 127 165 199 255 313 368
#     4  11  20  38  63  92 126 153 199 260 302 366
#     4   9  17  29  52  87 122 151 190 244 308 351
#
# _framework density 20.418368000000001
#
# number of rings (size 3 to 8) (size 9 to 14) (size 15 to 20)
#    0.000    1.750    3.750    0.375    5.250    2.000 
#    0.000    0.000    0.000    1.500    0.000    0.000 
#    0.000    0.000    0.000    0.000    0.000    0.000 
#
# Total GULP energy -198265.386101 kJ/mol
# GULP energy per Si atom -12391.586631 kJ/mol
# Density = 2.037190 g / cm^3
# Si number density = 20.418368 Si / 1000 Ang^3
#
#
#
# Elastic Constant Matrix: (Units=GPa)
#
#
# Indices 1 2 3 4 5 6 
#
# 1 112.3172 25.9022 48.0174 10.2790 12.4323 -21.3163
# 2 25.9022 77.4073 56.9877 30.5032 7.1282 -1.7064
# 3 48.0174 56.9877 116.2243 41.8005 15.2892 -8.6130
# 4 10.2790 30.5032 41.8005 42.0177 4.4031 -0.9024
# 5 12.4323 7.1282 15.2892 4.4031 31.5349 5.2577
# 6 -21.3163 -1.7064 -8.6130 -0.9024 5.2577 28.4912
#
#
#
# Elastic Compliance Matrix: (Units=1/GPa)
#
#
# Indices 1 2 3 4 5 6 
#
# 1 0.013211 -0.001776 -0.004399 0.003126 -0.004680 0.009411
# 2 -0.001776 0.022147 -0.007416 -0.008419 0.000912 -0.002679
# 3 -0.004399 -0.007416 0.019213 -0.012113 -0.004638 0.002545
# 4 0.003126 -0.008419 -0.012113 0.041085 0.000923 -0.000697
# 5 -0.004680 0.000912 -0.004638 0.000923 0.037424 -0.011726
# 6 0.009411 -0.002679 0.002545 -0.000697 -0.011726 0.044890
#
#
# Mechanical properties :
#
#
# Convention : Reuss Voigt Hill
#
# Bulk Modulus (GPa) = 36.50961 63.08483 49.79722
# Shear Modulus (GPa) = 23.33364 32.07819 27.70591
#
# Velocity S-wave (km/s) = 3.38417 3.96794 3.68762
# Velocity P-wave (km/s) = 5.76105 7.20805 6.52478
#
# Compressibility (1/GPa) = 0.02739005
#
# Stress axis : x y z
#
# Youngs Moduli (GPa) = 75.69233 45.15214 52.04854
#
# Poissons Ratio (x) = 0.08018 0.22894
# Poissons Ratio (y) = 0.13442 0.38601
# Poissons Ratio (z) = 0.33293 0.33487
#
# Static dielectric constant tensor:
#      x y z
#    x 3.999430 0.069910 0.370820 
#    y 0.069910 3.696930 0.606370 
#    z 0.370820 0.606370 3.814810 
# 
# 
# High freq. dielectric constant tensor:
#      x y z
#    x 1.810470 -0.002140 0.021860 
#    y -0.002140 1.774780 0.050890 
#    z 0.021860 0.050890 1.781140 
# 
# From -- ./inp_files/436393.got.cif
#   From: 2010.06.25/outbox.cif.g09.slc.cpg/sg2_219_cif.got.tgz:436393.got - 2010.06.27 13:26:56.
