data_PCOD8041235
_publ_section_title
;
Structure prediction by ZEFSAII (Michael W. Deem and Ramdas Pophale) SiO2 
 PCOD8041235
Probable space group: P -1
;
_chemical_formula_sum "Si O2"
_cell_formula_units_Z 12
_cell_length_a 12.006097
_cell_length_b 9.209874
_cell_length_c 20.013777
_cell_angle_alpha 50.865486
_cell_angle_beta 157.140467
_cell_angle_gamma 118.661389
_cell_volume 627.518614
_symmetry_space_group_name_H-M "P -1"
_symmetry_group_IT_number 2
_symmetry_cell_setting 'triclinic'
loop_
_space_group_symop_operation_xyz
x,y,z
-x,-y,-z
loop_
_atom_site_type_symbol
_atom_site_label
_atom_site_fract_x
_atom_site_fract_y
_atom_site_fract_z
Si Si1 0.759656 0.594846 0.111822
Si Si2 0.693384 0.652177 0.758272
Si Si3 0.310567 0.017283 0.244140
Si Si4 0.713465 0.611282 0.634209
Si Si5 0.324284 0.438890 0.552213
Si Si6 0.670531 0.996584 0.891962
O O1 0.965122 0.516294 0.182646
O O2 0.965591 0.536137 0.309851
O O3 0.500000 0.500000 0.000000
O O4 0.601282 0.834510 0.948520
O O5 0.575594 0.844252 0.684237
O O6 0.765447 0.703937 0.707405
O O7 0.425264 0.553293 0.635546
O O8 0.000000 0.500000 0.000000
O O9 0.285986 0.094472 0.132290
O O10 0.547615 0.795478 0.441071
O O11 0.976832 0.025198 0.080838
O O12 0.506903 0.469023 0.576459
O O13 0.400365 0.208903 0.681697
#
# Coordination Sequence:
#
# PCOD8041235 Si02
#       6
#     2   2   2   2   2   2
#     4  12  24  39  56  83 120 157 191 234 281 337
#     4  10  19  31  58  93 115 142 182 241 299 328
#     4  11  18  33  61  94 111 146 182 248 290 330
#     4  10  20  35  57  86 117 140 194 239 278 335
#     4  10  21  37  60  88 114 141 195 244 279 331
#     4  11  20  34  62  84 117 144 195 233 288 335
#
# _framework density 19.122941000000001
#
# number of rings (size 3 to 8) (size 9 to 14) (size 15 to 20)
#    1.000    0.333    5.000    4.000    0.000    0.667 
#    0.000    0.000    0.000    8.000    0.000    0.000 
#    0.000    0.000    0.000    0.000    0.000    0.000 
#
# Total GULP energy -148746.994352 kJ/mol
# GULP energy per Si atom -12395.582863 kJ/mol
# Density = 1.907942 g / cm^3
# Si number density = 19.122941 Si / 1000 Ang^3
#
#
#
# Elastic Constant Matrix: (Units=GPa)
#
#
# Indices 1 2 3 4 5 6 
#
# 1 23.9922 35.7837 28.0939 2.4015 -3.7962 5.3190
# 2 35.7837 153.7398 67.3269 0.3042 -10.4781 3.0924
# 3 28.0939 67.3269 120.5494 -1.5326 -23.3911 19.1111
# 4 2.4015 0.3042 -1.5326 43.5378 5.1221 -5.5079
# 5 -3.7962 -10.4781 -23.3911 5.1221 21.6236 -2.3348
# 6 5.3190 3.0924 19.1111 -5.5079 -2.3348 34.0701
#
#
#
# Elastic Compliance Matrix: (Units=1/GPa)
#
#
# Indices 1 2 3 4 5 6 
#
# 1 0.073649 -0.013003 -0.009686 -0.004657 -0.003379 -0.005869
# 2 -0.013003 0.011086 -0.003859 0.001035 -0.000975 0.003289
# 3 -0.009686 -0.003859 0.016414 -0.001319 0.013784 -0.006613
# 4 -0.004657 0.001035 -0.001319 0.024617 -0.007049 0.004870
# 5 -0.003379 -0.000975 0.013784 -0.007049 0.061323 -0.004053
# 6 -0.005869 0.003289 -0.006613 0.004870 -0.004053 0.034188
#
#
# Mechanical properties :
#
#
# Convention : Reuss Voigt Hill
#
# Bulk Modulus (GPa) = 20.81024 62.29892 41.55458
# Shear Modulus (GPa) = 17.21818 30.98476 24.10147
#
# Velocity S-wave (km/s) = 3.00391 4.02965 3.55398
# Velocity P-wave (km/s) = 4.78929 7.36883 6.21438
#
# Compressibility (1/GPa) = 0.04805326
#
# Stress axis : x y z
#
# Youngs Moduli (GPa) = 13.57793 90.20164 60.92391
#
# Poissons Ratio (x) = 1.17294 0.59010
# Poissons Ratio (y) = 0.17656 0.23508
# Poissons Ratio (z) = 0.13151 0.34805
#
# Static dielectric constant tensor:
#      x y z
#    x 3.121050 -0.206220 -0.413680 
#    y -0.206220 3.723500 0.026670 
#    z -0.413680 0.026670 3.524020 
# 
# 
# High freq. dielectric constant tensor:
#      x y z
#    x 1.688820 -0.014050 -0.040050 
#    y -0.014050 1.750620 -0.006970 
#    z -0.040050 -0.006970 1.751310 
# 
# From -- ./inp_files/156100.got.cif
#   From: 2010.06.25/outbox.cif.g09.slc.cpg/sg2_79_cif.got.tgz:156100.got - 2010.06.27 13:26:56.
