data_PCOD8041780
_publ_section_title
;
Structure prediction by ZEFSAII (Michael W. Deem and Ramdas Pophale) SiO2 
 PCOD8041780
Probable space group: P -1
;
_chemical_formula_sum "Si O2"
_cell_formula_units_Z 16
_cell_length_a 16.942598
_cell_length_b 21.162383
_cell_length_c 11.570063
_cell_angle_alpha 159.576869
_cell_angle_beta 148.073821
_cell_angle_gamma 26.856829
_cell_volume 651.848885
_symmetry_space_group_name_H-M "P -1"
_symmetry_group_IT_number 2
_symmetry_cell_setting 'triclinic'
loop_
_space_group_symop_operation_xyz
x,y,z
-x,-y,-z
loop_
_atom_site_type_symbol
_atom_site_label
_atom_site_fract_x
_atom_site_fract_y
_atom_site_fract_z
Si Si1 0.707791 0.030511 0.798714
Si Si2 0.859989 0.429229 0.692747
Si Si3 0.496549 0.098429 0.287366
Si Si4 0.792010 0.851614 0.835322
Si Si5 0.789541 0.468635 0.411823
Si Si6 0.649277 0.649176 0.021475
Si Si7 0.840373 0.029929 0.717853
Si Si8 0.930671 0.439516 0.177705
O O1 0.545145 0.269238 0.033211
O O2 0.819467 0.042122 0.853045
O O3 0.808257 0.959476 0.925010
O O4 0.661036 0.858058 0.406762
O O5 0.765402 0.482620 0.543622
O O6 0.693127 0.560239 0.794159
O O7 0.968748 0.176789 0.425479
O O8 0.000000 0.500000 0.000000
O O9 0.399363 0.023793 0.129507
O O10 0.385476 0.352635 0.564799
O O11 0.687462 0.016929 0.438209
O O12 0.500000 0.000000 0.000000
O O13 0.949840 0.800592 0.033720
O O14 0.828167 0.613344 0.448949
O O15 0.953816 0.493521 0.637682
O O16 0.834298 0.240249 0.028379
O O17 0.785889 0.450972 0.931322
#
# Coordination Sequence:
#
# PCOD8041780 Si02
#       8
#     2   2   2   2   2   2   2   2
#     4  10  20  36  61  90 121 160 201 252 309 356
#     4  12  21  36  61  93 124 157 213 258 293 352
#     4  11  24  40  66  92 118 158 211 261 297 357
#     4   9  19  33  59  91 115 147 205 257 290 347
#     4  11  24  39  61  92 128 165 196 248 321 371
#     4  10  19  33  58  88 120 153 209 260 289 346
#     4  12  24  41  62  91 131 165 199 247 318 379
#     4   9  17  35  57  88 116 153 199 252 296 355
#
# _framework density 24.545565
#
# number of rings (size 3 to 8) (size 9 to 14) (size 15 to 20)
#    0.000    1.500    2.500    4.500    3.500    0.000 
#    0.000    0.625    2.750    0.750    0.000    0.000 
#    0.000    0.000    0.000    0.000    0.000    0.000 
#
# Total GULP energy -198273.420970 kJ/mol
# GULP energy per Si atom -12392.088811 kJ/mol
# Density = 2.448970 g / cm^3
# Si number density = 24.545565 Si / 1000 Ang^3
#
#
#
# Elastic Constant Matrix: (Units=GPa)
#
#
# Indices 1 2 3 4 5 6 
#
# 1 101.0638 41.9513 30.4971 11.9494 -37.7292 3.8971
# 2 41.9513 138.2340 15.1917 18.6495 -9.0293 16.9199
# 3 30.4971 15.1917 65.1480 15.2966 -9.1704 7.3877
# 4 11.9494 18.6495 15.2966 31.4728 2.0451 -8.1407
# 5 -37.7292 -9.0293 -9.1704 2.0451 35.1715 8.9489
# 6 3.8971 16.9199 7.3877 -8.1407 8.9489 34.4249
#
#
#
# Elastic Compliance Matrix: (Units=1/GPa)
#
#
# Indices 1 2 3 4 5 6 
#
# 1 0.023564 -0.002346 -0.002998 -0.010562 0.027162 -0.010430
# 2 -0.002346 0.009989 0.002014 -0.008225 0.003038 -0.007811
# 3 -0.002998 0.002014 0.021478 -0.013507 0.006251 -0.010078
# 4 -0.010562 -0.008225 -0.013507 0.056417 -0.027530 0.028635
# 5 0.027162 0.003038 0.006251 -0.027530 0.069325 -0.030441
# 6 -0.010430 -0.007811 -0.010078 0.028635 -0.030441 0.050916
#
#
# Mechanical properties :
#
#
# Convention : Reuss Voigt Hill
#
# Bulk Modulus (GPa) = 20.67388 53.30289 36.98838
# Shear Modulus (GPa) = 19.64844 34.66754 27.15799
#
# Velocity S-wave (km/s) = 2.83236 3.76223 3.32992
# Velocity P-wave (km/s) = 4.37462 6.37460 5.46685
#
# Compressibility (1/GPa) = 0.04837021
#
# Stress axis : x y z
#
# Youngs Moduli (GPa) = 42.43713 100.11059 46.56025
#
# Poissons Ratio (x) = 0.23487 0.13958
# Poissons Ratio (y) = 0.09956 -0.09375
# Poissons Ratio (z) = 0.12722 -0.20157
#
# Static dielectric constant tensor:
#      x y z
#    x 4.521150 0.102210 -0.316410 
#    y 0.102210 4.900490 0.322070 
#    z -0.316410 0.322070 4.201900 
# 
# 
# High freq. dielectric constant tensor:
#      x y z
#    x 1.976760 0.009070 -0.023240 
#    y 0.009070 1.994480 0.019310 
#    z -0.023240 0.019310 1.935010 
# 
# From -- ./inp_files/467228.got.cif
#   From: 2010.06.25/outbox.cif.g09.slc.cpg/sg2_234_cif.got.tgz:467228.got - 2010.06.27 13:26:56.
