data_PCOD8041662
_publ_section_title
;
Structure prediction by ZEFSAII (Michael W. Deem and Ramdas Pophale) SiO2 
 PCOD8041662
Probable space group: P -1
;
_chemical_formula_sum "Si O2"
_cell_formula_units_Z 16
_cell_length_a 9.279715
_cell_length_b 23.108630
_cell_length_c 11.666184
_cell_angle_alpha 38.608955
_cell_angle_beta 142.610532
_cell_angle_gamma 137.704136
_cell_volume 900.119270
_symmetry_space_group_name_H-M "P -1"
_symmetry_group_IT_number 2
_symmetry_cell_setting 'triclinic'
loop_
_space_group_symop_operation_xyz
x,y,z
-x,-y,-z
loop_
_atom_site_type_symbol
_atom_site_label
_atom_site_fract_x
_atom_site_fract_y
_atom_site_fract_z
Si Si1 0.901134 0.057490 0.133363
Si Si2 0.574166 0.428786 0.070808
Si Si3 0.359033 0.208358 0.280315
Si Si4 0.255396 0.748950 0.734915
Si Si5 0.711088 0.051207 0.464952
Si Si6 0.536425 0.413840 0.808233
Si Si7 0.901367 0.584017 0.630067
Si Si8 0.552407 0.955070 0.276866
O O1 0.085756 0.163972 0.119909
O O2 0.730089 0.013478 0.200539
O O3 0.736814 0.070802 0.901563
O O4 0.051578 0.984413 0.305275
O O5 0.405967 0.320367 0.170260
O O6 0.867635 0.440016 0.248148
O O7 0.500000 0.500000 0.000000
O O8 0.515482 0.449156 0.870586
O O9 0.563677 0.197155 0.336619
O O10 0.383991 0.145066 0.504653
O O11 0.199281 0.831012 0.650500
O O12 0.998890 0.677896 0.629061
O O13 0.392066 0.685838 0.993000
O O14 0.500000 0.000000 0.500000
O O15 0.603087 0.024234 0.312012
O O16 0.750956 0.493797 0.752401
O O17 0.269271 0.393274 0.611678
#
# Coordination Sequence:
#
# PCOD8041662 Si02
#       8
#     2   2   2   2   2   2   2   2
#     4  10  21  38  55  75 109 147 177 213 265 318
#     4  10  21  36  56  84 107 137 178 223 268 307
#     4   9  18  36  55  78 105 143 177 214 265 318
#     4  10  19  33  56  84 107 136 177 220 269 308
#     4  11  20  36  53  85 107 134 179 225 264 306
#     4   9  19  38  58  78 108 143 175 214 267 322
#     4   9  19  38  58  78 108 143 175 214 267 322
#     4  10  21  38  55  75 109 147 177 213 265 318
#
# _framework density 17.775421999999999
#
# number of rings (size 3 to 8) (size 9 to 14) (size 15 to 20)
#    0.000    2.500    2.500    3.000    0.000    6.000 
#    9.000    0.000    0.000    0.000    0.000    0.000 
#    0.000    0.000    0.000    0.000    0.000    0.000 
#
# Total GULP energy -198369.665615 kJ/mol
# GULP energy per Si atom -12398.104101 kJ/mol
# Density = 1.773496 g / cm^3
# Si number density = 17.775422 Si / 1000 Ang^3
#
#
#
# Elastic Constant Matrix: (Units=GPa)
#
#
# Indices 1 2 3 4 5 6 
#
# 1 70.5275 48.9679 31.3516 -2.9963 15.5197 -16.7610
# 2 48.9679 124.7439 66.1146 -0.1671 20.8392 -11.3992
# 3 31.3516 66.1146 97.9341 21.4267 11.1838 -16.4026
# 4 -2.9963 -0.1671 21.4267 34.5003 2.9521 7.5320
# 5 15.5197 20.8392 11.1838 2.9521 22.2395 -5.2637
# 6 -16.7610 -11.3992 -16.4026 7.5320 -5.2637 30.8015
#
#
#
# Elastic Compliance Matrix: (Units=1/GPa)
#
#
# Indices 1 2 3 4 5 6 
#
# 1 0.022654 -0.006226 -0.001268 0.001731 -0.007769 0.007597
# 2 -0.006226 0.017891 -0.012347 0.009586 -0.009201 -0.007259
# 3 -0.001268 -0.012347 0.024708 -0.018957 0.005745 0.013515
# 4 0.001731 0.009586 -0.018957 0.046013 -0.011209 -0.018772
# 5 -0.007769 -0.009201 0.005745 -0.011209 0.059583 0.008350
# 6 0.007597 -0.007259 0.013515 -0.018772 0.008350 0.047128
#
#
# Mechanical properties :
#
#
# Convention : Reuss Voigt Hill
#
# Bulk Modulus (GPa) = 39.10926 65.11927 52.11427
# Shear Modulus (GPa) = 18.78397 27.29302 23.03850
#
# Velocity S-wave (km/s) = 3.25428 3.92271 3.60403
# Velocity P-wave (km/s) = 6.01416 7.56511 6.83378
#
# Compressibility (1/GPa) = 0.02556939
#
# Stress axis : x y z
#
# Youngs Moduli (GPa) = 44.14210 55.89275 40.47329
#
# Poissons Ratio (x) = 0.34801 0.05132
# Poissons Ratio (y) = 0.27485 0.49974
# Poissons Ratio (z) = 0.05597 0.69014
#
# Static dielectric constant tensor:
#      x y z
#    x 5.266690 -1.807350 1.595560 
#    y -1.807350 5.257810 -1.400370 
#    z 1.595560 -1.400370 4.725320 
# 
# 
# High freq. dielectric constant tensor:
#      x y z
#    x 1.675490 0.013700 -0.006800 
#    y 0.013700 1.698240 0.001840 
#    z -0.006800 0.001840 1.690990 
# 
# From -- ./inp_files/284687.got.cif
#   From: 2010.06.25/outbox.cif.g09.slc.cpg/sg2_143_cif.got.tgz:284687.got - 2010.06.27 13:26:56.
