data_PCOD8041535
_publ_section_title
;
Structure prediction by ZEFSAII (Michael W. Deem and Ramdas Pophale) SiO2 
 PCOD8041535
Probable space group: P -1
;
_chemical_formula_sum "Si O2"
_cell_formula_units_Z 16
_cell_length_a 20.392794
_cell_length_b 8.985834
_cell_length_c 12.061352
_cell_angle_alpha 104.437524
_cell_angle_beta 42.996910
_cell_angle_gamma 138.741396
_cell_volume 739.528569
_symmetry_space_group_name_H-M "P -1"
_symmetry_group_IT_number 2
_symmetry_cell_setting 'triclinic'
loop_
_space_group_symop_operation_xyz
x,y,z
-x,-y,-z
loop_
_atom_site_type_symbol
_atom_site_label
_atom_site_fract_x
_atom_site_fract_y
_atom_site_fract_z
Si Si1 0.308618 0.218442 0.752867
Si Si2 0.187888 0.042883 0.481211
Si Si3 0.085360 0.600256 0.637424
Si Si4 0.095551 0.095288 0.162597
Si Si5 0.951927 0.572039 0.994588
Si Si6 0.198617 0.026548 0.210563
Si Si7 0.747740 0.396402 0.407027
Si Si8 0.478392 0.287585 0.750365
O O1 0.500000 0.500000 0.500000
O O2 0.335412 0.120428 0.793592
O O3 0.135716 0.939060 0.832446
O O4 0.250812 0.293372 0.907917
O O5 0.188585 0.865026 0.479999
O O6 0.982606 0.838817 0.721212
O O7 0.237891 0.127495 0.306017
O O8 0.347810 0.352931 0.410008
O O9 0.923235 0.468676 0.886001
O O10 0.240752 0.741820 0.556962
O O11 0.991148 0.339314 0.630029
O O12 0.185073 0.166168 0.182783
O O13 0.927824 0.745171 0.282635
O O14 0.000000 0.500000 0.000000
O O15 0.767090 0.394605 0.248742
O O16 0.373296 0.166078 0.974556
O O17 0.552076 0.214272 0.638974
#
# Coordination Sequence:
#
# PCOD8041535 Si02
#       8
#     2   2   2   2   2   2   2   2
#     4  10  19  33  53  81 108 128 162 220 262 294
#     4  11  20  34  56  79 101 135 176 218 255 293
#     4  10  20  35  53  77 104 134 176 215 249 303
#     4   8  18  34  54  76 102 137 175 203 251 320
#     4   9  17  34  54  71 101 143 168 196 253 316
#     4  10  20  37  54  74 104 139 174 214 254 300
#     4   8  17  34  54  74 104 140 169 201 255 320
#     4  10  20  35  54  78 104 136 173 209 257 314
#
# _framework density 21.635404999999999
#
# number of rings (size 3 to 8) (size 9 to 14) (size 15 to 20)
#    0.000    2.500    0.000    4.125    0.000    1.000 
#    0.000   15.000    0.000    0.000    0.000    0.000 
#    0.000    0.000    0.000    0.000    0.000    0.000 
#
# Total GULP energy -198305.072572 kJ/mol
# GULP energy per Si atom -12394.067036 kJ/mol
# Density = 2.158616 g / cm^3
# Si number density = 21.635405 Si / 1000 Ang^3
#
#
#
# Elastic Constant Matrix: (Units=GPa)
#
#
# Indices 1 2 3 4 5 6 
#
# 1 54.7943 11.6528 18.1839 8.7506 -5.8538 -8.8297
# 2 11.6528 43.4072 -2.3029 5.6329 -1.1882 -5.3290
# 3 18.1839 -2.3029 104.8800 21.8711 -12.7476 -10.6247
# 4 8.7506 5.6329 21.8711 27.3651 -5.4033 4.3951
# 5 -5.8538 -1.1882 -12.7476 -5.4033 33.2703 4.5659
# 6 -8.8297 -5.3290 -10.6247 4.3951 4.5659 28.6882
#
#
#
# Elastic Compliance Matrix: (Units=1/GPa)
#
#
# Indices 1 2 3 4 5 6 
#
# 1 0.021763 -0.004582 -0.002110 -0.004981 0.001276 0.005626
# 2 -0.004582 0.026206 0.003550 -0.007865 -0.000621 0.006076
# 3 -0.002110 0.003550 0.013210 -0.011200 0.002136 0.006278
# 4 -0.004981 -0.007865 -0.011200 0.052309 0.005241 -0.015990
# 5 0.001276 -0.000621 0.002136 0.005241 0.032605 -0.004924
# 6 0.005626 0.006076 0.006278 -0.015990 -0.004924 0.043276
#
#
# Mechanical properties :
#
#
# Convention : Reuss Voigt Hill
#
# Bulk Modulus (GPa) = 18.21713 28.68323 23.45018
# Shear Modulus (GPa) = 23.36980 29.56791 26.46886
#
# Velocity S-wave (km/s) = 3.29015 3.70083 3.50151
# Velocity P-wave (km/s) = 4.78245 5.61674 5.21630
#
# Compressibility (1/GPa) = 0.05489339
#
# Stress axis : x y z
#
# Youngs Moduli (GPa) = 45.94918 38.15970 75.70154
#
# Poissons Ratio (x) = 0.17486 0.15974
# Poissons Ratio (y) = 0.21056 -0.26874
# Poissons Ratio (z) = 0.09696 -0.13547
#
# Static dielectric constant tensor:
#      x y z
#    x 3.797710 0.064100 -0.070050 
#    y 0.064100 3.861970 0.408900 
#    z -0.070050 0.408900 4.240850 
# 
# 
# High freq. dielectric constant tensor:
#      x y z
#    x 1.829080 0.002090 0.000660 
#    y 0.002090 1.831580 0.017770 
#    z 0.000660 0.017770 1.846360 
# 
# From -- ./inp_files/203574.got.cif
#   From: 2010.06.25/outbox.cif.g09.slc.cpg/sg2_102_cif.got.tgz:203574.got - 2010.06.27 13:26:56.
