data_PCOD8041526
_publ_section_title
;
Structure prediction by ZEFSAII (Michael W. Deem and Ramdas Pophale) SiO2 
 PCOD8041526
Probable space group: P -1
;
_chemical_formula_sum "Si O2"
_cell_formula_units_Z 16
_cell_length_a 23.962747
_cell_length_b 11.700838
_cell_length_c 12.130485
_cell_angle_alpha 123.346042
_cell_angle_beta 27.751397
_cell_angle_gamma 141.035814
_cell_volume 877.610039
_symmetry_space_group_name_H-M "P -1"
_symmetry_group_IT_number 2
_symmetry_cell_setting 'triclinic'
loop_
_space_group_symop_operation_xyz
x,y,z
-x,-y,-z
loop_
_atom_site_type_symbol
_atom_site_label
_atom_site_fract_x
_atom_site_fract_y
_atom_site_fract_z
Si Si1 0.556855 0.752478 0.502922
Si Si2 0.419365 0.530493 0.298783
Si Si3 0.764124 0.805587 0.716639
Si Si4 0.748564 0.427548 0.219881
Si Si5 0.598004 0.524244 0.174495
Si Si6 0.887997 0.227936 0.140523
Si Si7 0.022957 0.620260 0.166226
Si Si8 0.079823 0.253463 0.409286
O O1 0.362894 0.630217 0.725384
O O2 0.644449 0.698869 0.257624
O O3 0.518761 0.681413 0.658286
O O4 0.701956 0.998316 0.378514
O O5 0.246689 0.317144 0.425779
O O6 0.371299 0.630985 0.496158
O O7 0.481861 0.467484 0.241813
O O8 0.566282 0.693604 0.035061
O O9 0.841807 0.806400 0.691800
O O10 0.885607 0.037692 0.588335
O O11 0.792349 0.302709 0.080447
O O12 0.942002 0.674830 0.027052
O O13 0.782726 0.605156 0.857578
O O14 0.871602 0.379798 0.264281
O O15 0.930046 0.237199 0.941634
O O16 0.942875 0.631092 0.416341
#
# Coordination Sequence:
#
# PCOD8041526 Si02
#       8
#     2   2   2   2   2   2   2   2
#     4  10  20  39  56  79 106 143 186 214 270 304
#     4   9  17  34  49  80 109 131 183 214 266 325
#     4   9  19  29  53  79 107 143 162 223 278 315
#     4   9  19  34  55  79 108 137 179 223 251 322
#     4   9  21  36  54  78 108 139 178 228 252 325
#     4   9  20  36  56  79 110 143 169 225 265 311
#     4   9  20  35  51  86 107 136 180 218 265 327
#     4  10  19  33  53  77 112 137 173 217 276 310
#
# _framework density 18.231331999999998
#
# number of rings (size 3 to 8) (size 9 to 14) (size 15 to 20)
#    0.750    2.000    0.000    0.750    8.750    0.500 
#    2.250    3.125    0.000    0.000    0.000    0.000 
#    0.000    0.000    0.000    0.000    0.000    0.000 
#
# Total GULP energy -198235.408280 kJ/mol
# GULP energy per Si atom -12389.713018 kJ/mol
# Density = 1.818984 g / cm^3
# Si number density = 18.231332 Si / 1000 Ang^3
#
#
#
# Elastic Constant Matrix: (Units=GPa)
#
#
# Indices 1 2 3 4 5 6 
#
# 1 58.8780 17.0597 40.3812 -16.8782 1.6889 1.1348
# 2 17.0597 75.6895 53.1560 -13.6279 9.0709 0.1675
# 3 40.3812 53.1560 111.2358 -0.9597 9.9797 -0.6991
# 4 -16.8782 -13.6279 -0.9597 34.9479 -0.0711 -0.3309
# 5 1.6889 9.0709 9.9797 -0.0711 27.4939 -2.2133
# 6 1.1348 0.1675 -0.6991 -0.3309 -2.2133 20.5281
#
#
#
# Elastic Compliance Matrix: (Units=1/GPa)
#
#
# Indices 1 2 3 4 5 6 
#
# 1 0.028821 0.005295 -0.012967 0.015614 0.001092 -0.001709
# 2 0.005295 0.023394 -0.012697 0.011313 -0.003495 -0.001110
# 3 -0.012967 -0.012697 0.019874 -0.010662 -0.002168 0.001092
# 4 0.015614 0.011313 -0.010662 0.040265 -0.000778 -0.000753
# 5 0.001092 -0.003495 -0.002168 -0.000778 0.038568 0.004040
# 6 -0.001709 -0.001110 0.001092 -0.000753 0.004040 0.049278
#
#
# Mechanical properties :
#
#
# Convention : Reuss Voigt Hill
#
# Bulk Modulus (GPa) = 31.89758 51.88855 41.89306
# Shear Modulus (GPa) = 19.88959 25.60773 22.74866
#
# Velocity S-wave (km/s) = 3.30655 3.75187 3.53622
# Velocity P-wave (km/s) = 5.66672 6.87689 6.30092
#
# Compressibility (1/GPa) = 0.03135035
#
# Stress axis : x y z
#
# Youngs Moduli (GPa) = 34.69701 42.74643 50.31681
#
# Poissons Ratio (x) = -0.22633 0.65245
# Poissons Ratio (y) = -0.18371 0.63888
# Poissons Ratio (z) = 0.44991 0.54275
#
# Static dielectric constant tensor:
#      x y z
#    x 3.186250 0.151760 -0.079870 
#    y 0.151760 3.127200 -0.039870 
#    z -0.079870 -0.039870 3.467110 
# 
# 
# High freq. dielectric constant tensor:
#      x y z
#    x 1.681730 0.018950 -0.005470 
#    y 0.018950 1.685500 0.004670 
#    z -0.005470 0.004670 1.705900 
# 
# From -- ./inp_files/352643.got.cif
#   From: 2010.06.25/outbox.cif.g09.slc.cpg/sg2_177_cif.got.tgz:352643.got - 2010.06.27 13:26:56.
