data_PCOD8041040
_publ_section_title
;
Structure prediction by ZEFSAII (Michael W. Deem and Ramdas Pophale) SiO2 
 PCOD8041040
Probable space group: P -1
;
_chemical_formula_sum "Si O2"
_cell_formula_units_Z 14
_cell_length_a 22.844960
_cell_length_b 5.237929
_cell_length_c 12.789118
_cell_angle_alpha 89.935070
_cell_angle_beta 146.351307
_cell_angle_gamma 78.474430
_cell_volume 790.356272
_symmetry_space_group_name_H-M "P -1"
_symmetry_group_IT_number 2
_symmetry_cell_setting 'triclinic'
loop_
_space_group_symop_operation_xyz
x,y,z
-x,-y,-z
loop_
_atom_site_type_symbol
_atom_site_label
_atom_site_fract_x
_atom_site_fract_y
_atom_site_fract_z
Si Si1 0.801418 0.434356 0.827488
Si Si2 0.107502 0.447921 0.231611
Si Si3 0.198292 0.318596 0.955960
Si Si4 0.539981 0.957800 0.679280
Si Si5 0.557906 0.456279 0.472853
Si Si6 0.935773 0.075255 0.296494
Si Si7 0.961206 0.979784 0.765699
O O1 0.790037 0.585772 0.697726
O O2 0.693546 0.347439 0.686413
O O3 0.809311 0.639797 0.930100
O O4 0.913707 0.158426 0.996128
O O5 0.123055 0.176441 0.323039
O O6 0.092400 0.702699 0.284783
O O7 0.000000 0.500000 0.000000
O O8 0.129518 0.129044 0.822907
O O9 0.150701 0.611690 0.827584
O O10 0.326152 0.170397 0.108867
O O11 0.480705 0.764539 0.645835
O O12 0.500000 0.000000 0.500000
O O13 0.490400 0.254761 0.661013
O O14 0.500000 0.500000 0.500000
O O15 0.000000 0.000000 0.500000
O O16 0.028331 0.043852 0.343825
#
# Coordination Sequence:
#
# PCOD8041040 Si02
#       7
#     2   2   2   2   2   2   2
#     4  10  19  30  51  72 106 146 162 192 250 311
#     4  10  19  32  45  72  99 134 174 195 236 312
#     4  11  21  33  52  74 105 143 162 203 267 293
#     4  10  19  30  45  70 108 135 161 195 242 314
#     4  10  19  29  43  70 106 138 164 193 234 296
#     4  11  23  37  54  73  97 132 183 221 257 296
#     4  10  21  33  48  69  99 133 169 214 244 291
#
# _framework density 17.713529000000001
#
# number of rings (size 3 to 8) (size 9 to 14) (size 15 to 20)
#    0.000    1.714    2.857    5.571    6.000    4.571 
#    0.000    0.000    0.000    0.000    0.000    0.000 
#    0.000   22.857    0.000    0.000    0.000    0.000 
#
# Total GULP energy -173517.633842 kJ/mol
# GULP energy per Si atom -12394.116703 kJ/mol
# Density = 1.767321 g / cm^3
# Si number density = 17.713529 Si / 1000 Ang^3
#
#
#
# Elastic Constant Matrix: (Units=GPa)
#
#
# Indices 1 2 3 4 5 6 
#
# 1 87.5837 27.6183 45.5229 9.2207 3.2875 16.6032
# 2 27.6183 148.0057 34.4511 4.6876 1.9477 23.2351
# 3 45.5229 34.4511 63.0683 3.8344 -0.2575 5.3704
# 4 9.2207 4.6876 3.8344 22.0060 3.7767 10.3644
# 5 3.2875 1.9477 -0.2575 3.7767 25.0408 1.6672
# 6 16.6032 23.2351 5.3704 10.3644 1.6672 20.8420
#
#
#
# Elastic Compliance Matrix: (Units=1/GPa)
#
#
# Indices 1 2 3 4 5 6 
#
# 1 0.021932 0.002079 -0.015670 0.001075 -0.002292 -0.016103
# 2 0.002079 0.009668 -0.005944 0.004385 -0.000881 -0.013012
# 3 -0.015670 -0.005944 0.029536 -0.004010 0.002543 0.013289
# 4 0.001075 0.004385 -0.004010 0.062677 -0.007628 -0.035270
# 5 -0.002292 -0.000881 0.002543 -0.007628 0.041305 0.002642
# 6 -0.016103 -0.013012 0.013289 -0.035270 0.002642 0.089218
#
#
# Mechanical properties :
#
#
# Convention : Reuss Voigt Hill
#
# Bulk Modulus (GPa) = 45.31806 57.09360 51.20583
# Shear Modulus (GPa) = 16.62453 26.31546 21.46999
#
# Velocity S-wave (km/s) = 3.06685 3.85855 3.48525
# Velocity P-wave (km/s) = 6.17901 7.22169 6.72060
#
# Compressibility (1/GPa) = 0.02206626
#
# Stress axis : x y z
#
# Youngs Moduli (GPa) = 45.59492 103.43894 33.85730
#
# Poissons Ratio (x) = -0.21504 0.53054
# Poissons Ratio (y) = -0.09479 0.20124
# Poissons Ratio (z) = 0.71447 0.61480
#
# Static dielectric constant tensor:
#      x y z
#    x 8.120170 3.740310 -2.049400 
#    y 3.740310 8.108600 -1.380350 
#    z -2.049400 -1.380350 4.059040 
# 
# 
# High freq. dielectric constant tensor:
#      x y z
#    x 1.670360 0.016960 0.025600 
#    y 0.016960 1.713350 0.001120 
#    z 0.025600 0.001120 1.623490 
# 
# From -- ./inp_files/473194.got.cif
#   From: 2010.06.25/outbox.cif.g09.slc.cpg/sg2_237_cif.got.tgz:473194.got - 2010.06.27 13:26:56.
