data_PCOD8041471
_publ_section_title
;
Structure prediction by ZEFSAII (Michael W. Deem and Ramdas Pophale) SiO2 
 PCOD8041471
Probable space group: P -1
;
_chemical_formula_sum "Si O2"
_cell_formula_units_Z 12
_cell_length_a 21.763753
_cell_length_b 10.009953
_cell_length_c 9.942028
_cell_angle_alpha 30.158588
_cell_angle_beta 35.659360
_cell_angle_gamma 38.210934
_cell_volume 608.200924
_symmetry_space_group_name_H-M "P -1"
_symmetry_group_IT_number 2
_symmetry_cell_setting 'triclinic'
loop_
_space_group_symop_operation_xyz
x,y,z
-x,-y,-z
loop_
_atom_site_type_symbol
_atom_site_label
_atom_site_fract_x
_atom_site_fract_y
_atom_site_fract_z
Si Si1 0.719789 0.746506 0.624398
Si Si2 0.102564 0.892434 0.741832
Si Si3 0.701446 0.498282 0.372677
Si Si4 0.860489 0.156612 0.973714
Si Si5 0.572659 0.707390 0.676722
Si Si6 0.302802 0.065318 0.212534
O O1 0.622665 0.741413 0.701623
O O2 0.659206 0.852853 0.781149
O O3 0.783385 0.956028 0.271616
O O4 0.804193 0.442652 0.750705
O O5 0.168782 0.125657 0.406135
O O6 0.165320 0.630313 0.764020
O O7 0.114940 0.782645 0.969101
O O8 0.976454 0.015040 0.816175
O O9 0.671442 0.584254 0.503749
O O10 0.644580 0.262727 0.627968
O O11 0.659189 0.762368 0.121117
O O12 0.500000 0.000000 0.500000
O O13 0.500000 0.500000 0.000000
#
# Coordination Sequence:
#
# PCOD8041471 Si02
#       6
#     2   2   2   2   2   2
#     4  11  21  39  59  90 119 152 198 248 279 342
#     4   8  19  31  62  91 127 153 186 220 298 345
#     4  10  20  39  60  87 118 156 190 242 288 348
#     4  10  19  32  62  94 124 153 188 229 287 351
#     4  12  27  46  63  79 113 162 201 246 313 348
#     4   9  18  35  62  86 122 147 190 237 285 334
#
# _framework density 19.730322999999999
#
# number of rings (size 3 to 8) (size 9 to 14) (size 15 to 20)
#    1.000    1.000    1.667    2.000    2.333    2.000 
#    0.000    6.667    0.000    0.000    0.000    0.000 
#    0.000    0.000    0.000    0.000    0.000    0.000 
#
# Total GULP energy -148732.232958 kJ/mol
# GULP energy per Si atom -12394.352746 kJ/mol
# Density = 1.968542 g / cm^3
# Si number density = 19.730323 Si / 1000 Ang^3
#
#
#
# Elastic Constant Matrix: (Units=GPa)
#
#
# Indices 1 2 3 4 5 6 
#
# 1 74.3932 3.3014 17.0591 -5.3068 -0.2786 2.3800
# 2 3.3014 70.2269 16.4898 -8.1126 8.1886 5.1407
# 3 17.0591 16.4898 92.8578 -20.3771 5.0074 10.6493
# 4 -5.3068 -8.1126 -20.3771 35.4191 1.1137 7.6266
# 5 -0.2786 8.1886 5.0074 1.1137 24.7336 -0.6724
# 6 2.3800 5.1407 10.6493 7.6266 -0.6724 25.4926
#
#
#
# Elastic Compliance Matrix: (Units=1/GPa)
#
#
# Indices 1 2 3 4 5 6 
#
# 1 0.014065 -0.000039 -0.002361 0.000841 0.000596 -0.000555
# 2 -0.000039 0.015896 -0.001192 0.003986 -0.005311 -0.004037
# 3 -0.002361 -0.001192 0.014755 0.009847 -0.003300 -0.008736
# 4 0.000841 0.003986 0.009847 0.038711 -0.005501 -0.016722
# 5 0.000596 -0.005311 -0.003300 -0.005501 0.043253 0.005181
# 6 -0.000555 -0.004037 -0.008736 -0.016722 0.005181 0.048882
#
#
# Mechanical properties :
#
#
# Convention : Reuss Voigt Hill
#
# Bulk Modulus (GPa) = 26.64254 34.57539 30.60896
# Shear Modulus (GPa) = 25.60731 30.50424 28.05577
#
# Velocity S-wave (km/s) = 3.60650 3.93626 3.77498
# Velocity P-wave (km/s) = 5.55654 6.18230 5.87775
#
# Compressibility (1/GPa) = 0.03753396
#
# Stress axis : x y z
#
# Youngs Moduli (GPa) = 71.09752 62.90713 67.77224
#
# Poissons Ratio (x) = 0.00243 0.16002
# Poissons Ratio (y) = 0.00274 0.08077
# Poissons Ratio (z) = 0.16787 0.07497
#
# Static dielectric constant tensor:
#      x y z
#    x 3.280000 0.119600 0.012810 
#    y 0.119600 3.604590 -0.021720 
#    z 0.012810 -0.021720 3.612090 
# 
# 
# High freq. dielectric constant tensor:
#      x y z
#    x 1.730320 0.008920 0.003350 
#    y 0.008920 1.769380 -0.006900 
#    z 0.003350 -0.006900 1.779950 
# 
# From -- ./inp_files/60930.got.cif
#   From: 2010.06.25/outbox.cif.g09.slc.cpg/sg2_31_cif.got.tgz:60930.got - 2010.06.27 13:26:56.
