data_PCOD8041266
_publ_section_title
;
Structure prediction by ZEFSAII (Michael W. Deem and Ramdas Pophale) SiO2 
 PCOD8041266
Probable space group: P -1
;
_chemical_formula_sum "Si O2"
_cell_formula_units_Z 14
_cell_length_a 11.595584
_cell_length_b 17.215639
_cell_length_c 14.388065
_cell_angle_alpha 164.260184
_cell_angle_beta 77.750497
_cell_angle_gamma 101.558886
_cell_volume 761.327462
_symmetry_space_group_name_H-M "P -1"
_symmetry_group_IT_number 2
_symmetry_cell_setting 'triclinic'
loop_
_space_group_symop_operation_xyz
x,y,z
-x,-y,-z
loop_
_atom_site_type_symbol
_atom_site_label
_atom_site_fract_x
_atom_site_fract_y
_atom_site_fract_z
Si Si1 0.030107 0.910715 0.788824
Si Si2 0.639164 0.476735 0.142529
Si Si3 0.612111 0.849730 0.404924
Si Si4 0.595721 0.760429 0.098442
Si Si5 0.861079 0.703036 0.433896
Si Si6 0.022236 0.912628 0.290408
Si Si7 0.852666 0.706107 0.934671
O O1 0.110231 0.625161 0.444322
O O2 0.905723 0.875348 0.714588
O O3 0.099933 0.167245 0.024066
O O4 0.000000 0.000000 0.000000
O O5 0.657992 0.616213 0.199724
O O6 0.718861 0.656378 0.408259
O O7 0.499664 0.477892 0.195010
O O8 0.685486 0.145769 0.744601
O O9 0.632022 0.703261 0.133092
O O10 0.471814 0.928583 0.535230
O O11 0.711106 0.739396 0.991290
O O12 0.894883 0.859248 0.512122
O O13 0.918606 0.394109 0.071347
O O14 0.000000 0.000000 0.500000
O O15 0.900899 0.889149 0.224655
#
# Coordination Sequence:
#
# PCOD8041266 Si02
#       7
#     2   2   2   2   2   2   2
#     4  10  22  42  59  78 100 137 185 238 282 313
#     4  10  19  32  50  75 106 145 177 209 245 312
#     4   9  20  31  48  77 110 158 172 199 245 317
#     4   9  21  32  51  79 112 140 188 199 262 303
#     4  10  21  35  54  77 102 141 187 207 270 324
#     4  10  21  34  47  79 111 144 168 218 260 315
#     4  10  22  34  59  82 106 138 182 224 267 325
#
# _framework density 18.388933000000002
#
# number of rings (size 3 to 8) (size 9 to 14) (size 15 to 20)
#    0.857    1.429    0.000    2.143    6.000    0.000 
#    0.000    0.000    0.000    1.714    0.000    0.000 
#    0.000    0.000    0.000    0.000    0.000    0.000 
#
# Total GULP energy -173465.867617 kJ/mol
# GULP energy per Si atom -12390.419115 kJ/mol
# Density = 1.834708 g / cm^3
# Si number density = 18.388933 Si / 1000 Ang^3
#
#
#
# Elastic Constant Matrix: (Units=GPa)
#
#
# Indices 1 2 3 4 5 6 
#
# 1 116.1295 39.4757 19.3183 -8.7554 31.4129 18.0667
# 2 39.4757 109.7417 35.8121 1.9018 11.6768 -0.4882
# 3 19.3183 35.8121 52.7282 2.4663 12.0753 7.1687
# 4 -8.7554 1.9018 2.4663 42.6904 -2.7153 0.9873
# 5 31.4129 11.6768 12.0753 -2.7153 24.8139 3.4648
# 6 18.0667 -0.4882 7.1687 0.9873 3.4648 14.6359
#
#
#
# Elastic Compliance Matrix: (Units=1/GPa)
#
#
# Indices 1 2 3 4 5 6 
#
# 1 0.018970 -0.006392 0.004733 0.003127 -0.019975 -0.021430
# 2 -0.006392 0.014278 -0.009961 -0.001380 0.004351 0.012309
# 3 0.004733 -0.009961 0.029437 -0.000728 -0.013280 -0.017400
# 4 0.003127 -0.001380 -0.000728 0.024320 0.000446 -0.005295
# 5 -0.019975 0.004351 -0.013280 0.000446 0.067929 0.015196
# 6 -0.021430 0.012309 -0.017400 -0.005295 0.015196 0.100471
#
#
# Mechanical properties :
#
#
# Convention : Reuss Voigt Hill
#
# Bulk Modulus (GPa) = 25.35158 51.97906 38.66532
# Shear Modulus (GPa) = 17.13544 28.69426 22.91485
#
# Velocity S-wave (km/s) = 3.05591 3.95449 3.53387
# Velocity P-wave (km/s) = 5.12520 7.01274 6.14191
#
# Compressibility (1/GPa) = 0.03944528
#
# Stress axis : x y z
#
# Youngs Moduli (GPa) = 52.71608 70.03839 33.97074
#
# Poissons Ratio (x) = 0.44771 -0.16080
# Poissons Ratio (y) = 0.33698 0.33837
# Poissons Ratio (z) = -0.24953 0.69763
#
# Static dielectric constant tensor:
#      x y z
#    x 3.587060 -0.182840 0.366380 
#    y -0.182840 3.278970 0.270050 
#    z 0.366380 0.270050 3.284510 
# 
# 
# High freq. dielectric constant tensor:
#      x y z
#    x 1.713230 -0.013200 0.017970 
#    y -0.013200 1.702260 0.036860 
#    z 0.017970 0.036860 1.689250 
# 
# From -- ./inp_files/117674.got.cif
#   From: 2010.06.25/outbox.cif.g09.slc.cpg/sg2_59_cif.got.tgz:117674.got - 2010.06.27 13:26:56.
