data_PCOD8041037
_publ_section_title
;
Structure prediction by ZEFSAII (Michael W. Deem and Ramdas Pophale) SiO2 
 PCOD8041037
Probable space group: P -1
;
_chemical_formula_sum "Si O2"
_cell_formula_units_Z 16
_cell_length_a 27.441866
_cell_length_b 11.476574
_cell_length_c 25.368231
_cell_angle_alpha 34.783521
_cell_angle_beta 10.657273
_cell_angle_gamma 34.623667
_cell_volume 833.437789
_symmetry_space_group_name_H-M "P -1"
_symmetry_group_IT_number 2
_symmetry_cell_setting 'triclinic'
loop_
_space_group_symop_operation_xyz
x,y,z
-x,-y,-z
loop_
_atom_site_type_symbol
_atom_site_label
_atom_site_fract_x
_atom_site_fract_y
_atom_site_fract_z
Si Si1 0.330307 0.342074 0.860440
Si Si2 0.278091 0.389347 0.301356
Si Si3 0.452867 0.003286 0.325754
Si Si4 0.137739 0.492691 0.774748
Si Si5 0.844323 0.749277 0.627959
Si Si6 0.076464 0.163002 0.041519
Si Si7 0.017330 0.127028 0.353526
Si Si8 0.636109 0.159611 0.829277
O O1 0.434578 0.150377 0.783451
O O2 0.573103 0.468007 0.568564
O O3 0.221660 0.261314 0.060475
O O4 0.081462 0.492978 0.043745
O O5 0.159728 0.265969 0.425566
O O6 0.064095 0.571854 0.484759
O O7 0.403801 0.236290 0.270228
O O8 0.500000 0.500000 0.000000
O O9 0.168568 0.957856 0.666694
O O10 0.669586 0.986306 0.148766
O O11 0.029917 0.659337 0.870735
O O12 0.169743 0.265049 0.850989
O O13 0.583162 0.696014 0.956591
O O14 0.884450 0.989415 0.502943
O O15 0.799666 0.270269 0.569262
O O16 0.162842 0.951644 0.301060
O O17 0.500000 0.000000 0.000000
#
# Coordination Sequence:
#
# PCOD8041037 Si02
#       8
#     2   2   2   2   2   2   2   2
#     4  10  19  28  50  72 102 129 174 208 259 311
#     4  11  23  33  49  74 105 141 181 216 252 296
#     4  10  20  30  49  68  99 140 174 210 247 316
#     4   9  18  30  46  70  97 133 162 220 255 308
#     4  10  21  34  51  68 106 140 177 217 254 300
#     4   9  18  32  46  66  98 133 175 203 262 310
#     4  10  20  33  51  76 100 141 174 213 260 312
#     4   9  19  34  52  70 101 138 172 215 260 306
#
# _framework density 19.197593000000001
#
# number of rings (size 3 to 8) (size 9 to 14) (size 15 to 20)
#    0.000    2.250    0.000    3.000   12.250    3.000 
#    0.000    0.000    0.000    0.000    0.000    0.000 
#    0.000    6.000    0.000    0.000    0.000    0.000 
#
# Total GULP energy -198256.108538 kJ/mol
# GULP energy per Si atom -12391.006784 kJ/mol
# Density = 1.915390 g / cm^3
# Si number density = 19.197593 Si / 1000 Ang^3
#
#
#
# Elastic Constant Matrix: (Units=GPa)
#
#
# Indices 1 2 3 4 5 6 
#
# 1 43.6776 20.9677 34.2588 0.4313 4.0458 -20.8546
# 2 20.9677 65.5049 42.2771 2.5509 10.1689 -29.9743
# 3 34.2588 42.2771 166.1330 -1.5021 13.7533 -22.3192
# 4 0.4313 2.5509 -1.5021 31.8359 -6.1685 3.2894
# 5 4.0458 10.1689 13.7533 -6.1685 38.0749 2.1184
# 6 -20.8546 -29.9743 -22.3192 3.2894 2.1184 28.6621
#
#
#
# Elastic Compliance Matrix: (Units=1/GPa)
#
#
# Indices 1 2 3 4 5 6 
#
# 1 0.040635 0.007680 -0.005074 -0.006475 -0.007529 0.034946
# 2 0.007680 0.038786 -0.004357 -0.010752 -0.013847 0.045014
# 3 -0.005074 -0.004357 0.007983 0.000827 -0.000932 -0.002059
# 4 -0.006475 -0.010752 0.000827 0.036488 0.010300 -0.020260
# 5 -0.007529 -0.013847 -0.000932 0.010300 0.034125 -0.024390
# 6 0.034946 0.045014 -0.002059 -0.020260 -0.024390 0.109916
#
#
# Mechanical properties :
#
#
# Convention : Reuss Voigt Hill
#
# Bulk Modulus (GPa) = 11.91892 52.25807 32.08849
# Shear Modulus (GPa) = 16.69990 31.56871 24.13430
#
# Velocity S-wave (km/s) = 2.95260 4.05953 3.54948
# Velocity P-wave (km/s) = 4.22443 7.01807 5.79220
#
# Compressibility (1/GPa) = 0.08390025
#
# Stress axis : x y z
#
# Youngs Moduli (GPa) = 24.60926 25.78222 125.27370
#
# Poissons Ratio (x) = -0.19800 0.63567
# Poissons Ratio (y) = -0.18899 0.54586
# Poissons Ratio (z) = 0.12487 0.11234
#
# Static dielectric constant tensor:
#      x y z
#    x 3.566350 -0.098360 0.394630 
#    y -0.098360 3.193530 0.206920 
#    z 0.394630 0.206920 3.991950 
# 
# 
# High freq. dielectric constant tensor:
#      x y z
#    x 1.730260 -0.027500 -0.012760 
#    y -0.027500 1.694140 0.003670 
#    z -0.012760 0.003670 1.770720 
# 
# From -- ./inp_files/66818.got.cif
#   From: 2010.06.25/outbox.cif.g09.slc.cpg/sg2_34_cif.got.tgz:66818.got - 2010.06.27 13:26:56.
