data_PCOD8041379
_publ_section_title
;
Structure prediction by ZEFSAII (Michael W. Deem and Ramdas Pophale) SiO2 
 PCOD8041379
Probable space group: P -1
;
_chemical_formula_sum "Si O2"
_cell_formula_units_Z 14
_cell_length_a 8.910092
_cell_length_b 15.335118
_cell_length_c 12.465622
_cell_angle_alpha 151.875777
_cell_angle_beta 124.369677
_cell_angle_gamma 54.019729
_cell_volume 644.895335
_symmetry_space_group_name_H-M "P -1"
_symmetry_group_IT_number 2
_symmetry_cell_setting 'triclinic'
loop_
_space_group_symop_operation_xyz
x,y,z
-x,-y,-z
loop_
_atom_site_type_symbol
_atom_site_label
_atom_site_fract_x
_atom_site_fract_y
_atom_site_fract_z
Si Si1 0.943686 0.261820 0.540910
Si Si2 0.180117 0.983918 0.624982
Si Si3 0.962860 0.354594 0.018103
Si Si4 0.770574 0.510444 0.330985
Si Si5 0.660678 0.891013 0.370542
Si Si6 0.032271 0.781654 0.741452
Si Si7 0.596331 0.485437 0.909445
O O1 0.941530 0.478371 0.801489
O O2 0.145501 0.126751 0.506217
O O3 0.897630 0.231495 0.366401
O O4 0.783274 0.202831 0.486472
O O5 0.347641 0.993189 0.620040
O O6 0.000000 0.000000 0.500000
O O7 0.128354 0.166907 0.882681
O O8 0.873023 0.403213 0.151255
O O9 0.798534 0.337154 0.845575
O O10 0.844690 0.700427 0.590633
O O11 0.546022 0.579397 0.301125
O O12 0.808152 0.356883 0.275009
O O13 0.500000 0.000000 0.500000
O O14 0.629488 0.686981 0.105298
O O15 0.000000 0.000000 0.000000
O O16 0.500000 0.500000 0.000000
#
# Coordination Sequence:
#
# PCOD8041379 Si02
#       7
#     2   2   2   2   2   2   2
#     4   9  20  36  55  84 111 150 188 224 279 329
#     4  10  21  34  54  82 114 152 181 224 282 335
#     4   9  18  36  55  81 117 145 188 224 277 344
#     4   9  19  34  53  86 115 146 190 236 274 319
#     4  10  22  35  53  85 116 140 180 232 286 334
#     4  10  19  32  55  84 112 150 194 230 271 328
#     4   9  19  33  54  80 115 147 174 232 287 322
#
# _framework density 21.708950000000002
#
# number of rings (size 3 to 8) (size 9 to 14) (size 15 to 20)
#    0.000    2.571    0.000    1.714   10.000    5.143 
#    0.000    0.000    0.000    0.857    0.000   12.000 
#    0.000    0.000    0.000    0.000    0.000    0.000 
#
# Total GULP energy -173490.564694 kJ/mol
# GULP energy per Si atom -12392.183192 kJ/mol
# Density = 2.165954 g / cm^3
# Si number density = 21.708950 Si / 1000 Ang^3
#
#
#
# Elastic Constant Matrix: (Units=GPa)
#
#
# Indices 1 2 3 4 5 6 
#
# 1 99.8546 42.1818 30.8222 4.4575 7.2418 28.2027
# 2 42.1818 109.9766 39.3385 -6.9218 19.4976 28.1508
# 3 30.8222 39.3385 81.9896 -5.8447 12.1348 2.3826
# 4 4.4575 -6.9218 -5.8447 27.9729 0.5905 7.1397
# 5 7.2418 19.4976 12.1348 0.5905 26.7555 6.6767
# 6 28.2027 28.1508 2.3826 7.1397 6.6767 42.0824
#
#
#
# Elastic Compliance Matrix: (Units=1/GPa)
#
#
# Indices 1 2 3 4 5 6 
#
# 1 0.014607 -0.002419 -0.004513 -0.001895 0.001867 -0.007890
# 2 -0.002419 0.015362 -0.004891 0.005414 -0.006373 -0.008285
# 3 -0.004513 -0.004891 0.016829 0.001649 -0.004318 0.005749
# 4 -0.001895 0.005414 0.001649 0.040037 -0.002873 -0.008782
# 5 0.001867 -0.006373 -0.004318 -0.002873 0.044358 -0.003293
# 6 -0.007890 -0.008285 0.005749 -0.008782 -0.003293 0.036280
#
#
# Mechanical properties :
#
#
# Convention : Reuss Voigt Hill
#
# Bulk Modulus (GPa) = 43.19129 57.38953 50.29041
# Shear Modulus (GPa) = 25.14620 31.32739 28.23679
#
# Velocity S-wave (km/s) = 3.40712 3.80289 3.61043
# Velocity P-wave (km/s) = 5.95120 6.76579 6.37153
#
# Compressibility (1/GPa) = 0.02315281
#
# Stress axis : x y z
#
# Youngs Moduli (GPa) = 68.46011 65.09703 59.41951
#
# Poissons Ratio (x) = 0.15746 0.26814
# Poissons Ratio (y) = 0.16559 0.29063
# Poissons Ratio (z) = 0.30894 0.31840
#
# Static dielectric constant tensor:
#      x y z
#    x 4.363550 0.494720 0.350370 
#    y 0.494720 4.259730 0.246990 
#    z 0.350370 0.246990 4.243880 
# 
# 
# High freq. dielectric constant tensor:
#      x y z
#    x 1.839080 0.031350 0.006540 
#    y 0.031350 1.838210 0.017310 
#    z 0.006540 0.017310 1.856630 
# 
# From -- ./inp_files/396780.got.cif
#   From: 2010.06.25/outbox.cif.g09.slc.cpg/sg2_199_cif.got.tgz:396780.got - 2010.06.27 13:26:56.
