data_PCOD8041411
_publ_section_title
;
Structure prediction by ZEFSAII (Michael W. Deem and Ramdas Pophale) SiO2 
 PCOD8041411
Probable space group: P -1
;
_chemical_formula_sum "Si O2"
_cell_formula_units_Z 16
_cell_length_a 11.030745
_cell_length_b 15.253690
_cell_length_c 15.636467
_cell_angle_alpha 151.834010
_cell_angle_beta 44.580190
_cell_angle_gamma 116.054692
_cell_volume 716.509795
_symmetry_space_group_name_H-M "P -1"
_symmetry_group_IT_number 2
_symmetry_cell_setting 'triclinic'
loop_
_space_group_symop_operation_xyz
x,y,z
-x,-y,-z
loop_
_atom_site_type_symbol
_atom_site_label
_atom_site_fract_x
_atom_site_fract_y
_atom_site_fract_z
Si Si1 0.943563 0.844621 0.950434
Si Si2 0.253605 0.677531 0.276889
Si Si3 0.211520 0.298722 0.944553
Si Si4 0.482895 0.979779 0.772665
Si Si5 0.967293 0.874054 0.742749
Si Si6 0.516546 0.270621 0.284815
Si Si7 0.246401 0.368570 0.342196
Si Si8 0.677616 0.980148 0.511737
O O1 0.128754 0.637596 0.621519
O O2 0.940940 0.725688 0.937938
O O3 0.718491 0.986345 0.142001
O O4 0.006138 0.019892 0.092057
O O5 0.206212 0.890505 0.427457
O O6 0.173679 0.774204 0.495858
O O7 0.500000 0.500000 0.000000
O O8 0.138931 0.560134 0.200784
O O9 0.444909 0.149203 0.736616
O O10 0.194910 0.230266 0.797878
O O11 0.668022 0.897032 0.539653
O O12 0.558546 0.787842 0.641124
O O13 0.413420 0.222211 0.056616
O O14 0.936011 0.676828 0.610490
O O15 0.757377 0.073288 0.971759
O O16 0.500000 0.500000 0.500000
O O17 0.370539 0.281820 0.293769
#
# Coordination Sequence:
#
# PCOD8041411 Si02
#       8
#     2   2   2   2   2   2   2   2
#     4  11  20  37  63  99 129 156 204 268 316 362
#     4  10  19  32  56  92 123 163 205 240 319 377
#     4   9  17  32  55  86 126 166 189 242 312 380
#     4  10  23  39  61  95 132 158 207 270 310 370
#     4  11  21  37  66  92 124 168 209 258 302 380
#     4  11  24  46  65  86 121 179 217 250 313 380
#     4  11  23  43  64  88 125 172 212 251 317 383
#     4   9  18  34  54  86 128 156 198 247 310 368
#
# _framework density 22.330469999999998
#
# number of rings (size 3 to 8) (size 9 to 14) (size 15 to 20)
#    0.000    1.750    3.750    1.875    1.750    2.000 
#    4.500    0.000    0.000    6.000    0.000    0.000 
#    0.000    0.000    0.000    0.000    0.000    0.000 
#
# Total GULP energy -198349.643419 kJ/mol
# GULP energy per Si atom -12396.852714 kJ/mol
# Density = 2.227964 g / cm^3
# Si number density = 22.330470 Si / 1000 Ang^3
#
#
#
# Elastic Constant Matrix: (Units=GPa)
#
#
# Indices 1 2 3 4 5 6 
#
# 1 98.3575 32.9547 22.2047 6.2640 28.7356 -0.9888
# 2 32.9547 118.1741 43.5158 2.3586 32.6048 2.4772
# 3 22.2047 43.5158 99.8429 4.2905 35.8071 5.3396
# 4 6.2640 2.3586 4.2905 40.0334 3.5123 13.7802
# 5 28.7356 32.6048 35.8071 3.5123 35.9324 4.8912
# 6 -0.9888 2.4772 5.3396 13.7802 4.8912 26.4055
#
#
#
# Elastic Compliance Matrix: (Units=1/GPa)
#
#
# Indices 1 2 3 4 5 6 
#
# 1 0.013881 -0.001217 0.001604 -0.002553 -0.011869 0.003840
# 2 -0.001217 0.011663 -0.002133 0.000192 -0.007585 0.000596
# 3 0.001604 -0.002133 0.016119 -0.000551 -0.015375 0.000136
# 4 -0.002553 0.000192 -0.000551 0.030947 0.001631 -0.016455
# 5 -0.011869 -0.007585 -0.015375 0.001631 0.060549 -0.008691
# 6 0.003840 0.000596 0.000136 -0.016455 -0.008691 0.048128
#
#
# Mechanical properties :
#
#
# Convention : Reuss Voigt Hill
#
# Bulk Modulus (GPa) = 26.19693 57.08054 41.63873
# Shear Modulus (GPa) = 25.31622 34.98756 30.15189
#
# Velocity S-wave (km/s) = 3.37071 3.96259 3.67857
# Velocity P-wave (km/s) = 5.18709 6.82300 6.06050
#
# Compressibility (1/GPa) = 0.03817242
#
# Stress axis : x y z
#
# Youngs Moduli (GPa) = 72.04013 85.74124 62.03909
#
# Poissons Ratio (x) = 0.10431 -0.09951
# Poissons Ratio (y) = 0.08764 0.13231
# Poissons Ratio (z) = -0.11555 0.18286
#
# Static dielectric constant tensor:
#      x y z
#    x 3.899750 0.146430 0.452060 
#    y 0.146430 4.387460 -0.043940 
#    z 0.452060 -0.043940 4.208830 
# 
# 
# High freq. dielectric constant tensor:
#      x y z
#    x 1.855490 0.010300 0.031290 
#    y 0.010300 1.886230 0.001940 
#    z 0.031290 0.001940 1.880440 
# 
# From -- ./inp_files/455710.got.cif
#   From: 2010.06.25/outbox.cif.g09.slc.cpg/sg2_228_cif.got.tgz:455710.got - 2010.06.27 13:26:56.
