data_PCOD8041446
_publ_section_title
;
Structure prediction by ZEFSAII (Michael W. Deem and Ramdas Pophale) SiO2 
 PCOD8041446
Probable space group: P -1
;
_chemical_formula_sum "Si O2"
_cell_formula_units_Z 16
_cell_length_a 11.734275
_cell_length_b 10.033736
_cell_length_c 10.648396
_cell_angle_alpha 42.485708
_cell_angle_beta 76.038621
_cell_angle_gamma 86.916116
_cell_volume 806.891158
_symmetry_space_group_name_H-M "P -1"
_symmetry_group_IT_number 2
_symmetry_cell_setting 'triclinic'
loop_
_space_group_symop_operation_xyz
x,y,z
-x,-y,-z
loop_
_atom_site_type_symbol
_atom_site_label
_atom_site_fract_x
_atom_site_fract_y
_atom_site_fract_z
Si Si1 0.928425 0.232996 0.105211
Si Si2 0.113315 0.607234 0.724043
Si Si3 0.610738 0.776843 0.321519
Si Si4 0.700819 0.657700 0.631748
Si Si5 0.367955 0.549016 0.647000
Si Si6 0.956686 0.869177 0.481387
Si Si7 0.687835 0.221553 0.040436
Si Si8 0.532473 0.344791 0.195224
O O1 0.878929 0.278002 0.224543
O O2 0.965691 0.013373 0.256776
O O3 0.826060 0.236292 0.028340
O O4 0.047292 0.381031 0.927093
O O5 0.240765 0.614918 0.620066
O O6 0.040733 0.704008 0.568642
O O7 0.700715 0.707276 0.449191
O O8 0.471562 0.714879 0.441170
O O9 0.633286 0.668604 0.261452
O O10 0.642233 0.015363 0.120443
O O11 0.820250 0.750973 0.609722
O O12 0.672718 0.415148 0.827006
O O13 0.595710 0.767007 0.638922
O O14 0.389227 0.531998 0.801329
O O15 0.000000 0.000000 0.500000
O O16 0.608401 0.201555 0.203431
O O17 0.500000 0.500000 0.000000
#
# Coordination Sequence:
#
# PCOD8041446 Si02
#       8
#     2   2   2   2   2   2   2   2
#     4  10  19  32  58  88 118 148 193 243 297 344
#     4  10  20  36  57  85 122 153 188 245 297 345
#     4  10  23  40  62  84 122 159 196 242 288 359
#     4  10  20  37  56  87 124 152 199 242 296 347
#     4  10  21  42  60  86 121 160 193 239 302 348
#     4  10  20  32  54  88 117 153 192 242 290 344
#     4  11  19  36  62  89 115 154 195 246 300 339
#     4   9  20  34  61  92 115 146 194 251 290 347
#
# _framework density 19.829194000000001
#
# number of rings (size 3 to 8) (size 9 to 14) (size 15 to 20)
#    0.000    2.000    3.750    0.000    0.000    4.000 
#    0.000   15.000    0.000    0.000    0.000    0.000 
#    0.000    0.000    0.000    0.000    0.000    0.000 
#
# Total GULP energy -198284.130213 kJ/mol
# GULP energy per Si atom -12392.758138 kJ/mol
# Density = 1.978406 g / cm^3
# Si number density = 19.829194 Si / 1000 Ang^3
#
#
#
# Elastic Constant Matrix: (Units=GPa)
#
#
# Indices 1 2 3 4 5 6 
#
# 1 134.8262 34.6998 23.4162 -5.5637 -8.1193 -1.9976
# 2 34.6998 81.2065 25.1022 -11.5797 -11.9158 8.5032
# 3 23.4162 25.1022 69.7430 -26.1502 5.8951 -8.4794
# 4 -5.5637 -11.5797 -26.1502 28.4915 2.2605 -4.6617
# 5 -8.1193 -11.9158 5.8951 2.2605 21.3170 -5.9916
# 6 -1.9976 8.5032 -8.4794 -4.6617 -5.9916 22.4260
#
#
#
# Elastic Compliance Matrix: (Units=1/GPa)
#
#
# Indices 1 2 3 4 5 6 
#
# 1 0.008753 -0.002840 -0.002811 -0.002075 0.003077 0.001184
# 2 -0.002840 0.017952 -0.008522 -0.003201 0.009269 -0.008471
# 3 -0.002811 -0.008522 0.033064 0.030365 -0.013052 0.018307
# 4 -0.002075 -0.003201 0.030365 0.065961 -0.011462 0.023159
# 5 0.003077 0.009269 -0.013052 -0.011462 0.059597 0.005365
# 6 0.001184 -0.008471 0.018307 0.023159 0.005365 0.061078
#
#
# Mechanical properties :
#
#
# Convention : Reuss Voigt Hill
#
# Bulk Modulus (GPa) = 31.82194 50.24577 41.03386
# Shear Modulus (GPa) = 17.53006 27.95073 22.74040
#
# Velocity S-wave (km/s) = 2.97653 3.75850 3.39014
# Velocity P-wave (km/s) = 5.28165 6.65052 6.00522
#
# Compressibility (1/GPa) = 0.03142486
#
# Stress axis : x y z
#
# Youngs Moduli (GPa) = 114.24355 55.70260 30.24455
#
# Poissons Ratio (x) = 0.15819 0.08502
# Poissons Ratio (y) = 0.32443 0.25773
# Poissons Ratio (z) = 0.32113 0.47467
#
# Static dielectric constant tensor:
#      x y z
#    x 4.068680 -0.188650 -0.075870 
#    y -0.188650 3.681130 0.050930 
#    z -0.075870 0.050930 3.852050 
# 
# 
# High freq. dielectric constant tensor:
#      x y z
#    x 1.788760 0.008990 0.008510 
#    y 0.008990 1.745860 -0.017340 
#    z 0.008510 -0.017340 1.759140 
# 
# From -- ./inp_files/242038.got.cif
#   From: 2010.06.25/outbox.cif.g09.slc.cpg/sg2_122_cif.got.tgz:242038.got - 2010.06.27 13:26:56.
