data_PCOD8041331
_publ_section_title
;
Structure prediction by ZEFSAII (Michael W. Deem and Ramdas Pophale) SiO2 
 PCOD8041331
Probable space group: P -1
;
_chemical_formula_sum "Si O2"
_cell_formula_units_Z 16
_cell_length_a 8.852802
_cell_length_b 12.460610
_cell_length_c 11.445430
_cell_angle_alpha 86.167391
_cell_angle_beta 65.458271
_cell_angle_gamma 53.387215
_cell_volume 893.148858
_symmetry_space_group_name_H-M "P -1"
_symmetry_group_IT_number 2
_symmetry_cell_setting 'triclinic'
loop_
_space_group_symop_operation_xyz
x,y,z
-x,-y,-z
loop_
_atom_site_type_symbol
_atom_site_label
_atom_site_fract_x
_atom_site_fract_y
_atom_site_fract_z
Si Si1 0.454068 0.354897 0.556883
Si Si2 0.569112 0.192737 0.315940
Si Si3 0.648621 0.926514 0.301630
Si Si4 0.273466 0.474549 0.990587
Si Si5 0.749256 0.399497 0.567799
Si Si6 0.222051 0.325200 0.827965
Si Si7 0.223777 0.182042 0.484602
Si Si8 0.502694 0.408050 0.160336
O O1 0.615648 0.230404 0.423148
O O2 0.601039 0.356334 0.602372
O O3 0.294518 0.499976 0.530160
O O4 0.307393 0.332310 0.675930
O O5 0.319075 0.258295 0.404281
O O6 0.611773 0.259026 0.193381
O O7 0.711149 0.027885 0.257920
O O8 0.705562 0.830160 0.177118
O O9 0.787389 0.822327 0.371369
O O10 0.392737 0.020914 0.400606
O O11 0.425397 0.403445 0.058454
O O12 0.030862 0.566771 0.100052
O O13 0.322039 0.353517 0.899565
O O14 0.322038 0.567987 0.903731
O O15 0.695963 0.474092 0.704759
O O16 0.992997 0.261655 0.496478
#
# Coordination Sequence:
#
# PCOD8041331 Si02
#       8
#     2   2   2   2   2   2   2   2
#     4  10  19  32  53  86 113 129 173 226 280 315
#     4   9  19  34  58  77 110 139 166 223 271 320
#     4   9  18  35  54  80 110 140 179 213 257 335
#     4  10  23  34  56  77 100 147 186 223 263 302
#     4  10  20  31  55  86 113 134 165 231 279 317
#     4  11  19  37  55  74 106 145 178 222 264 314
#     4   9  17  32  55  84 107 144 169 204 282 331
#     4  10  20  37  51  81 109 131 184 229 260 312
#
# _framework density 17.914147
#
# number of rings (size 3 to 8) (size 9 to 14) (size 15 to 20)
#    0.750    1.500    2.500    0.750    1.750    1.000 
#    0.000    3.750    0.000    0.000    0.000    0.000 
#    0.000    0.000    0.000    0.000    0.000    0.000 
#
# Total GULP energy -198254.946584 kJ/mol
# GULP energy per Si atom -12390.934162 kJ/mol
# Density = 1.787337 g / cm^3
# Si number density = 17.914147 Si / 1000 Ang^3
#
#
#
# Elastic Constant Matrix: (Units=GPa)
#
#
# Indices 1 2 3 4 5 6 
#
# 1 69.9203 38.9912 19.7576 4.4051 17.2654 5.7791
# 2 38.9912 93.4908 38.2146 5.9301 16.9919 22.3927
# 3 19.7576 38.2146 60.8951 -0.9049 19.2036 16.0150
# 4 4.4051 5.9301 -0.9049 29.4854 9.7352 0.7145
# 5 17.2654 16.9919 19.2036 9.7352 21.8816 4.0237
# 6 5.7791 22.3927 16.0150 0.7145 4.0237 26.7526
#
#
#
# Elastic Compliance Matrix: (Units=1/GPa)
#
#
# Indices 1 2 3 4 5 6 
#
# 1 0.021273 -0.007962 0.001782 0.003054 -0.014084 0.003039
# 2 -0.007962 0.019491 -0.007181 -0.002913 0.000642 -0.010314
# 3 0.001782 -0.007181 0.031395 0.011155 -0.026605 -0.009465
# 4 0.003054 -0.002913 0.011155 0.044082 -0.029241 -0.001679
# 5 -0.014084 0.000642 -0.026605 -0.029241 0.091675 0.005424
# 6 0.003039 -0.010314 -0.009465 -0.001679 0.005424 0.050251
#
#
# Mechanical properties :
#
#
# Convention : Reuss Voigt Hill
#
# Bulk Modulus (GPa) = 22.00920 46.47032 34.23976
# Shear Modulus (GPa) = 16.66474 24.11345 20.38909
#
# Velocity S-wave (km/s) = 3.05332 3.67284 3.37732
# Velocity P-wave (km/s) = 4.97423 6.63199 5.86201
#
# Compressibility (1/GPa) = 0.04543555
#
# Stress axis : x y z
#
# Youngs Moduli (GPa) = 47.00868 51.30598 31.85240
#
# Poissons Ratio (x) = 0.40852 -0.05677
# Poissons Ratio (y) = 0.37430 0.22874
# Poissons Ratio (z) = -0.08378 0.36844
#
# Static dielectric constant tensor:
#      x y z
#    x 3.191430 0.298280 0.122090 
#    y 0.298280 3.225220 0.023130 
#    z 0.122090 0.023130 3.232820 
# 
# 
# High freq. dielectric constant tensor:
#      x y z
#    x 1.681230 0.024440 0.010060 
#    y 0.024440 1.681200 -0.000630 
#    z 0.010060 -0.000630 1.683770 
# 
# From -- ./inp_files/387786.got.cif
#   From: 2010.06.25/outbox.cif.g09.slc.cpg/sg2_194_cif.got.tgz:387786.got - 2010.06.27 13:26:56.
