data_PCOD8041608
_publ_section_title
;
Structure prediction by ZEFSAII (Michael W. Deem and Ramdas Pophale) SiO2 
 PCOD8041608
Probable space group: P -1
;
_chemical_formula_sum "Si O2"
_cell_formula_units_Z 14
_cell_length_a 8.933082
_cell_length_b 14.019870
_cell_length_c 8.686158
_cell_angle_alpha 125.402655
_cell_angle_beta 112.635771
_cell_angle_gamma 53.359824
_cell_volume 710.224765
_symmetry_space_group_name_H-M "P -1"
_symmetry_group_IT_number 2
_symmetry_cell_setting 'triclinic'
loop_
_space_group_symop_operation_xyz
x,y,z
-x,-y,-z
loop_
_atom_site_type_symbol
_atom_site_label
_atom_site_fract_x
_atom_site_fract_y
_atom_site_fract_z
Si Si1 0.700795 0.469484 0.779470
Si Si2 0.039006 0.711761 0.033050
Si Si3 0.740520 0.653283 0.745730
Si Si4 0.279178 0.007488 0.768632
Si Si5 0.388688 0.720645 0.071965
Si Si6 0.447825 0.724545 0.448521
Si Si7 0.560044 0.097500 0.953047
O O1 0.777194 0.511733 0.700124
O O2 0.636128 0.364925 0.599044
O O3 0.868118 0.400929 0.904089
O O4 0.524479 0.594653 0.905150
O O5 0.927361 0.665543 0.829367
O O6 0.191617 0.725167 0.005715
O O7 0.910714 0.852906 0.204856
O O8 0.648947 0.678320 0.563361
O O9 0.598057 0.766188 0.908114
O O10 0.460797 0.013009 0.782148
O O11 0.290400 0.879667 0.566351
O O12 0.284337 0.987826 0.937697
O O13 0.480382 0.702584 0.259170
O O14 0.353024 0.862376 0.118042
#
# Coordination Sequence:
#
# PCOD8041608 Si02
#       7
#     2   2   2   2   2   2   2
#     4  10  20  36  53  74 104 141 171 202 255 307
#     4  10  19  33  55  78 104 132 169 215 251 301
#     4   9  18  34  57  77  97 134 179 211 244 295
#     4   9  18  33  54  78 100 132 174 208 250 300
#     4  10  21  35  53  75 105 139 167 206 262 301
#     4  10  19  33  55  78 104 132 169 215 251 301
#     4   8  17  35  54  73 103 138 168 204 255 314
#
# _framework density 19.712071000000002
#
# number of rings (size 3 to 8) (size 9 to 14) (size 15 to 20)
#    0.000    2.571    0.000    3.429    0.000    3.429 
#    0.000    2.857    0.000   34.286    0.000    0.000 
#    0.000    0.000    0.000    0.000    0.000    0.000 
#
# Total GULP energy -173550.975331 kJ/mol
# GULP energy per Si atom -12396.498238 kJ/mol
# Density = 1.966721 g / cm^3
# Si number density = 19.712071 Si / 1000 Ang^3
#
#
#
# Elastic Constant Matrix: (Units=GPa)
#
#
# Indices 1 2 3 4 5 6 
#
# 1 106.7001 47.5320 47.2971 -12.2595 16.0673 19.2633
# 2 47.5320 62.3847 11.5149 4.1904 14.2980 14.2181
# 3 47.2971 11.5149 81.6920 2.9384 28.2331 4.8771
# 4 -12.2595 4.1904 2.9384 36.5372 -4.0189 2.4124
# 5 16.0673 14.2980 28.2331 -4.0189 26.0918 -1.1750
# 6 19.2633 14.2181 4.8771 2.4124 -1.1750 37.9252
#
#
#
# Elastic Compliance Matrix: (Units=1/GPa)
#
#
# Indices 1 2 3 4 5 6 
#
# 1 0.027257 -0.021557 -0.019363 0.015420 0.018189 -0.003690
# 2 -0.021557 0.038447 0.018575 -0.016125 -0.030637 -0.005776
# 3 -0.019363 0.018575 0.034742 -0.015518 -0.038319 -0.001796
# 4 0.015420 -0.016125 -0.015518 0.038155 0.021940 -0.001539
# 5 0.018189 -0.030637 -0.038319 0.021940 0.089142 0.008541
# 6 -0.003690 -0.005776 -0.001796 -0.001539 0.008541 0.031001
#
#
# Mechanical properties :
#
#
# Convention : Reuss Voigt Hill
#
# Bulk Modulus (GPa) = 17.93549 51.49607 34.71578
# Shear Modulus (GPa) = 15.52690 29.73971 22.63330
#
# Velocity S-wave (km/s) = 2.80962 3.88842 3.39218
# Velocity P-wave (km/s) = 4.43213 6.80739 5.74388
#
# Compressibility (1/GPa) = 0.05575538
#
# Stress axis : x y z
#
# Youngs Moduli (GPa) = 36.68751 26.00965 28.78336
#
# Poissons Ratio (x) = 0.56070 0.55733
# Poissons Ratio (y) = 0.79088 -0.53464
# Poissons Ratio (z) = 0.71038 -0.48312
#
# Static dielectric constant tensor:
#      x y z
#    x 3.590750 0.335940 0.327970 
#    y 0.335940 3.942310 0.050670 
#    z 0.327970 0.050670 3.425500 
# 
# 
# High freq. dielectric constant tensor:
#      x y z
#    x 1.749170 0.017070 0.025870 
#    y 0.017070 1.783100 0.003410 
#    z 0.025870 0.003410 1.749890 
# 
# From -- ./inp_files/181316.got.cif
#   From: 2010.06.25/outbox.cif.g09.slc.cpg/sg2_91_cif.got.tgz:181316.got - 2010.06.27 13:26:56.
