data_PCOD8041745
_publ_section_title
;
Structure prediction by ZEFSAII (Michael W. Deem and Ramdas Pophale) SiO2 
 PCOD8041745
Probable space group: P -1
;
_chemical_formula_sum "Si O2"
_cell_formula_units_Z 16
_cell_length_a 29.085698
_cell_length_b 8.507914
_cell_length_c 9.713441
_cell_angle_alpha 31.700983
_cell_angle_beta 40.651280
_cell_angle_gamma 41.738088
_cell_volume 786.441961
_symmetry_space_group_name_H-M "P -1"
_symmetry_group_IT_number 2
_symmetry_cell_setting 'triclinic'
loop_
_space_group_symop_operation_xyz
x,y,z
-x,-y,-z
loop_
_atom_site_type_symbol
_atom_site_label
_atom_site_fract_x
_atom_site_fract_y
_atom_site_fract_z
Si Si1 0.539449 0.215834 0.526146
Si Si2 0.897649 0.493579 0.636157
Si Si3 0.065166 0.180062 0.441352
Si Si4 0.922717 0.517312 0.094138
Si Si5 0.167441 0.062442 0.793729
Si Si6 0.453591 0.768663 0.806653
Si Si7 0.336452 0.868999 0.495100
Si Si8 0.611036 0.870108 0.086154
O O1 0.500000 0.500000 0.500000
O O2 0.561829 0.332662 0.238645
O O3 0.614947 0.031053 0.570518
O O4 0.479369 0.022911 0.800941
O O5 0.887937 0.737771 0.601606
O O6 0.881011 0.697537 0.384919
O O7 0.979757 0.256887 0.620529
O O8 0.843296 0.280692 0.938073
O O9 0.094430 0.814489 0.609062
O O10 0.075614 0.393970 0.133826
O O11 0.857505 0.785613 0.114209
O O12 0.000000 0.500000 0.000000
O O13 0.252666 0.030661 0.604593
O O14 0.500000 0.000000 0.500000
O O15 0.378716 0.961215 0.917411
O O16 0.500000 0.500000 0.000000
O O17 0.353492 0.499203 0.714069
O O18 0.351669 0.997395 0.218858
#
# Coordination Sequence:
#
# PCOD8041745 Si02
#       8
#     2   2   2   2   2   2   2   2
#     4   9  19  36  61  86 116 148 199 245 286 348
#     4  11  22  40  61  88 118 159 202 254 298 368
#     4  11  22  38  64  91 117 153 207 251 304 357
#     4  12  21  38  62  96 120 155 196 260 307 360
#     4  12  24  39  61  87 128 161 204 251 314 369
#     4  10  19  33  57  89 113 143 189 249 295 336
#     4  11  23  39  57  85 117 163 195 244 307 360
#     4  10  20  38  60  85 115 155 203 246 290 358
#
# _framework density 20.344792999999999
#
# number of rings (size 3 to 8) (size 9 to 14) (size 15 to 20)
#    0.000    1.250    2.500    5.250    0.000    5.000 
#    0.000    3.750    0.000    1.500    0.000    0.000 
#    0.000    0.000    0.000    0.000    0.000    0.000 
#
# Total GULP energy -198316.583482 kJ/mol
# GULP energy per Si atom -12394.786468 kJ/mol
# Density = 2.029849 g / cm^3
# Si number density = 20.344793 Si / 1000 Ang^3
#
#
#
# Elastic Constant Matrix: (Units=GPa)
#
#
# Indices 1 2 3 4 5 6 
#
# 1 68.3137 40.8917 24.5156 15.0709 7.3275 16.1508
# 2 40.8917 107.6215 33.8389 14.1828 -4.2240 13.5344
# 3 24.5156 33.8389 119.1981 1.8019 12.2109 6.6929
# 4 15.0709 14.1828 1.8019 46.1336 6.1898 -1.4071
# 5 7.3275 -4.2240 12.2109 6.1898 29.7470 2.2402
# 6 16.1508 13.5344 6.6929 -1.4071 2.2402 25.4433
#
#
#
# Elastic Compliance Matrix: (Units=1/GPa)
#
#
# Indices 1 2 3 4 5 6 
#
# 1 0.023287 -0.006326 -0.001901 -0.005395 -0.003913 -0.010871
# 2 -0.006326 0.013585 -0.002903 -0.002829 0.005500 -0.003088
# 3 -0.001901 -0.002903 0.010001 0.001739 -0.004457 0.000609
# 4 -0.005395 -0.002829 0.001739 0.025172 -0.005503 0.006348
# 5 -0.003913 0.005500 -0.004457 -0.005503 0.038560 -0.002969
# 6 -0.010871 -0.003088 0.000609 0.006348 -0.002969 0.048299
#
#
# Mechanical properties :
#
#
# Convention : Reuss Voigt Hill
#
# Bulk Modulus (GPa) = 40.62813 54.84730 47.73772
# Shear Modulus (GPa) = 26.40370 33.32392 29.86381
#
# Velocity S-wave (km/s) = 3.60642 4.05156 3.83545
# Velocity P-wave (km/s) = 6.11186 6.99316 6.56731
#
# Compressibility (1/GPa) = 0.02461349
#
# Stress axis : x y z
#
# Youngs Moduli (GPa) = 42.94211 73.60974 99.99471
#
# Poissons Ratio (x) = 0.46565 0.19007
# Poissons Ratio (y) = 0.27165 0.29027
# Poissons Ratio (z) = 0.08162 0.21368
#
# Static dielectric constant tensor:
#      x y z
#    x 4.550680 0.533180 0.297630 
#    y 0.533180 3.944780 0.238650 
#    z 0.297630 0.238650 3.809430 
# 
# 
# High freq. dielectric constant tensor:
#      x y z
#    x 1.778920 0.027450 0.015020 
#    y 0.027450 1.795730 -0.000950 
#    z 0.015020 -0.000950 1.807400 
# 
# From -- ./inp_files/358443.got.cif
#   From: 2010.06.25/outbox.cif.g09.slc.cpg/sg2_180_cif.got.tgz:358443.got - 2010.06.27 13:26:56.
