data_PCOD8041112
_publ_section_title
;
Structure prediction by ZEFSAII (Michael W. Deem and Ramdas Pophale) SiO2 
 PCOD8041112
Probable space group: P -1
;
_chemical_formula_sum "Si O2"
_cell_formula_units_Z 16
_cell_length_a 9.492957
_cell_length_b 11.747471
_cell_length_c 12.437868
_cell_angle_alpha 130.780768
_cell_angle_beta 47.706665
_cell_angle_gamma 117.696187
_cell_volume 776.122115
_symmetry_space_group_name_H-M "P -1"
_symmetry_group_IT_number 2
_symmetry_cell_setting 'triclinic'
loop_
_space_group_symop_operation_xyz
x,y,z
-x,-y,-z
loop_
_atom_site_type_symbol
_atom_site_label
_atom_site_fract_x
_atom_site_fract_y
_atom_site_fract_z
Si Si1 0.949302 0.798816 0.292068
Si Si2 0.391142 0.648915 0.171204
Si Si3 0.606028 0.148037 0.129272
Si Si4 0.352414 0.600303 0.574312
Si Si5 0.197427 0.062433 0.248392
Si Si6 0.319633 0.659690 0.983549
Si Si7 0.043526 0.344393 0.570823
Si Si8 0.586390 0.678782 0.297853
O O1 0.901332 0.742201 0.401637
O O2 0.754762 0.794072 0.320310
O O3 0.043488 0.967442 0.341797
O O4 0.097616 0.687771 0.093841
O O5 0.498553 0.741150 0.269554
O O6 0.175089 0.614805 0.301238
O O7 0.500000 0.500000 0.000000
O O8 0.383656 0.733737 0.112295
O O9 0.692574 0.249564 0.243501
O O10 0.397852 0.073995 0.219213
O O11 0.557600 0.257042 0.120451
O O12 0.757829 0.023929 0.940318
O O13 0.500000 0.500000 0.500000
O O14 0.157799 0.502910 0.598207
O O15 0.424390 0.658046 0.457891
O O16 0.109368 0.225614 0.372469
O O17 0.332509 0.482684 0.866444
#
# Coordination Sequence:
#
# PCOD8041112 Si02
#       8
#     2   2   2   2   2   2   2   2
#     4  10  19  30  55  81 109 141 187 232 274 323
#     4   9  22  36  54  81 114 148 183 227 278 329
#     4  10  19  34  54  88 115 141 179 234 281 322
#     4  12  20  33  59  87 112 139 181 236 277 320
#     4  10  20  32  54  83 115 144 182 227 280 328
#     4   9  17  33  55  81 108 145 182 232 279 326
#     4  11  20  37  57  83 111 148 188 225 277 330
#     4  11  19  34  53  81 114 143 184 228 278 324
#
# _framework density 20.615314000000001
#
# number of rings (size 3 to 8) (size 9 to 14) (size 15 to 20)
#    0.000    1.750    3.750    0.750    0.000    5.500 
#    0.000    0.625    0.000    1.500    0.000    0.000 
#    0.000    0.000    0.000    0.000    0.000    0.000 
#
# Total GULP energy -198277.702024 kJ/mol
# GULP energy per Si atom -12392.356377 kJ/mol
# Density = 2.056839 g / cm^3
# Si number density = 20.615314 Si / 1000 Ang^3
#
#
#
# Elastic Constant Matrix: (Units=GPa)
#
#
# Indices 1 2 3 4 5 6 
#
# 1 93.4215 34.9316 27.1367 -12.1693 0.3749 20.6761
# 2 34.9316 91.6796 29.4172 -5.4122 8.1066 31.3314
# 3 27.1367 29.4172 112.4307 12.4264 -5.1804 13.2276
# 4 -12.1693 -5.4122 12.4264 35.5917 -1.8665 2.4441
# 5 0.3749 8.1066 -5.1804 -1.8665 31.4187 -4.5223
# 6 20.6761 31.3314 13.2276 2.4441 -4.5223 23.4791
#
#
#
# Elastic Compliance Matrix: (Units=1/GPa)
#
#
# Indices 1 2 3 4 5 6 
#
# 1 0.015415 0.000386 -0.003137 0.007231 -0.002317 -0.013522
# 2 0.000386 0.025562 -0.003979 0.007205 -0.011902 -0.035252
# 3 -0.003137 -0.003979 0.011099 -0.005600 0.002990 0.002978
# 4 0.007231 0.007205 -0.005600 0.034620 -0.003268 -0.017061
# 5 -0.002317 -0.011902 0.002990 -0.003268 0.038685 0.024030
# 6 -0.013522 -0.035252 0.002978 -0.017061 0.024030 0.106267
#
#
# Mechanical properties :
#
#
# Convention : Reuss Voigt Hill
#
# Bulk Modulus (GPa) = 25.89537 53.38922 39.64230
# Shear Modulus (GPa) = 19.38142 31.83431 25.60786
#
# Velocity S-wave (km/s) = 3.06951 3.93390 3.52828
# Velocity P-wave (km/s) = 5.01508 6.82555 5.98912
#
# Compressibility (1/GPa) = 0.03861693
#
# Stress axis : x y z
#
# Youngs Moduli (GPa) = 64.87220 39.12016 90.09898
#
# Poissons Ratio (x) = -0.01510 0.28262
# Poissons Ratio (y) = -0.02504 0.35848
# Poissons Ratio (z) = 0.20349 0.15565
#
# Static dielectric constant tensor:
#      x y z
#    x 3.737740 0.094780 0.181630 
#    y 0.094780 3.661040 -0.079900 
#    z 0.181630 -0.079900 4.033840 
# 
# 
# High freq. dielectric constant tensor:
#      x y z
#    x 1.768940 0.022030 0.001120 
#    y 0.022030 1.788130 -0.007480 
#    z 0.001120 -0.007480 1.826580 
# 
# From -- ./inp_files/257448.got.cif
#   From: 2010.06.25/outbox.cif.g09.slc.cpg/sg2_129_cif.got.tgz:257448.got - 2010.06.27 13:26:56.
