data_PCOD8041363
_publ_section_title
;
Structure prediction by ZEFSAII (Michael W. Deem and Ramdas Pophale) SiO2 
 PCOD8041363
Probable space group: P -1
;
_chemical_formula_sum "Si O2"
_cell_formula_units_Z 16
_cell_length_a 11.945574
_cell_length_b 26.968204
_cell_length_c 6.651902
_cell_angle_alpha 124.357696
_cell_angle_beta 48.812683
_cell_angle_gamma 146.610191
_cell_volume 886.960060
_symmetry_space_group_name_H-M "P -1"
_symmetry_group_IT_number 2
_symmetry_cell_setting 'triclinic'
loop_
_space_group_symop_operation_xyz
x,y,z
-x,-y,-z
loop_
_atom_site_type_symbol
_atom_site_label
_atom_site_fract_x
_atom_site_fract_y
_atom_site_fract_z
Si Si1 0.103391 0.194914 0.898246
Si Si2 0.710534 0.037349 0.723937
Si Si3 0.856698 0.168703 0.510355
Si Si4 0.412630 0.846702 0.538042
Si Si5 0.990811 0.591845 0.739620
Si Si6 0.554583 0.274427 0.659107
Si Si7 0.890269 0.461091 0.831617
Si Si8 0.992366 0.725685 0.041071
O O1 0.319054 0.217998 0.709929
O O2 0.923487 0.103908 0.770833
O O3 0.169055 0.275965 0.886831
O O4 0.020936 0.185339 0.197868
O O5 0.742512 0.082746 0.581880
O O6 0.648614 0.949787 0.544490
O O7 0.500000 0.000000 0.000000
O O8 0.677248 0.155017 0.571823
O O9 0.991291 0.253916 0.695108
O O10 0.459350 0.789757 0.335352
O O11 0.234065 0.806903 0.834886
O O12 0.262937 0.680559 0.633311
O O13 0.889650 0.628013 0.913673
O O14 0.939982 0.531503 0.475861
O O15 0.882400 0.527121 0.911387
O O16 0.642972 0.356341 0.883303
O O17 0.000000 0.500000 0.000000
#
# Coordination Sequence:
#
# PCOD8041363 Si02
#       8
#     2   2   2   2   2   2   2   2
#     4  10  21  35  50  78 116 136 169 223 261 315
#     4  11  19  34  55  77 101 144 186 214 258 297
#     4  10  19  32  55  76 103 140 179 218 255 303
#     4  10  19  33  55  78 101 139 185 220 245 316
#     4   8  18  35  57  81 100 133 182 210 253 317
#     4   9  20  38  51  81 112 133 169 219 272 307
#     4   9  18  34  59  81 103 135 172 216 260 314
#     4   9  18  33  55  81  99 141 182 211 259 304
#
# _framework density 18.039142999999999
#
# number of rings (size 3 to 8) (size 9 to 14) (size 15 to 20)
#    0.750    1.750    3.750    0.375    1.750    0.500 
#    4.500    1.250    0.000    1.500    0.000    0.000 
#    0.000    0.000    0.000    0.000    0.000    0.000 
#
# Total GULP energy -198215.589808 kJ/mol
# GULP energy per Si atom -12388.474363 kJ/mol
# Density = 1.799809 g / cm^3
# Si number density = 18.039143 Si / 1000 Ang^3
#
#
#
# Elastic Constant Matrix: (Units=GPa)
#
#
# Indices 1 2 3 4 5 6 
#
# 1 112.6997 55.4422 40.5149 2.5436 4.6711 -4.3605
# 2 55.4422 89.5678 20.6706 14.4416 0.9626 -18.6715
# 3 40.5149 20.6706 53.4215 1.9261 17.9094 -7.7007
# 4 2.5436 14.4416 1.9261 16.0504 -0.1489 -6.4845
# 5 4.6711 0.9626 17.9094 -0.1489 30.6067 2.0258
# 6 -4.3605 -18.6715 -7.7007 -6.4845 2.0258 35.3754
#
#
#
# Elastic Compliance Matrix: (Units=1/GPa)
#
#
# Indices 1 2 3 4 5 6 
#
# 1 0.017728 -0.010228 -0.012132 0.005847 0.005079 -0.005073
# 2 -0.010228 0.021094 0.001362 -0.014479 -0.000469 0.007542
# 3 -0.012132 0.001362 0.034970 -0.000510 -0.019175 0.007840
# 4 0.005847 -0.014479 -0.000510 0.077357 -0.000236 0.007161
# 5 0.005079 -0.000469 -0.019175 -0.000236 0.043551 -0.006333
# 6 -0.005073 0.007542 0.007840 0.007161 -0.006333 0.035006
#
#
# Mechanical properties :
#
#
# Convention : Reuss Voigt Hill
#
# Bulk Modulus (GPa) = 31.45237 54.32716 42.88976
# Shear Modulus (GPa) = 17.71169 25.67723 21.69446
#
# Velocity S-wave (km/s) = 3.13684 3.77691 3.47166
# Velocity P-wave (km/s) = 5.53111 7.01440 6.31644
#
# Compressibility (1/GPa) = 0.03179411
#
# Stress axis : x y z
#
# Youngs Moduli (GPa) = 56.40950 47.40757 28.59605
#
# Poissons Ratio (x) = 0.48491 0.34692
# Poissons Ratio (y) = 0.57698 -0.03894
# Poissons Ratio (z) = 0.68435 -0.06456
#
# Static dielectric constant tensor:
#      x y z
#    x 3.178720 -0.165480 0.059410 
#    y -0.165480 3.197090 0.254150 
#    z 0.059410 0.254150 3.204160 
# 
# 
# High freq. dielectric constant tensor:
#      x y z
#    x 1.688290 -0.025650 0.010430 
#    y -0.025650 1.691120 0.018540 
#    z 0.010430 0.018540 1.678040 
# 
# From -- ./inp_files/85120.got.cif
#   From: 2010.06.25/outbox.cif.g09.slc.cpg/sg2_43_cif.got.tgz:85120.got - 2010.06.27 13:26:56.
