data_PCOD8041320
_publ_section_title
;
Structure prediction by ZEFSAII (Michael W. Deem and Ramdas Pophale) SiO2 
 PCOD8041320
Probable space group: P -1
;
_chemical_formula_sum "Si O2"
_cell_formula_units_Z 16
_cell_length_a 23.692929
_cell_length_b 12.360763
_cell_length_c 17.378029
_cell_angle_alpha 32.756143
_cell_angle_beta 20.351226
_cell_angle_gamma 30.174147
_cell_volume 876.035866
_symmetry_space_group_name_H-M "P -1"
_symmetry_group_IT_number 2
_symmetry_cell_setting 'triclinic'
loop_
_space_group_symop_operation_xyz
x,y,z
-x,-y,-z
loop_
_atom_site_type_symbol
_atom_site_label
_atom_site_fract_x
_atom_site_fract_y
_atom_site_fract_z
Si Si1 0.248051 0.520062 0.763624
Si Si2 0.096098 0.067542 0.031710
Si Si3 0.609668 0.089267 0.360339
Si Si4 0.976698 0.709404 0.356489
Si Si5 0.658174 0.513513 0.035824
Si Si6 0.628464 0.936346 0.195094
Si Si7 0.478078 0.304523 0.739896
Si Si8 0.590039 0.848445 0.789154
O O1 0.255743 0.304438 0.840593
O O2 0.325431 0.468701 0.781591
O O3 0.354941 0.630480 0.512173
O O4 0.043176 0.685014 0.929965
O O5 0.248437 0.000183 0.942617
O O6 0.006206 0.895240 0.258301
O O7 0.184605 0.045448 0.846409
O O8 0.561099 0.347249 0.256852
O O9 0.553969 0.057451 0.537016
O O10 0.500000 0.000000 0.500000
O O11 0.771038 0.811028 0.532831
O O12 0.000000 0.500000 0.500000
O O13 0.127259 0.624571 0.148309
O O14 0.596968 0.673494 0.091030
O O15 0.607292 0.645115 0.941878
O O16 0.563696 0.107784 0.104363
O O17 0.539627 0.056295 0.784394
#
# Coordination Sequence:
#
# PCOD8041320 Si02
#       8
#     2   2   2   2   2   2   2   2
#     4  10  19  32  53  81 104 132 175 218 260 308
#     4  10  19  34  55  77 105 140 172 214 263 307
#     4   9  19  34  51  76 104 136 176 211 254 310
#     4   9  19  34  51  76 104 136 176 211 254 310
#     4  10  19  34  55  77 105 140 172 214 263 307
#     4  10  20  35  55  80 107 136 174 215 260 312
#     4  10  19  32  53  81 104 132 175 218 260 308
#     4  10  20  35  55  80 107 136 174 215 260 312
#
# _framework density 18.264094
#
# number of rings (size 3 to 8) (size 9 to 14) (size 15 to 20)
#    0.000    2.250    2.500    0.750    0.000    1.000 
#    0.000   12.500    0.000    2.250    0.000    0.000 
#    0.000    0.000    0.000    0.000    0.000    0.000 
#
# Total GULP energy -198257.265234 kJ/mol
# GULP energy per Si atom -12391.079077 kJ/mol
# Density = 1.822252 g / cm^3
# Si number density = 18.264094 Si / 1000 Ang^3
#
#
#
# Elastic Constant Matrix: (Units=GPa)
#
#
# Indices 1 2 3 4 5 6 
#
# 1 47.9782 33.9239 20.4372 9.4929 10.3213 -14.3982
# 2 33.9239 87.6784 24.7855 17.7886 5.6637 3.9887
# 3 20.4372 24.7855 60.3376 4.3863 5.2567 -6.8787
# 4 9.4929 17.7886 4.3863 30.8392 2.9674 -0.1435
# 5 10.3213 5.6637 5.2567 2.9674 24.6144 3.6825
# 6 -14.3982 3.9887 -6.8787 -0.1435 3.6825 14.3611
#
#
#
# Elastic Compliance Matrix: (Units=1/GPa)
#
#
# Indices 1 2 3 4 5 6 
#
# 1 0.092826 -0.038371 0.001925 -0.001571 -0.047804 0.116888
# 2 -0.038371 0.031038 -0.007298 -0.007210 0.019710 -0.055712
# 3 0.001925 -0.007298 0.021149 0.001273 -0.006143 0.015674
# 4 -0.001571 -0.007210 0.001273 0.037162 -0.002751 0.002114
# 5 -0.047804 0.019710 -0.006143 -0.002751 0.068855 -0.074028
# 6 0.116888 -0.055712 0.015674 0.002114 -0.074028 0.228808
#
#
# Mechanical properties :
#
#
# Convention : Reuss Voigt Hill
#
# Bulk Modulus (GPa) = 17.38334 39.36529 28.37432
# Shear Modulus (GPa) = 8.52513 21.75277 15.13895
#
# Velocity S-wave (km/s) = 2.16283 3.45485 2.88217
# Velocity P-wave (km/s) = 3.97184 6.12493 5.16190
#
# Compressibility (1/GPa) = 0.05752634
#
# Stress axis : x y z
#
# Youngs Moduli (GPa) = 10.77283 32.21808 47.28399
#
# Poissons Ratio (x) = 1.23623 -0.09101
# Poissons Ratio (y) = 0.41336 0.34507
# Poissons Ratio (z) = -0.02074 0.23512
#
# Static dielectric constant tensor:
#      x y z
#    x 3.163870 0.136480 0.122660 
#    y 0.136480 3.537490 0.237980 
#    z 0.122660 0.237980 3.641870 
# 
# 
# High freq. dielectric constant tensor:
#      x y z
#    x 1.684050 0.013550 0.003510 
#    y 0.013550 1.720870 0.005710 
#    z 0.003510 0.005710 1.705400 
# 
# From -- ./inp_files/177773.got.cif
#   From: 2010.06.25/outbox.cif.g09.slc.cpg/sg2_89_cif.got.tgz:177773.got - 2010.06.27 13:26:56.
