data_PCOD8041725
_publ_section_title
;
Structure prediction by ZEFSAII (Michael W. Deem and Ramdas Pophale) SiO2 
 PCOD8041725
Probable space group: P -1
;
_chemical_formula_sum "Si O2"
_cell_formula_units_Z 16
_cell_length_a 21.385977
_cell_length_b 9.830178
_cell_length_c 27.115654
_cell_angle_alpha 28.105616
_cell_angle_beta 18.903735
_cell_angle_gamma 29.112373
_cell_volume 840.911367
_symmetry_space_group_name_H-M "P -1"
_symmetry_group_IT_number 2
_symmetry_cell_setting 'triclinic'
loop_
_space_group_symop_operation_xyz
x,y,z
-x,-y,-z
loop_
_atom_site_type_symbol
_atom_site_label
_atom_site_fract_x
_atom_site_fract_y
_atom_site_fract_z
Si Si1 0.318036 0.245005 0.534207
Si Si2 0.930927 0.771532 0.183345
Si Si3 0.961186 0.151230 0.310692
Si Si4 0.398847 0.100520 0.991245
Si Si5 0.987479 0.788124 0.501258
Si Si6 0.678502 0.216665 0.157275
Si Si7 0.703847 0.090841 0.693330
Si Si8 0.256291 0.147446 0.501478
O O1 0.123948 0.287659 0.700744
O O2 0.357985 0.572088 0.391499
O O3 0.270475 0.105850 0.562867
O O4 0.500000 0.000000 0.500000
O O5 0.928121 0.496036 0.237955
O O6 0.763583 0.043945 0.198918
O O7 0.151481 0.837233 0.995403
O O8 0.903399 0.973725 0.456324
O O9 0.192441 0.007971 0.170536
O O10 0.818833 0.122334 0.380353
O O11 0.380029 0.447357 0.889329
O O12 0.525260 0.973778 0.888507
O O13 0.500000 0.000000 0.000000
O O14 0.148060 0.922852 0.366573
O O15 0.085956 0.449133 0.520256
O O16 0.797804 0.839126 0.663233
O O17 0.473609 0.138079 0.318542
#
# Coordination Sequence:
#
# PCOD8041725 Si02
#       8
#     2   2   2   2   2   2   2   2
#     4  11  19  37  62  82 110 152 197 231 278 344
#     4  10  21  37  62  83 108 151 197 236 270 342
#     4  11  22  35  57  87 119 148 186 238 294 334
#     4  11  19  35  59  85 113 153 193 234 277 338
#     4  10  19  34  54  81 115 149 188 233 280 336
#     4  10  20  37  57  85 112 145 198 235 274 340
#     4  10  19  33  57  86 106 148 199 236 263 334
#     4  11  22  36  56  87 119 149 183 242 293 334
#
# _framework density 19.026976000000001
#
# number of rings (size 3 to 8) (size 9 to 14) (size 15 to 20)
#    0.000    1.500    6.250    0.375    0.000    0.500 
#    0.000    1.875    0.000    7.500    0.000    0.000 
#    0.000    0.000    0.000    0.000    0.000    0.000 
#
# Total GULP energy -198308.001520 kJ/mol
# GULP energy per Si atom -12394.250095 kJ/mol
# Density = 1.898367 g / cm^3
# Si number density = 19.026976 Si / 1000 Ang^3
#
#
#
# Elastic Constant Matrix: (Units=GPa)
#
#
# Indices 1 2 3 4 5 6 
#
# 1 87.1474 35.6948 54.2458 1.1303 4.2558 1.3783
# 2 35.6948 75.9968 34.3714 11.4471 1.0167 -9.0514
# 3 54.2458 34.3714 125.3086 23.3749 8.5041 16.1441
# 4 1.1303 11.4471 23.3749 26.7647 4.1633 5.1473
# 5 4.2558 1.0167 8.5041 4.1633 37.9231 -1.0969
# 6 1.3783 -9.0514 16.1441 5.1473 -1.0969 26.1176
#
#
#
# Elastic Compliance Matrix: (Units=1/GPa)
#
#
# Indices 1 2 3 4 5 6 
#
# 1 0.019251 -0.006811 -0.008106 0.009418 -0.001202 -0.000273
# 2 -0.006811 0.019966 -0.002445 -0.008456 0.002011 0.010541
# 3 -0.008106 -0.002445 0.015162 -0.010101 -0.001543 -0.007866
# 4 0.009418 -0.008456 -0.010101 0.051542 -0.004441 -0.007528
# 5 -0.001202 0.002011 -0.001543 -0.004441 0.027392 0.003740
# 6 -0.000273 0.010541 -0.007866 -0.007528 0.003740 0.048459
#
#
# Mechanical properties :
#
#
# Convention : Reuss Voigt Hill
#
# Bulk Modulus (GPa) = 50.87693 59.67519 55.27606
# Shear Modulus (GPa) = 22.41682 29.10381 25.76032
#
# Velocity S-wave (km/s) = 3.43616 3.91526 3.68351
# Velocity P-wave (km/s) = 6.52229 7.20212 6.87062
#
# Compressibility (1/GPa) = 0.01965527
#
# Stress axis : x y z
#
# Youngs Moduli (GPa) = 51.94589 50.08608 65.95312
#
# Poissons Ratio (x) = 0.34113 0.53459
# Poissons Ratio (y) = 0.35380 0.16126
# Poissons Ratio (z) = 0.42105 0.12247
#
# Static dielectric constant tensor:
#      x y z
#    x 3.395050 -0.194660 0.295150 
#    y -0.194660 3.809090 0.262620 
#    z 0.295150 0.262620 3.727640 
# 
# 
# High freq. dielectric constant tensor:
#      x y z
#    x 1.719620 -0.016220 0.027090 
#    y -0.016220 1.742290 0.022970 
#    z 0.027090 0.022970 1.735160 
# 
# From -- ./inp_files/241068.got.cif
#   From: 2010.06.25/outbox.cif.g09.slc.cpg/sg2_121_cif.got.tgz:241068.got - 2010.06.27 13:26:56.
