data_PCOD8041942
_publ_section_title
;
Structure prediction by ZEFSAII (Michael W. Deem and Ramdas Pophale) SiO2 
 PCOD8041942
Probable space group: P -1
;
_chemical_formula_sum "Si O2"
_cell_formula_units_Z 16
_cell_length_a 9.281726
_cell_length_b 14.231564
_cell_length_c 13.026352
_cell_angle_alpha 44.817211
_cell_angle_beta 40.868080
_cell_angle_gamma 52.019685
_cell_volume 781.859899
_symmetry_space_group_name_H-M "P -1"
_symmetry_group_IT_number 2
_symmetry_cell_setting 'triclinic'
loop_
_space_group_symop_operation_xyz
x,y,z
-x,-y,-z
loop_
_atom_site_type_symbol
_atom_site_label
_atom_site_fract_x
_atom_site_fract_y
_atom_site_fract_z
Si Si1 0.860296 0.101942 0.738004
Si Si2 0.343869 0.409190 0.061660
Si Si3 0.338501 0.917231 0.345685
Si Si4 0.202092 0.935719 0.807449
Si Si5 0.793637 0.244212 0.867285
Si Si6 0.466644 0.672523 0.770105
Si Si7 0.287937 0.212690 0.618928
Si Si8 0.905731 0.822094 0.634987
O O1 0.672400 0.070129 0.782780
O O2 0.750754 0.210471 0.797577
O O3 0.052884 0.161058 0.522750
O O4 0.968487 0.965937 0.846525
O O5 0.592286 0.357093 0.923563
O O6 0.287209 0.567978 0.937309
O O7 0.352078 0.393487 0.192308
O O8 0.157746 0.323662 0.188819
O O9 0.575089 0.829569 0.317249
O O10 0.133211 0.843701 0.554595
O O11 0.304283 0.065611 0.301691
O O12 0.358816 0.821486 0.748271
O O13 0.289020 0.078875 0.652456
O O14 0.179838 0.890227 0.972090
O O15 0.035943 0.290187 0.715877
O O16 0.587017 0.682354 0.589743
#
# Coordination Sequence:
#
# PCOD8041942 Si02
#       8
#     2   2   2   2   2   2   2   2
#     4   9  17  33  57  82 105 142 172 215 274 322
#     4  10  20  38  51  82 109 142 182 220 265 314
#     4   9  19  32  59  81 107 141 182 213 266 327
#     4  10  19  34  54  85 111 128 181 231 270 304
#     4  10  21  33  54  81 114 138 170 226 272 316
#     4  10  21  32  59  78 104 144 184 224 261 313
#     4  11  19  34  55  85 109 136 173 228 271 312
#     4   9  18  34  56  76 108 144 176 220 253 323
#
# _framework density 20.464023999999998
#
# number of rings (size 3 to 8) (size 9 to 14) (size 15 to 20)
#    0.750    1.500    0.000    5.625    0.000    0.500 
#    0.000    7.500    0.000    0.750    0.000    0.000 
#    0.000    0.000    0.000    0.000    0.000    0.000 
#
# Total GULP energy -198210.696477 kJ/mol
# GULP energy per Si atom -12388.168530 kJ/mol
# Density = 2.041745 g / cm^3
# Si number density = 20.464024 Si / 1000 Ang^3
#
#
#
# Elastic Constant Matrix: (Units=GPa)
#
#
# Indices 1 2 3 4 5 6 
#
# 1 68.5805 20.9138 25.4443 5.6117 14.8268 7.6484
# 2 20.9138 37.0697 20.0955 -3.0600 -0.4480 6.0823
# 3 25.4443 20.0955 80.0472 -3.8746 5.5913 13.8416
# 4 5.6117 -3.0600 -3.8746 32.5613 11.7483 -3.6098
# 5 14.8268 -0.4480 5.5913 11.7483 31.4675 -1.6907
# 6 7.6484 6.0823 13.8416 -3.6098 -1.6907 21.9317
#
#
#
# Elastic Compliance Matrix: (Units=1/GPa)
#
#
# Indices 1 2 3 4 5 6 
#
# 1 0.021337 -0.010035 -0.003084 -0.002138 -0.009052 -0.003762
# 2 -0.010035 0.036407 -0.005843 0.002304 0.005310 -0.002121
# 3 -0.003084 -0.005843 0.016552 0.002106 -0.002767 -0.007617
# 4 -0.002138 0.002304 0.002106 0.036583 -0.012787 0.003813
# 5 -0.009052 0.005310 -0.002767 -0.012787 0.041629 0.004535
# 6 -0.003762 -0.002121 -0.007617 0.003813 0.004535 0.053281
#
#
# Mechanical properties :
#
#
# Convention : Reuss Voigt Hill
#
# Bulk Modulus (GPa) = 27.49252 35.40052 31.44652
# Shear Modulus (GPa) = 19.54367 25.14170 22.34269
#
# Velocity S-wave (km/s) = 3.09370 3.50891 3.30783
# Velocity P-wave (km/s) = 5.12104 5.80974 5.47623
#
# Compressibility (1/GPa) = 0.03637353
#
# Stress axis : x y z
#
# Youngs Moduli (GPa) = 46.86626 27.46696 60.41562
#
# Poissons Ratio (x) = 0.27563 0.18632
# Poissons Ratio (y) = 0.47030 0.35300
# Poissons Ratio (z) = 0.14453 0.16048
#
# Static dielectric constant tensor:
#      x y z
#    x 3.571990 0.087620 -0.002110 
#    y 0.087620 3.434090 -0.014760 
#    z -0.002110 -0.014760 3.733500 
# 
# 
# High freq. dielectric constant tensor:
#      x y z
#    x 1.780860 0.009170 0.002340 
#    y 0.009170 1.771170 0.006170 
#    z 0.002340 0.006170 1.797480 
# 
# From -- ./inp_files/395411.got.cif
#   From: 2010.06.25/outbox.cif.g09.slc.cpg/sg2_198_cif.got.tgz:395411.got - 2010.06.27 13:26:56.
