data_PCOD8041848
_publ_section_title
;
Structure prediction by ZEFSAII (Michael W. Deem and Ramdas Pophale) SiO2 
 PCOD8041848
Probable space group: P -1
;
_chemical_formula_sum "Si O2"
_cell_formula_units_Z 16
_cell_length_a 15.762890
_cell_length_b 11.191370
_cell_length_c 7.935768
_cell_angle_alpha 65.322537
_cell_angle_beta 94.549474
_cell_angle_gamma 145.193055
_cell_volume 625.451270
_symmetry_space_group_name_H-M "P -1"
_symmetry_group_IT_number 2
_symmetry_cell_setting 'triclinic'
loop_
_space_group_symop_operation_xyz
x,y,z
-x,-y,-z
loop_
_atom_site_type_symbol
_atom_site_label
_atom_site_fract_x
_atom_site_fract_y
_atom_site_fract_z
Si Si1 0.751445 0.879270 0.941826
Si Si2 0.518734 0.687990 0.753162
Si Si3 0.070555 0.191627 0.644191
Si Si4 0.019279 0.845766 0.725885
Si Si5 0.206371 0.837556 0.709759
Si Si6 0.846960 0.284918 0.865309
Si Si7 0.361461 0.692934 0.956051
Si Si8 0.356491 0.750996 0.295729
O O1 0.674098 0.813558 0.786292
O O2 0.786581 0.057611 0.946558
O O3 0.617792 0.599654 0.178540
O O4 0.929093 0.039712 0.848713
O O5 0.419951 0.636837 0.911744
O O6 0.606159 0.901527 0.502716
O O7 0.017816 0.170227 0.463554
O O8 0.251456 0.505546 0.538938
O O9 0.096623 0.070350 0.712954
O O10 0.156857 0.916436 0.720166
O O11 0.841441 0.560719 0.954884
O O12 0.056566 0.579370 0.714667
O O13 0.216666 0.765102 0.924932
O O14 0.765570 0.284804 0.731567
O O15 0.473884 0.968876 0.742017
O O16 0.409351 0.749445 0.130204
#
# Coordination Sequence:
#
# PCOD8041848 Si02
#       8
#     2   2   2   2   2   2   2   2
#     4  11  22  35  61  93 122 151 202 258 296 344
#     4  11  22  37  61  93 119 153 206 253 299 341
#     4  10  19  33  61  90 117 150 196 256 293 348
#     4  10  19  38  60  87 121 156 199 242 305 351
#     4  11  24  42  62  85 123 171 196 238 301 371
#     4  11  23  41  61  85 126 165 200 236 300 376
#     4  10  19  35  60  89 121 149 195 261 293 342
#     4  10  20  35  60  92 121 155 197 245 307 348
#
# _framework density 25.581529
#
# number of rings (size 3 to 8) (size 9 to 14) (size 15 to 20)
#    0.000    1.500    6.250    0.000    1.750    1.500 
#    0.000    1.250    0.000    0.000    0.000    0.000 
#    0.000    0.000    0.000    0.000    0.000    0.000 
#
# Total GULP energy -198371.530206 kJ/mol
# GULP energy per Si atom -12398.220638 kJ/mol
# Density = 2.552330 g / cm^3
# Si number density = 25.581529 Si / 1000 Ang^3
#
#
#
# Elastic Constant Matrix: (Units=GPa)
#
#
# Indices 1 2 3 4 5 6 
#
# 1 67.3551 26.9721 6.6639 -8.3994 -12.7833 -35.2918
# 2 26.9721 115.4914 47.9673 -49.2876 1.4244 -37.6618
# 3 6.6639 47.9673 114.0796 -45.2747 -8.7445 -10.0160
# 4 -8.3994 -49.2876 -45.2747 41.6490 -7.3087 11.1071
# 5 -12.7833 1.4244 -8.7445 -7.3087 31.6366 -5.3925
# 6 -35.2918 -37.6618 -10.0160 11.1071 -5.3925 37.7129
#
#
#
# Elastic Compliance Matrix: (Units=1/GPa)
#
#
# Indices 1 2 3 4 5 6 
#
# 1 0.059391 0.023060 0.014732 0.043594 0.050204 0.076859
# 2 0.023060 0.037400 0.010554 0.052328 0.031298 0.050796
# 3 0.014732 0.010554 0.022433 0.038104 0.024323 0.022539
# 4 0.043594 0.052328 0.038104 0.128059 0.068195 0.075209
# 5 0.050204 0.031298 0.024323 0.068195 0.086074 0.076919
# 6 0.076859 0.050796 0.022539 0.075209 0.076919 0.144002
#
#
# Mechanical properties :
#
#
# Convention : Reuss Voigt Hill
#
# Bulk Modulus (GPa) = 4.63144 51.12587 27.87866
# Shear Modulus (GPa) = 11.04632 36.55456 23.80044
#
# Velocity S-wave (km/s) = 2.08025 3.78424 3.05352
# Velocity P-wave (km/s) = 2.75397 6.25482 4.83255
#
# Compressibility (1/GPa) = 0.21591574
#
# Stress axis : x y z
#
# Youngs Moduli (GPa) = 16.83768 26.73773 44.57641
#
# Poissons Ratio (x) = -0.61657 -0.65671
# Poissons Ratio (y) = -0.38827 -0.47044
# Poissons Ratio (z) = -0.24806 -0.28218
#
# Static dielectric constant tensor:
#      x y z
#    x 4.455560 -0.206280 0.055020 
#    y -0.206280 4.706470 -0.593880 
#    z 0.055020 -0.593880 4.648060 
# 
# 
# High freq. dielectric constant tensor:
#      x y z
#    x 2.020250 -0.017820 -0.002300 
#    y -0.017820 2.014280 -0.035260 
#    z -0.002300 -0.035260 2.010220 
# 
# From -- ./inp_files/331826.got.cif
#   From: 2010.06.25/outbox.cif.g09.slc.cpg/sg2_166_cif.got.tgz:331826.got - 2010.06.27 13:26:56.
