data_PCOD8041438
_publ_section_title
;
Structure prediction by ZEFSAII (Michael W. Deem and Ramdas Pophale) SiO2 
 PCOD8041438
Probable space group: P -1
;
_chemical_formula_sum "Si O2"
_cell_formula_units_Z 12
_cell_length_a 11.782424
_cell_length_b 7.902536
_cell_length_c 9.645885
_cell_angle_alpha 59.974095
_cell_angle_beta 133.191699
_cell_angle_gamma 112.877739
_cell_volume 565.402925
_symmetry_space_group_name_H-M "P -1"
_symmetry_group_IT_number 2
_symmetry_cell_setting 'triclinic'
loop_
_space_group_symop_operation_xyz
x,y,z
-x,-y,-z
loop_
_atom_site_type_symbol
_atom_site_label
_atom_site_fract_x
_atom_site_fract_y
_atom_site_fract_z
Si Si1 0.325571 0.432445 0.918202
Si Si2 0.843975 0.929536 0.214030
Si Si3 0.852656 0.174102 0.846846
Si Si4 0.790896 0.795163 0.834215
Si Si5 0.885895 0.582209 0.756525
Si Si6 0.115306 0.782168 0.643940
O O1 0.267318 0.265469 0.827652
O O2 0.225022 0.621283 0.746445
O O3 0.500000 0.500000 0.000000
O O4 0.321440 0.346698 0.106162
O O5 0.023545 0.869727 0.401806
O O6 0.791617 0.039950 0.265985
O O7 0.837301 0.089772 0.023461
O O8 0.783803 0.388974 0.692506
O O9 0.754540 0.025073 0.721132
O O10 0.037039 0.206876 0.948808
O O11 0.778154 0.726644 0.691586
O O12 0.977255 0.692561 0.665121
O O13 0.000000 0.500000 0.000000
#
# Coordination Sequence:
#
# PCOD8041438 Si02
#       6
#     2   2   2   2   2   2
#     4  11  22  36  53  76 113 149 174 205 259 337
#     4  10  21  34  55  85 107 131 176 230 273 293
#     4   9  15  28  50  77 100 124 169 229 253 294
#     4   9  16  28  49  76  96 126 180 213 252 288
#     4  10  15  28  51  79 100 125 173 224 257 295
#     4  11  20  34  55  86 107 132 174 231 270 299
#
# _framework density 21.223803
#
# number of rings (size 3 to 8) (size 9 to 14) (size 15 to 20)
#    0.000    2.000    6.667    0.500    0.000    0.667 
#    0.000    0.000    0.000    2.000    0.000    0.000 
#    0.000    0.000    0.000    0.000    0.000    0.000 
#
# Total GULP energy -148681.606943 kJ/mol
# GULP energy per Si atom -12390.133912 kJ/mol
# Density = 2.117550 g / cm^3
# Si number density = 21.223803 Si / 1000 Ang^3
#
#
#
# Elastic Constant Matrix: (Units=GPa)
#
#
# Indices 1 2 3 4 5 6 
#
# 1 82.1422 58.3016 16.7937 10.8229 8.4444 -0.6908
# 2 58.3016 177.9171 30.5721 3.7039 13.3564 -32.5853
# 3 16.7937 30.5721 22.9249 3.4884 2.9053 -3.6759
# 4 10.8229 3.7039 3.4884 18.8569 -0.5599 2.3014
# 5 8.4444 13.3564 2.9053 -0.5599 11.0217 5.2330
# 6 -0.6908 -32.5853 -3.6759 2.3014 5.2330 35.3519
#
#
#
# Elastic Compliance Matrix: (Units=1/GPa)
#
#
# Indices 1 2 3 4 5 6 
#
# 1 0.018627 -0.005363 -0.005203 -0.008356 -0.005005 -0.003835
# 2 -0.005363 0.012158 -0.008573 0.000355 -0.014181 0.012287
# 3 -0.005203 -0.008573 0.059766 -0.006271 -0.001121 -0.001215
# 4 -0.008356 0.000355 -0.006271 0.060110 0.013734 -0.006434
# 5 -0.005005 -0.014181 -0.001121 0.013734 0.128508 -0.033202
# 6 -0.003835 0.012287 -0.001215 -0.006434 -0.033202 0.044745
#
#
# Mechanical properties :
#
#
# Convention : Reuss Voigt Hill
#
# Bulk Modulus (GPa) = 19.12962 54.92431 37.02697
# Shear Modulus (GPa) = 13.17123 24.86722 19.01922
#
# Velocity S-wave (km/s) = 2.49386 3.42668 2.99679
# Velocity P-wave (km/s) = 4.16237 6.44911 5.42754
#
# Compressibility (1/GPa) = 0.05227495
#
# Stress axis : x y z
#
# Youngs Moduli (GPa) = 53.68514 82.24740 16.73196
#
# Poissons Ratio (x) = 0.44106 0.08706
# Poissons Ratio (y) = 0.28789 0.14344
# Poissons Ratio (z) = 0.27933 0.70507
#
# Static dielectric constant tensor:
#      x y z
#    x 3.940130 -0.756960 -0.313010 
#    y -0.756960 5.257510 -0.138430 
#    z -0.313010 -0.138430 3.214290 
# 
# 
# High freq. dielectric constant tensor:
#      x y z
#    x 1.815270 -0.022340 -0.038290 
#    y -0.022340 1.873560 -0.021420 
#    z -0.038290 -0.021420 1.750260 
# 
# From -- ./inp_files/354445.got.cif
#   From: 2010.06.25/outbox.cif.g09.slc.cpg/sg2_178_cif.got.tgz:354445.got - 2010.06.27 13:26:56.
