data_PCOD8041194
_publ_section_title
;
Structure prediction by ZEFSAII (Michael W. Deem and Ramdas Pophale) SiO2 
 PCOD8041194
Probable space group: P -1
;
_chemical_formula_sum "Si O2"
_cell_formula_units_Z 16
_cell_length_a 12.670771
_cell_length_b 8.442418
_cell_length_c 17.335564
_cell_angle_alpha 62.009382
_cell_angle_beta 153.104750
_cell_angle_gamma 121.431691
_cell_volume 715.729828
_symmetry_space_group_name_H-M "P -1"
_symmetry_group_IT_number 2
_symmetry_cell_setting 'triclinic'
loop_
_space_group_symop_operation_xyz
x,y,z
-x,-y,-z
loop_
_atom_site_type_symbol
_atom_site_label
_atom_site_fract_x
_atom_site_fract_y
_atom_site_fract_z
Si Si1 0.148081 0.751664 0.460410
Si Si2 0.832561 0.277561 0.266650
Si Si3 0.015247 0.340345 0.790164
Si Si4 0.329423 0.673770 0.144864
Si Si5 0.067656 0.113647 0.326033
Si Si6 0.151888 0.491212 0.219030
Si Si7 0.780837 0.607830 0.375119
Si Si8 0.704438 0.939845 0.996660
O O1 0.306860 0.620363 0.630604
O O2 0.153798 0.726772 0.378093
O O3 0.874028 0.684446 0.333702
O O4 0.242476 0.974451 0.487000
O O5 0.813339 0.454244 0.162202
O O6 0.964108 0.149710 0.332527
O O7 0.567218 0.164267 0.139112
O O8 0.985521 0.337991 0.429593
O O9 0.844341 0.354967 0.747874
O O10 0.174439 0.194848 0.943946
O O11 0.349726 0.576267 0.262883
O O12 0.570682 0.694767 0.247622
O O13 0.290310 0.875795 0.091017
O O14 0.112490 0.552000 0.981028
O O15 0.211846 0.306327 0.335411
O O16 0.848272 0.000257 0.155939
#
# Coordination Sequence:
#
# PCOD8041194 Si02
#       8
#     2   2   2   2   2   2   2   2
#     4   9  19  35  54  78 108 136 167 213 263 313
#     4  10  19  32  52  80 109 138 168 208 261 318
#     4   9  19  34  54  79 104 135 174 216 257 301
#     4  10  21  37  54  76 105 140 174 214 259 304
#     4   9  18  34  54  76 104 138 177 216 251 297
#     4   9  20  38  57  74 100 137 182 220 252 296
#     4  10  21  35  52  77 112 140 164 207 267 318
#     4  10  19  31  54  81 105 134 172 216 260 302
#
# _framework density 22.354804999999999
#
# number of rings (size 3 to 8) (size 9 to 14) (size 15 to 20)
#    0.000    2.500    0.000    1.500    0.000   10.500 
#    0.000    6.250    0.000    0.000    0.000    0.000 
#    0.000    0.000    0.000    0.000    0.000    0.000 
#
# Total GULP energy -198303.778874 kJ/mol
# GULP energy per Si atom -12393.986180 kJ/mol
# Density = 2.230392 g / cm^3
# Si number density = 22.354805 Si / 1000 Ang^3
#
#
#
# Elastic Constant Matrix: (Units=GPa)
#
#
# Indices 1 2 3 4 5 6 
#
# 1 95.5673 22.7871 1.2614 -12.0746 -1.0614 -13.9123
# 2 22.7871 100.1847 11.9323 -40.7041 5.1195 -23.6786
# 3 1.2614 11.9323 20.7028 -14.8361 -0.2000 -3.1319
# 4 -12.0746 -40.7041 -14.8361 35.2899 1.2936 4.0336
# 5 -1.0614 5.1195 -0.2000 1.2936 15.8340 -3.9587
# 6 -13.9123 -23.6786 -3.1319 4.0336 -3.9587 32.6805
#
#
#
# Elastic Compliance Matrix: (Units=1/GPa)
#
#
# Indices 1 2 3 4 5 6 
#
# 1 0.011775 -0.000072 0.003527 0.004806 0.001692 0.004911
# 2 -0.000072 0.026116 0.010991 0.033276 -0.007289 0.014955
# 3 0.003527 0.010991 0.075145 0.044362 -0.003294 0.010792
# 4 0.004806 0.033276 0.044362 0.085360 -0.012253 0.018388
# 5 0.001692 -0.007289 -0.003294 -0.012253 0.067797 0.004848
# 6 0.004911 0.014955 0.010792 0.018388 0.004848 0.042877
#
#
# Mechanical properties :
#
#
# Convention : Reuss Voigt Hill
#
# Bulk Modulus (GPa) = 7.04586 32.04627 19.54607
# Shear Modulus (GPa) = 15.26780 28.79250 22.03015
#
# Velocity S-wave (km/s) = 2.61622 3.59273 3.14264
# Velocity P-wave (km/s) = 3.50497 5.61932 4.68303
#
# Compressibility (1/GPa) = 0.14192726
#
# Stress axis : x y z
#
# Youngs Moduli (GPa) = 84.92411 38.29116 13.30768
#
# Poissons Ratio (x) = 0.00275 -0.04694
# Poissons Ratio (y) = 0.00609 -0.14626
# Poissons Ratio (z) = -0.29952 -0.42085
#
# Static dielectric constant tensor:
#      x y z
#    x 4.031760 -0.164200 -0.164780 
#    y -0.164200 4.435040 -0.415140 
#    z -0.164780 -0.415140 3.668070 
# 
# 
# High freq. dielectric constant tensor:
#      x y z
#    x 1.879570 -0.014850 -0.011850 
#    y -0.014850 1.891300 -0.027710 
#    z -0.011850 -0.027710 1.841560 
# 
# From -- ./inp_files/245008.got.cif
#   From: 2010.06.25/outbox.cif.g09.slc.cpg/sg2_123_cif.got.tgz:245008.got - 2010.06.27 13:26:56.
