data_PCOD8041530
_publ_section_title
;
Structure prediction by ZEFSAII (Michael W. Deem and Ramdas Pophale) SiO2 
 PCOD8041530
Probable space group: P -1
;
_chemical_formula_sum "Si O2"
_cell_formula_units_Z 14
_cell_length_a 11.416291
_cell_length_b 13.991306
_cell_length_c 16.434612
_cell_angle_alpha 148.369429
_cell_angle_beta 30.822099
_cell_angle_gamma 149.279245
_cell_volume 619.533990
_symmetry_space_group_name_H-M "P -1"
_symmetry_group_IT_number 2
_symmetry_cell_setting 'triclinic'
loop_
_space_group_symop_operation_xyz
x,y,z
-x,-y,-z
loop_
_atom_site_type_symbol
_atom_site_label
_atom_site_fract_x
_atom_site_fract_y
_atom_site_fract_z
Si Si1 0.195962 0.909582 0.810448
Si Si2 0.904129 0.899411 0.263750
Si Si3 0.650344 0.267336 0.879988
Si Si4 0.400786 0.527047 0.278725
Si Si5 0.134161 0.757040 0.554630
Si Si6 0.886971 0.316086 0.143166
Si Si7 0.625122 0.979084 0.828296
O O1 0.186266 0.818140 0.662218
O O2 0.100004 0.723693 0.798408
O O3 0.496600 0.083342 0.773978
O O4 0.000000 0.000000 0.000000
O O5 0.655239 0.693320 0.296366
O O6 0.792049 0.048961 0.406885
O O7 0.101009 0.010037 0.301677
O O8 0.028354 0.831438 0.065906
O O9 0.933495 0.439561 0.804019
O O10 0.689494 0.174282 0.873277
O O11 0.464797 0.369895 0.077539
O O12 0.307737 0.643246 0.351133
O O13 0.173034 0.401805 0.388904
O O14 0.582659 0.240253 0.246952
O O15 0.500000 0.000000 0.000000
#
# Coordination Sequence:
#
# PCOD8041530 Si02
#       7
#     2   2   2   2   2   2   2
#     4  11  19  34  54  76 111 143 173 218 262 312
#     4  10  19  33  53  80 108 138 175 218 267 311
#     4  10  20  35  55  83 106 136 180 220 263 312
#     4  10  21  33  52  79 109 141 173 213 267 316
#     4  11  21  35  51  79 115 139 170 215 264 321
#     4   9  19  32  52  80 104 136 175 221 266 304
#     4   9  18  32  54  81 109 133 173 229 267 300
#
# _framework density 22.597631
#
# number of rings (size 3 to 8) (size 9 to 14) (size 15 to 20)
#    0.000    2.000    2.857    2.143    0.000    8.000 
#    0.000    0.000    0.000    3.429    0.000   57.000 
#    0.000    0.000    0.000    0.000    0.000    0.000 
#
# Total GULP energy -173517.783978 kJ/mol
# GULP energy per Si atom -12394.127427 kJ/mol
# Density = 2.254620 g / cm^3
# Si number density = 22.597631 Si / 1000 Ang^3
#
#
#
# Elastic Constant Matrix: (Units=GPa)
#
#
# Indices 1 2 3 4 5 6 
#
# 1 129.1350 57.1397 17.4271 -1.2175 -3.6331 -5.4270
# 2 57.1397 173.3884 4.5139 -3.7090 -2.8890 1.8794
# 3 17.4271 4.5139 30.6825 2.5523 -5.8923 -4.6881
# 4 -1.2175 -3.7090 2.5523 20.7339 0.4467 -12.8192
# 5 -3.6331 -2.8890 -5.8923 0.4467 10.4514 -2.7785
# 6 -5.4270 1.8794 -4.6881 -12.8192 -2.7785 33.6461
#
#
#
# Elastic Compliance Matrix: (Units=1/GPa)
#
#
# Indices 1 2 3 4 5 6 
#
# 1 0.009888 -0.003108 -0.005009 0.001710 0.000142 0.001734
# 2 -0.003108 0.006807 0.000867 0.000644 0.001151 -0.000420
# 3 -0.005009 0.000867 0.040847 -0.001953 0.023207 0.006007
# 4 0.001710 0.000644 -0.001953 0.063797 0.003474 0.024561
# 5 0.000142 0.001151 0.023207 0.003474 0.112657 0.013819
# 6 0.001734 -0.000420 0.006007 0.024561 0.013819 0.041360
#
#
# Mechanical properties :
#
#
# Convention : Reuss Voigt Hill
#
# Bulk Modulus (GPa) = 23.23354 54.59634 38.91494
# Shear Modulus (GPa) = 16.43640 29.90795 23.17217
#
# Velocity S-wave (km/s) = 2.69987 3.64194 3.20570
# Velocity P-wave (km/s) = 4.47468 6.47284 5.56419
#
# Compressibility (1/GPa) = 0.04304123
#
# Stress axis : x y z
#
# Youngs Moduli (GPa) = 101.13221 146.91709 24.48189
#
# Poissons Ratio (x) = 0.45662 0.12263
# Poissons Ratio (y) = 0.31432 -0.02123
# Poissons Ratio (z) = 0.50658 -0.12740
#
# Static dielectric constant tensor:
#      x y z
#    x 4.485180 0.625000 -0.214820 
#    y 0.625000 4.741050 0.033450 
#    z -0.214820 0.033450 3.932330 
# 
# 
# High freq. dielectric constant tensor:
#      x y z
#    x 1.879490 0.016070 -0.016540 
#    y 0.016070 1.915430 -0.001000 
#    z -0.016540 -0.001000 1.851240 
# 
# From -- ./inp_files/216224.got.cif
#   From: 2010.06.25/outbox.cif.g09.slc.cpg/sg2_109_cif.got.tgz:216224.got - 2010.06.27 13:26:56.
