data_PCOD8041690
_publ_section_title
;
Structure prediction by ZEFSAII (Michael W. Deem and Ramdas Pophale) SiO2 
 PCOD8041690
Probable space group: P -1
;
_chemical_formula_sum "Si O2"
_cell_formula_units_Z 16
_cell_length_a 17.262509
_cell_length_b 10.122196
_cell_length_c 11.447668
_cell_angle_alpha 128.349022
_cell_angle_beta 33.326756
_cell_angle_gamma 139.882123
_cell_volume 707.180325
_symmetry_space_group_name_H-M "P -1"
_symmetry_group_IT_number 2
_symmetry_cell_setting 'triclinic'
loop_
_space_group_symop_operation_xyz
x,y,z
-x,-y,-z
loop_
_atom_site_type_symbol
_atom_site_label
_atom_site_fract_x
_atom_site_fract_y
_atom_site_fract_z
Si Si1 0.771126 0.395160 0.340468
Si Si2 0.967825 0.216158 0.930502
Si Si3 0.832138 0.550929 0.804521
Si Si4 0.751946 0.672591 0.196214
Si Si5 0.504060 0.102257 0.931549
Si Si6 0.145668 0.970370 0.259350
Si Si7 0.478374 0.756620 0.622970
Si Si8 0.949754 0.583394 0.436051
O O1 0.892064 0.596130 0.222126
O O2 0.584617 0.276470 0.450726
O O3 0.776676 0.453667 0.502150
O O4 0.838263 0.251332 0.176761
O O5 0.065098 0.178962 0.888608
O O6 0.857759 0.027883 0.876265
O O7 0.677789 0.326376 0.832756
O O8 0.910310 0.671139 0.648475
O O9 0.980363 0.550634 0.686210
O O10 0.773538 0.663845 0.024040
O O11 0.657312 0.780795 0.405559
O O12 0.653219 0.437676 0.236204
O O13 0.500590 0.960916 0.754915
O O14 0.500000 0.000000 0.000000
O O15 0.344760 0.127991 0.134705
O O16 0.098479 0.759950 0.263036
O O17 0.000000 0.000000 0.500000
#
# Coordination Sequence:
#
# PCOD8041690 Si02
#       8
#     2   2   2   2   2   2   2   2
#     4   9  16  33  55  78 105 153 192 237 279 343
#     4   9  17  30  56  80 110 141 198 241 278 333
#     4  11  22  37  63  89 124 160 193 244 298 367
#     4  10  19  33  56  89 112 154 200 243 292 341
#     4  12  22  37  59  90 123 152 196 249 301 345
#     4  11  23  38  62  92 118 153 200 253 295 345
#     4  10  20  33  57  85 118 148 199 253 288 342
#     4  10  21  39  61  88 119 161 200 232 302 364
#
# _framework density 22.625063000000001
#
# number of rings (size 3 to 8) (size 9 to 14) (size 15 to 20)
#    0.000    1.750    5.000    0.000    1.750    2.000 
#    0.000    3.125    2.750    2.250    0.000    0.000 
#    0.000    0.000    0.000    0.000    0.000    0.000 
#
# Total GULP energy -198260.657876 kJ/mol
# GULP energy per Si atom -12391.291117 kJ/mol
# Density = 2.257357 g / cm^3
# Si number density = 22.625063 Si / 1000 Ang^3
#
#
#
# Elastic Constant Matrix: (Units=GPa)
#
#
# Indices 1 2 3 4 5 6 
#
# 1 129.3963 19.5609 47.8458 6.7256 -5.6894 36.8003
# 2 19.5609 26.4300 0.2231 0.7719 -2.9474 16.3123
# 3 47.8458 0.2231 83.5214 16.1010 -4.1585 9.9818
# 4 6.7256 0.7719 16.1010 22.6020 4.6604 -1.5796
# 5 -5.6894 -2.9474 -4.1585 4.6604 50.4869 2.0999
# 6 36.8003 16.3123 9.9818 -1.5796 2.0999 25.8709
#
#
#
# Elastic Compliance Matrix: (Units=1/GPa)
#
#
# Indices 1 2 3 4 5 6 
#
# 1 0.016328 0.002486 -0.005934 -0.002877 0.002714 -0.022900
# 2 0.002486 0.069113 0.007650 -0.013882 0.008372 -0.051593
# 3 -0.005934 0.007650 0.018421 -0.012473 0.002632 -0.004466
# 4 -0.002877 -0.013882 -0.012473 0.057719 -0.008399 0.021863
# 5 0.002714 0.008372 0.002632 -0.008399 0.022112 -0.012463
# 6 -0.022900 -0.051593 -0.004466 0.021863 -0.012463 0.107828
#
#
# Mechanical properties :
#
#
# Convention : Reuss Voigt Hill
#
# Bulk Modulus (GPa) = 8.90733 41.62303 25.26518
# Shear Modulus (GPa) = 15.59870 31.23982 23.41926
#
# Velocity S-wave (km/s) = 2.62857 3.71989 3.22079
# Velocity P-wave (km/s) = 3.62740 6.07346 5.00225
#
# Compressibility (1/GPa) = 0.11226712
#
# Stress axis : x y z
#
# Youngs Moduli (GPa) = 61.24408 14.46907 54.28578
#
# Poissons Ratio (x) = -0.03597 0.32212
# Poissons Ratio (y) = -0.15226 -0.41530
# Poissons Ratio (z) = 0.36341 -0.11069
#
# Static dielectric constant tensor:
#      x y z
#    x 4.521880 0.352590 0.059840 
#    y 0.352590 3.798990 0.045370 
#    z 0.059840 0.045370 3.952030 
# 
# 
# High freq. dielectric constant tensor:
#      x y z
#    x 1.910920 0.026660 -0.001090 
#    y 0.026660 1.849310 0.010520 
#    z -0.001090 0.010520 1.880120 
# 
# From -- ./inp_files/256982.got.cif
#   From: 2010.06.25/outbox.cif.g09.slc.cpg/sg2_129_cif.got.tgz:256982.got - 2010.06.27 13:26:56.
