data_PCOD8041726
_publ_section_title
;
Structure prediction by ZEFSAII (Michael W. Deem and Ramdas Pophale) SiO2 
 PCOD8041726
Probable space group: P -1
;
_chemical_formula_sum "Si O2"
_cell_formula_units_Z 16
_cell_length_a 9.277097
_cell_length_b 11.071489
_cell_length_c 12.103724
_cell_angle_alpha 70.508537
_cell_angle_beta 113.336096
_cell_angle_gamma 65.674259
_cell_volume 836.898552
_symmetry_space_group_name_H-M "P -1"
_symmetry_group_IT_number 2
_symmetry_cell_setting 'triclinic'
loop_
_space_group_symop_operation_xyz
x,y,z
-x,-y,-z
loop_
_atom_site_type_symbol
_atom_site_label
_atom_site_fract_x
_atom_site_fract_y
_atom_site_fract_z
Si Si1 0.916246 0.720111 0.433497
Si Si2 0.806816 0.939664 0.655365
Si Si3 0.165464 0.952456 0.739376
Si Si4 0.116100 0.432991 0.731992
Si Si5 0.551396 0.120815 0.959749
Si Si6 0.462748 0.848782 0.691320
Si Si7 0.115472 0.394267 0.175302
Si Si8 0.535455 0.075716 0.728887
O O1 0.928757 0.866625 0.389040
O O2 0.955508 0.646179 0.344930
O O3 0.702917 0.771853 0.395863
O O4 0.080638 0.586566 0.611954
O O5 0.889784 0.756557 0.764747
O O6 0.675713 0.005457 0.484096
O O7 0.662208 0.069814 0.668044
O O8 0.996657 0.933382 0.702097
O O9 0.329957 0.822851 0.736348
O O10 0.266427 0.921135 0.898437
O O11 0.353400 0.306129 0.869620
O O12 0.986998 0.485622 0.788126
O O13 0.622864 0.092838 0.862504
O O14 0.500000 0.000000 0.000000
O O15 0.649951 0.679939 0.741850
O O16 0.556038 0.909815 0.782815
O O17 0.000000 0.500000 0.000000
#
# Coordination Sequence:
#
# PCOD8041726 Si02
#       8
#     2   2   2   2   2   2   2   2
#     4   9  18  34  60  83 104 143 187 242 268 327
#     4  11  23  36  57  86 117 151 185 234 275 337
#     4  11  21  37  59  85 113 149 192 228 285 329
#     4  10  19  33  57  86 107 136 197 231 273 321
#     4  11  19  36  60  83 108 151 186 238 270 339
#     4  10  19  37  58  80 112 152 192 223 270 337
#     4  11  22  35  57  84 113 150 187 230 274 335
#     4   9  18  34  59  80 110 140 199 223 274 321
#
# _framework density 19.118207999999999
#
# number of rings (size 3 to 8) (size 9 to 14) (size 15 to 20)
#    0.000    1.750    3.750    4.875    1.750    0.500 
#    0.000    3.750    0.000   12.000    0.000    0.000 
#    0.000    0.000    0.000    0.000    0.000    0.000 
#
# Total GULP energy -198334.295657 kJ/mol
# GULP energy per Si atom -12395.893479 kJ/mol
# Density = 1.907469 g / cm^3
# Si number density = 19.118208 Si / 1000 Ang^3
#
#
#
# Elastic Constant Matrix: (Units=GPa)
#
#
# Indices 1 2 3 4 5 6 
#
# 1 127.1187 51.5925 36.1938 3.4503 2.2201 -22.4409
# 2 51.5925 97.9948 37.3604 8.7949 -1.8317 -35.5991
# 3 36.1938 37.3604 110.7526 -4.0999 -2.3446 -7.3956
# 4 3.4503 8.7949 -4.0999 29.3018 -5.4418 -8.6318
# 5 2.2201 -1.8317 -2.3446 -5.4418 19.9886 2.2988
# 6 -22.4409 -35.5991 -7.3956 -8.6318 2.2988 31.2036
#
#
#
# Elastic Compliance Matrix: (Units=1/GPa)
#
#
# Indices 1 2 3 4 5 6 
#
# 1 0.010518 -0.003714 -0.002022 0.000102 -0.002066 0.003028
# 2 -0.003714 0.021476 -0.004701 -0.000746 -0.000739 0.020564
# 3 -0.002022 -0.004701 0.011175 0.002557 0.002218 -0.003624
# 4 0.000102 -0.000746 0.002557 0.039473 0.009814 0.010024
# 5 -0.002066 -0.000739 0.002218 0.009814 0.053470 -0.003028
# 6 0.003028 0.020564 -0.003624 0.010024 -0.003028 0.059822
#
#
# Mechanical properties :
#
#
# Convention : Reuss Voigt Hill
#
# Bulk Modulus (GPa) = 44.85426 65.12884 54.99155
# Shear Modulus (GPa) = 22.29755 30.14674 26.22215
#
# Velocity S-wave (km/s) = 3.41882 3.97528 3.70750
# Velocity P-wave (km/s) = 6.25275 7.43040 6.86687
#
# Compressibility (1/GPa) = 0.02229442
#
# Stress axis : x y z
#
# Youngs Moduli (GPa) = 95.07781 46.56426 89.48402
#
# Poissons Ratio (x) = 0.17296 0.18094
# Poissons Ratio (y) = 0.35316 0.42064
# Poissons Ratio (z) = 0.19225 0.21888
#
# Static dielectric constant tensor:
#      x y z
#    x 3.296610 -0.486100 -0.108080 
#    y -0.486100 3.834900 0.167310 
#    z -0.108080 0.167310 3.940530 
# 
# 
# High freq. dielectric constant tensor:
#      x y z
#    x 1.708900 -0.035280 -0.008310 
#    y -0.035280 1.744970 0.006180 
#    z -0.008310 0.006180 1.753650 
# 
# From -- ./inp_files/278178.got.cif
#   From: 2010.06.25/outbox.cif.g09.slc.cpg/sg2_140_cif.got.tgz:278178.got - 2010.06.27 13:26:56.
