data_PCOD8041575
_publ_section_title
;
Structure prediction by ZEFSAII (Michael W. Deem and Ramdas Pophale) SiO2 
 PCOD8041575
Probable space group: P -1
;
_chemical_formula_sum "Si O2"
_cell_formula_units_Z 16
_cell_length_a 8.446334
_cell_length_b 16.412601
_cell_length_c 8.834757
_cell_angle_alpha 94.563932
_cell_angle_beta 97.941611
_cell_angle_gamma 39.288360
_cell_volume 767.358623
_symmetry_space_group_name_H-M "P -1"
_symmetry_group_IT_number 2
_symmetry_cell_setting 'triclinic'
loop_
_space_group_symop_operation_xyz
x,y,z
-x,-y,-z
loop_
_atom_site_type_symbol
_atom_site_label
_atom_site_fract_x
_atom_site_fract_y
_atom_site_fract_z
Si Si1 0.015303 0.575051 0.656462
Si Si2 0.745606 0.125582 0.329009
Si Si3 0.730704 0.404840 0.712363
Si Si4 0.461390 0.379893 0.489318
Si Si5 0.237104 0.009498 0.441984
Si Si6 0.202089 0.205836 0.551061
Si Si7 0.178728 0.548329 0.981543
Si Si8 0.311375 0.336110 0.112612
O O1 0.195855 0.455647 0.543868
O O2 0.852756 0.709518 0.578091
O O3 0.821927 0.591647 0.726461
O O4 0.195630 0.551496 0.802377
O O5 0.627711 0.237159 0.447179
O O6 0.583206 0.187812 0.161029
O O7 0.031784 0.041175 0.319576
O O8 0.743660 0.037965 0.394586
O O9 0.608852 0.368591 0.640760
O O10 0.576659 0.542592 0.643501
O O11 0.730820 0.410780 0.898302
O O12 0.021025 0.294950 0.681033
O O13 0.148472 0.137341 0.467498
O O14 0.506442 0.899533 0.376144
O O15 0.347580 0.404031 0.033402
O O16 0.881393 0.647645 0.997913
#
# Coordination Sequence:
#
# PCOD8041575 Si02
#       8
#     2   2   2   2   2   2   2   2
#     4   9  19  33  53  85 110 136 174 220 273 327
#     4  11  19  35  55  81 108 145 178 229 265 310
#     4  10  19  33  54  81 113 138 170 228 278 319
#     4  10  20  31  52  86 112 132 176 227 279 311
#     4  10  21  33  55  79 106 146 186 224 264 307
#     4  10  19  36  55  85 107 136 189 228 259 315
#     4   9  18  34  53  80 111 150 166 207 285 338
#     4   9  18  33  50  80 110 146 173 209 271 331
#
# _framework density 20.850746000000001
#
# number of rings (size 3 to 8) (size 9 to 14) (size 15 to 20)
#    0.750    1.500    3.750    0.000    0.000    2.000 
#    0.000    0.000    0.000    7.500    3.250    0.000 
#    0.000    0.000    0.000    0.000    0.000    0.000 
#
# Total GULP energy -198262.837436 kJ/mol
# GULP energy per Si atom -12391.427340 kJ/mol
# Density = 2.080329 g / cm^3
# Si number density = 20.850746 Si / 1000 Ang^3
#
#
#
# Elastic Constant Matrix: (Units=GPa)
#
#
# Indices 1 2 3 4 5 6 
#
# 1 42.6024 4.7880 -24.7398 -6.3801 3.7646 -1.1799
# 2 4.7880 69.2795 8.3395 -15.2168 -3.9193 5.2846
# 3 -24.7398 8.3395 38.3873 -9.3378 -1.7933 -4.0333
# 4 -6.3801 -15.2168 -9.3378 32.6939 -7.8421 3.2663
# 5 3.7646 -3.9193 -1.7933 -7.8421 22.4947 -4.5915
# 6 -1.1799 5.2846 -4.0333 3.2663 -4.5915 31.0284
#
#
#
# Elastic Compliance Matrix: (Units=1/GPa)
#
#
# Indices 1 2 3 4 5 6 
#
# 1 0.048021 -0.004208 0.036843 0.017729 0.001509 0.005689
# 2 -0.004208 0.017567 -0.004830 0.007617 0.005259 -0.003803
# 3 0.036843 -0.004830 0.057454 0.022198 0.007025 0.008395
# 4 0.017729 0.007617 0.022198 0.047992 0.016798 -0.000304
# 5 0.001509 0.005259 0.007025 0.016798 0.052783 0.006117
# 6 0.005689 -0.003803 0.008395 -0.000304 0.006117 0.035121
#
#
# Mechanical properties :
#
#
# Convention : Reuss Voigt Hill
#
# Bulk Modulus (GPa) = 5.59743 14.11604 9.85673
# Shear Modulus (GPa) = 19.02022 28.03550 23.52786
#
# Velocity S-wave (km/s) = 3.02355 3.67083 3.36280
# Velocity P-wave (km/s) = 3.85740 4.97508 4.45146
#
# Compressibility (1/GPa) = 0.17865339
#
# Stress axis : x y z
#
# Youngs Moduli (GPa) = 20.82436 56.92425 17.40515
#
# Poissons Ratio (x) = 0.23955 -0.64127
# Poissons Ratio (y) = 0.08763 0.08406
# Poissons Ratio (z) = -0.76724 0.27492
#
# Static dielectric constant tensor:
#      x y z
#    x 3.835870 -0.205380 0.276200 
#    y -0.205380 3.642640 -0.298440 
#    z 0.276200 -0.298440 3.740930 
# 
# 
# High freq. dielectric constant tensor:
#      x y z
#    x 1.821530 -0.009650 0.021100 
#    y -0.009650 1.796760 -0.025170 
#    z 0.021100 -0.025170 1.794510 
# 
# From -- ./inp_files/400555.got.cif
#   From: 2010.06.25/outbox.cif.g09.slc.cpg/sg2_201_cif.got.tgz:400555.got - 2010.06.27 13:26:56.
