data_PCOD8041415
_publ_section_title
;
Structure prediction by ZEFSAII (Michael W. Deem and Ramdas Pophale) SiO2 
 PCOD8041415
Probable space group: P -1
;
_chemical_formula_sum "Si O2"
_cell_formula_units_Z 14
_cell_length_a 12.441068
_cell_length_b 11.264491
_cell_length_c 11.608720
_cell_angle_alpha 88.419858
_cell_angle_beta 52.939309
_cell_angle_gamma 47.251374
_cell_volume 723.645515
_symmetry_space_group_name_H-M "P -1"
_symmetry_group_IT_number 2
_symmetry_cell_setting 'triclinic'
loop_
_space_group_symop_operation_xyz
x,y,z
-x,-y,-z
loop_
_atom_site_type_symbol
_atom_site_label
_atom_site_fract_x
_atom_site_fract_y
_atom_site_fract_z
Si Si1 0.519088 0.814647 0.699595
Si Si2 0.283986 0.064651 0.632922
Si Si3 0.302663 0.098019 0.037428
Si Si4 0.214702 0.924282 0.221132
Si Si5 0.895656 0.946729 0.458897
Si Si6 0.987482 0.475258 0.729645
Si Si7 0.340148 0.447790 0.193663
O O1 0.777046 0.666201 0.491158
O O2 0.543394 0.670511 0.753692
O O3 0.320052 0.950052 0.721327
O O4 0.422530 0.989609 0.839692
O O5 0.277829 0.989495 0.523070
O O6 0.040577 0.323734 0.784666
O O7 0.500000 0.000000 0.500000
O O8 0.096856 0.348911 0.148458
O O9 0.177892 0.068920 0.165005
O O10 0.500000 0.000000 0.000000
O O11 0.974666 0.019279 0.361643
O O12 0.253767 0.932798 0.329298
O O13 0.446419 0.679237 0.032061
O O14 0.147041 0.692948 0.325425
O O15 0.781428 0.586452 0.769842
#
# Coordination Sequence:
#
# PCOD8041415 Si02
#       7
#     2   2   2   2   2   2   2
#     4  10  20  34  52  83 111 144 179 225 279 314
#     4   9  21  35  56  81 111 148 181 220 278 328
#     4  11  21  32  56  86 111 137 186 231 263 325
#     4  10  21  35  56  85 107 143 184 230 271 312
#     4  10  21  38  58  78 111 146 183 225 272 327
#     4  10  19  33  54  83 110 148 178 228 273 316
#     4  10  19  32  57  81 106 140 189 226 267 320
#
# _framework density 19.346489999999999
#
# number of rings (size 3 to 8) (size 9 to 14) (size 15 to 20)
#    0.000    2.000    2.857    1.714    6.000    0.571 
#    0.000    7.143    0.000   13.714    0.000    0.000 
#    0.000    0.000    0.000    0.000    0.000    0.000 
#
# Total GULP energy -173506.426143 kJ/mol
# GULP energy per Si atom -12393.316153 kJ/mol
# Density = 1.930246 g / cm^3
# Si number density = 19.346490 Si / 1000 Ang^3
#
#
#
# Elastic Constant Matrix: (Units=GPa)
#
#
# Indices 1 2 3 4 5 6 
#
# 1 91.6356 28.1411 17.2593 -1.8149 5.0645 -11.7794
# 2 28.1411 84.5407 15.3578 1.4396 6.9394 -13.8302
# 3 17.2593 15.3578 89.5606 1.0151 14.5087 -8.5492
# 4 -1.8149 1.4396 1.0151 12.4623 3.2876 4.8006
# 5 5.0645 6.9394 14.5087 3.2876 23.5956 -4.9576
# 6 -11.7794 -13.8302 -8.5492 4.8006 -4.9576 32.2608
#
#
#
# Elastic Compliance Matrix: (Units=1/GPa)
#
#
# Indices 1 2 3 4 5 6 
#
# 1 0.012652 -0.003529 -0.001551 0.001570 -0.000440 0.002395
# 2 -0.003529 0.014149 -0.001041 -0.003602 -0.001243 0.004846
# 3 -0.001551 -0.001041 0.012907 0.000206 -0.007054 0.001293
# 4 0.001570 -0.003602 0.000206 0.091549 -0.015722 -0.016956
# 5 -0.000440 -0.001243 -0.007054 -0.015722 0.050968 0.007609
# 6 0.002395 0.004846 0.001293 -0.016956 0.007609 0.037984
#
#
# Mechanical properties :
#
#
# Convention : Reuss Voigt Hill
#
# Bulk Modulus (GPa) = 36.40949 43.02815 39.71882
# Shear Modulus (GPa) = 20.69492 27.32898 24.01195
#
# Velocity S-wave (km/s) = 3.27417 3.76254 3.52682
# Velocity P-wave (km/s) = 5.75796 6.41597 6.09585
#
# Compressibility (1/GPa) = 0.02746537
#
# Stress axis : x y z
#
# Youngs Moduli (GPa) = 79.04051 70.67868 77.47756
#
# Poissons Ratio (x) = 0.24939 0.12017
# Poissons Ratio (y) = 0.27890 0.08068
# Poissons Ratio (z) = 0.12259 0.07360
#
# Static dielectric constant tensor:
#      x y z
#    x 3.509410 -0.090350 0.174150 
#    y -0.090350 4.257530 0.047800 
#    z 0.174150 0.047800 3.532350 
# 
# 
# High freq. dielectric constant tensor:
#      x y z
#    x 1.733170 0.010100 0.012230 
#    y 0.010100 1.752540 0.002840 
#    z 0.012230 0.002840 1.748180 
# 
# From -- ./inp_files/280454.got.cif
#   From: 2010.06.25/outbox.cif.g09.slc.cpg/sg2_141_cif.got.tgz:280454.got - 2010.06.27 13:26:56.
