data_PCOD8041981
_publ_section_title
;
Structure prediction by ZEFSAII (Michael W. Deem and Ramdas Pophale) SiO2 
 PCOD8041981
Probable space group: P -1
;
_chemical_formula_sum "Si O2"
_cell_formula_units_Z 12
_cell_length_a 8.970912
_cell_length_b 13.950109
_cell_length_c 6.651238
_cell_angle_alpha 93.745598
_cell_angle_beta 56.532011
_cell_angle_gamma 60.620608
_cell_volume 536.595381
_symmetry_space_group_name_H-M "P -1"
_symmetry_group_IT_number 2
_symmetry_cell_setting 'triclinic'
loop_
_space_group_symop_operation_xyz
x,y,z
-x,-y,-z
loop_
_atom_site_type_symbol
_atom_site_label
_atom_site_fract_x
_atom_site_fract_y
_atom_site_fract_z
Si Si1 0.423782 0.931903 0.931562
Si Si2 0.030791 0.185059 0.149859
Si Si3 0.410876 0.578289 0.377276
Si Si4 0.784391 0.759461 0.316933
Si Si5 0.823489 0.478156 0.766148
Si Si6 0.287382 0.279114 0.054859
O O1 0.563966 0.874911 0.612155
O O2 0.466008 0.823454 0.027892
O O3 0.500000 0.000000 0.000000
O O4 0.153293 0.041014 0.089648
O O5 0.138682 0.234376 0.214027
O O6 0.759221 0.274986 0.416881
O O7 0.074823 0.199626 0.884469
O O8 0.500000 0.500000 0.500000
O O9 0.269280 0.544274 0.362121
O O10 0.619515 0.550289 0.093173
O O11 0.947380 0.646124 0.331086
O O12 0.691745 0.719466 0.202942
O O13 0.853013 0.583731 0.721295
#
# Coordination Sequence:
#
# PCOD8041981 Si02
#       6
#     2   2   2   2   2   2
#     4  10  19  34  55  85 113 146 183 223 275 328
#     4   9  20  36  57  83 112 147 183 225 273 325
#     4  11  22  40  56  81 113 150 186 226 276 332
#     4  10  20  34  59  86 111 142 183 234 271 325
#     4  11  22  36  59  85 112 145 186 228 279 327
#     4   9  21  35  56  88 112 144 178 234 277 323
#
# _framework density 22.363219999999998
#
# number of rings (size 3 to 8) (size 9 to 14) (size 15 to 20)
#    1.000    1.000    1.667    3.000    0.000    4.000 
#    0.000    0.833    0.000    2.000    0.000    0.000 
#    0.000    0.000    0.000    0.000    0.000    0.000 
#
# Total GULP energy -148672.991236 kJ/mol
# GULP energy per Si atom -12389.415936 kJ/mol
# Density = 2.231232 g / cm^3
# Si number density = 22.363220 Si / 1000 Ang^3
#
#
#
# Elastic Constant Matrix: (Units=GPa)
#
#
# Indices 1 2 3 4 5 6 
#
# 1 32.5634 30.0829 19.3273 3.9527 9.1125 -15.1654
# 2 30.0829 154.1088 38.3349 21.5762 9.4934 -46.3441
# 3 19.3273 38.3349 113.6907 31.0559 16.1636 -28.5452
# 4 3.9527 21.5762 31.0559 45.3214 -10.6420 -1.8151
# 5 9.1125 9.4934 16.1636 -10.6420 32.4498 3.7934
# 6 -15.1654 -46.3441 -28.5452 -1.8151 3.7934 35.4577
#
#
#
# Elastic Compliance Matrix: (Units=1/GPa)
#
#
# Indices 1 2 3 4 5 6 
#
# 1 0.047942 0.001118 0.005643 -0.013131 -0.024230 0.028429
# 2 0.001118 0.017575 0.010330 -0.019086 -0.020718 0.033004
# 3 0.005643 0.010330 0.027236 -0.030161 -0.032717 0.039797
# 4 -0.013131 -0.019086 -0.030161 0.062783 0.051565 -0.057146
# 5 -0.024230 -0.020718 -0.032717 0.051565 0.085102 -0.070247
# 6 0.028429 0.033004 0.039797 -0.057146 -0.070247 0.120128
#
#
# Mechanical properties :
#
#
# Convention : Reuss Voigt Hill
#
# Bulk Modulus (GPa) = 7.87815 52.87258 30.37536
# Shear Modulus (GPa) = 13.55398 36.82029 25.18713
#
# Velocity S-wave (km/s) = 2.46455 4.06207 3.35964
# Velocity P-wave (km/s) = 3.41015 6.75977 5.35367
#
# Compressibility (1/GPa) = 0.12693338
#
# Stress axis : x y z
#
# Youngs Moduli (GPa) = 20.85870 56.90011 36.71601
#
# Poissons Ratio (x) = -0.06363 -0.20717
# Poissons Ratio (y) = -0.02333 -0.37926
# Poissons Ratio (z) = -0.11770 -0.58776
#
# Static dielectric constant tensor:
#      x y z
#    x 3.910020 -0.338250 -0.114160 
#    y -0.338250 4.502110 0.222020 
#    z -0.114160 0.222020 4.269880 
# 
# 
# High freq. dielectric constant tensor:
#      x y z
#    x 1.832150 -0.031130 0.015610 
#    y -0.031130 1.891070 0.015530 
#    z 0.015610 0.015530 1.901470 
# 
# From -- ./inp_files/35721.got.cif
#   From: 2010.06.25/outbox.cif.g09.slc.cpg/sg2_18_cif.got.tgz:35721.got - 2010.06.27 13:26:56.
