data_PCOD8041970
_publ_section_title
;
Structure prediction by ZEFSAII (Michael W. Deem and Ramdas Pophale) SiO2 
 PCOD8041970
Probable space group: P -1
;
_chemical_formula_sum "Si O2"
_cell_formula_units_Z 16
_cell_length_a 11.210205
_cell_length_b 6.831960
_cell_length_c 14.753130
_cell_angle_alpha 90.137806
_cell_angle_beta 58.941215
_cell_angle_gamma 117.327546
_cell_volume 818.080991
_symmetry_space_group_name_H-M "P -1"
_symmetry_group_IT_number 2
_symmetry_cell_setting 'triclinic'
loop_
_space_group_symop_operation_xyz
x,y,z
-x,-y,-z
loop_
_atom_site_type_symbol
_atom_site_label
_atom_site_fract_x
_atom_site_fract_y
_atom_site_fract_z
Si Si1 0.907153 0.816560 0.158286
Si Si2 0.141945 0.164456 0.612810
Si Si3 0.336834 0.054461 0.411794
Si Si4 0.233116 0.007420 0.933534
Si Si5 0.159448 0.528150 0.482741
Si Si6 0.808061 0.777318 0.668176
Si Si7 0.495249 0.491218 0.895584
Si Si8 0.335716 0.668098 0.824406
O O1 0.865572 0.843541 0.276895
O O2 0.815461 0.550574 0.165465
O O3 0.842866 0.947952 0.124568
O O4 0.102576 0.928524 0.067422
O O5 0.305695 0.175664 0.510819
O O6 0.125937 0.378834 0.587461
O O7 0.994192 0.921212 0.629886
O O8 0.226096 0.044575 0.370455
O O9 0.526829 0.202166 0.307271
O O10 0.290307 0.796549 0.454173
O O11 0.265936 0.811952 0.893450
O O12 0.407940 0.227563 0.895705
O O13 0.234240 0.431281 0.382739
O O14 0.000000 0.500000 0.500000
O O15 0.687484 0.648418 0.798127
O O16 0.400199 0.598913 0.886300
O O17 0.500000 0.500000 0.000000
#
# Coordination Sequence:
#
# PCOD8041970 Si02
#       8
#     2   2   2   2   2   2   2   2
#     4  10  23  40  60  81 111 151 192 237 277 326
#     4  11  21  35  56  86 115 147 189 230 275 334
#     4  10  20  36  57  82 114 149 181 231 284 333
#     4  10  21  43  61  79 113 151 188 232 286 330
#     4  11  18  34  54  81 113 148 182 221 282 332
#     4  10  19  34  55  81 119 147 178 227 285 335
#     4  10  21  37  58  89 115 143 182 233 287 333
#     4  10  22  40  60  81 113 152 190 229 280 336
#
# _framework density 19.557964999999999
#
# number of rings (size 3 to 8) (size 9 to 14) (size 15 to 20)
#    0.000    1.750    2.500    2.625    0.000    3.000 
#    2.250    1.250    0.000    0.000    0.000    0.000 
#    0.000    0.000    0.000    0.000    0.000    0.000 
#
# Total GULP energy -198381.037455 kJ/mol
# GULP energy per Si atom -12398.814841 kJ/mol
# Density = 1.951345 g / cm^3
# Si number density = 19.557965 Si / 1000 Ang^3
#
#
#
# Elastic Constant Matrix: (Units=GPa)
#
#
# Indices 1 2 3 4 5 6 
#
# 1 33.9851 22.3788 29.5111 -1.4678 0.1929 1.9679
# 2 22.3788 107.3691 36.5415 -10.3891 5.7124 -12.0010
# 3 29.5111 36.5415 143.5838 2.6924 12.5677 1.4789
# 4 -1.4678 -10.3891 2.6924 30.4561 4.3864 -2.2511
# 5 0.1929 5.7124 12.5677 4.3864 22.6117 3.0740
# 6 1.9679 -12.0010 1.4789 -2.2511 3.0740 19.6008
#
#
#
# Elastic Compliance Matrix: (Units=1/GPa)
#
#
# Indices 1 2 3 4 5 6 
#
# 1 0.041055 -0.007844 -0.006934 -0.001836 0.007165 -0.009736
# 2 -0.007844 0.013526 -0.001609 0.005893 -0.005048 0.010659
# 3 -0.006934 -0.001609 0.009208 -0.001097 -0.004382 -0.000422
# 4 -0.001836 0.005893 -0.001097 0.036904 -0.009324 0.009576
# 5 0.007165 -0.005048 -0.004382 -0.009324 0.051398 -0.012611
# 6 -0.009736 0.010659 -0.000422 0.009576 -0.012611 0.061631
#
#
# Mechanical properties :
#
#
# Convention : Reuss Voigt Hill
#
# Bulk Modulus (GPa) = 32.24239 51.31120 41.77679
# Shear Modulus (GPa) = 19.46781 27.63418 23.55099
#
# Velocity S-wave (km/s) = 3.15840 3.76298 3.47387
# Velocity P-wave (km/s) = 5.46095 6.72105 6.12350
#
# Compressibility (1/GPa) = 0.03101507
#
# Stress axis : x y z
#
# Youngs Moduli (GPa) = 24.35747 73.93013 108.60544
#
# Poissons Ratio (x) = 0.57992 0.75311
# Poissons Ratio (y) = 0.19106 0.17470
# Poissons Ratio (z) = 0.16890 0.11892
#
# Static dielectric constant tensor:
#      x y z
#    x 3.496650 -0.112510 -0.115380 
#    y -0.112510 3.787930 -0.233510 
#    z -0.115380 -0.233510 3.711720 
# 
# 
# High freq. dielectric constant tensor:
#      x y z
#    x 1.744370 -0.005140 -0.008210 
#    y -0.005140 1.767350 -0.010320 
#    z -0.008210 -0.010320 1.773500 
# 
# From -- ./inp_files/66760.got.cif
#   From: 2010.06.25/outbox.cif.g09.slc.cpg/sg2_34_cif.got.tgz:66760.got - 2010.06.27 13:26:56.
