data_PCOD8041319
_publ_section_title
;
Structure prediction by ZEFSAII (Michael W. Deem and Ramdas Pophale) SiO2 
 PCOD8041319
Probable space group: P -1
;
_chemical_formula_sum "Si O2"
_cell_formula_units_Z 16
_cell_length_a 11.536867
_cell_length_b 9.548024
_cell_length_c 8.925697
_cell_angle_alpha 102.342529
_cell_angle_beta 90.893864
_cell_angle_gamma 70.008729
_cell_volume 900.834328
_symmetry_space_group_name_H-M "P -1"
_symmetry_group_IT_number 2
_symmetry_cell_setting 'triclinic'
loop_
_space_group_symop_operation_xyz
x,y,z
-x,-y,-z
loop_
_atom_site_type_symbol
_atom_site_label
_atom_site_fract_x
_atom_site_fract_y
_atom_site_fract_z
Si Si1 0.970854 0.229041 0.469530
Si Si2 0.371294 0.016692 0.577950
Si Si3 0.817249 0.091036 0.628756
Si Si4 0.614748 0.018616 0.086703
Si Si5 0.856049 0.704056 0.299018
Si Si6 0.216018 0.848327 0.015044
Si Si7 0.126860 0.166587 0.973175
Si Si8 0.096149 0.635827 0.816062
O O1 0.863907 0.209024 0.566242
O O2 0.901034 0.322581 0.347081
O O3 0.042518 0.328099 0.575302
O O4 0.071543 0.068516 0.387941
O O5 0.404382 0.949378 0.730006
O O6 0.280618 0.193395 0.623822
O O7 0.500000 0.000000 0.500000
O O8 0.300949 0.922802 0.463443
O O9 0.776128 0.155487 0.807084
O O10 0.727027 0.858282 0.015666
O O11 0.500000 0.000000 0.000000
O O12 0.650087 0.158778 0.048001
O O13 0.906685 0.792523 0.192437
O O14 0.849577 0.545662 0.201724
O O15 0.182812 0.703708 0.928887
O O16 0.112534 0.004134 0.981098
O O17 0.044109 0.300157 0.109608
#
# Coordination Sequence:
#
# PCOD8041319 Si02
#       8
#     2   2   2   2   2   2   2   2
#     4  10  20  31  51  76 112 140 175 215 263 314
#     4  10  20  35  57  77 104 138 182 221 263 309
#     4  10  19  32  53  81 103 139 183 221 251 307
#     4   9  18  33  54  81 103 131 184 224 251 302
#     4  10  22  36  51  80 111 142 171 216 273 320
#     4  10  20  32  55  79 105 137 184 214 260 305
#     4   9  20  33  53  79 106 140 179 209 261 313
#     4  12  20  33  54  80 115 139 170 219 270 319
#
# _framework density 17.761312
#
# number of rings (size 3 to 8) (size 9 to 14) (size 15 to 20)
#    0.750    1.250    1.250    3.375    3.500    0.000 
#    0.000    0.000    0.000   11.250    0.000    0.000 
#    0.000    0.000    0.000    0.000    0.000    0.000 
#
# Total GULP energy -198293.887160 kJ/mol
# GULP energy per Si atom -12393.367947 kJ/mol
# Density = 1.772089 g / cm^3
# Si number density = 17.761312 Si / 1000 Ang^3
#
#
#
# Elastic Constant Matrix: (Units=GPa)
#
#
# Indices 1 2 3 4 5 6 
#
# 1 124.0430 34.2642 66.9463 3.8978 -2.2178 17.1145
# 2 34.2642 50.2916 35.0941 17.7884 4.1623 13.5084
# 3 66.9463 35.0941 135.3948 -2.2272 7.1253 18.2297
# 4 3.8978 17.7884 -2.2272 27.0198 3.5442 0.0424
# 5 -2.2178 4.1623 7.1253 3.5442 37.2247 -0.1899
# 6 17.1145 13.5084 18.2297 0.0424 -0.1899 16.1158
#
#
#
# Elastic Compliance Matrix: (Units=1/GPa)
#
#
# Indices 1 2 3 4 5 6 
#
# 1 0.012310 -0.004520 -0.004441 0.000577 0.002012 -0.004238
# 2 -0.004520 0.044518 -0.006295 -0.028950 -0.001415 -0.025336
# 3 -0.004441 -0.006295 0.011917 0.006093 -0.002440 -0.003533
# 4 0.000577 -0.028950 0.006093 0.056885 -0.003226 0.016574
# 5 0.002012 -0.001415 -0.002440 -0.003226 0.027927 0.002147
# 6 -0.004238 -0.025336 -0.003533 0.016574 0.002147 0.091767
#
#
# Mechanical properties :
#
#
# Convention : Reuss Voigt Hill
#
# Bulk Modulus (GPa) = 26.15440 64.70432 45.42936
# Shear Modulus (GPa) = 17.32626 27.63371 22.47998
#
# Velocity S-wave (km/s) = 3.12670 3.94869 3.56149
# Velocity P-wave (km/s) = 5.27185 7.56958 6.52269
#
# Compressibility (1/GPa) = 0.03823448
#
# Stress axis : x y z
#
# Youngs Moduli (GPa) = 81.23787 22.46284 83.91069
#
# Poissons Ratio (x) = 0.10153 0.37262
# Poissons Ratio (y) = 0.36719 0.52819
# Poissons Ratio (z) = 0.36075 0.14140
#
# Static dielectric constant tensor:
#      x y z
#    x 3.168940 0.111880 -0.084720 
#    y 0.111880 3.009560 -0.102500 
#    z -0.084720 -0.102500 3.421030 
# 
# 
# High freq. dielectric constant tensor:
#      x y z
#    x 1.677360 0.016560 -0.002380 
#    y 0.016560 1.652560 -0.014030 
#    z -0.002380 -0.014030 1.704090 
# 
# From -- ./inp_files/200963.got.cif
#   From: 2010.06.25/outbox.cif.g09.slc.cpg/sg2_101_cif.got.tgz:200963.got - 2010.06.27 13:26:56.
