data_PCOD8041836
_publ_section_title
;
Structure prediction by ZEFSAII (Michael W. Deem and Ramdas Pophale) SiO2 
 PCOD8041836
Probable space group: P -1
;
_chemical_formula_sum "Si O2"
_cell_formula_units_Z 16
_cell_length_a 9.691708
_cell_length_b 7.880389
_cell_length_c 12.417140
_cell_angle_alpha 96.055392
_cell_angle_beta 113.567139
_cell_angle_gamma 102.436460
_cell_volume 829.180877
_symmetry_space_group_name_H-M "P -1"
_symmetry_group_IT_number 2
_symmetry_cell_setting 'triclinic'
loop_
_space_group_symop_operation_xyz
x,y,z
-x,-y,-z
loop_
_atom_site_type_symbol
_atom_site_label
_atom_site_fract_x
_atom_site_fract_y
_atom_site_fract_z
Si Si1 0.618840 0.419872 0.319107
Si Si2 0.515269 0.744340 0.343551
Si Si3 0.702298 0.199436 0.154134
Si Si4 0.057200 0.236235 0.285360
Si Si5 0.242746 0.630116 0.418479
Si Si6 0.411079 0.892460 0.114016
Si Si7 0.298523 0.145512 0.224453
Si Si8 0.244938 0.010548 0.422277
O O1 0.632627 0.627432 0.343073
O O2 0.696659 0.373304 0.230780
O O3 0.707250 0.362796 0.441987
O O4 0.434293 0.323044 0.255491
O O5 0.391915 0.645553 0.389321
O O6 0.424173 0.768402 0.209242
O O7 0.629615 0.927492 0.438208
O O8 0.872135 0.168733 0.212033
O O9 0.583110 0.022413 0.152824
O O10 0.658931 0.228155 0.018721
O O11 0.111172 0.445954 0.342188
O O12 0.136041 0.197991 0.194164
O O13 0.112347 0.118520 0.387797
O O14 0.170361 0.796954 0.390939
O O15 0.291113 0.007671 0.115192
O O16 0.339632 0.053930 0.341213
#
# Coordination Sequence:
#
# PCOD8041836 Si02
#       8
#     2   2   2   2   2   2   2   2
#     4  11  20  35  60  87 124 158 190 241 295 353
#     4  12  18  36  63  93 115 148 207 249 284 345
#     4  10  24  43  55  82 121 164 201 230 296 358
#     4  10  21  39  59  89 125 152 188 248 302 352
#     4  12  19  35  63  95 121 147 193 252 301 343
#     4  10  22  40  64  81 112 163 206 243 278 352
#     4   9  17  35  60  88 111 152 194 244 290 335
#     4  10  19  33  60  95 115 142 193 244 302 339
#
# _framework density 19.296153
#
# number of rings (size 3 to 8) (size 9 to 14) (size 15 to 20)
#    0.750    0.750    5.000    2.250    0.000    1.500 
#    2.250    1.875    0.000    0.000    0.000    0.000 
#    0.000    0.000    0.000    0.000    0.000    0.000 
#
# Total GULP energy -198315.245078 kJ/mol
# GULP energy per Si atom -12394.702817 kJ/mol
# Density = 1.925223 g / cm^3
# Si number density = 19.296153 Si / 1000 Ang^3
#
#
#
# Elastic Constant Matrix: (Units=GPa)
#
#
# Indices 1 2 3 4 5 6 
#
# 1 94.6759 28.3239 48.0721 12.5948 0.2750 -17.9155
# 2 28.3239 111.0555 34.7782 10.6223 -2.3164 -16.9284
# 3 48.0721 34.7782 118.3900 3.3723 -17.7008 -8.0712
# 4 12.5948 10.6223 3.3723 18.3762 -4.7385 -1.7206
# 5 0.2750 -2.3164 -17.7008 -4.7385 25.3415 -0.1157
# 6 -17.9155 -16.9284 -8.0712 -1.7206 -0.1157 12.8151
#
#
#
# Elastic Compliance Matrix: (Units=1/GPa)
#
#
# Indices 1 2 3 4 5 6 
#
# 1 0.020519 0.002190 -0.008130 -0.013637 -0.008139 0.024554
# 2 0.002190 0.012787 -0.003715 -0.007366 -0.002752 0.016599
# 3 -0.008130 -0.003715 0.013790 0.007345 0.010724 -0.006505
# 4 -0.013637 -0.007366 0.007345 0.069843 0.017598 -0.014633
# 5 -0.008139 -0.002752 0.010724 0.017598 0.050055 -0.005444
# 6 0.024554 0.016599 -0.006505 -0.014633 -0.005444 0.128176
#
#
# Mechanical properties :
#
#
# Convention : Reuss Voigt Hill
#
# Bulk Modulus (GPa) = 35.98951 60.71886 48.35419
# Shear Modulus (GPa) = 15.44447 25.50304 20.47375
#
# Velocity S-wave (km/s) = 2.83219 3.63941 3.26088
# Velocity P-wave (km/s) = 5.42095 7.01396 6.26826
#
# Compressibility (1/GPa) = 0.02778587
#
# Stress axis : x y z
#
# Youngs Moduli (GPa) = 48.73503 78.20531 72.51716
#
# Poissons Ratio (x) = -0.17127 0.58953
# Poissons Ratio (y) = -0.10673 0.26944
# Poissons Ratio (z) = 0.39619 0.29057
#
# Static dielectric constant tensor:
#      x y z
#    x 3.320990 -0.136900 -0.261930 
#    y -0.136900 3.428920 0.145250 
#    z -0.261930 0.145250 3.434730 
# 
# 
# High freq. dielectric constant tensor:
#      x y z
#    x 1.732820 -0.014210 -0.015970 
#    y -0.014210 1.745790 0.011610 
#    z -0.015970 0.011610 1.738080 
# 
# From -- ./inp_files/382976.got.cif
#   From: 2010.06.25/outbox.cif.g09.slc.cpg/sg2_192_cif.got.tgz:382976.got - 2010.06.27 13:26:56.
