data_PCOD8041274
_publ_section_title
;
Structure prediction by ZEFSAII (Michael W. Deem and Ramdas Pophale) SiO2 
 PCOD8041274
Probable space group: P -1
;
_chemical_formula_sum "Si O2"
_cell_formula_units_Z 16
_cell_length_a 20.303968
_cell_length_b 14.942298
_cell_length_c 9.036983
_cell_angle_alpha 104.721348
_cell_angle_beta 84.552395
_cell_angle_gamma 159.827833
_cell_volume 825.329874
_symmetry_space_group_name_H-M "P -1"
_symmetry_group_IT_number 2
_symmetry_cell_setting 'triclinic'
loop_
_space_group_symop_operation_xyz
x,y,z
-x,-y,-z
loop_
_atom_site_type_symbol
_atom_site_label
_atom_site_fract_x
_atom_site_fract_y
_atom_site_fract_z
Si Si1 0.374655 0.185757 0.414504
Si Si2 0.633065 0.367800 0.460307
Si Si3 0.511187 0.810820 0.244912
Si Si4 0.758041 0.808393 0.653178
Si Si5 0.112542 0.028860 0.641819
Si Si6 0.345547 0.806097 0.587841
Si Si7 0.877837 0.796390 0.079089
Si Si8 0.133056 0.850181 0.607996
O O1 0.470673 0.217746 0.339166
O O2 0.561738 0.481306 0.601870
O O3 0.300438 0.160351 0.294351
O O4 0.179739 0.901319 0.444026
O O5 0.563964 0.280634 0.609097
O O6 0.634812 0.264598 0.353872
O O7 0.863851 0.718886 0.543244
O O8 0.588518 0.015230 0.258628
O O9 0.703694 0.993504 0.264876
O O10 0.321232 0.528550 0.062108
O O11 0.780682 0.826020 0.479326
O O12 0.966705 0.065177 0.807855
O O13 0.207583 0.235450 0.811092
O O14 0.150885 0.982795 0.699494
O O15 0.104441 0.499777 0.455110
O O16 0.500000 0.000000 0.500000
O O17 0.000000 0.000000 0.000000
#
# Coordination Sequence:
#
# PCOD8041274 Si02
#       8
#     2   2   2   2   2   2   2   2
#     4   9  17  32  54  80 101 135 187 227 253 300
#     4   9  16  32  54  78 101 138 187 222 256 301
#     4  10  19  32  50  80 113 143 171 216 280 311
#     4  10  20  33  54  81 108 144 187 211 255 328
#     4  10  19  33  55  78 105 145 186 214 253 320
#     4   9  18  31  55  78 104 140 183 224 257 320
#     4  12  21  33  53  79 120 141 166 221 277 323
#     4   9  18  33  53  79 106 138 184 222 261 312
#
# _framework density 19.386189000000002
#
# number of rings (size 3 to 8) (size 9 to 14) (size 15 to 20)
#    0.000    2.250    2.500    1.500    0.000    0.500 
#    0.000    0.000    0.000    7.500    0.000    0.000 
#    0.000    0.000    0.000    0.000    0.000    0.125 
#
# Total GULP energy -198286.003946 kJ/mol
# GULP energy per Si atom -12392.875247 kJ/mol
# Density = 1.934206 g / cm^3
# Si number density = 19.386189 Si / 1000 Ang^3
#
#
#
# Elastic Constant Matrix: (Units=GPa)
#
#
# Indices 1 2 3 4 5 6 
#
# 1 167.0400 26.8952 60.5963 25.4104 5.6245 3.1826
# 2 26.8952 84.6992 29.2073 23.0585 0.4474 6.6734
# 3 60.5963 29.2073 78.6279 22.6970 -0.0636 -6.3835
# 4 25.4104 23.0585 22.6970 28.4114 0.8487 -0.8704
# 5 5.6245 0.4474 -0.0636 0.8487 19.2192 7.2921
# 6 3.1826 6.6734 -6.3835 -0.8704 7.2921 30.3816
#
#
#
# Elastic Compliance Matrix: (Units=1/GPa)
#
#
# Indices 1 2 3 4 5 6 
#
# 1 0.008722 0.000378 -0.006083 -0.003258 -0.001693 -0.001962
# 2 0.000378 0.016294 -0.003618 -0.010888 0.001935 -0.005155
# 3 -0.006083 -0.003618 0.021766 -0.008841 0.000159 0.005714
# 4 -0.003258 -0.010888 -0.008841 0.054172 -0.002349 0.002991
# 5 -0.001693 0.001935 0.000159 -0.002349 0.057972 -0.014196
# 6 -0.001962 -0.005155 0.005714 0.002991 -0.014196 0.038946
#
#
# Mechanical properties :
#
#
# Convention : Reuss Voigt Hill
#
# Bulk Modulus (GPa) = 35.54005 62.64051 49.09028
# Shear Modulus (GPa) = 22.13392 29.84699 25.99046
#
# Velocity S-wave (km/s) = 3.38263 3.92803 3.66549
# Velocity P-wave (km/s) = 5.79902 7.27699 6.57964
#
# Compressibility (1/GPa) = 0.02813727
#
# Stress axis : x y z
#
# Youngs Moduli (GPa) = 114.64848 61.37181 45.94302
#
# Poissons Ratio (x) = -0.02323 0.27946
# Poissons Ratio (y) = -0.04339 0.16624
# Poissons Ratio (z) = 0.69737 0.22207
#
# Static dielectric constant tensor:
#      x y z
#    x 4.357330 -0.030730 -0.042030 
#    y -0.030730 3.685420 0.160630 
#    z -0.042030 0.160630 2.969360 
# 
# 
# High freq. dielectric constant tensor:
#      x y z
#    x 1.788530 0.007050 0.004910 
#    y 0.007050 1.763380 0.014920 
#    z 0.004910 0.014920 1.673960 
# 
# From -- ./inp_files/189392.got.cif
#   From: 2010.06.25/outbox.cif.g09.slc.cpg/sg2_95_cif.got.tgz:189392.got - 2010.06.27 13:26:56.
