data_PCOD8041268
_publ_section_title
;
Structure prediction by ZEFSAII (Michael W. Deem and Ramdas Pophale) SiO2 
 PCOD8041268
Probable space group: P -1
;
_chemical_formula_sum "Si O2"
_cell_formula_units_Z 14
_cell_length_a 22.135527
_cell_length_b 8.888341
_cell_length_c 13.262187
_cell_angle_alpha 32.809654
_cell_angle_beta 152.002238
_cell_angle_gamma 134.964503
_cell_volume 657.241057
_symmetry_space_group_name_H-M "P -1"
_symmetry_group_IT_number 2
_symmetry_cell_setting 'triclinic'
loop_
_space_group_symop_operation_xyz
x,y,z
-x,-y,-z
loop_
_atom_site_type_symbol
_atom_site_label
_atom_site_fract_x
_atom_site_fract_y
_atom_site_fract_z
Si Si1 0.343790 0.230570 0.938202
Si Si2 0.803428 0.016974 0.976861
Si Si3 0.498908 0.682794 0.202778
Si Si4 0.403076 0.704033 0.621549
Si Si5 0.938474 0.817974 0.751985
Si Si6 0.254226 0.823211 0.878089
Si Si7 0.759720 0.536087 0.765138
O O1 0.332977 0.533751 0.698738
O O2 0.336181 0.994142 0.977185
O O3 0.484142 0.148389 0.243988
O O4 0.231208 0.225505 0.860910
O O5 0.703479 0.050173 0.717159
O O6 0.794991 0.307814 0.859239
O O7 0.952669 0.977303 0.178037
O O8 0.532990 0.497510 0.258642
O O9 0.603908 0.615212 0.485412
O O10 0.353093 0.652839 0.040529
O O11 0.500000 0.000000 0.000000
O O12 0.837256 0.799945 0.705727
O O13 0.859100 0.958937 0.460067
O O14 0.000000 0.500000 0.000000
O O15 0.194574 0.587989 0.988250
#
# Coordination Sequence:
#
# PCOD8041268 Si02
#       7
#     2   2   2   2   2   2   2
#     4  10  19  32  52  77 103 134 168 210 259 305
#     4   9  19  32  50  74 108 134 170 208 258 302
#     4  11  18  34  54  75 109 136 168 216 259 303
#     4  10  20  34  51  77 106 134 166 211 259 308
#     4  10  19  32  50  78 110 135 167 218 257 297
#     4  11  20  33  54  82 105 133 173 213 259 305
#     4   9  19  31  49  78 104 133 169 213 260 300
#
# _framework density 21.301164
#
# number of rings (size 3 to 8) (size 9 to 14) (size 15 to 20)
#    0.000    2.000    2.857    2.571    0.000    6.286 
#    0.000    0.000    0.000    0.857    0.000   21.000 
#    0.000    0.000    0.000    0.000    0.000    0.000 
#
# Total GULP energy -173472.470677 kJ/mol
# GULP energy per Si atom -12390.890763 kJ/mol
# Density = 2.125268 g / cm^3
# Si number density = 21.301164 Si / 1000 Ang^3
#
#
#
# Elastic Constant Matrix: (Units=GPa)
#
#
# Indices 1 2 3 4 5 6 
#
# 1 85.7652 35.1091 64.3291 11.4158 -20.8967 35.8987
# 2 35.1091 57.9161 31.0328 16.3462 -6.8054 21.4372
# 3 64.3291 31.0328 142.4223 9.6784 -19.5505 12.9845
# 4 11.4158 16.3462 9.6784 23.9840 6.5275 0.9470
# 5 -20.8967 -6.8054 -19.5505 6.5275 31.8356 -6.2734
# 6 35.8987 21.4372 12.9845 0.9470 -6.2734 36.1987
#
#
#
# Elastic Compliance Matrix: (Units=1/GPa)
#
#
# Indices 1 2 3 4 5 6 
#
# 1 0.040812 0.001471 -0.012090 -0.018828 0.016921 -0.033583
# 2 0.001471 0.031625 -0.003588 -0.021934 0.006635 -0.017176
# 3 -0.012090 -0.003588 0.012202 0.002863 0.000111 0.009682
# 4 -0.018828 -0.021934 0.002863 0.070251 -0.024868 0.024487
# 5 0.016921 0.006635 0.000111 -0.024868 0.046739 -0.011999
# 6 -0.033583 -0.017176 0.009682 0.024487 -0.011999 0.064908
#
#
# Mechanical properties :
#
#
# Convention : Reuss Voigt Hill
#
# Bulk Modulus (GPa) = 17.78606 60.78284 39.28445
# Shear Modulus (GPa) = 15.93911 28.77916 22.35914
#
# Velocity S-wave (km/s) = 2.73843 3.67967 3.24337
# Velocity P-wave (km/s) = 4.28562 6.83009 5.70161
#
# Compressibility (1/GPa) = 0.05622380
#
# Stress axis : x y z
#
# Youngs Moduli (GPa) = 24.50271 31.62034 81.95361
#
# Poissons Ratio (x) = -0.04650 0.99084
# Poissons Ratio (y) = -0.03603 0.29404
# Poissons Ratio (z) = 0.29625 0.11345
#
# Static dielectric constant tensor:
#      x y z
#    x 8.000140 -0.285660 0.750370 
#    y -0.285660 4.124160 0.335110 
#    z 0.750370 0.335110 4.557150 
# 
# 
# High freq. dielectric constant tensor:
#      x y z
#    x 1.829920 0.044370 -0.018070 
#    y 0.044370 1.800130 0.008890 
#    z -0.018070 0.008890 1.835090 
# 
# From -- ./inp_files/246042.got.cif
#   From: 2010.06.25/outbox.cif.g09.slc.cpg/sg2_124_cif.got.tgz:246042.got - 2010.06.27 13:26:56.
