data_PCOD8041847
_publ_section_title
;
Structure prediction by ZEFSAII (Michael W. Deem and Ramdas Pophale) SiO2 
 PCOD8041847
Probable space group: P -1
;
_chemical_formula_sum "Si O2"
_cell_formula_units_Z 16
_cell_length_a 11.075768
_cell_length_b 13.693459
_cell_length_c 10.795136
_cell_angle_alpha 126.217252
_cell_angle_beta 63.789331
_cell_angle_gamma 148.620610
_cell_volume 680.080544
_symmetry_space_group_name_H-M "P -1"
_symmetry_group_IT_number 2
_symmetry_cell_setting 'triclinic'
loop_
_space_group_symop_operation_xyz
x,y,z
-x,-y,-z
loop_
_atom_site_type_symbol
_atom_site_label
_atom_site_fract_x
_atom_site_fract_y
_atom_site_fract_z
Si Si1 0.454573 0.029054 0.723814
Si Si2 0.986928 0.606164 0.701257
Si Si3 0.730982 0.426862 0.387789
Si Si4 0.012711 0.680874 0.014041
Si Si5 0.311136 0.675338 0.936964
Si Si6 0.513207 0.825107 0.429891
Si Si7 0.019289 0.143871 0.461483
Si Si8 0.217260 0.043550 0.326899
O O1 0.171359 0.810837 0.682371
O O2 0.569513 0.981828 0.611577
O O3 0.508413 0.114994 0.903102
O O4 0.559805 0.189410 0.688236
O O5 0.087575 0.544852 0.634684
O O6 0.737512 0.423573 0.601601
O O7 0.946467 0.651347 0.878869
O O8 0.471336 0.234696 0.432053
O O9 0.863240 0.651813 0.499583
O O10 0.602221 0.314945 0.226211
O O11 0.111947 0.619697 0.939292
O O12 0.199188 0.922048 0.144864
O O13 0.783260 0.507777 0.076131
O O14 0.750331 0.923884 0.373563
O O15 0.175112 0.142002 0.353183
O O16 0.996042 0.137762 0.616325
#
# Coordination Sequence:
#
# PCOD8041847 Si02
#       8
#     2   2   2   2   2   2   2   2
#     4  11  21  35  57  87 119 149 184 236 291 341
#     4  11  22  36  61  91 115 148 185 238 292 341
#     4  11  21  37  62  89 116 143 190 242 290 334
#     4  10  19  35  59  87 115 145 188 237 291 335
#     4  10  19  33  61  88 115 144 180 244 299 331
#     4  11  23  37  55  83 122 155 187 228 281 343
#     4  11  24  40  58  82 117 158 192 230 276 336
#     4  11  23  40  61  84 114 152 194 235 279 340
#
# _framework density 23.526624999999999
#
# number of rings (size 3 to 8) (size 9 to 14) (size 15 to 20)
#    0.000    1.250    2.500    5.250    1.750    3.000 
#    0.000    0.625    0.000    1.500    0.000    0.000 
#    0.000    0.000    0.000    0.000    0.000    0.000 
#
# Total GULP energy -198277.996479 kJ/mol
# GULP energy per Si atom -12392.374780 kJ/mol
# Density = 2.347308 g / cm^3
# Si number density = 23.526625 Si / 1000 Ang^3
#
#
#
# Elastic Constant Matrix: (Units=GPa)
#
#
# Indices 1 2 3 4 5 6 
#
# 1 79.3100 30.7438 20.8269 13.1167 -3.1593 19.7726
# 2 30.7438 118.7567 14.2148 20.0014 -5.3923 3.4229
# 3 20.8269 14.2148 76.4347 14.9363 11.9760 9.7115
# 4 13.1167 20.0014 14.9363 28.8977 3.2796 8.2823
# 5 -3.1593 -5.3923 11.9760 3.2796 23.1517 6.4261
# 6 19.7726 3.4229 9.7115 8.2823 6.4261 36.5755
#
#
#
# Elastic Compliance Matrix: (Units=1/GPa)
#
#
# Indices 1 2 3 4 5 6 
#
# 1 0.017634 -0.003242 -0.003662 -0.002031 0.006305 -0.008905
# 2 -0.003242 0.010451 -0.000466 -0.006356 0.002612 0.001879
# 3 -0.003662 -0.000466 0.016564 -0.005733 -0.008479 0.000413
# 4 -0.002031 -0.006356 -0.005733 0.045110 -0.003405 -0.006402
# 5 0.006305 0.002612 -0.008479 -0.003405 0.052253 -0.009811
# 6 -0.008905 0.001879 0.000413 -0.006402 -0.009811 0.035043
#
#
# Mechanical properties :
#
#
# Convention : Reuss Voigt Hill
#
# Bulk Modulus (GPa) = 33.43429 45.11914 39.27672
# Shear Modulus (GPa) = 24.78151 31.63938 28.21044
#
# Velocity S-wave (km/s) = 3.24904 3.67117 3.46654
# Velocity P-wave (km/s) = 5.32138 6.09833 5.72305
#
# Compressibility (1/GPa) = 0.02990942
#
# Stress axis : x y z
#
# Youngs Moduli (GPa) = 56.70819 95.68915 60.37299
#
# Poissons Ratio (x) = 0.31021 0.22106
# Poissons Ratio (y) = 0.18384 0.02814
# Poissons Ratio (z) = 0.20764 0.04460
#
# Static dielectric constant tensor:
#      x y z
#    x 4.002330 -0.254840 0.408700 
#    y -0.254840 4.627750 -0.357080 
#    z 0.408700 -0.357080 4.376950 
# 
# 
# High freq. dielectric constant tensor:
#      x y z
#    x 1.897000 -0.012660 0.039670 
#    y -0.012660 1.960390 -0.006410 
#    z 0.039670 -0.006410 1.926700 
# 
# From -- ./inp_files/427497.got.cif
#   From: 2010.06.25/outbox.cif.g09.slc.cpg/sg2_214_cif.got.tgz:427497.got - 2010.06.27 13:26:56.
