data_PCOD8041872
_publ_section_title
;
Structure prediction by ZEFSAII (Michael W. Deem and Ramdas Pophale) SiO2 
 PCOD8041872
Probable space group: P -1
;
_chemical_formula_sum "Si O2"
_cell_formula_units_Z 14
_cell_length_a 11.914516
_cell_length_b 9.643281
_cell_length_c 14.384579
_cell_angle_alpha 99.374458
_cell_angle_beta 53.763288
_cell_angle_gamma 51.385293
_cell_volume 558.965590
_symmetry_space_group_name_H-M "P -1"
_symmetry_group_IT_number 2
_symmetry_cell_setting 'triclinic'
loop_
_space_group_symop_operation_xyz
x,y,z
-x,-y,-z
loop_
_atom_site_type_symbol
_atom_site_label
_atom_site_fract_x
_atom_site_fract_y
_atom_site_fract_z
Si Si1 0.462959 0.996687 0.774574
Si Si2 0.922202 0.707462 0.172191
Si Si3 0.318101 0.557422 0.850778
Si Si4 0.128999 0.684566 0.221995
Si Si5 0.863350 0.009874 0.762313
Si Si6 0.072067 0.185527 0.475629
Si Si7 0.799545 0.023983 0.002118
O O1 0.409529 0.023648 0.692279
O O2 0.799852 0.772696 0.597000
O O3 0.467962 0.844981 0.812098
O O4 0.161606 0.356660 0.006360
O O5 0.885941 0.787539 0.306989
O O6 0.060688 0.725375 0.065123
O O7 0.654684 0.163551 0.646999
O O8 0.148944 0.699419 0.847916
O O9 0.376460 0.664637 0.864502
O O10 0.982529 0.975017 0.313890
O O11 0.478215 0.363352 0.962388
O O12 0.202859 0.573147 0.281833
O O13 0.044099 0.760424 0.563261
O O14 0.903807 0.899559 0.830517
#
# Coordination Sequence:
#
# PCOD8041872 Si02
#       7
#     2   2   2   2   2   2   2
#     4   9  19  34  59  88 115 150 191 236 291 345
#     4   9  16  36  61  84 110 153 201 232 276 342
#     4   9  17  36  61  88 109 152 200 237 280 338
#     4  11  21  37  65  85 112 155 202 238 274 340
#     4  11  21  38  60  88 115 154 193 238 287 341
#     4  11  22  39  62  87 115 152 201 235 277 350
#     4  10  19  33  64  84 119 155 183 240 302 331
#
# _framework density 25.046265999999999
#
# number of rings (size 3 to 8) (size 9 to 14) (size 15 to 20)
#    0.000    2.000    4.286    2.143    0.000    1.143 
#    0.000    1.429    9.429    0.000    0.000    0.000 
#    0.000    0.000    0.000    0.000    0.000    0.000 
#
# Total GULP energy -173532.269943 kJ/mol
# GULP energy per Si atom -12395.162139 kJ/mol
# Density = 2.498926 g / cm^3
# Si number density = 25.046266 Si / 1000 Ang^3
#
#
#
# Elastic Constant Matrix: (Units=GPa)
#
#
# Indices 1 2 3 4 5 6 
#
# 1 147.1847 28.0221 14.2438 -14.5875 39.8817 2.2477
# 2 28.0221 104.2558 9.7762 -15.6535 9.7288 14.5922
# 3 14.2438 9.7762 54.8390 -25.3490 19.0741 4.8426
# 4 -14.5875 -15.6535 -25.3490 27.5106 -10.3175 2.7025
# 5 39.8817 9.7288 19.0741 -10.3175 26.4942 -13.7472
# 6 2.2477 14.5922 4.8426 2.7025 -13.7472 46.0857
#
#
#
# Elastic Compliance Matrix: (Units=1/GPa)
#
#
# Indices 1 2 3 4 5 6 
#
# 1 0.018895 0.001982 0.018383 0.012206 -0.047123 -0.018253
# 2 0.001982 0.012784 0.008581 0.011788 -0.014485 -0.010058
# 3 0.018383 0.008581 0.064412 0.048645 -0.077044 -0.036217
# 4 0.012206 0.011788 0.048645 0.082210 -0.039171 -0.025945
# 5 -0.047123 -0.014485 -0.077044 -0.039171 0.193055 0.074865
# 6 -0.018253 -0.010058 -0.036217 -0.025945 0.074865 0.053433
#
#
# Mechanical properties :
#
#
# Convention : Reuss Voigt Hill
#
# Bulk Modulus (GPa) = 6.49417 45.59597 26.04507
# Shear Modulus (GPa) = 11.95537 36.96726 24.46131
#
# Velocity S-wave (km/s) = 2.18716 3.84599 3.12852
# Velocity P-wave (km/s) = 2.99612 6.16169 4.84475
#
# Compressibility (1/GPa) = 0.15398423
#
# Stress axis : x y z
#
# Youngs Moduli (GPa) = 52.92475 78.22516 15.52506
#
# Poissons Ratio (x) = -0.15508 -0.28540
# Poissons Ratio (y) = -0.10492 -0.13322
# Poissons Ratio (z) = -0.97293 -0.67127
#
# Static dielectric constant tensor:
#      x y z
#    x 4.866450 -0.093800 0.036770 
#    y -0.093800 4.508080 -0.203860 
#    z 0.036770 -0.203860 4.040010 
# 
# 
# High freq. dielectric constant tensor:
#      x y z
#    x 2.018760 -0.007300 0.002230 
#    y -0.007300 2.002860 -0.015230 
#    z 0.002230 -0.015230 1.961140 
# 
# From -- ./inp_files/388235.got.cif
#   From: 2010.06.25/outbox.cif.g09.slc.cpg/sg2_195_cif.got.tgz:388235.got - 2010.06.27 13:26:56.
