data_PCOD8041633
_publ_section_title
;
Structure prediction by ZEFSAII (Michael W. Deem and Ramdas Pophale) SiO2 
 PCOD8041633
Probable space group: P -1
;
_chemical_formula_sum "Si O2"
_cell_formula_units_Z 16
_cell_length_a 9.726031
_cell_length_b 10.582752
_cell_length_c 11.862945
_cell_angle_alpha 48.691912
_cell_angle_beta 58.478351
_cell_angle_gamma 76.858684
_cell_volume 768.526716
_symmetry_space_group_name_H-M "P -1"
_symmetry_group_IT_number 2
_symmetry_cell_setting 'triclinic'
loop_
_space_group_symop_operation_xyz
x,y,z
-x,-y,-z
loop_
_atom_site_type_symbol
_atom_site_label
_atom_site_fract_x
_atom_site_fract_y
_atom_site_fract_z
Si Si1 0.675873 0.198068 0.720798
Si Si2 0.757528 0.553924 0.053950
Si Si3 0.383097 0.799526 0.794527
Si Si4 0.025430 0.163377 0.552212
Si Si5 0.344843 0.145511 0.529328
Si Si6 0.964227 0.210907 0.302412
Si Si7 0.646481 0.329015 0.422900
Si Si8 0.519870 0.810101 0.969297
O O1 0.647753 0.333359 0.555505
O O2 0.589719 0.247778 0.840118
O O3 0.868757 0.211549 0.654726
O O4 0.602542 0.008112 0.821004
O O5 0.712848 0.376783 0.110220
O O6 0.716210 0.515371 0.227456
O O7 0.655900 0.692539 0.969001
O O8 0.949287 0.632510 0.905981
O O9 0.562829 0.855289 0.629338
O O10 0.286233 0.953833 0.716897
O O11 0.399781 0.778740 0.932824
O O12 0.183965 0.228074 0.524718
O O13 0.045035 0.246704 0.370723
O O14 0.001084 0.960394 0.666994
O O15 0.461498 0.260482 0.501471
O O16 0.768384 0.203973 0.399510
#
# Coordination Sequence:
#
# PCOD8041633 Si02
#       8
#     2   2   2   2   2   2   2   2
#     4  10  22  39  59  78 113 159 191 228 269 339
#     4  11  21  33  58  91 115 142 184 244 285 326
#     4  10  20  34  58  87 116 146 178 242 286 332
#     4  10  19  33  58  83 113 150 188 234 271 338
#     4  10  19  34  59  88 114 145 187 229 295 335
#     4  10  19  33  55  88 117 142 186 231 288 333
#     4  10  21  37  59  85 118 149 181 237 285 335
#     4  11  21  38  58  81 115 151 198 225 274 342
#
# _framework density 20.819054999999999
#
# number of rings (size 3 to 8) (size 9 to 14) (size 15 to 20)
#    0.000    1.750    2.500    3.750    1.750    1.500 
#    0.000    0.625    0.000   12.000    0.000    0.000 
#    0.000    0.000    0.000    0.000    0.000    0.000 
#
# Total GULP energy -198376.925413 kJ/mol
# GULP energy per Si atom -12398.557838 kJ/mol
# Density = 2.077167 g / cm^3
# Si number density = 20.819055 Si / 1000 Ang^3
#
#
#
# Elastic Constant Matrix: (Units=GPa)
#
#
# Indices 1 2 3 4 5 6 
#
# 1 120.4919 1.3183 31.9979 13.4383 -1.3298 3.9193
# 2 1.3183 18.9875 15.8510 3.5072 0.1097 9.0749
# 3 31.9979 15.8510 117.8623 1.9543 7.2871 15.2978
# 4 13.4383 3.5072 1.9543 28.8336 -0.7960 3.9374
# 5 -1.3298 0.1097 7.2871 -0.7960 35.2789 2.6626
# 6 3.9193 9.0749 15.2978 3.9374 2.6626 16.5660
#
#
#
# Elastic Compliance Matrix: (Units=1/GPa)
#
#
# Indices 1 2 3 4 5 6 
#
# 1 0.009565 0.002643 -0.002921 -0.004548 0.000858 -0.000071
# 2 0.002643 0.075782 -0.006438 -0.005048 0.003767 -0.035600
# 3 -0.002921 -0.006438 0.011024 0.002191 -0.001851 -0.006186
# 4 -0.004548 -0.005048 0.002191 0.038302 0.000816 -0.007417
# 5 0.000858 0.003767 -0.001851 0.000816 0.029178 -0.005441
# 6 -0.000071 -0.035600 -0.006186 -0.007417 -0.005441 0.088232
#
#
# Mechanical properties :
#
#
# Convention : Reuss Voigt Hill
#
# Bulk Modulus (GPa) = 12.05681 39.51956 25.78819
# Shear Modulus (GPa) = 17.05543 30.01400 23.53472
#
# Velocity S-wave (km/s) = 2.86531 3.80104 3.36585
# Velocity P-wave (km/s) = 4.09274 6.18769 5.24585
#
# Compressibility (1/GPa) = 0.08294065
#
# Stress axis : x y z
#
# Youngs Moduli (GPa) = 104.54741 13.19567 90.70942
#
# Poissons Ratio (x) = -0.03488 0.26494
# Poissons Ratio (y) = -0.27633 0.58398
# Poissons Ratio (z) = 0.30535 0.08495
#
# Static dielectric constant tensor:
#      x y z
#    x 3.885630 -0.171800 0.241640 
#    y -0.171800 3.268330 -0.066920 
#    z 0.241640 -0.066920 3.996980 
# 
# 
# High freq. dielectric constant tensor:
#      x y z
#    x 1.823470 -0.011520 0.012850 
#    y -0.011520 1.769160 -0.008280 
#    z 0.012850 -0.008280 1.822570 
# 
# From -- ./inp_files/328732.got.cif
#   From: 2010.06.25/outbox.cif.g09.slc.cpg/sg2_165_cif.got.tgz:328732.got - 2010.06.27 13:26:56.
