data_PCOD8041477
_publ_section_title
;
Structure prediction by ZEFSAII (Michael W. Deem and Ramdas Pophale) SiO2 
 PCOD8041477
Probable space group: P -1
;
_chemical_formula_sum "Si O2"
_cell_formula_units_Z 14
_cell_length_a 11.549746
_cell_length_b 11.424279
_cell_length_c 17.239745
_cell_angle_alpha 137.212833
_cell_angle_beta 32.964970
_cell_angle_gamma 140.410605
_cell_volume 763.374165
_symmetry_space_group_name_H-M "P -1"
_symmetry_group_IT_number 2
_symmetry_cell_setting 'triclinic'
loop_
_space_group_symop_operation_xyz
x,y,z
-x,-y,-z
loop_
_atom_site_type_symbol
_atom_site_label
_atom_site_fract_x
_atom_site_fract_y
_atom_site_fract_z
Si Si1 0.704879 0.232676 0.918994
Si Si2 0.847522 0.663841 0.865416
Si Si3 0.116813 0.328031 0.976549
Si Si4 0.145966 0.818710 0.628767
Si Si5 0.508530 0.184472 0.678430
Si Si6 0.549039 0.233519 0.846154
Si Si7 0.826544 0.015766 0.867067
O O1 0.695597 0.191122 0.811300
O O2 0.853988 0.135553 0.830581
O O3 0.830103 0.458191 0.975274
O O4 0.438889 0.139057 0.052687
O O5 0.663816 0.449900 0.859906
O O6 0.021444 0.686884 0.707685
O O7 0.972485 0.709708 0.902080
O O8 0.713831 0.802616 0.994131
O O9 0.366372 0.315352 0.822748
O O10 0.912940 0.170534 0.963684
O O11 0.245743 0.714172 0.458627
O O12 0.365341 0.988646 0.623210
O O13 0.982326 0.898771 0.714619
O O14 0.547198 0.123689 0.714702
#
# Coordination Sequence:
#
# PCOD8041477 Si02
#       7
#     2   2   2   2   2   2   2
#     4  10  19  33  50  76  99 125 174 201 234 300
#     4   9  17  29  51  72  98 121 163 204 250 284
#     4   9  19  34  52  76  97 128 163 210 245 287
#     4  10  19  33  47  77 100 128 163 198 248 308
#     4   9  20  31  50  74 101 128 158 204 257 283
#     4   9  17  31  47  73  96 127 159 210 238 287
#     4  10  20  31  52  73 100 135 158 205 246 282
#
# _framework density 18.33963
#
# number of rings (size 3 to 8) (size 9 to 14) (size 15 to 20)
#    0.000    2.571    1.429    1.286    2.000    2.286 
#    0.000    0.714    0.000    0.000    0.000    7.000 
#    0.000    0.000    0.000    0.000    0.000    0.000 
#
# Total GULP energy -173446.169496 kJ/mol
# GULP energy per Si atom -12389.012107 kJ/mol
# Density = 1.829789 g / cm^3
# Si number density = 18.339630 Si / 1000 Ang^3
#
#
#
# Elastic Constant Matrix: (Units=GPa)
#
#
# Indices 1 2 3 4 5 6 
#
# 1 89.8039 4.4561 23.7757 -5.4848 -8.1679 -20.0979
# 2 4.4561 35.5636 2.1955 -10.7531 -13.7759 -18.6539
# 3 23.7757 2.1955 74.9748 -14.7795 19.0463 -11.9071
# 4 -5.4848 -10.7531 -14.7795 13.5931 -18.1259 -7.7010
# 5 -8.1679 -13.7759 19.0463 -18.1259 -6.6617 -19.5892
# 6 -20.0979 -18.6539 -11.9071 -7.7010 -19.5892 16.1231
#
#
#
# Elastic Compliance Matrix: (Units=1/GPa)
#
#
# Indices 1 2 3 4 5 6 
#
# 1 0.011898 -0.003926 -0.004023 -0.006264 -0.002985 0.000699
# 2 -0.003926 0.020771 0.004359 -0.003199 -0.017107 0.000045
# 3 -0.004023 0.004359 0.022060 0.015634 -0.011699 0.009573
# 4 -0.006264 -0.003199 0.015634 0.043692 -0.026541 -0.011340
# 5 -0.002985 -0.017107 -0.011699 -0.026541 0.013015 -0.029016
# 6 0.000699 0.000045 0.009573 -0.011340 -0.029016 0.029346
#
#
# Mechanical properties :
#
#
# Convention : Reuss Voigt Hill
#
# Bulk Modulus (GPa) = 21.03101 29.02186 25.02643
# Shear Modulus (GPa) = 30.52281 15.93859 23.23070
#
# Velocity S-wave (km/s) = 4.08402 2.95121 3.56293
# Velocity P-wave (km/s) = 5.80787 5.24136 5.53187
#
# Compressibility (1/GPa) = 0.04754884
#
# Stress axis : x y z
#
# Youngs Moduli (GPa) = 84.04933 48.14303 45.33042
#
# Poissons Ratio (x) = 0.18901 0.18239
# Poissons Ratio (y) = 0.32997 -0.19760
# Poissons Ratio (z) = 0.33817 -0.20986
#
# Static dielectric constant tensor:
#      x y z
#    x 3.683580 -0.031880 0.303150 
#    y -0.031880 3.373970 -0.241240 
#    z 0.303150 -0.241240 3.888220 
# 
# 
# High freq. dielectric constant tensor:
#      x y z
#    x 1.718820 0.005640 0.018850 
#    y 0.005640 1.711130 -0.009750 
#    z 0.018850 -0.009750 1.673280 
# 
# From -- ./inp_files/163347.got.cif
#   From: 2010.06.25/outbox.cif.g09.slc.cpg/sg2_82_cif.got.tgz:163347.got - 2010.06.27 13:26:56.
