data_PCOD8041510
_publ_section_title
;
Structure prediction by ZEFSAII (Michael W. Deem and Ramdas Pophale) SiO2 
 PCOD8041510
Probable space group: P -1
;
_chemical_formula_sum "Si O2"
_cell_formula_units_Z 14
_cell_length_a 11.168643
_cell_length_b 9.220740
_cell_length_c 12.038770
_cell_angle_alpha 136.656815
_cell_angle_beta 61.495359
_cell_angle_gamma 87.023196
_cell_volume 560.799702
_symmetry_space_group_name_H-M "P -1"
_symmetry_group_IT_number 2
_symmetry_cell_setting 'triclinic'
loop_
_space_group_symop_operation_xyz
x,y,z
-x,-y,-z
loop_
_atom_site_type_symbol
_atom_site_label
_atom_site_fract_x
_atom_site_fract_y
_atom_site_fract_z
Si Si1 0.442845 0.916262 0.377121
Si Si2 0.834960 0.430671 0.885472
Si Si3 0.148048 0.526190 0.853088
Si Si4 0.711269 0.132635 0.012639
Si Si5 0.851272 0.987244 0.098764
Si Si6 0.329476 0.640424 0.409888
Si Si7 0.980086 0.834018 0.553199
O O1 0.366083 0.773725 0.372784
O O2 0.500000 0.000000 0.500000
O O3 0.280644 0.219826 0.562368
O O4 0.621178 0.693045 0.097985
O O5 0.953152 0.382956 0.698814
O O6 0.894123 0.486777 0.005146
O O7 0.871964 0.144145 0.722953
O O8 0.239510 0.665924 0.892077
O O9 0.959557 0.703493 0.966688
O O10 0.504555 0.310575 0.163882
O O11 0.747994 0.995926 0.042482
O O12 0.835052 0.877984 0.726637
O O13 0.699598 0.238239 0.386311
O O14 0.000000 0.000000 0.000000
O O15 0.151097 0.705424 0.485042
#
# Coordination Sequence:
#
# PCOD8041510 Si02
#       7
#     2   2   2   2   2   2   2
#     4  10  19  34  52  79 117 135 175 218 263 327
#     4   9  17  35  50  74 119 138 164 230 256 313
#     4   9  17  36  51  77 113 136 168 218 267 308
#     4  10  19  36  51  82 108 135 180 226 254 314
#     4  10  19  34  53  78 111 135 181 222 264 309
#     4  12  19  32  57  82 106 144 172 216 280 311
#     4  10  19  33  52  80 110 140 176 214 268 313
#
# _framework density 24.964351000000001
#
# number of rings (size 3 to 8) (size 9 to 14) (size 15 to 20)
#    0.000    2.000    8.571    0.429    0.000    1.143 
#    0.000    0.000    0.000    0.857    0.000    5.000 
#    0.000    0.000    0.000    0.000    0.000    0.000 
#
# Total GULP energy -173447.752176 kJ/mol
# GULP energy per Si atom -12389.125155 kJ/mol
# Density = 2.490753 g / cm^3
# Si number density = 24.964351 Si / 1000 Ang^3
#
#
#
# Elastic Constant Matrix: (Units=GPa)
#
#
# Indices 1 2 3 4 5 6 
#
# 1 25.7587 16.2344 34.7280 10.2654 -16.4084 -19.3269
# 2 16.2344 105.6992 65.5233 -0.4229 -9.7127 -34.9571
# 3 34.7280 65.5233 217.2739 -9.8867 -35.0400 -30.6195
# 4 10.2654 -0.4229 -9.8867 33.7757 -10.3558 -8.7383
# 5 -16.4084 -9.7127 -35.0400 -10.3558 27.3214 12.7274
# 6 -19.3269 -34.9571 -30.6195 -8.7383 12.7274 30.0617
#
#
#
# Elastic Compliance Matrix: (Units=1/GPa)
#
#
# Indices 1 2 3 4 5 6 
#
# 1 0.110427 0.010520 -0.008753 -0.012511 0.026369 0.059512
# 2 0.010520 0.018902 -0.004265 0.001353 -0.004321 0.026622
# 3 -0.008753 -0.004265 0.008412 0.006663 0.008196 -0.003552
# 4 -0.012511 0.001353 0.006663 0.041381 0.014259 0.006309
# 5 0.026369 -0.004321 0.008196 0.014259 0.069062 -0.004819
# 6 0.059512 0.026622 -0.003552 0.006309 -0.004819 0.102739
#
#
# Mechanical properties :
#
#
# Convention : Reuss Voigt Hill
#
# Bulk Modulus (GPa) = 7.53318 64.63369 36.08343
# Shear Modulus (GPa) = 12.49475 33.71484 23.10479
#
# Velocity S-wave (km/s) = 2.23962 3.67893 3.04552
# Velocity P-wave (km/s) = 3.11641 6.63269 5.18192
#
# Compressibility (1/GPa) = 0.13274601
#
# Stress axis : x y z
#
# Youngs Moduli (GPa) = 9.05572 52.90475 118.87514
#
# Poissons Ratio (x) = -0.55657 1.04048
# Poissons Ratio (y) = -0.09527 0.50704
# Poissons Ratio (z) = 0.07926 0.22566
#
# Static dielectric constant tensor:
#      x y z
#    x 4.045210 -0.313730 -0.019300 
#    y -0.313730 5.010100 0.248910 
#    z -0.019300 0.248910 5.941050 
# 
# 
# High freq. dielectric constant tensor:
#      x y z
#    x 1.959940 -0.022610 -0.021860 
#    y -0.022610 1.983330 0.000120 
#    z -0.021860 0.000120 2.010990 
# 
# From -- ./inp_files/450632.got.cif
#   From: 2010.06.25/outbox.cif.g09.slc.cpg/sg2_226_cif.got.tgz:450632.got - 2010.06.27 13:26:56.
