data_PCOD8041700
_publ_section_title
;
Structure prediction by ZEFSAII (Michael W. Deem and Ramdas Pophale) SiO2 
 PCOD8041700
Probable space group: P -1
;
_chemical_formula_sum "Si O2"
_cell_formula_units_Z 14
_cell_length_a 7.756716
_cell_length_b 20.922866
_cell_length_c 8.988446
_cell_angle_alpha 140.392484
_cell_angle_beta 67.669206
_cell_angle_gamma 89.494796
_cell_volume 739.281280
_symmetry_space_group_name_H-M "P -1"
_symmetry_group_IT_number 2
_symmetry_cell_setting 'triclinic'
loop_
_space_group_symop_operation_xyz
x,y,z
-x,-y,-z
loop_
_atom_site_type_symbol
_atom_site_label
_atom_site_fract_x
_atom_site_fract_y
_atom_site_fract_z
Si Si1 0.127350 0.182417 0.285699
Si Si2 0.191496 0.610222 0.410678
Si Si3 0.783188 0.254537 0.102603
Si Si4 0.525511 0.187119 0.254199
Si Si5 0.463087 0.352502 0.812623
Si Si6 0.202039 0.787273 0.310969
Si Si7 0.992331 0.948999 0.138052
O O1 0.378579 0.135448 0.154532
O O2 0.039848 0.300680 0.428359
O O3 0.992738 0.210958 0.533159
O O4 0.106862 0.083373 0.027337
O O5 0.198580 0.641711 0.637888
O O6 0.361832 0.631752 0.305978
O O7 0.248071 0.477218 0.140074
O O8 0.564176 0.256922 0.232837
O O9 0.783427 0.271683 0.957969
O O10 0.989745 0.129837 0.865950
O O11 0.402642 0.273936 0.589350
O O12 0.762498 0.081672 0.041666
O O13 0.567743 0.288456 0.818654
O O14 0.160584 0.916602 0.530630
#
# Coordination Sequence:
#
# PCOD8041700 Si02
#       7
#     2   2   2   2   2   2   2
#     4  10  19  33  57  75  96 138 169 209 244 296
#     4   8  16  34  52  70 104 132 170 199 256 297
#     4   8  18  34  52  74 103 135 161 210 250 302
#     4   9  19  35  51  78 101 132 171 199 257 294
#     4   9  17  31  52  76  98 135 167 211 238 304
#     4  11  18  32  55  75 104 133 168 204 258 286
#     4   9  19  36  51  73 106 136 163 206 246 308
#
# _framework density 18.937314000000001
#
# number of rings (size 3 to 8) (size 9 to 14) (size 15 to 20)
#    0.857    2.000    2.857    0.857    0.000    1.714 
#    0.000    3.571    0.000    1.714    0.000    0.000 
#    0.000    0.000    0.000    0.000    0.000    0.000 
#
# Total GULP energy -173487.952237 kJ/mol
# GULP energy per Si atom -12391.996588 kJ/mol
# Density = 1.889421 g / cm^3
# Si number density = 18.937314 Si / 1000 Ang^3
#
#
#
# Elastic Constant Matrix: (Units=GPa)
#
#
# Indices 1 2 3 4 5 6 
#
# 1 99.7044 18.2585 21.1396 -2.6335 19.4390 -7.8257
# 2 18.2585 52.2239 31.9532 -15.0803 9.0804 -20.8821
# 3 21.1396 31.9532 96.1934 1.5276 17.2137 -22.0794
# 4 -2.6335 -15.0803 1.5276 37.1245 -13.5603 2.4236
# 5 19.4390 9.0804 17.2137 -13.5603 17.0308 -5.4117
# 6 -7.8257 -20.8821 -22.0794 2.4236 -5.4117 19.0768
#
#
#
# Elastic Compliance Matrix: (Units=1/GPa)
#
#
# Indices 1 2 3 4 5 6 
#
# 1 0.015626 -0.008266 0.003405 -0.012429 -0.028411 -0.005178
# 2 -0.008266 0.047779 -0.010013 0.027089 0.029032 0.042114
# 3 0.003405 -0.010013 0.020154 -0.015770 -0.029087 0.007514
# 4 -0.012429 0.027089 -0.015770 0.062582 0.071426 0.018613
# 5 -0.028411 0.029032 -0.029087 0.071426 0.170082 0.025634
# 6 -0.005178 0.042114 0.007514 0.018613 0.025634 0.109999
#
#
# Mechanical properties :
#
#
# Convention : Reuss Voigt Hill
#
# Bulk Modulus (GPa) = 18.58395 43.42494 31.00444
# Shear Modulus (GPa) = 10.55059 26.43111 18.49085
#
# Velocity S-wave (km/s) = 2.36293 3.73998 3.12817
# Velocity P-wave (km/s) = 4.15683 6.45218 5.42724
#
# Compressibility (1/GPa) = 0.05380988
#
# Stress axis : x y z
#
# Youngs Moduli (GPa) = 63.99590 20.92972 49.61835
#
# Poissons Ratio (x) = 0.17300 -0.16894
# Poissons Ratio (y) = 0.52898 0.49685
# Poissons Ratio (z) = -0.21789 0.20958
#
# Static dielectric constant tensor:
#      x y z
#    x 3.111380 -0.271010 0.075140 
#    y -0.271010 3.215660 0.119760 
#    z 0.075140 0.119760 3.484090 
# 
# 
# High freq. dielectric constant tensor:
#      x y z
#    x 1.706190 -0.027450 0.016480 
#    y -0.027450 1.711130 0.005390 
#    z 0.016480 0.005390 1.730910 
# 
# From -- ./inp_files/219971.got.cif
#   From: 2010.06.25/outbox.cif.g09.slc.cpg/sg2_110_cif.got.tgz:219971.got - 2010.06.27 13:26:56.
