data_PCOD8041669
_publ_section_title
;
Structure prediction by ZEFSAII (Michael W. Deem and Ramdas Pophale) SiO2 
 PCOD8041669
Probable space group: P -1
;
_chemical_formula_sum "Si O2"
_cell_formula_units_Z 16
_cell_length_a 5.108976
_cell_length_b 9.251147
_cell_length_c 25.103474
_cell_angle_alpha 128.627857
_cell_angle_beta 78.257140
_cell_angle_gamma 73.970909
_cell_volume 771.191126
_symmetry_space_group_name_H-M "P -1"
_symmetry_group_IT_number 2
_symmetry_cell_setting 'triclinic'
loop_
_space_group_symop_operation_xyz
x,y,z
-x,-y,-z
loop_
_atom_site_type_symbol
_atom_site_label
_atom_site_fract_x
_atom_site_fract_y
_atom_site_fract_z
Si Si1 0.615982 0.012219 0.623943
Si Si2 0.860962 0.551436 0.230100
Si Si3 0.627405 0.551434 0.730100
Si Si4 0.337627 0.732625 0.033820
Si Si5 0.376088 0.987781 0.876056
Si Si6 0.683968 0.224378 0.573316
Si Si7 0.637891 0.267376 0.466180
Si Si8 0.554973 0.775624 0.926684
O O1 0.521606 0.835216 0.584629
O O2 0.986461 0.888934 0.591237
O O3 0.406695 0.199700 0.719843
O O4 0.500729 0.163459 0.609578
O O5 0.692290 0.431116 0.232397
O O6 0.088198 0.568888 0.267603
O O7 0.075669 0.411875 0.138617
O O8 0.735231 0.411874 0.638617
O O9 0.546087 0.800297 0.780156
O O10 0.442133 0.888933 0.091237
O O11 0.973917 0.835218 0.084632
O O12 0.500000 0.500000 0.000000
O O13 0.402920 0.697383 0.959411
O O14 0.383338 0.836545 0.890423
O O15 0.519126 0.302622 0.540591
O O16 0.000000 0.000000 0.500000
O O17 0.500000 0.500000 0.500000
O O18 0.500000 0.000000 0.000000
#
# Coordination Sequence:
#
# PCOD8041669 Si02
#       8
#     2   2   2   2   2   2   2   2
#     4  10  20  37  57  81 110 146 186 229 275 328
#     4  10  19  33  56  85 111 140 183 236 278 320
#     4  10  19  33  56  85 111 140 183 236 278 320
#     4  11  22  37  57  83 113 148 184 228 277 329
#     4  10  20  37  57  81 110 146 186 229 275 328
#     4   9  19  35  59  83 107 142 187 227 269 327
#     4  11  22  37  57  83 113 148 184 228 277 329
#     4   9  19  35  59  83 107 142 187 227 269 327
#
# _framework density 20.747126000000002
#
# number of rings (size 3 to 8) (size 9 to 14) (size 15 to 20)
#    0.000    2.000    0.000    6.000    0.000    6.000 
#    0.000    1.250    0.000    9.000    0.000    0.000 
#    0.000    0.000    0.000    0.000    0.000    0.000 
#
# Total GULP energy -198212.144988 kJ/mol
# GULP energy per Si atom -12388.259062 kJ/mol
# Density = 2.069991 g / cm^3
# Si number density = 20.747126 Si / 1000 Ang^3
#
#
#
# Elastic Constant Matrix: (Units=GPa)
#
#
# Indices 1 2 3 4 5 6 
#
# 1 84.4020 -3.5927 19.0602 6.9735 -2.2581 3.4179
# 2 -3.5927 84.4330 15.1999 20.5612 0.3192 -3.1666
# 3 19.0602 15.1999 133.3639 24.0399 -1.5658 0.2899
# 4 6.9735 20.5612 24.0399 24.1549 0.8129 -0.1204
# 5 -2.2581 0.3192 -1.5658 0.8129 34.6340 11.7262
# 6 3.4179 -3.1666 0.2899 -0.1204 11.7262 22.7235
#
#
#
# Elastic Compliance Matrix: (Units=1/GPa)
#
#
# Indices 1 2 3 4 5 6 
#
# 1 0.012670 0.001595 -0.001280 -0.003812 0.001714 -0.002572
# 2 0.001595 0.015300 0.000544 -0.014004 -0.000360 0.001997
# 3 -0.001280 0.000544 0.009320 -0.009391 0.000630 -0.000225
# 4 -0.003812 -0.014004 -0.009391 0.063839 -0.002097 0.000163
# 5 0.001714 -0.000360 0.000630 -0.002097 0.035354 -0.018571
# 6 -0.002572 0.001997 -0.000225 0.000163 -0.018571 0.054259
#
#
# Mechanical properties :
#
#
# Convention : Reuss Voigt Hill
#
# Bulk Modulus (GPa) = 25.63544 40.39265 33.01405
# Shear Modulus (GPa) = 24.74929 34.40456 29.57693
#
# Velocity S-wave (km/s) = 3.45759 4.07662 3.77980
# Velocity P-wave (km/s) = 5.32192 6.45521 5.91577
#
# Compressibility (1/GPa) = 0.03900849
#
# Stress axis : x y z
#
# Youngs Moduli (GPa) = 78.92720 65.35915 107.29677
#
# Poissons Ratio (x) = -0.10425 0.13730
# Poissons Ratio (y) = -0.12589 -0.05836
# Poissons Ratio (z) = 0.10100 -0.03555
#
# Static dielectric constant tensor:
#      x y z
#    x 3.304070 -0.048370 0.042770 
#    y -0.048370 3.915180 -0.445500 
#    z 0.042770 -0.445500 5.111730 
# 
# 
# High freq. dielectric constant tensor:
#      x y z
#    x 1.812670 0.003710 -0.001960 
#    y 0.003710 1.765020 0.027960 
#    z -0.001960 0.027960 1.838690 
# 
# From -- ./inp_files/615259.got.cif
#   From: 2010.06.25/outbox.cif.g09.slc.cpg/sg2_308_cif.got.tgz:615259.got - 2010.06.27 13:26:56.
