data_PCOD8041968
_publ_section_title
;
Structure prediction by ZEFSAII (Michael W. Deem and Ramdas Pophale) SiO2 
 PCOD8041968
Probable space group: P -1
;
_chemical_formula_sum "Si O2"
_cell_formula_units_Z 16
_cell_length_a 11.399762
_cell_length_b 8.010645
_cell_length_c 14.731574
_cell_angle_alpha 51.725824
_cell_angle_beta 134.773236
_cell_angle_gamma 135.944365
_cell_volume 646.356527
_symmetry_space_group_name_H-M "P -1"
_symmetry_group_IT_number 2
_symmetry_cell_setting 'triclinic'
loop_
_space_group_symop_operation_xyz
x,y,z
-x,-y,-z
loop_
_atom_site_type_symbol
_atom_site_label
_atom_site_fract_x
_atom_site_fract_y
_atom_site_fract_z
Si Si1 0.391558 0.552902 0.264504
Si Si2 0.869282 0.004190 0.637977
Si Si3 0.759110 0.141001 0.716945
Si Si4 0.941745 0.398711 0.895020
Si Si5 0.390417 0.029194 0.637014
Si Si6 0.219006 0.958292 0.867920
Si Si7 0.567232 0.201109 0.093592
Si Si8 0.273091 0.341417 0.089303
O O1 0.270023 0.290442 0.335467
O O2 0.272886 0.702500 0.148776
O O3 0.579710 0.737310 0.363141
O O4 0.430984 0.511084 0.195754
O O5 0.829784 0.136144 0.656431
O O6 0.813775 0.090371 0.485488
O O7 0.092100 0.081324 0.728668
O O8 0.727838 0.909273 0.840646
O O9 0.918439 0.382172 0.777202
O O10 0.553615 0.125832 0.613672
O O11 0.071822 0.675602 0.910132
O O12 0.056840 0.260438 0.034534
O O13 0.400699 0.822004 0.774340
O O14 0.352493 0.959671 0.858531
O O15 0.347071 0.098700 0.978302
O O16 0.682323 0.492754 0.032370
#
# Coordination Sequence:
#
# PCOD8041968 Si02
#       8
#     2   2   2   2   2   2   2   2
#     4   9  18  32  55  84 108 141 188 237 284 323
#     4  10  21  37  58  83 112 148 189 233 281 328
#     4  10  22  35  54  84 115 148 185 230 282 329
#     4   9  17  31  55  86 112 138 181 238 286 323
#     4  11  21  36  57  82 117 151 184 229 278 337
#     4   9  19  38  61  84 112 144 187 235 275 332
#     4  10  21  36  58  86 113 147 188 229 277 327
#     4  10  19  34  55  81 115 148 185 229 275 334
#
# _framework density 24.75414
#
# number of rings (size 3 to 8) (size 9 to 14) (size 15 to 20)
#    0.000    2.250    0.000    3.750    0.000    8.000 
#    0.000    1.250    0.000    9.000    0.000    0.000 
#    0.000    0.000    0.000    0.000    0.000    0.000 
#
# Total GULP energy -198238.073347 kJ/mol
# GULP energy per Si atom -12389.879584 kJ/mol
# Density = 2.469780 g / cm^3
# Si number density = 24.754140 Si / 1000 Ang^3
#
#
#
# Elastic Constant Matrix: (Units=GPa)
#
#
# Indices 1 2 3 4 5 6 
#
# 1 70.4367 -7.3403 35.8119 14.5620 4.8466 -1.2157
# 2 -7.3403 35.6588 15.9948 3.4446 -5.0839 -0.0547
# 3 35.8119 15.9948 156.6595 23.4782 2.5493 10.1217
# 4 14.5620 3.4446 23.4782 27.4490 2.7149 0.0866
# 5 4.8466 -5.0839 2.5493 2.7149 35.3350 3.4124
# 6 -1.2157 -0.0547 10.1217 0.0866 3.4124 18.0375
#
#
#
# Elastic Compliance Matrix: (Units=1/GPa)
#
#
# Indices 1 2 3 4 5 6 
#
# 1 0.018479 0.006123 -0.004021 -0.007027 -0.001189 0.003779
# 2 0.006123 0.032223 -0.004290 -0.004046 0.004210 0.002141
# 3 -0.004021 -0.004290 0.008804 -0.004860 0.000178 -0.005235
# 4 -0.007027 -0.004046 -0.004860 0.045111 -0.002984 0.002589
# 5 -0.001189 0.004210 0.000178 -0.002984 0.029846 -0.005799
# 6 0.003779 0.002141 -0.005235 0.002589 -0.005799 0.059723
#
#
# Mechanical properties :
#
#
# Convention : Reuss Voigt Hill
#
# Bulk Modulus (GPa) = 18.13919 39.07639 28.60779
# Shear Modulus (GPa) = 23.04795 30.71689 26.88242
#
# Velocity S-wave (km/s) = 3.05466 3.52643 3.29899
# Velocity P-wave (km/s) = 4.44802 5.69219 5.10813
#
# Compressibility (1/GPa) = 0.05512926
#
# Stress axis : x y z
#
# Youngs Moduli (GPa) = 54.11425 31.03415 113.58222
#
# Poissons Ratio (x) = -0.19002 0.45674
# Poissons Ratio (y) = -0.33133 0.48727
# Poissons Ratio (z) = 0.21760 0.13314
#
# Static dielectric constant tensor:
#      x y z
#    x 4.381110 -0.078770 0.226270 
#    y -0.078770 4.201730 0.239910 
#    z 0.226270 0.239910 4.447770 
# 
# 
# High freq. dielectric constant tensor:
#      x y z
#    x 1.972430 -0.012300 0.003160 
#    y -0.012300 1.960620 0.019660 
#    z 0.003160 0.019660 1.976880 
# 
# From -- ./inp_files/514135.got.cif
#   From: 2010.06.25/outbox.cif.g09.slc.cpg/sg2_258_cif.got.tgz:514135.got - 2010.06.27 13:26:56.
