data_PCOD8041748
_publ_section_title
;
Structure prediction by ZEFSAII (Michael W. Deem and Ramdas Pophale) SiO2 
 PCOD8041748
Probable space group: P -1
;
_chemical_formula_sum "Si O2"
_cell_formula_units_Z 16
_cell_length_a 9.663726
_cell_length_b 30.173148
_cell_length_c 8.539837
_cell_angle_alpha 38.436817
_cell_angle_beta 148.789130
_cell_angle_gamma 142.089344
_cell_volume 745.356222
_symmetry_space_group_name_H-M "P -1"
_symmetry_group_IT_number 2
_symmetry_cell_setting 'triclinic'
loop_
_space_group_symop_operation_xyz
x,y,z
-x,-y,-z
loop_
_atom_site_type_symbol
_atom_site_label
_atom_site_fract_x
_atom_site_fract_y
_atom_site_fract_z
Si Si1 0.864362 0.594514 0.654892
Si Si2 0.473016 0.041126 0.203369
Si Si3 0.102673 0.884148 0.182549
Si Si4 0.368966 0.576993 0.014035
Si Si5 0.472268 0.412764 0.205357
Si Si6 0.482291 0.168877 0.069608
Si Si7 0.812326 0.049359 0.219496
Si Si8 0.860529 0.340995 0.943834
O O1 0.625950 0.619935 0.267126
O O2 0.694577 0.513747 0.799138
O O3 0.080662 0.589656 0.744337
O O4 0.043804 0.653686 0.796504
O O5 0.425110 0.118396 0.994662
O O6 0.766870 0.066291 0.311922
O O7 0.500000 0.000000 0.500000
O O8 0.191961 0.977429 0.027624
O O9 0.353858 0.858941 0.560571
O O10 0.070933 0.873070 0.992292
O O11 0.816979 0.836140 0.131303
O O12 0.451397 0.609481 0.830441
O O13 0.690053 0.397609 0.583061
O O14 0.500000 0.500000 0.000000
O O15 0.143574 0.359316 0.063451
O O16 0.651086 0.255313 0.940909
O O17 0.000000 0.000000 0.500000
O O18 0.500000 0.000000 0.000000
#
# Coordination Sequence:
#
# PCOD8041748 Si02
#       8
#     2   2   2   2   2   2   2   2
#     4  10  21  37  60  88 119 154 198 250 301 373
#     4   9  19  36  62  90 120 159 206 250 294 361
#     4  10  20  38  60  86 118 161 212 251 299 366
#     4  10  21  37  62  90 115 150 203 251 302 364
#     4  12  24  41  65  94 122 162 205 267 318 382
#     4  11  23  40  59  86 122 165 202 255 315 374
#     4  10  19  33  57  90 118 150 200 258 297 342
#     4  12  25  41  62  92 129 164 208 261 328 380
#
# _framework density 21.466246000000002
#
# number of rings (size 3 to 8) (size 9 to 14) (size 15 to 20)
#    0.000    1.500    1.250    5.250    3.500    3.000 
#    0.000    3.750    0.000    0.000    0.000    0.000 
#    0.000    0.000    0.000    0.000    0.000    0.000 
#
# Total GULP energy -198294.680935 kJ/mol
# GULP energy per Si atom -12393.417558 kJ/mol
# Density = 2.141739 g / cm^3
# Si number density = 21.466246 Si / 1000 Ang^3
#
#
#
# Elastic Constant Matrix: (Units=GPa)
#
#
# Indices 1 2 3 4 5 6 
#
# 1 138.5085 31.4151 13.4460 2.9487 -2.4108 21.5602
# 2 31.4151 88.9337 10.4732 7.1448 0.1489 9.0109
# 3 13.4460 10.4732 85.8667 15.3365 -1.1940 3.0159
# 4 2.9487 7.1448 15.3365 25.3791 5.8594 5.8761
# 5 -2.4108 0.1489 -1.1940 5.8594 29.7095 8.9068
# 6 21.5602 9.0109 3.0159 5.8761 8.9068 27.4516
#
#
#
# Elastic Compliance Matrix: (Units=1/GPa)
#
#
# Indices 1 2 3 4 5 6 
#
# 1 0.009033 -0.002438 -0.001068 0.001371 0.002627 -0.007323
# 2 -0.002438 0.012574 -0.000603 -0.002649 0.000788 -0.001835
# 3 -0.001068 -0.000603 0.013388 -0.008406 0.001886 0.000754
# 4 0.001371 -0.002649 -0.008406 0.048494 -0.007621 -0.007191
# 5 0.002627 0.000788 0.001886 -0.007621 0.039565 -0.013735
# 6 -0.007323 -0.001835 0.000754 -0.007191 -0.013735 0.048694
#
#
# Mechanical properties :
#
#
# Convention : Reuss Voigt Hill
#
# Bulk Modulus (GPa) = 37.34681 47.10861 42.22771
# Shear Modulus (GPa) = 26.47027 33.70635 30.08831
#
# Velocity S-wave (km/s) = 3.51538 3.96688 3.74793
# Velocity P-wave (km/s) = 5.82348 6.55550 6.20030
#
# Compressibility (1/GPa) = 0.02677605
#
# Stress axis : x y z
#
# Youngs Moduli (GPa) = 110.70875 79.53010 74.69343
#
# Poissons Ratio (x) = 0.19386 0.07980
# Poissons Ratio (y) = 0.26986 0.04507
# Poissons Ratio (z) = 0.11827 0.04799
#
# Static dielectric constant tensor:
#      x y z
#    x 5.274200 -0.188560 -0.243870 
#    y -0.188560 3.897360 0.197840 
#    z -0.243870 0.197840 3.899240 
# 
# 
# High freq. dielectric constant tensor:
#      x y z
#    x 1.863500 0.013660 -0.000480 
#    y 0.013660 1.805280 0.019190 
#    z -0.000480 0.019190 1.843110 
# 
# From -- ./inp_files/227987.got.cif
#   From: 2010.06.25/outbox.cif.g09.slc.cpg/sg2_114_cif.got.tgz:227987.got - 2010.06.27 13:26:56.
