data_PCOD8041840
_publ_section_title
;
Structure prediction by ZEFSAII (Michael W. Deem and Ramdas Pophale) SiO2 
 PCOD8041840
Probable space group: P -1
;
_chemical_formula_sum "Si O2"
_cell_formula_units_Z 14
_cell_length_a 9.866600
_cell_length_b 8.912553
_cell_length_c 19.567747
_cell_angle_alpha 39.022704
_cell_angle_beta 130.963571
_cell_angle_gamma 132.809038
_cell_volume 763.872538
_symmetry_space_group_name_H-M "P -1"
_symmetry_group_IT_number 2
_symmetry_cell_setting 'triclinic'
loop_
_space_group_symop_operation_xyz
x,y,z
-x,-y,-z
loop_
_atom_site_type_symbol
_atom_site_label
_atom_site_fract_x
_atom_site_fract_y
_atom_site_fract_z
Si Si1 0.709744 0.349789 0.631386
Si Si2 0.971683 0.263556 0.319068
Si Si3 0.964548 0.007093 0.830151
Si Si4 0.832560 0.071909 0.205594
Si Si5 0.308100 0.486584 0.022181
Si Si6 0.261081 0.383473 0.886845
Si Si7 0.322471 0.236181 0.611836
O O1 0.510576 0.197759 0.656624
O O2 0.675606 0.478900 0.503443
O O3 0.822669 0.588359 0.633273
O O4 0.821189 0.161296 0.721415
O O5 0.994140 0.253706 0.247056
O O6 0.822369 0.402753 0.238581
O O7 0.866400 0.971461 0.413768
O O8 0.121415 0.115217 0.903788
O O9 0.072664 0.037847 0.783224
O O10 0.842420 0.710693 0.907113
O O11 0.688502 0.829151 0.287372
O O12 0.715669 0.240187 0.077379
O O13 0.524464 0.536044 0.100970
O O14 0.269437 0.356409 0.980793
#
# Coordination Sequence:
#
# PCOD8041840 Si02
#       7
#     2   2   2   2   2   2   2
#     4  10  19  33  61  74  96 137 181 204 250 294
#     4   8  17  35  52  76 102 135 166 211 249 306
#     4  11  21  34  52  83 101 134 169 215 250 310
#     4   9  21  36  50  75 115 130 163 210 269 290
#     4  10  19  36  53  73 106 139 167 211 246 308
#     4   9  19  33  55  78  98 136 177 206 250 290
#     4   9  19  36  54  77 101 134 173 213 245 308
#
# _framework density 18.327663999999999
#
# number of rings (size 3 to 8) (size 9 to 14) (size 15 to 20)
#    0.857    1.714    0.000    2.143    2.000    1.143 
#    2.571    0.000    0.000    1.714    0.000    0.000 
#    0.000    0.000    0.000    0.000    0.000    0.000 
#
# Total GULP energy -173484.261606 kJ/mol
# GULP energy per Si atom -12391.732972 kJ/mol
# Density = 1.828595 g / cm^3
# Si number density = 18.327664 Si / 1000 Ang^3
#
#
#
# Elastic Constant Matrix: (Units=GPa)
#
#
# Indices 1 2 3 4 5 6 
#
# 1 105.5640 30.3478 39.8909 -1.8182 -7.8396 5.1432
# 2 30.3478 51.5480 16.4703 1.6836 3.0242 13.8570
# 3 39.8909 16.4703 81.3363 -8.1056 -6.3191 5.6382
# 4 -1.8182 1.6836 -8.1056 16.5465 9.9423 -3.6009
# 5 -7.8396 3.0242 -6.3191 9.9423 22.9448 -6.4575
# 6 5.1432 13.8570 5.6382 -3.6009 -6.4575 24.8032
#
#
#
# Elastic Compliance Matrix: (Units=1/GPa)
#
#
# Indices 1 2 3 4 5 6 
#
# 1 0.014056 -0.007946 -0.005380 -0.003664 0.007100 0.004064
# 2 -0.007946 0.030360 -0.002090 -0.002007 -0.011525 -0.018131
# 3 -0.005380 -0.002090 0.016114 0.007798 -0.000619 -0.000409
# 4 -0.003664 -0.002007 0.007798 0.085890 -0.035088 0.003442
# 5 0.007100 -0.011525 -0.000619 -0.035088 0.067512 0.017590
# 6 0.004064 -0.018131 -0.000409 0.003442 0.017590 0.054777
#
#
# Mechanical properties :
#
#
# Convention : Reuss Voigt Hill
#
# Bulk Modulus (GPa) = 33.67003 45.76293 39.71648
# Shear Modulus (GPa) = 16.15826 22.97485 19.56655
#
# Velocity S-wave (km/s) = 2.97245 3.54441 3.27095
# Velocity P-wave (km/s) = 5.49469 6.46328 5.99857
#
# Compressibility (1/GPa) = 0.02970001
#
# Stress axis : x y z
#
# Youngs Moduli (GPa) = 71.14214 32.93761 62.05860
#
# Poissons Ratio (x) = 0.26171 0.33389
# Poissons Ratio (y) = 0.56527 0.12967
# Poissons Ratio (z) = 0.38276 0.06882
#
# Static dielectric constant tensor:
#      x y z
#    x 3.142240 0.128630 0.025610 
#    y 0.128630 3.322830 0.009450 
#    z 0.025610 0.009450 3.282180 
# 
# 
# High freq. dielectric constant tensor:
#      x y z
#    x 1.694990 0.015800 0.004300 
#    y 0.015800 1.695060 -0.005220 
#    z 0.004300 -0.005220 1.712860 
# 
# From -- ./inp_files/84916.got.cif
#   From: 2010.06.25/outbox.cif.g09.slc.cpg/sg2_43_cif.got.tgz:84916.got - 2010.06.27 13:26:56.
