data_PCOD8041223
_publ_section_title
;
Structure prediction by ZEFSAII (Michael W. Deem and Ramdas Pophale) SiO2 
 PCOD8041223
Probable space group: P -1
;
_chemical_formula_sum "Si O2"
_cell_formula_units_Z 14
_cell_length_a 11.970700
_cell_length_b 9.852476
_cell_length_c 15.728775
_cell_angle_alpha 38.082045
_cell_angle_beta 141.607871
_cell_angle_gamma 121.235494
_cell_volume 686.750556
_symmetry_space_group_name_H-M "P -1"
_symmetry_group_IT_number 2
_symmetry_cell_setting 'triclinic'
loop_
_space_group_symop_operation_xyz
x,y,z
-x,-y,-z
loop_
_atom_site_type_symbol
_atom_site_label
_atom_site_fract_x
_atom_site_fract_y
_atom_site_fract_z
Si Si1 0.777360 0.311220 0.702674
Si Si2 0.615535 0.298838 0.442491
Si Si3 0.259466 0.577428 0.880114
Si Si4 0.803859 0.847353 0.017256
Si Si5 0.224991 0.220092 0.237151
Si Si6 0.069705 0.407442 0.220842
Si Si7 0.654149 0.551440 0.181971
O O1 0.629152 0.400208 0.494768
O O2 0.780980 0.519486 0.664667
O O3 0.716520 0.113715 0.816980
O O4 0.973862 0.210318 0.823312
O O5 0.401323 0.325234 0.276463
O O6 0.708380 0.437881 0.361775
O O7 0.732000 0.036997 0.642299
O O8 0.066692 0.706600 0.747807
O O9 0.267023 0.634345 0.755328
O O10 0.268027 0.303408 0.024045
O O11 0.430169 0.636675 0.000498
O O12 0.738148 0.771089 0.108185
O O13 0.178548 0.225060 0.307837
O O14 0.048482 0.365773 0.009044
#
# Coordination Sequence:
#
# PCOD8041223 Si02
#       7
#     2   2   2   2   2   2   2
#     4  10  19  31  57  77 113 134 185 213 272 311
#     4  11  21  33  53  92 104 134 178 239 258 308
#     4   8  15  30  54  75 103 144 180 208 257 330
#     4   8  16  30  50  79  99 149 173 208 250 340
#     4  10  22  33  58  77 113 135 192 216 262 306
#     4  10  19  39  53  80 105 153 172 219 260 334
#     4   9  17  29  54  81 110 132 181 221 267 303
#
# _framework density 20.385859
#
# number of rings (size 3 to 8) (size 9 to 14) (size 15 to 20)
#    0.857    1.714    1.429    2.571    2.000    1.143 
#    0.000    0.714    0.000    0.857    0.000    0.000 
#    0.000    0.000    0.000    0.000    0.000    0.000 
#
# Total GULP energy -173468.743553 kJ/mol
# GULP energy per Si atom -12390.624539 kJ/mol
# Density = 2.033946 g / cm^3
# Si number density = 20.385859 Si / 1000 Ang^3
#
#
#
# Elastic Constant Matrix: (Units=GPa)
#
#
# Indices 1 2 3 4 5 6 
#
# 1 104.8123 21.7115 12.3846 -4.9505 -18.1668 7.9557
# 2 21.7115 66.8496 13.5115 18.4120 -5.9649 2.2297
# 3 12.3846 13.5115 36.0313 9.9520 -19.1477 3.5730
# 4 -4.9505 18.4120 9.9520 15.2061 -5.7048 -7.2937
# 5 -18.1668 -5.9649 -19.1477 -5.7048 31.4624 -4.1528
# 6 7.9557 2.2297 3.5730 -7.2937 -4.1528 37.2500
#
#
#
# Elastic Compliance Matrix: (Units=1/GPa)
#
#
# Indices 1 2 3 4 5 6 
#
# 1 0.014488 -0.009991 -0.003331 0.024215 0.009310 0.003603
# 2 -0.009991 0.031545 0.001943 -0.051573 -0.009421 -0.011089
# 3 -0.003331 0.001943 0.049033 -0.031164 0.021605 -0.007801
# 4 0.024215 -0.051573 -0.031164 0.184512 0.023934 0.039701
# 5 0.009310 -0.009421 0.021605 0.023934 0.053811 0.007189
# 6 0.003603 -0.011089 -0.007801 0.039701 0.007189 0.036063
#
#
# Mechanical properties :
#
#
# Convention : Reuss Voigt Hill
#
# Bulk Modulus (GPa) = 13.82991 33.65649 23.74320
# Shear Modulus (GPa) = 12.01020 27.45608 19.73314
#
# Velocity S-wave (km/s) = 2.42986 3.67389 3.11462
# Velocity P-wave (km/s) = 3.83029 5.87726 4.96051
#
# Compressibility (1/GPa) = 0.07230706
#
# Stress axis : x y z
#
# Youngs Moduli (GPa) = 69.02217 31.70069 20.39458
#
# Poissons Ratio (x) = 0.31673 0.06794
# Poissons Ratio (y) = 0.68961 -0.03962
# Poissons Ratio (z) = 0.22992 -0.06159
#
# Static dielectric constant tensor:
#      x y z
#    x 4.035710 0.122660 -0.149370 
#    y 0.122660 3.438790 0.187430 
#    z -0.149370 0.187430 3.133230 
# 
# 
# High freq. dielectric constant tensor:
#      x y z
#    x 1.809460 0.011780 -0.012860 
#    y 0.011780 1.771820 0.026790 
#    z -0.012860 0.026790 1.749020 
# 
# From -- ./inp_files/512688.got.cif
#   From: 2010.06.25/outbox.cif.g09.slc.cpg/sg2_257_cif.got.tgz:512688.got - 2010.06.27 13:26:56.
