data_PCOD8041470
_publ_section_title
;
Structure prediction by ZEFSAII (Michael W. Deem and Ramdas Pophale) SiO2 
 PCOD8041470
Probable space group: P -1
;
_chemical_formula_sum "Si O2"
_cell_formula_units_Z 14
_cell_length_a 7.920813
_cell_length_b 13.754670
_cell_length_c 9.311841
_cell_angle_alpha 118.656003
_cell_angle_beta 130.780481
_cell_angle_gamma 72.642896
_cell_volume 673.940250
_symmetry_space_group_name_H-M "P -1"
_symmetry_group_IT_number 2
_symmetry_cell_setting 'triclinic'
loop_
_space_group_symop_operation_xyz
x,y,z
-x,-y,-z
loop_
_atom_site_type_symbol
_atom_site_label
_atom_site_fract_x
_atom_site_fract_y
_atom_site_fract_z
Si Si1 0.237037 0.734611 0.762866
Si Si2 0.419720 0.517340 0.627301
Si Si3 0.739326 0.076861 0.304123
Si Si4 0.658701 0.666410 0.065320
Si Si5 0.581340 0.107512 0.536114
Si Si6 0.062312 0.141162 0.756201
Si Si7 0.254846 0.304642 0.544705
O O1 0.247260 0.618764 0.596708
O O2 0.328048 0.838795 0.796255
O O3 0.981206 0.749330 0.676583
O O4 0.415157 0.725600 0.986412
O O5 0.500000 0.500000 0.500000
O O6 0.303558 0.404822 0.535773
O O7 0.620865 0.550462 0.875068
O O8 0.555972 0.080804 0.332849
O O9 0.984455 0.113144 0.528714
O O10 0.761578 0.952558 0.163828
O O11 0.757408 0.649253 0.266001
O O12 0.819940 0.738689 0.100928
O O13 0.843568 0.138696 0.736610
O O14 0.437669 0.211801 0.571194
O O15 0.500000 0.000000 0.500000
#
# Coordination Sequence:
#
# PCOD8041470 Si02
#       7
#     2   2   2   2   2   2   2
#     4  10  22  38  64  88 120 158 205 246 305 354
#     4  10  24  42  61  90 120 161 206 250 302 357
#     4   9  17  36  63  86 122 162 192 248 303 347
#     4  10  23  39  64  90 119 157 214 240 303 362
#     4  10  19  32  62  94 118 159 201 241 304 363
#     4   9  18  37  61  91 119 162 203 242 302 361
#     4  12  20  42  63  86 130 157 198 253 303 356
#
# _framework density 20.773354999999999
#
# number of rings (size 3 to 8) (size 9 to 14) (size 15 to 20)
#    1.714    0.286    1.429    3.429    0.000    0.571 
#    2.571    1.429    0.000    3.429    0.000    0.000 
#    0.000    0.000    0.000    0.000    0.000    0.000 
#
# Total GULP energy -173434.441673 kJ/mol
# GULP energy per Si atom -12388.174405 kJ/mol
# Density = 2.072607 g / cm^3
# Si number density = 20.773355 Si / 1000 Ang^3
#
#
#
# Elastic Constant Matrix: (Units=GPa)
#
#
# Indices 1 2 3 4 5 6 
#
# 1 111.4256 35.8633 21.2649 4.8258 6.3494 18.8364
# 2 35.8633 87.8616 -6.1122 -8.8959 -4.1493 13.6885
# 3 21.2649 -6.1122 45.5043 -5.3423 9.0430 11.0982
# 4 4.8258 -8.8959 -5.3423 21.9976 4.6849 -2.8356
# 5 6.3494 -4.1493 9.0430 4.6849 19.7752 2.8646
# 6 18.8364 13.6885 11.0982 -2.8356 2.8646 43.6650
#
#
#
# Elastic Compliance Matrix: (Units=1/GPa)
#
#
# Indices 1 2 3 4 5 6 
#
# 1 0.013085 -0.006239 -0.007237 -0.007429 -0.000104 -0.002325
# 2 -0.006239 0.015871 0.006813 0.008860 0.000623 -0.003481
# 3 -0.007237 0.006813 0.031920 0.014275 -0.013455 -0.005317
# 4 -0.007429 0.008860 0.014275 0.057800 -0.016211 0.001616
# 5 -0.000104 0.000623 -0.013455 -0.016211 0.060984 -0.001784
# 6 -0.002325 -0.003481 -0.005317 0.001616 -0.001784 0.026569
#
#
# Mechanical properties :
#
#
# Convention : Reuss Voigt Hill
#
# Bulk Modulus (GPa) = 21.03120 38.53593 29.78357
# Shear Modulus (GPa) = 21.23996 30.00594 25.62295
#
# Velocity S-wave (km/s) = 3.20106 3.80471 3.51586
# Velocity P-wave (km/s) = 4.87940 6.15565 5.55430
#
# Compressibility (1/GPa) = 0.04754840
#
# Stress axis : x y z
#
# Youngs Moduli (GPa) = 76.42598 63.00782 31.32857
#
# Poissons Ratio (x) = 0.39312 0.22673
# Poissons Ratio (y) = 0.47684 -0.21344
# Poissons Ratio (z) = 0.55311 -0.42927
#
# Static dielectric constant tensor:
#      x y z
#    x 3.571060 0.031280 0.122350 
#    y 0.031280 3.775970 -0.002930 
#    z 0.122350 -0.002930 3.463000 
# 
# 
# High freq. dielectric constant tensor:
#      x y z
#    x 1.800950 0.012290 0.016250 
#    y 0.012290 1.820590 -0.001110 
#    z 0.016250 -0.001110 1.785080 
# 
# From -- ./inp_files/172511.got.cif
#   From: 2010.06.25/outbox.cif.g09.slc.cpg/sg2_87_cif.got.tgz:172511.got - 2010.06.27 13:26:56.
