data_PCOD8041301
_publ_section_title
;
Structure prediction by ZEFSAII (Michael W. Deem and Ramdas Pophale) SiO2 
 PCOD8041301
Probable space group: P -1
;
_chemical_formula_sum "Si O2"
_cell_formula_units_Z 14
_cell_length_a 10.792254
_cell_length_b 9.321404
_cell_length_c 11.582331
_cell_angle_alpha 45.823001
_cell_angle_beta 45.787013
_cell_angle_gamma 38.986150
_cell_volume 493.464110
_symmetry_space_group_name_H-M "P -1"
_symmetry_group_IT_number 2
_symmetry_cell_setting 'triclinic'
loop_
_space_group_symop_operation_xyz
x,y,z
-x,-y,-z
loop_
_atom_site_type_symbol
_atom_site_label
_atom_site_fract_x
_atom_site_fract_y
_atom_site_fract_z
Si Si1 0.151543 0.718464 0.596437
Si Si2 0.337086 0.527476 0.804812
Si Si3 0.194175 0.189103 0.510544
Si Si4 0.809596 0.170322 0.727948
Si Si5 0.370038 0.258163 0.570541
Si Si6 0.650259 0.895903 0.094578
Si Si7 0.791954 0.660066 0.833214
O O1 0.230927 0.752197 0.651934
O O2 0.109972 0.925383 0.406492
O O3 0.335862 0.497632 0.519252
O O4 0.992735 0.640492 0.760822
O O5 0.575646 0.424447 0.745616
O O6 0.316100 0.346513 0.838369
O O7 0.205258 0.569762 0.985713
O O8 0.199546 0.331068 0.539074
O O9 0.214884 0.317774 0.312508
O O10 0.977011 0.211172 0.651306
O O11 0.394807 0.906458 0.544453
O O12 0.813922 0.953162 0.908684
O O13 0.333497 0.111033 0.772845
O O14 0.410861 0.112732 0.096974
#
# Coordination Sequence:
#
# PCOD8041301 Si02
#       7
#     2   2   2   2   2   2   2
#     4  10  20  33  53  78 104 134 170 214 258 300
#     4  10  19  36  53  75 107 140 171 206 253 309
#     4   9  19  35  57  76  99 135 178 213 248 305
#     4  10  19  32  52  81 105 131 170 216 256 296
#     4   9  19  38  56  74 101 137 174 210 257 307
#     4   9  19  36  55  74 104 141 172 206 253 307
#     4   9  17  31  52  76 101 135 168 204 256 304
#
# _framework density 28.370857999999998
#
# number of rings (size 3 to 8) (size 9 to 14) (size 15 to 20)
#    0.000    2.571    0.000    2.571    0.000    2.857 
#    0.000   34.286    0.000   17.143    0.000    0.000 
#    0.000    0.000    0.000    0.000    0.000    0.000 
#
# Total GULP energy -173461.081218 kJ/mol
# GULP energy per Si atom -12390.077230 kJ/mol
# Density = 2.830628 g / cm^3
# Si number density = 28.370858 Si / 1000 Ang^3
#
#
#
# Elastic Constant Matrix: (Units=GPa)
#
#
# Indices 1 2 3 4 5 6 
#
# 1 151.7976 16.7924 45.2794 -5.4978 -1.1409 -30.4318
# 2 16.7924 62.2746 8.2972 4.0813 -2.4238 -10.7606
# 3 45.2794 8.2972 150.1196 3.6399 -31.5801 -25.4578
# 4 -5.4978 4.0813 3.6399 28.7317 -4.1720 7.8225
# 5 -1.1409 -2.4238 -31.5801 -4.1720 37.2872 -0.1468
# 6 -30.4318 -10.7606 -25.4578 7.8225 -0.1468 32.5663
#
#
#
# Elastic Compliance Matrix: (Units=1/GPa)
#
#
# Indices 1 2 3 4 5 6 
#
# 1 0.008444 -0.001036 -0.001698 0.000118 -0.001209 0.006188
# 2 -0.001036 0.017711 0.000852 -0.004425 0.001372 0.006619
# 3 -0.001698 0.000852 0.010188 -0.002507 0.008380 0.007299
# 4 0.000118 -0.004425 -0.002507 0.039544 0.001967 -0.012801
# 5 -0.001209 0.001372 0.008380 0.001967 0.034211 0.005556
# 6 0.006188 0.006619 0.007299 -0.012801 0.005556 0.047481
#
#
# Mechanical properties :
#
#
# Convention : Reuss Voigt Hill
#
# Bulk Modulus (GPa) = 30.69455 56.10332 43.39893
# Shear Modulus (GPa) = 29.03545 39.30523 34.17034
#
# Velocity S-wave (km/s) = 3.20257 3.72615 3.47424
# Velocity P-wave (km/s) = 4.95155 6.19113 5.60571
#
# Compressibility (1/GPa) = 0.03257908
#
# Stress axis : x y z
#
# Youngs Moduli (GPa) = 118.42141 56.46231 98.15633
#
# Poissons Ratio (x) = 0.05852 0.16664
# Poissons Ratio (y) = 0.12274 -0.08364
# Poissons Ratio (z) = 0.20104 -0.04811
#
# Static dielectric constant tensor:
#      x y z
#    x 4.767820 -0.528550 0.350900 
#    y -0.528550 6.278370 -0.405970 
#    z 0.350900 -0.405970 6.128290 
# 
# 
# High freq. dielectric constant tensor:
#      x y z
#    x 2.118210 -0.042020 0.007060 
#    y -0.042020 2.171390 -0.002160 
#    z 0.007060 -0.002160 2.192940 
# 
# From -- ./inp_files/157460.got.cif
#   From: 2010.06.25/outbox.cif.g09.slc.cpg/sg2_79_cif.got.tgz:157460.got - 2010.06.27 13:26:56.
