data_PCOD8041414
_publ_section_title
;
Structure prediction by ZEFSAII (Michael W. Deem and Ramdas Pophale) SiO2 
 PCOD8041414
Probable space group: P -1
;
_chemical_formula_sum "Si O2"
_cell_formula_units_Z 16
_cell_length_a 13.215038
_cell_length_b 11.095880
_cell_length_c 13.290619
_cell_angle_alpha 123.246031
_cell_angle_beta 135.425967
_cell_angle_gamma 35.046383
_cell_volume 782.458029
_symmetry_space_group_name_H-M "P -1"
_symmetry_group_IT_number 2
_symmetry_cell_setting 'triclinic'
loop_
_space_group_symop_operation_xyz
x,y,z
-x,-y,-z
loop_
_atom_site_type_symbol
_atom_site_label
_atom_site_fract_x
_atom_site_fract_y
_atom_site_fract_z
Si Si1 0.850680 0.132251 0.719529
Si Si2 0.401901 0.355375 0.714430
Si Si3 0.727054 0.873498 0.753007
Si Si4 0.131166 0.487855 0.981234
Si Si5 0.292999 0.627347 0.068865
Si Si6 0.954161 0.273430 0.246927
Si Si7 0.928232 0.358616 0.777643
Si Si8 0.408599 0.328971 0.474925
O O1 0.833015 0.198809 0.852243
O O2 0.974373 0.160361 0.752048
O O3 0.617083 0.270217 0.574345
O O4 0.976565 0.891019 0.693938
O O5 0.481055 0.463744 0.828420
O O6 0.192522 0.498425 0.700076
O O7 0.348693 0.361449 0.564503
O O8 0.583067 0.119296 0.780000
O O9 0.570863 0.850239 0.631470
O O10 0.904778 0.725188 0.897342
O O11 0.842655 0.798292 0.691372
O O12 0.129782 0.316403 0.875388
O O13 0.312327 0.442000 0.026783
O O14 0.177127 0.480153 0.128340
O O15 0.164718 0.733981 0.924412
O O16 0.778393 0.457672 0.620573
#
# Coordination Sequence:
#
# PCOD8041414 Si02
#       8
#     2   2   2   2   2   2   2   2
#     4  10  19  32  57  79 109 145 181 219 268 323
#     4  11  22  33  55  85 112 143 175 219 276 324
#     4  10  20  37  56  81 114 138 178 226 269 322
#     4   8  17  31  58  82 102 139 183 223 269 315
#     4   9  18  34  53  79 111 136 174 225 270 315
#     4  11  21  34  54  85 109 145 176 221 273 322
#     4   9  17  32  55  84 102 141 189 218 262 321
#     4  10  20  36  53  80 111 146 181 221 264 318
#
# _framework density 20.44838
#
# number of rings (size 3 to 8) (size 9 to 14) (size 15 to 20)
#    0.000    2.250    2.500    1.500    3.500    0.500 
#    0.000    0.625    0.000    0.750   19.500    0.000 
#    0.000    0.000    0.000    0.000    0.000    0.000 
#
# Total GULP energy -198229.731726 kJ/mol
# GULP energy per Si atom -12389.358233 kJ/mol
# Density = 2.040184 g / cm^3
# Si number density = 20.448380 Si / 1000 Ang^3
#
#
#
# Elastic Constant Matrix: (Units=GPa)
#
#
# Indices 1 2 3 4 5 6 
#
# 1 67.3155 34.0097 6.4162 7.6726 13.8264 17.9114
# 2 34.0097 61.3694 -1.1880 2.1286 -0.8771 -2.5262
# 3 6.4162 -1.1880 79.2316 1.7260 -0.6695 7.7041
# 4 7.6726 2.1286 1.7260 13.8399 14.3965 0.1791
# 5 13.8264 -0.8771 -0.6695 14.3965 33.3494 0.0483
# 6 17.9114 -2.5262 7.7041 0.1791 0.0483 28.2504
#
#
#
# Elastic Compliance Matrix: (Units=1/GPa)
#
#
# Indices 1 2 3 4 5 6 
#
# 1 0.034456 -0.020275 -0.000939 -0.000300 -0.014674 -0.023376
# 2 -0.020275 0.028522 0.000806 -0.005376 0.011471 0.015200
# 3 -0.000939 0.000806 0.013083 -0.003453 0.002168 -0.002882
# 4 -0.000300 -0.005376 -0.003453 0.133895 -0.057887 -0.000099
# 5 -0.014674 0.011471 0.002168 -0.057887 0.061389 0.010000
# 6 -0.023376 0.015200 -0.002882 -0.000099 0.010000 0.052347
#
#
# Mechanical properties :
#
#
# Convention : Reuss Voigt Hill
#
# Bulk Modulus (GPa) = 28.37205 31.82137 30.09671
# Shear Modulus (GPa) = 13.28877 26.33319 19.81098
#
# Velocity S-wave (km/s) = 2.55202 3.59247 3.11598
# Velocity P-wave (km/s) = 4.75277 5.72742 5.26271
#
# Compressibility (1/GPa) = 0.03524595
#
# Stress axis : x y z
#
# Youngs Moduli (GPa) = 29.02222 35.06028 76.43430
#
# Poissons Ratio (x) = 0.71084 0.07176
# Poissons Ratio (y) = 0.58842 -0.06158
# Poissons Ratio (z) = 0.02725 -0.02824
#
# Static dielectric constant tensor:
#      x y z
#    x 3.968440 0.430440 0.223040 
#    y 0.430440 3.205790 0.036100 
#    z 0.223040 0.036100 3.827550 
# 
# 
# High freq. dielectric constant tensor:
#      x y z
#    x 1.798890 0.039110 0.011580 
#    y 0.039110 1.739800 -0.000580 
#    z 0.011580 -0.000580 1.812690 
# 
# From -- ./inp_files/305328.got.cif
#   From: 2010.06.25/outbox.cif.g09.slc.cpg/sg2_153_cif.got.tgz:305328.got - 2010.06.27 13:26:56.
