data_PCOD8041567
_publ_section_title
;
Structure prediction by ZEFSAII (Michael W. Deem and Ramdas Pophale) SiO2 
 PCOD8041567
Probable space group: P -1
;
_chemical_formula_sum "Si O2"
_cell_formula_units_Z 16
_cell_length_a 8.703584
_cell_length_b 16.277870
_cell_length_c 14.550852
_cell_angle_alpha 110.447982
_cell_angle_beta 28.002510
_cell_angle_gamma 120.148682
_cell_volume 814.179000
_symmetry_space_group_name_H-M "P -1"
_symmetry_group_IT_number 2
_symmetry_cell_setting 'triclinic'
loop_
_space_group_symop_operation_xyz
x,y,z
-x,-y,-z
loop_
_atom_site_type_symbol
_atom_site_label
_atom_site_fract_x
_atom_site_fract_y
_atom_site_fract_z
Si Si1 0.488722 0.663316 0.812897
Si Si2 0.936605 0.828239 0.516898
Si Si3 0.893999 0.038701 0.349792
Si Si4 0.817906 0.527074 0.523401
Si Si5 0.082712 0.213980 0.204149
Si Si6 0.828478 0.656731 0.266171
Si Si7 0.247810 0.156402 0.587054
Si Si8 0.267238 0.698214 0.232236
O O1 0.570335 0.741979 0.718943
O O2 0.530259 0.569293 0.718343
O O3 0.784756 0.704728 0.754731
O O4 0.081007 0.636582 0.051207
O O5 0.855447 0.857704 0.471222
O O6 0.097344 0.920337 0.535912
O O7 0.236207 0.786089 0.337154
O O8 0.150883 0.123455 0.176022
O O9 0.500000 0.000000 0.500000
O O10 0.989268 0.946664 0.275091
O O11 0.582637 0.427944 0.552885
O O12 0.000000 0.500000 0.500000
O O13 0.165582 0.604395 0.313635
O O14 0.671923 0.183429 0.381761
O O15 0.321788 0.258127 0.004424
O O16 0.833802 0.762044 0.286837
O O17 0.970235 0.658000 0.293422
#
# Coordination Sequence:
#
# PCOD8041567 Si02
#       8
#     2   2   2   2   2   2   2   2
#     4   9  19  36  54  74 107 142 173 212 261 311
#     4   9  18  34  54  77 106 138 173 214 259 307
#     4   9  18  34  55  77 106 141 172 213 263 308
#     4  11  21  34  55  82 105 135 175 219 262 309
#     4   9  18  36  55  77 106 140 174 215 263 309
#     4  10  20  36  54  76 106 144 176 211 259 311
#     4  10  19  33  54  80 106 136 177 219 255 305
#     4   9  20  37  55  75 106 140 172 213 264 314
#
# _framework density 19.651699000000001
#
# number of rings (size 3 to 8) (size 9 to 14) (size 15 to 20)
#    0.000    2.500    0.000    1.875    0.000    2.000 
#    0.000   20.625    0.000    0.000    0.000    0.000 
#    0.000    0.000    0.000    0.000    0.000    0.000 
#
# Total GULP energy -198298.422312 kJ/mol
# GULP energy per Si atom -12393.651394 kJ/mol
# Density = 1.960697 g / cm^3
# Si number density = 19.651699 Si / 1000 Ang^3
#
#
#
# Elastic Constant Matrix: (Units=GPa)
#
#
# Indices 1 2 3 4 5 6 
#
# 1 64.0928 37.9774 20.1289 -6.8125 -1.5302 -10.8844
# 2 37.9774 116.7178 28.7506 -1.4665 8.5065 -5.9180
# 3 20.1289 28.7506 79.4824 -4.1072 14.1559 -7.3523
# 4 -6.8125 -1.4665 -4.1072 20.4683 -0.0542 1.7048
# 5 -1.5302 8.5065 14.1559 -0.0542 25.9978 -7.0647
# 6 -10.8844 -5.9180 -7.3523 1.7048 -7.0647 32.8999
#
#
#
# Elastic Compliance Matrix: (Units=1/GPa)
#
#
# Indices 1 2 3 4 5 6 
#
# 1 0.022591 -0.006551 -0.003740 0.005757 0.007353 0.006740
# 2 -0.006551 0.011366 -0.002061 -0.001688 -0.003314 -0.001208
# 3 -0.003740 -0.002061 0.015821 0.001753 -0.008132 0.000090
# 4 0.005757 -0.001688 0.001753 0.051060 -0.000143 -0.000684
# 5 0.007353 -0.003314 -0.008132 -0.000143 0.047169 0.010156
# 6 0.006740 -0.001208 0.000090 -0.000684 0.010156 0.034644
#
#
# Mechanical properties :
#
#
# Convention : Reuss Voigt Hill
#
# Bulk Modulus (GPa) = 39.88197 48.22297 44.05247
# Shear Modulus (GPa) = 23.17883 27.43561 25.30722
#
# Velocity S-wave (km/s) = 3.43808 3.74049 3.59247
# Velocity P-wave (km/s) = 6.00825 6.57625 6.29866
#
# Compressibility (1/GPa) = 0.02507399
#
# Stress axis : x y z
#
# Youngs Moduli (GPa) = 44.26552 87.98149 63.20549
#
# Poissons Ratio (x) = 0.57638 0.23639
# Poissons Ratio (y) = 0.28999 0.13026
# Poissons Ratio (z) = 0.16556 0.18133
#
# Static dielectric constant tensor:
#      x y z
#    x 3.553640 -0.082790 0.224840 
#    y -0.082790 3.979720 -0.111310 
#    z 0.224840 -0.111310 3.434840 
# 
# 
# High freq. dielectric constant tensor:
#      x y z
#    x 1.764860 -0.000460 0.008610 
#    y -0.000460 1.779230 -0.009600 
#    z 0.008610 -0.009600 1.743400 
# 
# From -- ./inp_files/196324.got.cif
#   From: 2010.06.25/outbox.cif.g09.slc.cpg/sg2_99_cif.got.tgz:196324.got - 2010.06.27 13:26:56.
