data_PCOD8041288
_publ_section_title
;
Structure prediction by ZEFSAII (Michael W. Deem and Ramdas Pophale) SiO2 
 PCOD8041288
Probable space group: P -1
;
_chemical_formula_sum "Si O2"
_cell_formula_units_Z 16
_cell_length_a 11.542976
_cell_length_b 5.473587
_cell_length_c 21.064600
_cell_angle_alpha 50.357090
_cell_angle_beta 52.100386
_cell_angle_gamma 60.720736
_cell_volume 798.280695
_symmetry_space_group_name_H-M "P -1"
_symmetry_group_IT_number 2
_symmetry_cell_setting 'triclinic'
loop_
_space_group_symop_operation_xyz
x,y,z
-x,-y,-z
loop_
_atom_site_type_symbol
_atom_site_label
_atom_site_fract_x
_atom_site_fract_y
_atom_site_fract_z
Si Si1 0.031055 0.897875 0.358302
Si Si2 0.875352 0.142276 0.799486
Si Si3 0.540789 0.126505 0.124905
Si Si4 0.713260 0.805797 0.711597
Si Si5 0.372532 0.239820 0.037030
Si Si6 0.827938 0.684079 0.096566
Si Si7 0.045893 0.998617 0.883295
Si Si8 0.127160 0.152453 0.465778
O O1 0.007093 0.957636 0.281188
O O2 0.092453 0.532454 0.414062
O O3 0.875034 0.980341 0.438293
O O4 0.156475 0.095859 0.305924
O O5 0.745467 0.417856 0.771625
O O6 0.792227 0.848887 0.898495
O O7 0.967203 0.230642 0.815195
O O8 0.452737 0.067692 0.228834
O O9 0.413869 0.244787 0.096393
O O10 0.651994 0.802453 0.123704
O O11 0.640346 0.411658 0.049855
O O12 0.723154 0.931682 0.614008
O O13 0.500000 0.000000 0.000000
O O14 0.855432 0.304201 0.135748
O O15 0.861307 0.782258 0.141993
O O16 0.920923 0.874057 0.987553
O O17 0.000000 0.000000 0.500000
#
# Coordination Sequence:
#
# PCOD8041288 Si02
#       8
#     2   2   2   2   2   2   2   2
#     4   9  17  31  51  78 111 140 169 223 277 344
#     4  11  21  32  55  79 111 145 188 233 279 327
#     4  11  23  34  52  78 110 148 187 225 283 336
#     4  10  19  32  51  85 109 140 174 227 285 343
#     4  11  22  33  49  77 112 145 178 229 283 335
#     4  10  24  40  56  73 106 155 200 238 272 317
#     4  10  24  40  56  75 104 153 203 241 269 314
#     4   8  16  31  50  75 113 138 171 208 280 351
#
# _framework density 20.043075000000002
#
# number of rings (size 3 to 8) (size 9 to 14) (size 15 to 20)
#    0.000    2.000    2.500    0.750   10.500    0.000 
#    0.000    0.000    0.000    0.000    0.000    1.750 
#    0.000    0.000    0.000    0.000    0.000    0.000 
#
# Total GULP energy -198209.307621 kJ/mol
# GULP energy per Si atom -12388.081726 kJ/mol
# Density = 1.999746 g / cm^3
# Si number density = 20.043075 Si / 1000 Ang^3
#
#
#
# Elastic Constant Matrix: (Units=GPa)
#
#
# Indices 1 2 3 4 5 6 
#
# 1 50.1167 11.2906 23.6580 9.9362 10.4554 5.5844
# 2 11.2906 80.7555 32.2847 22.5572 -2.1370 0.3165
# 3 23.6580 32.2847 116.5742 29.5949 -1.2744 2.2624
# 4 9.9362 22.5572 29.5949 29.0605 7.1868 -2.2034
# 5 10.4554 -2.1370 -1.2744 7.1868 22.1548 5.1306
# 6 5.5844 0.3165 2.2624 -2.2034 5.1306 30.1837
#
#
#
# Elastic Compliance Matrix: (Units=1/GPa)
#
#
# Indices 1 2 3 4 5 6 
#
# 1 0.025354 -0.002140 -0.004840 0.000772 -0.012197 -0.002176
# 2 -0.002140 0.017016 -0.000638 -0.013855 0.007580 -0.002035
# 3 -0.004840 -0.000638 0.013314 -0.013559 0.007951 -0.002437
# 4 0.000772 -0.013855 -0.013559 0.065989 -0.026273 0.010302
# 5 -0.012197 0.007580 0.007951 -0.026273 0.063169 -0.011074
# 6 -0.002176 -0.002035 -0.002437 0.010302 -0.011074 0.036371
#
#
# Mechanical properties :
#
#
# Convention : Reuss Voigt Hill
#
# Bulk Modulus (GPa) = 24.72337 42.43478 33.57908
# Shear Modulus (GPa) = 20.00539 28.29401 24.14970
#
# Velocity S-wave (km/s) = 3.16273 3.76128 3.47492
# Velocity P-wave (km/s) = 5.06942 6.33094 5.73497
#
# Compressibility (1/GPa) = 0.04044755
#
# Stress axis : x y z
#
# Youngs Moduli (GPa) = 39.44133 58.76743 75.10957
#
# Poissons Ratio (x) = 0.12575 0.36353
# Poissons Ratio (y) = 0.08440 0.04796
# Poissons Ratio (z) = 0.19090 0.03752
#
# Static dielectric constant tensor:
#      x y z
#    x 3.394520 0.416810 0.178240 
#    y 0.416810 3.720230 0.398940 
#    z 0.178240 0.398940 4.195420 
# 
# 
# High freq. dielectric constant tensor:
#      x y z
#    x 1.733490 0.040460 0.001540 
#    y 0.040460 1.781330 0.018400 
#    z 0.001540 0.018400 1.785890 
# 
# From -- ./inp_files/79870.got.cif
#   From: 2010.06.25/outbox.cif.g09.slc.cpg/sg2_40_cif.got.tgz:79870.got - 2010.06.27 13:26:56.
