data_PCOD8041955
_publ_section_title
;
Structure prediction by ZEFSAII (Michael W. Deem and Ramdas Pophale) SiO2 
 PCOD8041955
Probable space group: P -1
;
_chemical_formula_sum "Si O2"
_cell_formula_units_Z 14
_cell_length_a 10.933592
_cell_length_b 17.005268
_cell_length_c 14.628404
_cell_angle_alpha 24.387480
_cell_angle_beta 90.790194
_cell_angle_gamma 73.304785
_cell_volume 771.944919
_symmetry_space_group_name_H-M "P -1"
_symmetry_group_IT_number 2
_symmetry_cell_setting 'triclinic'
loop_
_space_group_symop_operation_xyz
x,y,z
-x,-y,-z
loop_
_atom_site_type_symbol
_atom_site_label
_atom_site_fract_x
_atom_site_fract_y
_atom_site_fract_z
Si Si1 0.001429 0.817803 0.128977
Si Si2 0.013608 0.585394 0.034669
Si Si3 0.591945 0.936198 0.215074
Si Si4 0.742224 0.800699 0.161267
Si Si5 0.744594 0.008441 0.290592
Si Si6 0.694050 0.857432 0.622164
Si Si7 0.154505 0.683533 0.076894
O O1 0.116111 0.527685 0.487503
O O2 0.067931 0.812177 0.037967
O O3 0.811372 0.931389 0.994510
O O4 0.000000 0.000000 0.000000
O O5 0.068645 0.322587 0.363076
O O6 0.167672 0.449019 0.101989
O O7 0.013650 0.758744 0.923090
O O8 0.810705 0.806075 0.762321
O O9 0.660679 0.920412 0.133559
O O10 0.614257 0.088047 0.123290
O O11 0.684802 0.646393 0.565298
O O12 0.387711 0.112939 0.013108
O O13 0.652700 0.071056 0.321894
O O14 0.774815 0.196988 0.084881
O O15 0.500000 0.000000 0.500000
#
# Coordination Sequence:
#
# PCOD8041955 Si02
#       7
#     2   2   2   2   2   2   2
#     4  10  20  33  51  77 107 139 182 216 259 314
#     4   8  19  37  56  77 109 140 175 217 269 325
#     4   9  18  34  54  73 103 140 180 213 264 313
#     4   9  19  34  51  73 103 144 176 220 258 307
#     4   9  18  33  54  77 104 140 169 218 274 312
#     4   9  18  37  59  78 105 141 177 220 266 324
#     4  10  19  34  55  77 106 141 171 218 270 314
#
# _framework density 18.136009000000001
#
# number of rings (size 3 to 8) (size 9 to 14) (size 15 to 20)
#    0.857    2.000    0.000    0.857    0.000    4.000 
#    0.000    6.429    0.000    0.000    0.000    0.000 
#    0.000    0.000    0.000    0.000    0.000    0.000 
#
# Total GULP energy -173434.096360 kJ/mol
# GULP energy per Si atom -12388.149740 kJ/mol
# Density = 1.809473 g / cm^3
# Si number density = 18.136009 Si / 1000 Ang^3
#
#
#
# Elastic Constant Matrix: (Units=GPa)
#
#
# Indices 1 2 3 4 5 6 
#
# 1 137.7373 48.4670 58.3548 5.1387 0.7374 12.2488
# 2 48.4670 78.2685 36.2843 4.1611 -2.8123 24.4971
# 3 58.3548 36.2843 43.3046 15.5190 -3.0960 7.2627
# 4 5.1387 4.1611 15.5190 23.7675 3.6662 4.6421
# 5 0.7374 -2.8123 -3.0960 3.6662 38.2026 6.2070
# 6 12.2488 24.4971 7.2627 4.6421 6.2070 36.3870
#
#
#
# Elastic Compliance Matrix: (Units=1/GPa)
#
#
# Indices 1 2 3 4 5 6 
#
# 1 0.025088 0.007757 -0.049553 0.027672 -0.005551 -0.006360
# 2 0.007757 0.032934 -0.043843 0.025008 -0.000571 -0.019126
# 3 -0.049553 -0.043843 0.156122 -0.090579 0.015174 0.024003
# 4 0.027672 0.025008 -0.090579 0.096322 -0.012311 -0.018260
# 5 -0.005551 -0.000571 0.015174 -0.012311 0.029336 -0.004209
# 6 -0.006360 -0.019126 0.024003 -0.018260 -0.004209 0.040756
#
#
# Mechanical properties :
#
#
# Convention : Reuss Voigt Hill
#
# Bulk Modulus (GPa) = 23.32857 60.61364 41.97111
# Shear Modulus (GPa) = 8.83197 27.41838 18.12517
#
# Velocity S-wave (km/s) = 2.20917 3.89243 3.16476
# Velocity P-wave (km/s) = 4.40435 7.32773 6.04541
#
# Compressibility (1/GPa) = 0.04286589
#
# Stress axis : x y z
#
# Youngs Moduli (GPa) = 39.86034 30.36338 6.40525
#
# Poissons Ratio (x) = -0.23552 0.31740
# Poissons Ratio (y) = -0.30919 0.28083
# Poissons Ratio (z) = 1.97519 1.33122
#
# Static dielectric constant tensor:
#      x y z
#    x 3.471050 0.186720 0.158060 
#    y 0.186720 3.360070 0.263220 
#    z 0.158060 0.263220 3.230210 
# 
# 
# High freq. dielectric constant tensor:
#      x y z
#    x 1.699960 0.015960 0.002850 
#    y 0.015960 1.699510 0.019900 
#    z 0.002850 0.019900 1.682230 
# 
# From -- ./inp_files/506919.got.cif
#   From: 2010.06.25/outbox.cif.g09.slc.cpg/sg2_254_cif.got.tgz:506919.got - 2010.06.27 13:26:56.
