data_PCOD8041923
_publ_section_title
;
Structure prediction by ZEFSAII (Michael W. Deem and Ramdas Pophale) SiO2 
 PCOD8041923
Probable space group: P -1
;
_chemical_formula_sum "Si O2"
_cell_formula_units_Z 14
_cell_length_a 14.168725
_cell_length_b 11.372306
_cell_length_c 24.145301
_cell_angle_alpha 33.816514
_cell_angle_beta 21.262571
_cell_angle_gamma 30.536805
_cell_volume 708.441143
_symmetry_space_group_name_H-M "P -1"
_symmetry_group_IT_number 2
_symmetry_cell_setting 'triclinic'
loop_
_space_group_symop_operation_xyz
x,y,z
-x,-y,-z
loop_
_atom_site_type_symbol
_atom_site_label
_atom_site_fract_x
_atom_site_fract_y
_atom_site_fract_z
Si Si1 0.136763 0.808524 0.667033
Si Si2 0.761454 0.946549 0.584999
Si Si3 0.621577 0.317506 0.606093
Si Si4 0.249791 0.457625 0.030756
Si Si5 0.704243 0.181188 0.067888
Si Si6 0.260897 0.965937 0.108641
Si Si7 0.209752 0.144530 0.946826
O O1 0.453198 0.597365 0.584146
O O2 0.916261 0.706533 0.803557
O O3 0.166266 0.000036 0.536663
O O4 0.024626 0.949751 0.730668
O O5 0.542102 0.828570 0.753513
O O6 0.050398 0.754198 0.529684
O O7 0.615974 0.195723 0.598548
O O8 0.466911 0.224824 0.772551
O O9 0.076746 0.657068 0.002116
O O10 0.287771 0.567370 0.025963
O O11 0.577930 0.308392 0.888035
O O12 0.682203 0.108272 0.044831
O O13 0.000000 0.000000 0.000000
O O14 0.500000 0.000000 0.000000
O O15 0.155967 0.120792 0.049844
#
# Coordination Sequence:
#
# PCOD8041923 Si02
#       7
#     2   2   2   2   2   2   2
#     4  10  20  33  54  80 107 136 173 218 260 308
#     4  10  19  34  54  77 106 135 172 220 264 310
#     4   9  18  31  52  79 104 136 175 216 265 305
#     4   9  19  35  55  80 106 140 179 215 262 310
#     4   9  19  37  58  79 105 139 175 218 270 313
#     4  10  20  32  52  81 109 140 178 214 258 312
#     4   9  18  34  54  80 110 137 174 222 261 308
#
# _framework density 19.761699
#
# number of rings (size 3 to 8) (size 9 to 14) (size 15 to 20)
#    0.000    2.571    0.000    3.000    0.000    6.857 
#    0.000    3.571    0.000    4.286    0.000    0.000 
#    0.000    0.000    0.000    0.000    0.000    0.000 
#
# Total GULP energy -173469.191690 kJ/mol
# GULP energy per Si atom -12390.656549 kJ/mol
# Density = 1.971672 g / cm^3
# Si number density = 19.761699 Si / 1000 Ang^3
#
#
#
# Elastic Constant Matrix: (Units=GPa)
#
#
# Indices 1 2 3 4 5 6 
#
# 1 43.3539 -10.0837 22.6572 -7.0050 8.5976 0.1167
# 2 -10.0837 70.7229 5.5654 16.8464 -8.9580 -0.5174
# 3 22.6572 5.5654 82.8154 8.7142 6.2858 -1.6604
# 4 -7.0050 16.8464 8.7142 26.4075 -0.5982 -0.0960
# 5 8.5976 -8.9580 6.2858 -0.5982 35.5330 2.1920
# 6 0.1167 -0.5174 -1.6604 -0.0960 2.1920 24.6198
#
#
#
# Elastic Compliance Matrix: (Units=1/GPa)
#
#
# Indices 1 2 3 4 5 6 
#
# 1 0.031020 0.002168 -0.009277 0.009789 -0.005139 -0.000231
# 2 0.002168 0.017431 -0.000995 -0.010128 0.003881 -0.000096
# 3 -0.009277 -0.000995 0.015506 -0.006960 -0.000936 0.001125
# 4 0.009789 -0.010128 -0.006960 0.049157 -0.002846 -0.000283
# 5 -0.005139 0.003881 -0.000936 -0.002846 0.030649 -0.002697
# 6 -0.000231 -0.000096 0.001125 -0.000283 -0.002697 0.040932
#
#
# Mechanical properties :
#
#
# Convention : Reuss Voigt Hill
#
# Bulk Modulus (GPa) = 20.94298 25.90779 23.42538
# Shear Modulus (GPa) = 23.06076 29.22895 26.14485
#
# Velocity S-wave (km/s) = 3.41976 3.85004 3.64126
# Velocity P-wave (km/s) = 5.11994 5.73605 5.43673
#
# Compressibility (1/GPa) = 0.04774871
#
# Stress axis : x y z
#
# Youngs Moduli (GPa) = 32.23723 57.36992 64.49134
#
# Poissons Ratio (x) = -0.12441 0.59829
# Poissons Ratio (y) = -0.06991 0.06420
# Poissons Ratio (z) = 0.29907 0.05711
#
# Static dielectric constant tensor:
#      x y z
#    x 1.510820 -1.806860 0.828440 
#    y -1.806860 1.929640 1.195360 
#    z 0.828440 1.195360 3.201100 
# 
# 
# High freq. dielectric constant tensor:
#      x y z
#    x 1.753930 -0.004730 0.005090 
#    y -0.004730 1.779950 0.022150 
#    z 0.005090 0.022150 1.744660 
# 
# From -- ./inp_files/247934.got.cif
#   From: 2010.06.25/outbox.cif.g09.slc.cpg/sg2_124_cif.got.tgz:247934.got - 2010.06.27 13:26:56.
