data_PCOD8041241
_publ_section_title
;
Structure prediction by ZEFSAII (Michael W. Deem and Ramdas Pophale) SiO2 
 PCOD8041241
Probable space group: P -1
;
_chemical_formula_sum "Si O2"
_cell_formula_units_Z 16
_cell_length_a 8.392780
_cell_length_b 13.610789
_cell_length_c 12.711983
_cell_angle_alpha 92.319983
_cell_angle_beta 123.923074
_cell_angle_gamma 126.311044
_cell_volume 807.840308
_symmetry_space_group_name_H-M "P -1"
_symmetry_group_IT_number 2
_symmetry_cell_setting 'triclinic'
loop_
_space_group_symop_operation_xyz
x,y,z
-x,-y,-z
loop_
_atom_site_type_symbol
_atom_site_label
_atom_site_fract_x
_atom_site_fract_y
_atom_site_fract_z
Si Si1 0.179747 0.987001 0.357497
Si Si2 0.177534 0.772114 0.438254
Si Si3 0.773637 0.197427 0.309787
Si Si4 0.716610 0.286649 0.091499
Si Si5 0.277961 0.034881 0.776814
Si Si6 0.112140 0.945796 0.095613
Si Si7 0.108633 0.728625 0.046166
Si Si8 0.767091 0.530731 0.107220
O O1 0.172195 0.885666 0.417851
O O2 0.030362 0.913135 0.186638
O O3 0.984048 0.991734 0.347334
O O4 0.504979 0.148770 0.467907
O O5 0.073824 0.720367 0.519377
O O6 0.952724 0.626397 0.281433
O O7 0.839045 0.305514 0.251970
O O8 0.859182 0.125713 0.285722
O O9 0.446508 0.071896 0.213419
O O10 0.649435 0.376204 0.067917
O O11 0.421102 0.113994 0.948223
O O12 0.952550 0.347335 0.091977
O O13 0.544842 0.144426 0.796994
O O14 0.993539 0.797657 0.998454
O O15 0.000000 0.000000 0.000000
O O16 0.955531 0.610279 0.075514
O O17 0.500000 0.500000 0.000000
#
# Coordination Sequence:
#
# PCOD8041241 Si02
#       8
#     2   2   2   2   2   2   2   2
#     4  10  19  36  61  91 121 155 191 252 304 352
#     4  10  23  39  58  89 125 155 205 241 297 358
#     4  10  21  38  56  94 122 158 190 255 304 357
#     4  10  22  37  63  85 129 157 198 244 296 355
#     4   9  20  36  63  94 118 152 196 248 312 348
#     4  10  19  31  62  91 123 146 197 250 301 350
#     4   9  22  37  58  92 119 150 201 246 297 351
#     4  12  24  43  64  85 115 165 210 246 288 363
#
# _framework density 19.805895
#
# number of rings (size 3 to 8) (size 9 to 14) (size 15 to 20)
#    0.750    1.250    1.250    2.250    5.250    1.000 
#    0.000    0.000    0.000    1.500    0.000    0.000 
#    0.000    0.000    0.000    0.000    0.000    0.000 
#
# Total GULP energy -198271.677432 kJ/mol
# GULP energy per Si atom -12391.979840 kJ/mol
# Density = 1.976082 g / cm^3
# Si number density = 19.805895 Si / 1000 Ang^3
#
#
#
# Elastic Constant Matrix: (Units=GPa)
#
#
# Indices 1 2 3 4 5 6 
#
# 1 117.8820 46.3563 42.3875 -13.6220 6.4555 -7.9713
# 2 46.3563 74.8681 33.3921 -21.5750 -10.3121 -5.4176
# 3 42.3875 33.3921 87.2425 -18.1497 -17.5012 8.4046
# 4 -13.6220 -21.5750 -18.1497 32.5955 1.5044 -2.6305
# 5 6.4555 -10.3121 -17.5012 1.5044 38.1334 -3.1937
# 6 -7.9713 -5.4176 8.4046 -2.6305 -3.1937 25.2343
#
#
#
# Elastic Compliance Matrix: (Units=1/GPa)
#
#
# Indices 1 2 3 4 5 6 
#
# 1 0.013856 -0.006939 -0.006115 -0.001585 -0.006638 0.003918
# 2 -0.006939 0.023290 -0.002452 0.011309 0.006371 0.005610
# 3 -0.006115 -0.002452 0.018815 0.005344 0.008199 -0.007130
# 4 -0.001585 0.011309 0.005344 0.040667 0.004591 0.004967
# 5 -0.006638 0.006371 0.008199 0.004591 0.032750 0.001164
# 6 0.003918 0.005610 -0.007130 0.004967 0.001164 0.045111
#
#
# Mechanical properties :
#
#
# Convention : Reuss Voigt Hill
#
# Bulk Modulus (GPa) = 40.08357 58.25160 49.16759
# Shear Modulus (GPa) = 23.38449 29.71641 26.55045
#
# Velocity S-wave (km/s) = 3.43984 3.87768 3.66530
# Velocity P-wave (km/s) = 6.00489 7.03730 6.54150
#
# Compressibility (1/GPa) = 0.02494788
#
# Stress axis : x y z
#
# Youngs Moduli (GPa) = 72.17077 42.93761 53.14822
#
# Poissons Ratio (x) = 0.29796 0.32499
# Poissons Ratio (y) = 0.50083 0.13033
# Poissons Ratio (z) = 0.44131 0.10530
#
# Static dielectric constant tensor:
#      x y z
#    x 3.881120 -0.036830 -0.125550 
#    y -0.036830 3.075860 0.226430 
#    z -0.125550 0.226430 3.054270 
# 
# 
# High freq. dielectric constant tensor:
#      x y z
#    x 1.788260 -0.004880 -0.004730 
#    y -0.004880 1.748170 -0.017860 
#    z -0.004730 -0.017860 1.748540 
# 
# From -- ./inp_files/252526.got.cif
#   From: 2010.06.25/outbox.cif.g09.slc.cpg/sg2_127_cif.got.tgz:252526.got - 2010.06.27 13:26:56.
