data_PCOD8041859
_publ_section_title
;
Structure prediction by ZEFSAII (Michael W. Deem and Ramdas Pophale) SiO2 
 PCOD8041859
Probable space group: P -1
;
_chemical_formula_sum "Si O2"
_cell_formula_units_Z 16
_cell_length_a 7.155896
_cell_length_b 11.825840
_cell_length_c 22.868061
_cell_angle_alpha 30.979077
_cell_angle_beta 135.260015
_cell_angle_gamma 121.153253
_cell_volume 678.334339
_symmetry_space_group_name_H-M "P -1"
_symmetry_group_IT_number 2
_symmetry_cell_setting 'triclinic'
loop_
_space_group_symop_operation_xyz
x,y,z
-x,-y,-z
loop_
_atom_site_type_symbol
_atom_site_label
_atom_site_fract_x
_atom_site_fract_y
_atom_site_fract_z
Si Si1 0.140275 0.968263 0.893464
Si Si2 0.709101 0.865024 0.558762
Si Si3 0.290381 0.357947 0.799261
Si Si4 0.813553 0.861537 0.299974
Si Si5 0.446162 0.715868 0.736217
Si Si6 0.364304 0.536332 0.610189
Si Si7 0.978797 0.544034 0.043771
Si Si8 0.273223 0.749951 0.803490
O O1 0.066050 0.206694 0.808078
O O2 0.143996 0.013275 0.805410
O O3 0.437020 0.822422 0.041582
O O4 0.932880 0.811397 0.930557
O O5 0.636516 0.630620 0.626161
O O6 0.011169 0.820494 0.671689
O O7 0.500000 0.000000 0.500000
O O8 0.684389 0.024162 0.425182
O O9 0.226035 0.561985 0.742134
O O10 0.311820 0.478143 0.689982
O O11 0.615380 0.690259 0.324064
O O12 0.113717 0.734230 0.444362
O O13 0.679773 0.047634 0.235989
O O14 0.715058 0.610515 0.801956
O O15 0.515251 0.692411 0.832876
O O16 0.747025 0.462906 0.065488
O O17 0.000000 0.500000 0.000000
#
# Coordination Sequence:
#
# PCOD8041859 Si02
#       8
#     2   2   2   2   2   2   2   2
#     4   9  18  32  59  81 114 151 196 235 292 349
#     4  12  19  37  62  87 116 156 199 241 291 360
#     4   9  17  35  54  85 112 153 192 238 289 354
#     4  10  19  34  55  92 115 155 196 244 297 354
#     4  11  23  37  61  90 118 151 198 246 292 357
#     4  10  19  33  62  83 117 156 202 238 295 355
#     4  11  21  38  59  84 116 157 196 236 295 352
#     4  12  23  38  62  90 120 153 198 248 300 347
#
# _framework density 23.587185999999999
#
# number of rings (size 3 to 8) (size 9 to 14) (size 15 to 20)
#    0.000    1.500    5.000    1.125    0.000    0.500 
#    0.000    1.250    2.750    0.000    0.000    0.000 
#    0.000    0.000    0.000    0.000    0.000    0.000 
#
# Total GULP energy -198253.227541 kJ/mol
# GULP energy per Si atom -12390.826721 kJ/mol
# Density = 2.353350 g / cm^3
# Si number density = 23.587186 Si / 1000 Ang^3
#
#
#
# Elastic Constant Matrix: (Units=GPa)
#
#
# Indices 1 2 3 4 5 6 
#
# 1 84.1192 28.6942 19.9208 -12.1817 -15.4479 -1.3998
# 2 28.6942 167.6524 35.1029 -43.4240 -21.7383 -4.8498
# 3 19.9208 35.1029 115.9996 -3.1632 -41.5173 -0.5978
# 4 -12.1817 -43.4240 -3.1632 59.6107 3.9777 -8.5976
# 5 -15.4479 -21.7383 -41.5173 3.9777 26.9970 5.9780
# 6 -1.3998 -4.8498 -0.5978 -8.5976 5.9780 31.9453
#
#
#
# Elastic Compliance Matrix: (Units=1/GPa)
#
#
# Indices 1 2 3 4 5 6 
#
# 1 0.013786 -0.001143 0.001107 0.001350 0.008649 -0.000804
# 2 -0.001143 0.008385 -0.001054 0.005931 0.003111 0.002217
# 3 0.001107 -0.001054 0.020535 -0.002629 0.033224 -0.006652
# 4 0.001350 0.005931 -0.002629 0.022568 -0.003512 0.007641
# 5 0.008649 0.003111 0.033224 -0.003512 0.100139 -0.018211
# 6 -0.000804 0.002217 -0.006652 0.007641 -0.018211 0.036945
#
#
# Mechanical properties :
#
#
# Convention : Reuss Voigt Hill
#
# Bulk Modulus (GPa) = 24.67680 59.46745 42.07213
# Shear Modulus (GPa) = 22.93073 42.64750 32.78911
#
# Velocity S-wave (km/s) = 3.12134 4.25676 3.73248
# Velocity P-wave (km/s) = 4.84511 7.03040 6.03745
#
# Compressibility (1/GPa) = 0.04052390
#
# Stress axis : x y z
#
# Youngs Moduli (GPa) = 72.53577 119.26366 48.69747
#
# Poissons Ratio (x) = 0.13637 -0.05389
# Poissons Ratio (y) = 0.08294 0.05134
# Poissons Ratio (z) = -0.08027 0.12574
#
# Static dielectric constant tensor:
#      x y z
#    x 4.451140 0.237130 0.132090 
#    y 0.237130 5.173830 -0.232460 
#    z 0.132090 -0.232460 4.765770 
# 
# 
# High freq. dielectric constant tensor:
#      x y z
#    x 1.886920 0.008620 -0.017450 
#    y 0.008620 1.963190 0.008010 
#    z -0.017450 0.008010 1.962400 
# 
# From -- ./inp_files/418106.got.cif
#   From: 2010.06.25/outbox.cif.g09.slc.cpg/sg2_210_cif.got.tgz:418106.got - 2010.06.27 13:26:56.
