data_PCOD8041958
_publ_section_title
;
Structure prediction by ZEFSAII (Michael W. Deem and Ramdas Pophale) SiO2 
 PCOD8041958
Probable space group: P -1
;
_chemical_formula_sum "Si O2"
_cell_formula_units_Z 16
_cell_length_a 20.104785
_cell_length_b 8.546715
_cell_length_c 8.623176
_cell_angle_alpha 54.848740
_cell_angle_beta 114.143651
_cell_angle_gamma 131.530745
_cell_volume 906.030493
_symmetry_space_group_name_H-M "P -1"
_symmetry_group_IT_number 2
_symmetry_cell_setting 'triclinic'
loop_
_space_group_symop_operation_xyz
x,y,z
-x,-y,-z
loop_
_atom_site_type_symbol
_atom_site_label
_atom_site_fract_x
_atom_site_fract_y
_atom_site_fract_z
Si Si1 0.708083 0.584671 0.892714
Si Si2 0.973628 0.478862 0.664639
Si Si3 0.796480 0.384159 0.553285
Si Si4 0.603586 0.673074 0.525744
Si Si5 0.156113 0.856336 0.764159
Si Si6 0.752290 0.665322 0.556445
Si Si7 0.709531 0.195840 0.256367
Si Si8 0.822868 0.046840 0.910527
O O1 0.667288 0.327499 0.070830
O O2 0.630373 0.619014 0.749431
O O3 0.764880 0.615365 0.774743
O O4 0.774344 0.777826 0.971085
O O5 0.904703 0.554728 0.572437
O O6 0.000000 0.500000 0.500000
O O7 0.057459 0.631630 0.768408
O O8 0.920054 0.208828 0.827158
O O9 0.750610 0.489847 0.535955
O O10 0.771431 0.348020 0.370929
O O11 0.762928 0.135809 0.742509
O O12 0.500000 0.500000 0.500000
O O13 0.657300 0.634240 0.467134
O O14 0.631286 0.937804 0.387983
O O15 0.228398 0.806964 0.812833
O O16 0.168667 0.067151 0.555144
O O17 0.167602 0.930017 0.910395
#
# Coordination Sequence:
#
# PCOD8041958 Si02
#       8
#     2   2   2   2   2   2   2   2
#     4  10  20  38  59  84 112 152 190 229 288 351
#     4  10  19  34  55  78 122 157 192 247 285 314
#     4  10  19  35  57  79 116 154 193 232 286 333
#     4   9  20  40  61  88 117 143 185 240 288 346
#     4  11  19  35  55  82 117 158 196 241 282 334
#     4   9  20  36  56  84 111 152 191 233 289 343
#     4  11  20  36  63  83 115 159 187 231 292 341
#     4  10  20  34  55  81 115 155 197 233 283 335
#
# _framework density 17.65945
#
# number of rings (size 3 to 8) (size 9 to 14) (size 15 to 20)
#    1.500    0.500    2.500    2.625    0.000    1.000 
#    0.000    1.250    0.000    3.750    0.000    0.000 
#    0.000    0.000    0.000    0.000    0.000    0.000 
#
# Total GULP energy -198223.375253 kJ/mol
# GULP energy per Si atom -12388.960953 kJ/mol
# Density = 1.761926 g / cm^3
# Si number density = 17.659450 Si / 1000 Ang^3
#
#
#
# Elastic Constant Matrix: (Units=GPa)
#
#
# Indices 1 2 3 4 5 6 
#
# 1 69.4008 49.8485 25.5500 0.7526 -1.8174 -6.2800
# 2 49.8485 110.3810 51.6226 -1.5079 1.8674 4.8949
# 3 25.5500 51.6226 114.6795 -6.2574 8.9848 -2.4476
# 4 0.7526 -1.5079 -6.2574 33.5723 -14.8019 -0.6374
# 5 -1.8174 1.8674 8.9848 -14.8019 21.3965 5.5290
# 6 -6.2800 4.8949 -2.4476 -0.6374 5.5290 29.9732
#
#
#
# Elastic Compliance Matrix: (Units=1/GPa)
#
#
# Indices 1 2 3 4 5 6 
#
# 1 0.022535 -0.010308 -0.000356 -0.000452 0.001056 0.006172
# 2 -0.010308 0.016433 -0.005328 0.000685 0.001850 -0.005605
# 3 -0.000356 -0.005328 0.011661 -0.000411 -0.005456 0.002745
# 4 -0.000452 0.000685 -0.000411 0.043555 0.031531 -0.005130
# 5 0.001056 0.001850 -0.005456 0.031531 0.074272 -0.013556
# 6 0.006172 -0.005605 0.002745 -0.005130 -0.013556 0.038187
#
#
# Mechanical properties :
#
#
# Convention : Reuss Voigt Hill
#
# Bulk Modulus (GPa) = 53.63341 60.94484 57.28913
# Shear Modulus (GPa) = 20.42120 28.15109 24.28615
#
# Velocity S-wave (km/s) = 3.40426 3.99696 3.71246
# Velocity P-wave (km/s) = 6.77413 7.47576 7.13358
#
# Compressibility (1/GPa) = 0.01864509
#
# Stress axis : x y z
#
# Youngs Moduli (GPa) = 44.37497 60.85287 85.75406
#
# Poissons Ratio (x) = 0.62728 0.03055
# Poissons Ratio (y) = 0.45742 0.45689
# Poissons Ratio (z) = 0.01581 0.32422
#
# Static dielectric constant tensor:
#      x y z
#    x 3.034560 -0.106000 -0.011740 
#    y -0.106000 3.075470 -0.074900 
#    z -0.011740 -0.074900 3.300920 
# 
# 
# High freq. dielectric constant tensor:
#      x y z
#    x 1.657970 -0.014980 -0.005850 
#    y -0.014980 1.669980 -0.002390 
#    z -0.005850 -0.002390 1.689150 
# 
# From -- ./inp_files/342463.got.cif
#   From: 2010.06.25/outbox.cif.g09.slc.cpg/sg2_172_cif.got.tgz:342463.got - 2010.06.27 13:26:56.
