data_PCOD8041767
_publ_section_title
;
Structure prediction by ZEFSAII (Michael W. Deem and Ramdas Pophale) SiO2 
 PCOD8041767
Probable space group: P -1
;
_chemical_formula_sum "Si O2"
_cell_formula_units_Z 14
_cell_length_a 8.953810
_cell_length_b 9.494009
_cell_length_c 9.046603
_cell_angle_alpha 82.238319
_cell_angle_beta 91.604728
_cell_angle_gamma 77.006527
_cell_volume 741.115813
_symmetry_space_group_name_H-M "P -1"
_symmetry_group_IT_number 2
_symmetry_cell_setting 'triclinic'
loop_
_space_group_symop_operation_xyz
x,y,z
-x,-y,-z
loop_
_atom_site_type_symbol
_atom_site_label
_atom_site_fract_x
_atom_site_fract_y
_atom_site_fract_z
Si Si1 0.964507 0.657954 0.403368
Si Si2 0.582237 0.577320 0.207473
Si Si3 0.638859 0.602694 0.876635
Si Si4 0.383641 0.185096 0.612120
Si Si5 0.818543 0.311849 0.364242
Si Si6 0.571372 0.150250 0.325826
Si Si7 0.027853 0.463721 0.174003
O O1 0.797855 0.754447 0.425362
O O2 0.000000 0.500000 0.500000
O O3 0.097929 0.728468 0.467777
O O4 0.977674 0.621126 0.234752
O O5 0.424123 0.533630 0.168444
O O6 0.548203 0.732102 0.267210
O O7 0.684504 0.460993 0.340074
O O8 0.674300 0.583742 0.055780
O O9 0.514549 0.754383 0.825897
O O10 0.791410 0.604284 0.789277
O O11 0.475105 0.201837 0.463941
O O12 0.414429 0.017655 0.686775
O O13 0.743249 0.177594 0.339550
O O14 0.944036 0.338175 0.244311
O O15 0.000000 0.500000 0.000000
#
# Coordination Sequence:
#
# PCOD8041767 Si02
#       7
#     2   2   2   2   2   2   2
#     4  10  19  33  58  82 108 147 181 229 281 318
#     4  10  20  36  59  84 111 142 192 233 269 328
#     4  10  21  36  58  87 108 146 184 233 283 324
#     4  11  21  40  55  82 113 152 186 228 273 334
#     4  10  20  36  54  88 108 145 184 231 277 321
#     4  10  24  36  57  80 116 151 187 225 275 332
#     4  11  19  34  59  85 112 139 183 236 276 325
#
# _framework density 18.890433999999999
#
# number of rings (size 3 to 8) (size 9 to 14) (size 15 to 20)
#    0.000    1.714    4.286    1.714    2.000    2.286 
#    0.000    0.000    0.000    1.714    0.000    0.000 
#    0.000    0.000    0.000    0.000    0.000    0.000 
#
# Total GULP energy -173538.543839 kJ/mol
# GULP energy per Si atom -12395.610274 kJ/mol
# Density = 1.884744 g / cm^3
# Si number density = 18.890434 Si / 1000 Ang^3
#
#
#
# Elastic Constant Matrix: (Units=GPa)
#
#
# Indices 1 2 3 4 5 6 
#
# 1 104.4361 35.3474 34.6791 7.6608 -4.0932 3.5695
# 2 35.3474 99.9365 37.4879 11.5555 2.4047 8.9425
# 3 34.6791 37.4879 96.5793 13.7317 8.5784 6.7689
# 4 7.6608 11.5555 13.7317 22.6560 1.6292 -1.2781
# 5 -4.0932 2.4047 8.5784 1.6292 28.9156 -0.3705
# 6 3.5695 8.9425 6.7689 -1.2781 -0.3705 25.6053
#
#
#
# Elastic Compliance Matrix: (Units=1/GPa)
#
#
# Indices 1 2 3 4 5 6 
#
# 1 0.011824 -0.002967 -0.003274 -0.000697 0.002934 0.000261
# 2 -0.002967 0.013010 -0.003151 -0.003891 -0.000393 -0.003497
# 3 -0.003274 -0.003151 0.014100 -0.005679 -0.004097 -0.002513
# 4 -0.000697 -0.003891 -0.005679 0.050169 -0.000847 0.005449
# 5 0.002934 -0.000393 -0.004097 -0.000847 0.036311 0.001294
# 6 0.000261 -0.003497 -0.002513 0.005449 0.001294 0.041195
#
#
# Mechanical properties :
#
#
# Convention : Reuss Voigt Hill
#
# Bulk Modulus (GPa) = 49.62846 57.33118 53.47982
# Shear Modulus (GPa) = 26.02666 28.33121 27.17893
#
# Velocity S-wave (km/s) = 3.71586 3.87688 3.79722
# Velocity P-wave (km/s) = 6.68872 7.10320 6.89907
#
# Compressibility (1/GPa) = 0.02014973
#
# Stress axis : x y z
#
# Youngs Moduli (GPa) = 84.57489 76.86172 70.92030
#
# Poissons Ratio (x) = 0.22809 0.23217
# Poissons Ratio (y) = 0.25098 0.22349
# Poissons Ratio (z) = 0.27687 0.24221
#
# Static dielectric constant tensor:
#      x y z
#    x 3.832560 0.164600 0.192810 
#    y 0.164600 3.485370 0.506100 
#    z 0.192810 0.506100 4.272190 
# 
# 
# High freq. dielectric constant tensor:
#      x y z
#    x 1.751440 0.005400 0.010310 
#    y 0.005400 1.700160 0.003370 
#    z 0.010310 0.003370 1.733340 
# 
# From -- ./inp_files/154246.got.cif
#   From: 2010.06.25/outbox.cif.g09.slc.cpg/sg2_78_cif.got.tgz:154246.got - 2010.06.27 13:26:56.
