data_PCOD8041832
_publ_section_title
;
Structure prediction by ZEFSAII (Michael W. Deem and Ramdas Pophale) SiO2 
 PCOD8041832
Probable space group: P -1
;
_chemical_formula_sum "Si O2"
_cell_formula_units_Z 16
_cell_length_a 12.175646
_cell_length_b 8.913868
_cell_length_c 11.821903
_cell_angle_alpha 93.698163
_cell_angle_beta 128.145583
_cell_angle_gamma 60.067948
_cell_volume 816.650285
_symmetry_space_group_name_H-M "P -1"
_symmetry_group_IT_number 2
_symmetry_cell_setting 'triclinic'
loop_
_space_group_symop_operation_xyz
x,y,z
-x,-y,-z
loop_
_atom_site_type_symbol
_atom_site_label
_atom_site_fract_x
_atom_site_fract_y
_atom_site_fract_z
Si Si1 0.424309 0.099200 0.284687
Si Si2 0.750161 0.075588 0.922271
Si Si3 0.719298 0.736125 0.574185
Si Si4 0.654614 0.438555 0.510638
Si Si5 0.049937 0.167886 0.347431
Si Si6 0.674211 0.162571 0.341960
Si Si7 0.127347 0.869812 0.206241
Si Si8 0.675444 0.297039 0.111830
O O1 0.284772 0.258067 0.290832
O O2 0.500145 0.181331 0.258153
O O3 0.344228 0.023629 0.149671
O O4 0.579202 0.939098 0.449227
O O5 0.723176 0.195153 0.797335
O O6 0.686547 0.198719 0.998469
O O7 0.953926 0.916532 0.042818
O O8 0.676164 0.597381 0.494171
O O9 0.898943 0.689438 0.636596
O O10 0.500000 0.500000 0.500000
O O11 0.649417 0.342836 0.389566
O O12 0.823297 0.289167 0.681573
O O13 0.843641 0.295800 0.238811
O O14 0.152196 0.031526 0.513483
O O15 0.102363 0.043518 0.262687
O O16 0.677516 0.177394 0.209865
O O17 0.500000 0.500000 0.000000
#
# Coordination Sequence:
#
# PCOD8041832 Si02
#       8
#     2   2   2   2   2   2   2   2
#     4  10  19  35  60  87 115 148 190 241 288 350
#     4  10  20  37  60  80 120 156 191 227 293 359
#     4  10  19  33  60  93 112 142 191 250 300 320
#     4  11  20  33  60  90 118 142 191 252 287 330
#     4   9  19  42  64  83 114 154 200 242 282 350
#     4  10  22  39  60  86 116 159 199 228 289 352
#     4   9  19  35  60  88 110 152 192 236 294 346
#     4  11  25  39  59  86 120 161 193 236 290 350
#
# _framework density 19.592230000000001
#
# number of rings (size 3 to 8) (size 9 to 14) (size 15 to 20)
#    0.000    2.000    2.500    1.125    3.500    0.500 
#    2.250    1.250    2.750    0.000    0.000    0.000 
#    0.000    0.000    0.000    0.000    0.000    0.000 
#
# Total GULP energy -198336.966463 kJ/mol
# GULP energy per Si atom -12396.060404 kJ/mol
# Density = 1.954764 g / cm^3
# Si number density = 19.592230 Si / 1000 Ang^3
#
#
#
# Elastic Constant Matrix: (Units=GPa)
#
#
# Indices 1 2 3 4 5 6 
#
# 1 146.8560 48.6033 52.6496 5.8122 4.5226 10.4445
# 2 48.6033 56.3903 14.6057 7.7160 5.3567 -0.1950
# 3 52.6496 14.6057 75.3888 7.7666 1.8323 -2.6821
# 4 5.8122 7.7160 7.7666 23.5679 -0.0510 3.6517
# 5 4.5226 5.3567 1.8323 -0.0510 39.3788 6.9115
# 6 10.4445 -0.1950 -2.6821 3.6517 6.9115 28.9533
#
#
#
# Elastic Compliance Matrix: (Units=1/GPa)
#
#
# Indices 1 2 3 4 5 6 
#
# 1 0.013226 -0.009987 -0.007931 0.003608 0.001327 -0.006345
# 2 -0.009987 0.027106 0.002882 -0.008297 -0.003736 0.005990
# 3 -0.007931 0.002882 0.019121 -0.006185 -0.001390 0.005764
# 4 0.003608 -0.008297 -0.006185 0.047626 0.002564 -0.008549
# 5 0.001327 -0.003736 -0.001390 0.002564 0.027122 -0.007430
# 6 -0.006345 0.005990 0.005764 -0.008549 -0.007430 0.040253
#
#
# Mechanical properties :
#
#
# Convention : Reuss Voigt Hill
#
# Bulk Modulus (GPa) = 34.03648 56.70580 45.37114
# Shear Modulus (GPa) = 23.32967 29.23179 26.28073
#
# Velocity S-wave (km/s) = 3.45448 3.86684 3.66647
# Velocity P-wave (km/s) = 5.77247 6.99589 6.41342
#
# Compressibility (1/GPa) = 0.02938024
#
# Stress axis : x y z
#
# Youngs Moduli (GPa) = 75.61110 36.89274 52.29775
#
# Poissons Ratio (x) = 0.36843 0.41479
# Poissons Ratio (y) = 0.75509 -0.15071
# Poissons Ratio (z) = 0.59969 -0.10631
#
# Static dielectric constant tensor:
#      x y z
#    x 3.792160 0.041000 0.073680 
#    y 0.041000 3.321510 -0.035540 
#    z 0.073680 -0.035540 3.657560 
# 
# 
# High freq. dielectric constant tensor:
#      x y z
#    x 1.769270 0.004310 0.003260 
#    y 0.004310 1.734120 0.006430 
#    z 0.003260 0.006430 1.765620 
# 
# From -- ./inp_files/308332.got.cif
#   From: 2010.06.25/outbox.cif.g09.slc.cpg/sg2_155_cif.got.tgz:308332.got - 2010.06.27 13:26:56.
