data_PCOD8041406
_publ_section_title
;
Structure prediction by ZEFSAII (Michael W. Deem and Ramdas Pophale) SiO2 
 PCOD8041406
Probable space group: P -1
;
_chemical_formula_sum "Si O2"
_cell_formula_units_Z 14
_cell_length_a 11.262803
_cell_length_b 21.815514
_cell_length_c 18.723339
_cell_angle_alpha 160.428224
_cell_angle_beta 144.542292
_cell_angle_gamma 29.044850
_cell_volume 746.988811
_symmetry_space_group_name_H-M "P -1"
_symmetry_group_IT_number 2
_symmetry_cell_setting 'triclinic'
loop_
_space_group_symop_operation_xyz
x,y,z
-x,-y,-z
loop_
_atom_site_type_symbol
_atom_site_label
_atom_site_fract_x
_atom_site_fract_y
_atom_site_fract_z
Si Si1 0.952971 0.351065 0.941843
Si Si2 0.742723 0.924216 0.598059
Si Si3 0.793792 0.811453 0.350270
Si Si4 0.731374 0.498414 0.137475
Si Si5 0.434144 0.473345 0.765579
Si Si6 0.217439 0.906830 0.059412
Si Si7 0.379273 0.003326 0.679242
O O1 0.707407 0.390671 0.831836
O O2 0.187253 0.123305 0.780754
O O3 0.978958 0.549881 0.146044
O O4 0.951384 0.345003 0.021540
O O5 0.866145 0.898040 0.551457
O O6 0.692969 0.735293 0.381334
O O7 0.471199 0.149774 0.716167
O O8 0.891246 0.947234 0.760515
O O9 0.774973 0.937183 0.406181
O O10 0.765700 0.418903 0.149162
O O11 0.500000 0.500000 0.000000
O O12 0.458843 0.254392 0.508437
O O13 0.326967 0.651489 0.846156
O O14 0.438323 0.915903 0.145291
O O15 0.000000 0.000000 0.000000
#
# Coordination Sequence:
#
# PCOD8041406 Si02
#       7
#     2   2   2   2   2   2   2
#     4  10  19  32  56  89 121 141 168 227 300 342
#     4   9  16  33  51  80 111 144 184 227 263 323
#     4   9  16  28  54  80 113 142 169 221 287 332
#     4   9  18  31  54  87 113 144 180 220 282 350
#     4  11  20  35  57  83 111 146 188 223 280 338
#     4  11  24  39  57  79 109 154 201 231 262 320
#     4  11  21  36  55  87 119 144 176 234 286 334
#
# _framework density 18.741914000000001
#
# number of rings (size 3 to 8) (size 9 to 14) (size 15 to 20)
#    0.000    2.000    5.714    0.857    2.000    0.571 
#    0.000    0.000    0.000    4.286    0.000    0.000 
#    0.000    0.000    0.000    0.000    0.000    0.000 
#
# Total GULP energy -173440.541464 kJ/mol
# GULP energy per Si atom -12388.610105 kJ/mol
# Density = 1.869926 g / cm^3
# Si number density = 18.741914 Si / 1000 Ang^3
#
#
#
# Elastic Constant Matrix: (Units=GPa)
#
#
# Indices 1 2 3 4 5 6 
#
# 1 97.3137 42.5317 57.3893 8.9465 -14.2702 6.3778
# 2 42.5317 84.3161 45.6409 -2.9746 -3.6853 16.2290
# 3 57.3893 45.6409 107.5568 9.8348 -5.5141 17.3655
# 4 8.9465 -2.9746 9.8348 22.1068 7.4761 -0.7411
# 5 -14.2702 -3.6853 -5.5141 7.4761 34.3462 2.4216
# 6 6.3778 16.2290 17.3655 -0.7411 2.4216 10.9411
#
#
#
# Elastic Compliance Matrix: (Units=1/GPa)
#
#
# Indices 1 2 3 4 5 6 
#
# 1 0.018962 -0.007310 -0.007603 -0.007227 0.006750 0.009872
# 2 -0.007310 0.021348 -0.001913 0.006124 -0.000709 -0.023797
# 3 -0.007603 -0.001913 0.018822 -0.007341 0.002930 -0.023750
# 4 -0.007227 0.006124 -0.007341 0.058591 -0.017305 0.014580
# 5 0.006750 -0.000709 0.002930 -0.017305 0.037277 -0.016957
# 6 0.009872 -0.023797 -0.023750 0.014580 -0.016957 0.163378
#
#
# Mechanical properties :
#
#
# Convention : Reuss Voigt Hill
#
# Bulk Modulus (GPa) = 39.24441 64.47895 51.86168
# Shear Modulus (GPa) = 13.86882 23.05380 18.46131
#
# Velocity S-wave (km/s) = 2.72323 3.51104 3.14192
# Velocity P-wave (km/s) = 5.55633 7.13546 6.39482
#
# Compressibility (1/GPa) = 0.02548134
#
# Stress axis : x y z
#
# Youngs Moduli (GPa) = 52.73836 46.84213 53.13022
#
# Poissons Ratio (x) = 0.34240 0.40393
# Poissons Ratio (y) = 0.38549 0.10163
# Poissons Ratio (z) = 0.40095 0.08960
#
# Static dielectric constant tensor:
#      x y z
#    x 3.612390 0.368770 -0.157860 
#    y 0.368770 2.923440 -0.063510 
#    z -0.157860 -0.063510 3.780000 
# 
# 
# High freq. dielectric constant tensor:
#      x y z
#    x 1.723100 0.032060 -0.003090 
#    y 0.032060 1.650490 0.004880 
#    z -0.003090 0.004880 1.747790 
# 
# From -- ./inp_files/234584.got.cif
#   From: 2010.06.25/outbox.cif.g09.slc.cpg/sg2_118_cif.got.tgz:234584.got - 2010.06.27 13:26:56.
