data_PCOD8041430
_publ_section_title
;
Structure prediction by ZEFSAII (Michael W. Deem and Ramdas Pophale) SiO2 
 PCOD8041430
Probable space group: P -1
;
_chemical_formula_sum "Si O2"
_cell_formula_units_Z 12
_cell_length_a 12.106572
_cell_length_b 11.450902
_cell_length_c 11.677573
_cell_angle_alpha 25.152331
_cell_angle_beta 65.229645
_cell_angle_gamma 76.211924
_cell_volume 581.615838
_symmetry_space_group_name_H-M "P -1"
_symmetry_group_IT_number 2
_symmetry_cell_setting 'triclinic'
loop_
_space_group_symop_operation_xyz
x,y,z
-x,-y,-z
loop_
_atom_site_type_symbol
_atom_site_label
_atom_site_fract_x
_atom_site_fract_y
_atom_site_fract_z
Si Si1 0.369088 0.534938 0.497374
Si Si2 0.490904 0.005144 0.634244
Si Si3 0.844308 0.850842 0.920932
Si Si4 0.038423 0.230064 0.676578
Si Si5 0.658106 0.554431 0.663778
Si Si6 0.735803 0.207957 0.503220
O O1 0.500000 0.500000 0.500000
O O2 0.360296 0.612408 0.300818
O O3 0.357332 0.804805 0.335842
O O4 0.257268 0.226662 0.859711
O O5 0.500000 0.000000 0.500000
O O6 0.408089 0.201161 0.534805
O O7 0.640840 0.122175 0.510747
O O8 0.414328 0.673002 0.004123
O O9 0.803675 0.977257 0.710009
O O10 0.849288 0.537593 0.151417
O O11 0.972107 0.091235 0.707757
O O12 0.187675 0.312936 0.500169
O O13 0.000000 0.500000 0.500000
O O14 0.000000 0.000000 0.000000
#
# Coordination Sequence:
#
# PCOD8041430 Si02
#       6
#     2   2   2   2   2   2
#     4  10  19  32  57  91 122 146 190 241 319 370
#     4  12  26  44  62  88 122 167 217 265 301 352
#     4  10  21  35  56  91 125 160 185 243 309 382
#     4  12  22  38  60  93 138 164 193 243 311 398
#     4  12  24  38  65  92 126 165 202 253 315 372
#     4  10  21  37  60  87 120 158 198 254 315 364
#
# _framework density 20.632176000000001
#
# number of rings (size 3 to 8) (size 9 to 14) (size 15 to 20)
#    1.000    0.000    3.333    5.500    2.333    1.333 
#    0.000    0.000    0.000    6.000    0.000    0.000 
#    0.000    0.000    0.000    0.000    0.000    0.000 
#
# Total GULP energy -148667.513058 kJ/mol
# GULP energy per Si atom -12388.959421 kJ/mol
# Density = 2.058522 g / cm^3
# Si number density = 20.632176 Si / 1000 Ang^3
#
#
#
# Elastic Constant Matrix: (Units=GPa)
#
#
# Indices 1 2 3 4 5 6 
#
# 1 108.5438 22.5928 43.2135 3.1446 -3.4578 34.0426
# 2 22.5928 73.8049 18.2689 7.6200 -1.4568 36.0650
# 3 43.2135 18.2689 117.9483 -1.4368 10.0564 13.7250
# 4 3.1446 7.6200 -1.4368 17.9709 4.9233 8.0416
# 5 -3.4578 -1.4568 10.0564 4.9233 41.1568 -7.4250
# 6 34.0426 36.0650 13.7250 8.0416 -7.4250 33.5105
#
#
#
# Elastic Compliance Matrix: (Units=1/GPa)
#
#
# Indices 1 2 3 4 5 6 
#
# 1 0.017243 0.008017 -0.004182 0.005818 -0.002710 -0.026429
# 2 0.008017 0.033489 -0.002039 0.006941 -0.006869 -0.046539
# 3 -0.004182 -0.002039 0.010562 0.003030 -0.003246 0.000670
# 4 0.005818 0.006941 0.003030 0.071744 -0.014929 -0.035146
# 5 -0.002710 -0.006869 -0.003246 -0.014929 0.030335 0.021779
# 6 -0.026429 -0.046539 0.000670 -0.035146 0.021779 0.119761
#
#
# Mechanical properties :
#
#
# Convention : Reuss Voigt Hill
#
# Bulk Modulus (GPa) = 15.41149 52.04972 33.73061
# Shear Modulus (GPa) = 16.60200 32.94242 24.77221
#
# Velocity S-wave (km/s) = 2.83974 4.00015 3.46881
# Velocity P-wave (km/s) = 4.27060 6.82767 5.69452
#
# Compressibility (1/GPa) = 0.06488665
#
# Stress axis : x y z
#
# Youngs Moduli (GPa) = 57.99433 29.86083 94.68013
#
# Poissons Ratio (x) = -0.23940 0.39595
# Poissons Ratio (y) = -0.46495 0.19302
# Poissons Ratio (z) = 0.24253 0.06088
#
# Static dielectric constant tensor:
#      x y z
#    x 3.779080 0.111070 -0.073440 
#    y 0.111070 3.411710 -0.097410 
#    z -0.073440 -0.097410 3.443080 
# 
# 
# High freq. dielectric constant tensor:
#      x y z
#    x 1.813270 0.023010 0.008390 
#    y 0.023010 1.776010 -0.008440 
#    z 0.008390 -0.008440 1.815080 
# 
# From -- ./inp_files/62009.got.cif
#   From: 2010.06.25/outbox.cif.g09.slc.cpg/sg2_32_cif.got.tgz:62009.got - 2010.06.27 13:26:56.
