data_PCOD8041381
_publ_section_title
;
Structure prediction by ZEFSAII (Michael W. Deem and Ramdas Pophale) SiO2 
 PCOD8041381
Probable space group: P -1
;
_chemical_formula_sum "Si O2"
_cell_formula_units_Z 14
_cell_length_a 11.855381
_cell_length_b 19.993460
_cell_length_c 17.680327
_cell_angle_alpha 160.281805
_cell_angle_beta 34.030623
_cell_angle_gamma 135.811926
_cell_volume 745.816260
_symmetry_space_group_name_H-M "P -1"
_symmetry_group_IT_number 2
_symmetry_cell_setting 'triclinic'
loop_
_space_group_symop_operation_xyz
x,y,z
-x,-y,-z
loop_
_atom_site_type_symbol
_atom_site_label
_atom_site_fract_x
_atom_site_fract_y
_atom_site_fract_z
Si Si1 0.856456 0.157751 0.138355
Si Si2 0.470967 0.186901 0.655636
Si Si3 0.786028 0.629242 0.645397
Si Si4 0.289287 0.005318 0.815354
Si Si5 0.806556 0.935541 0.778195
Si Si6 0.161009 0.622210 0.318062
Si Si7 0.510327 0.278504 0.226101
O O1 0.855337 0.390649 0.376135
O O2 0.699510 0.151591 0.288108
O O3 0.096870 0.014632 0.874450
O O4 0.777801 0.072635 0.016843
O O5 0.644658 0.303837 0.688027
O O6 0.500000 0.000000 0.500000
O O7 0.493270 0.084385 0.450226
O O8 0.241437 0.371022 0.988545
O O9 0.565031 0.698945 0.794838
O O10 0.977703 0.670332 0.535838
O O11 0.741463 0.763102 0.889437
O O12 0.647701 0.801327 0.720085
O O13 0.046890 0.764455 0.459771
O O14 0.748258 0.102867 0.918718
O O15 0.500000 0.500000 0.500000
#
# Coordination Sequence:
#
# PCOD8041381 Si02
#       7
#     2   2   2   2   2   2   2
#     4  11  19  33  57  81 117 147 175 232 285 329
#     4  11  23  37  56  77 115 155 190 224 275 335
#     4  11  21  35  58  87 113 147 186 228 285 327
#     4  11  21  35  52  84 117 146 181 230 279 340
#     4  10  19  34  55  84 113 142 185 234 275 326
#     4  10  21  36  54  84 111 146 192 224 273 337
#     4  10  19  32  55  84 114 144 184 233 278 324
#
# _framework density 18.771379
#
# number of rings (size 3 to 8) (size 9 to 14) (size 15 to 20)
#    0.000    1.429    5.714    2.143    0.000    2.286 
#    0.000    0.000    0.000    0.857    0.000    6.000 
#    0.000    0.000    0.000    0.000    0.000    0.000 
#
# Total GULP energy -173484.584848 kJ/mol
# GULP energy per Si atom -12391.756061 kJ/mol
# Density = 1.872865 g / cm^3
# Si number density = 18.771379 Si / 1000 Ang^3
#
#
#
# Elastic Constant Matrix: (Units=GPa)
#
#
# Indices 1 2 3 4 5 6 
#
# 1 79.2776 17.8832 33.9629 0.3679 -3.7944 1.2107
# 2 17.8832 62.0572 24.7515 22.3894 11.2920 -0.6915
# 3 33.9629 24.7515 120.7595 9.6484 1.1545 -3.8709
# 4 0.3679 22.3894 9.6484 30.6307 -7.3087 4.0831
# 5 -3.7944 11.2920 1.1545 -7.3087 34.0040 8.6050
# 6 1.2107 -0.6915 -3.8709 4.0831 8.6050 26.3448
#
#
#
# Elastic Compliance Matrix: (Units=1/GPa)
#
#
# Indices 1 2 3 4 5 6 
#
# 1 0.016690 -0.008416 -0.004039 0.010022 0.008439 -0.005891
# 2 -0.008416 0.035219 -0.001604 -0.032439 -0.022998 0.013615
# 3 -0.004039 -0.001604 0.010050 -0.002626 -0.001457 0.002503
# 4 0.010022 -0.032439 -0.002626 0.067810 0.032315 -0.022763
# 5 0.008439 -0.022998 -0.001457 0.032315 0.050749 -0.022790
# 6 -0.005891 0.013615 0.002503 -0.022763 -0.022790 0.049926
#
#
# Mechanical properties :
#
#
# Convention : Reuss Voigt Hill
#
# Bulk Modulus (GPa) = 29.54967 46.14327 37.84647
# Shear Modulus (GPa) = 18.52935 30.56235 24.54585
#
# Velocity S-wave (km/s) = 3.14523 4.03939 3.62003
# Velocity P-wave (km/s) = 5.38201 6.81107 6.13827
#
# Compressibility (1/GPa) = 0.03384133
#
# Stress axis : x y z
#
# Youngs Moduli (GPa) = 59.91551 28.39375 99.50574
#
# Poissons Ratio (x) = 0.23895 0.40194
# Poissons Ratio (y) = 0.50423 0.15957
# Poissons Ratio (z) = 0.24202 0.04553
#
# Static dielectric constant tensor:
#      x y z
#    x 3.673100 -0.073060 -0.258160 
#    y -0.073060 3.401410 0.285780 
#    z -0.258160 0.285780 3.748730 
# 
# 
# High freq. dielectric constant tensor:
#      x y z
#    x 1.721590 0.003450 -0.008560 
#    y 0.003450 1.717980 0.042590 
#    z -0.008560 0.042590 1.723000 
# 
# From -- ./inp_files/187073.got.cif
#   From: 2010.06.25/outbox.cif.g09.slc.cpg/sg2_94_cif.got.tgz:187073.got - 2010.06.27 13:26:56.
