data_PCOD8041328
_publ_section_title
;
Structure prediction by ZEFSAII (Michael W. Deem and Ramdas Pophale) SiO2 
 PCOD8041328
Probable space group: P -1
;
_chemical_formula_sum "Si O2"
_cell_formula_units_Z 16
_cell_length_a 14.612746
_cell_length_b 14.189868
_cell_length_c 11.297100
_cell_angle_alpha 46.254533
_cell_angle_beta 151.711512
_cell_angle_gamma 125.790121
_cell_volume 799.996610
_symmetry_space_group_name_H-M "P -1"
_symmetry_group_IT_number 2
_symmetry_cell_setting 'triclinic'
loop_
_space_group_symop_operation_xyz
x,y,z
-x,-y,-z
loop_
_atom_site_type_symbol
_atom_site_label
_atom_site_fract_x
_atom_site_fract_y
_atom_site_fract_z
Si Si1 0.084775 0.063977 0.787182
Si Si2 0.440923 0.627586 0.683898
Si Si3 0.790664 0.441946 0.296711
Si Si4 0.726720 0.210501 0.855694
Si Si5 0.304345 0.815738 0.714385
Si Si6 0.475463 0.153107 0.829434
Si Si7 0.060307 0.151112 0.439372
Si Si8 0.432266 0.129608 0.246245
O O1 0.092996 0.171778 0.597392
O O2 0.859173 0.062213 0.567929
O O3 0.201911 0.127700 0.970192
O O4 0.185884 0.919910 0.999931
O O5 0.289567 0.567966 0.652380
O O6 0.325382 0.668565 0.396553
O O7 0.524647 0.754587 0.721394
O O8 0.630517 0.530161 0.961968
O O9 0.803070 0.304871 0.359862
O O10 0.000000 0.500000 0.500000
O O11 0.536544 0.190546 0.734157
O O12 0.890282 0.246247 0.105761
O O13 0.471087 0.862080 0.779656
O O14 0.398715 0.782424 0.979665
O O15 0.248289 0.189908 0.549557
O O16 0.500000 0.000000 0.000000
O O17 0.000000 0.000000 0.500000
O O18 0.500000 0.000000 0.500000
#
# Coordination Sequence:
#
# PCOD8041328 Si02
#       8
#     2   2   2   2   2   2   2   2
#     4  11  19  35  56  88 131 158 194 243 305 376
#     4  10  23  42  64  89 122 161 205 266 308 360
#     4  10  23  47  67  84 116 169 221 255 304 358
#     4  11  21  36  57  94 129 157 201 247 311 374
#     4  11  23  37  64  91 119 166 211 247 307 374
#     4  12  19  35  60  90 128 171 195 241 315 375
#     4  10  19  32  53  83 125 169 194 231 294 373
#     4  11  21  37  57  93 127 154 198 258 317 367
#
# _framework density 20.000084999999999
#
# number of rings (size 3 to 8) (size 9 to 14) (size 15 to 20)
#    0.000    1.250    6.250    1.500    0.000    1.500 
#    2.250    0.625    0.000    1.500    0.000    0.000 
#    0.000    0.000    0.000    0.000    0.000    0.000 
#
# Total GULP energy -198249.699260 kJ/mol
# GULP energy per Si atom -12390.606204 kJ/mol
# Density = 1.995456 g / cm^3
# Si number density = 20.000085 Si / 1000 Ang^3
#
#
#
# Elastic Constant Matrix: (Units=GPa)
#
#
# Indices 1 2 3 4 5 6 
#
# 1 56.8831 12.3477 32.5166 -4.6872 -0.1196 3.6650
# 2 12.3477 61.4877 24.6500 12.1703 0.7723 5.8009
# 3 32.5166 24.6500 142.6492 8.7294 -13.7163 11.8760
# 4 -4.6872 12.1703 8.7294 31.1113 4.5401 1.6216
# 5 -0.1196 0.7723 -13.7163 4.5401 38.5385 4.1430
# 6 3.6650 5.8009 11.8760 1.6216 4.1430 22.5334
#
#
#
# Elastic Compliance Matrix: (Units=1/GPa)
#
#
# Indices 1 2 3 4 5 6 
#
# 1 0.021718 -0.003618 -0.004945 0.006422 -0.002374 -0.000020
# 2 -0.003618 0.019486 -0.001821 -0.007525 0.000154 -0.002955
# 3 -0.004945 -0.001821 0.009393 -0.003058 0.004179 -0.004226
# 4 0.006422 -0.007525 -0.003058 0.037665 -0.005440 0.000794
# 5 -0.002374 0.000154 0.004179 -0.005440 0.028792 -0.006758
# 6 -0.000020 -0.002955 -0.004226 0.000794 -0.006758 0.048555
#
#
# Mechanical properties :
#
#
# Convention : Reuss Voigt Hill
#
# Bulk Modulus (GPa) = 33.52539 44.44987 38.98763
# Shear Modulus (GPa) = 25.46865 31.20369 28.33617
#
# Velocity S-wave (km/s) = 3.57238 3.95419 3.76813
# Velocity P-wave (km/s) = 5.81506 6.56663 6.20224
#
# Compressibility (1/GPa) = 0.02982814
#
# Stress axis : x y z
#
# Youngs Moduli (GPa) = 46.04575 51.31764 106.46500
#
# Poissons Ratio (x) = 0.18568 0.52645
# Poissons Ratio (y) = 0.16661 0.19389
# Poissons Ratio (z) = 0.22769 0.09346
#
# Static dielectric constant tensor:
#      x y z
#    x 3.714760 -0.131240 -0.231920 
#    y -0.131240 3.366030 0.298340 
#    z -0.231920 0.298340 3.857010 
# 
# 
# High freq. dielectric constant tensor:
#      x y z
#    x 1.782200 -0.000270 0.002780 
#    y -0.000270 1.752110 0.030050 
#    z 0.002780 0.030050 1.786300 
# 
# From -- ./inp_files/454560.got.cif
#   From: 2010.06.25/outbox.cif.g09.slc.cpg/sg2_228_cif.got.tgz:454560.got - 2010.06.27 13:26:56.
