data_PCOD8041208
_publ_section_title
;
Structure prediction by ZEFSAII (Michael W. Deem and Ramdas Pophale) SiO2 
 PCOD8041208
Probable space group: P -1
;
_chemical_formula_sum "Si O2"
_cell_formula_units_Z 16
_cell_length_a 11.341465
_cell_length_b 10.803448
_cell_length_c 25.158325
_cell_angle_alpha 31.841697
_cell_angle_beta 32.995032
_cell_angle_gamma 46.615418
_cell_volume 882.095704
_symmetry_space_group_name_H-M "P -1"
_symmetry_group_IT_number 2
_symmetry_cell_setting 'triclinic'
loop_
_space_group_symop_operation_xyz
x,y,z
-x,-y,-z
loop_
_atom_site_type_symbol
_atom_site_label
_atom_site_fract_x
_atom_site_fract_y
_atom_site_fract_z
Si Si1 0.860328 0.761958 0.126057
Si Si2 0.843910 0.649267 0.862579
Si Si3 0.736953 0.752763 0.290700
Si Si4 0.819790 0.649055 0.988197
Si Si5 0.098719 0.114686 0.350818
Si Si6 0.264293 0.761296 0.488366
Si Si7 0.571966 0.470017 0.883871
Si Si8 0.807225 0.995717 0.958471
O O1 0.708103 0.693979 0.259621
O O2 0.018507 0.558787 0.132475
O O3 0.729276 0.814388 0.102311
O O4 0.000000 0.000000 0.000000
O O5 0.915530 0.744027 0.859912
O O6 0.878350 0.860610 0.730070
O O7 0.587417 0.556362 0.994761
O O8 0.519117 0.850972 0.359728
O O9 0.776349 0.520028 0.394076
O O10 0.932900 0.949454 0.154944
O O11 0.763044 0.866417 0.966491
O O12 0.587254 0.496766 0.119238
O O13 0.000000 0.500000 0.000000
O O14 0.250234 0.312792 0.254105
O O15 0.849734 0.136324 0.454196
O O16 0.161707 0.858256 0.437747
O O17 0.688363 0.231244 0.920032
#
# Coordination Sequence:
#
# PCOD8041208 Si02
#       8
#     2   2   2   2   2   2   2   2
#     4  10  19  31  55  81 111 140 172 225 283 326
#     4  10  21  35  54  82 116 135 181 225 279 330
#     4  10  21  35  54  83 112 141 183 224 275 319
#     4  10  22  35  54  84 111 147 176 214 286 331
#     4  11  20  37  55  83 111 140 184 227 275 315
#     4  10  22  34  53  82 107 149 180 224 271 320
#     4  10  22  33  58  83 112 141 175 231 276 329
#     4  11  19  37  55  84 112 142 179 224 276 329
#
# _framework density 18.138622000000002
#
# number of rings (size 3 to 8) (size 9 to 14) (size 15 to 20)
#    0.750    1.000    3.750    1.500    7.000    0.000 
#    0.000    0.000    0.000    1.500   13.000    0.000 
#    0.000    0.000    0.000    0.000    0.000    0.000 
#
# Total GULP energy -198224.267060 kJ/mol
# GULP energy per Si atom -12389.016691 kJ/mol
# Density = 1.809734 g / cm^3
# Si number density = 18.138622 Si / 1000 Ang^3
#
#
#
# Elastic Constant Matrix: (Units=GPa)
#
#
# Indices 1 2 3 4 5 6 
#
# 1 108.4769 35.3226 43.0153 6.9825 19.2060 4.9617
# 2 35.3226 76.8412 33.2113 11.6240 8.9678 -8.8449
# 3 43.0153 33.2113 79.2542 14.5446 20.6988 -3.2339
# 4 6.9825 11.6240 14.5446 25.4729 -6.2736 -1.9025
# 5 19.2060 8.9678 20.6988 -6.2736 25.3942 4.0197
# 6 4.9617 -8.8449 -3.2339 -1.9025 4.0197 29.5948
#
#
#
# Elastic Compliance Matrix: (Units=1/GPa)
#
#
# Indices 1 2 3 4 5 6 
#
# 1 0.013249 -0.003932 -0.004249 -0.000852 -0.004863 -0.003255
# 2 -0.003932 0.018152 -0.003482 -0.005494 -0.002864 0.005740
# 3 -0.004249 -0.003482 0.024870 -0.016182 -0.020480 0.004131
# 4 -0.000852 -0.005494 -0.016182 0.058554 0.030824 -0.003690
# 5 -0.004863 -0.002864 -0.020480 0.030824 0.069927 -0.009795
# 6 -0.003255 0.005740 0.004131 -0.003690 -0.009795 0.037595
#
#
# Mechanical properties :
#
#
# Convention : Reuss Voigt Hill
#
# Bulk Modulus (GPa) = 30.35430 54.18563 42.26996
# Shear Modulus (GPa) = 19.48137 26.29391 22.88764
#
# Velocity S-wave (km/s) = 3.28079 3.81150 3.55606
# Velocity P-wave (km/s) = 5.57875 7.02197 6.34155
#
# Compressibility (1/GPa) = 0.03294426
#
# Stress axis : x y z
#
# Youngs Moduli (GPa) = 75.47940 55.08945 40.20899
#
# Poissons Ratio (x) = 0.21660 0.17087
# Poissons Ratio (y) = 0.29677 0.14001
# Poissons Ratio (z) = 0.32075 0.19183
#
# Static dielectric constant tensor:
#      x y z
#    x 3.508010 -0.173150 0.412120 
#    y -0.173150 3.452340 0.153930 
#    z 0.412120 0.153930 3.499590 
# 
# 
# High freq. dielectric constant tensor:
#      x y z
#    x 1.683360 -0.019860 0.026970 
#    y -0.019860 1.715270 0.014090 
#    z 0.026970 0.014090 1.683350 
# 
# From -- ./inp_files/336885.got.cif
#   From: 2010.06.25/outbox.cif.g09.slc.cpg/sg2_169_cif.got.tgz:336885.got - 2010.06.27 13:26:56.
