data_PCOD8041332
_publ_section_title
;
Structure prediction by ZEFSAII (Michael W. Deem and Ramdas Pophale) SiO2 
 PCOD8041332
Probable space group: P -1
;
_chemical_formula_sum "Si O2"
_cell_formula_units_Z 16
_cell_length_a 6.761140
_cell_length_b 11.597330
_cell_length_c 16.367093
_cell_angle_alpha 104.298589
_cell_angle_beta 102.846246
_cell_angle_gamma 126.754491
_cell_volume 875.876352
_symmetry_space_group_name_H-M "P -1"
_symmetry_group_IT_number 2
_symmetry_cell_setting 'triclinic'
loop_
_space_group_symop_operation_xyz
x,y,z
-x,-y,-z
loop_
_atom_site_type_symbol
_atom_site_label
_atom_site_fract_x
_atom_site_fract_y
_atom_site_fract_z
Si Si1 0.453688 0.776506 0.181777
Si Si2 0.879082 0.340033 0.013656
Si Si3 0.588856 0.899219 0.492446
Si Si4 0.536076 0.487936 0.906908
Si Si5 0.018332 0.534727 0.388029
Si Si6 0.913918 0.026961 0.385062
Si Si7 0.096969 0.489533 0.813086
Si Si8 0.812114 0.606776 0.516696
O O1 0.540253 0.677459 0.151615
O O2 0.197411 0.677426 0.206234
O O3 0.733112 0.952851 0.272316
O O4 0.368004 0.810313 0.094373
O O5 0.779865 0.349902 0.094066
O O6 0.134249 0.351140 0.054371
O O7 0.000000 0.500000 0.000000
O O8 0.327759 0.712580 0.459113
O O9 0.833993 0.968606 0.593496
O O10 0.500000 0.000000 0.500000
O O11 0.701394 0.903565 0.415714
O O12 0.331795 0.483266 0.832338
O O13 0.500000 0.500000 0.000000
O O14 0.011197 0.402132 0.405427
O O15 0.937731 0.483924 0.278058
O O16 0.805101 0.537973 0.415644
O O17 0.031842 0.205149 0.444580
O O18 0.500000 0.500000 0.500000
#
# Coordination Sequence:
#
# PCOD8041332 Si02
#       8
#     2   2   2   2   2   2   2   2
#     4  10  19  29  51  85 114 143 180 229 288 333
#     4   8  16  29  46  77 115 138 179 221 277 342
#     4  11  22  37  56  87 116 140 189 242 293 337
#     4  10  15  28  48  76 117 151 170 221 286 338
#     4  11  23  38  61  82 110 158 194 236 282 343
#     4  11  23  36  58  84 118 151 185 243 289 337
#     4  10  18  31  53  82 114 143 185 229 281 339
#     4  11  24  43  58  76 116 158 202 233 280 343
#
# _framework density 18.267419
#
# number of rings (size 3 to 8) (size 9 to 14) (size 15 to 20)
#    0.000    2.000    7.500    0.000    1.750    2.000 
#    0.000    0.000    0.000    0.750    0.000    1.750 
#    0.000    0.000    0.000    0.000    0.000    0.000 
#
# Total GULP energy -198279.980310 kJ/mol
# GULP energy per Si atom -12392.498769 kJ/mol
# Density = 1.822584 g / cm^3
# Si number density = 18.267419 Si / 1000 Ang^3
#
#
#
# Elastic Constant Matrix: (Units=GPa)
#
#
# Indices 1 2 3 4 5 6 
#
# 1 129.5322 21.3837 44.7403 -3.8419 4.2709 -1.6354
# 2 21.3837 40.5356 16.4751 -5.7886 -0.6319 -0.1546
# 3 44.7403 16.4751 131.7515 -12.9454 4.6156 4.2043
# 4 -3.8419 -5.7886 -12.9454 20.5400 4.7076 -0.8663
# 5 4.2709 -0.6319 4.6156 4.7076 27.9268 -4.4068
# 6 -1.6354 -0.1546 4.2043 -0.8663 -4.4068 25.6777
#
#
#
# Elastic Compliance Matrix: (Units=1/GPa)
#
#
# Indices 1 2 3 4 5 6 
#
# 1 0.009335 -0.003937 -0.002766 -0.000893 -0.000773 0.000861
# 2 -0.003937 0.028293 -0.001637 0.006097 0.000562 0.000490
# 3 -0.002766 -0.001637 0.009413 0.005419 -0.002392 -0.001955
# 4 -0.000893 0.006097 0.005419 0.055952 -0.010174 -0.000766
# 5 -0.000773 0.000562 -0.002392 -0.010174 0.039109 0.006714
# 6 0.000861 0.000490 -0.001955 -0.000766 0.006714 0.040449
#
#
# Mechanical properties :
#
#
# Convention : Reuss Voigt Hill
#
# Bulk Modulus (GPa) = 32.93690 51.89082 42.41386
# Shear Modulus (GPa) = 23.88338 29.44359 26.66349
#
# Velocity S-wave (km/s) = 3.61976 4.01909 3.82464
# Velocity P-wave (km/s) = 5.96153 7.07144 6.54007
#
# Compressibility (1/GPa) = 0.03036108
#
# Stress axis : x y z
#
# Youngs Moduli (GPa) = 107.12142 35.34411 106.23941
#
# Poissons Ratio (x) = 0.13914 0.29385
# Poissons Ratio (y) = 0.42171 0.17396
# Poissons Ratio (z) = 0.29629 0.05787
#
# Static dielectric constant tensor:
#      x y z
#    x 3.829490 0.051780 0.164140 
#    y 0.051780 2.996380 -0.051900 
#    z 0.164140 -0.051900 3.756750 
# 
# 
# High freq. dielectric constant tensor:
#      x y z
#    x 1.729680 0.003180 0.005340 
#    y 0.003180 1.650960 -0.008950 
#    z 0.005340 -0.008950 1.713510 
# 
# From -- ./inp_files/119960.got.cif
#   From: 2010.06.25/outbox.cif.g09.slc.cpg/sg2_60_cif.got.tgz:119960.got - 2010.06.27 13:26:56.
