data_PCOD8041684
_publ_section_title
;
Structure prediction by ZEFSAII (Michael W. Deem and Ramdas Pophale) SiO2 
 PCOD8041684
Probable space group: P -1
;
_chemical_formula_sum "Si O2"
_cell_formula_units_Z 16
_cell_length_a 15.544401
_cell_length_b 11.806851
_cell_length_c 16.044561
_cell_angle_alpha 59.658284
_cell_angle_beta 25.541398
_cell_angle_gamma 44.861669
_cell_volume 803.425756
_symmetry_space_group_name_H-M "P -1"
_symmetry_group_IT_number 2
_symmetry_cell_setting 'triclinic'
loop_
_space_group_symop_operation_xyz
x,y,z
-x,-y,-z
loop_
_atom_site_type_symbol
_atom_site_label
_atom_site_fract_x
_atom_site_fract_y
_atom_site_fract_z
Si Si1 0.913763 0.653738 0.642411
Si Si2 0.561739 0.191617 0.761323
Si Si3 0.798627 0.485764 0.930483
Si Si4 0.636482 0.974948 0.060260
Si Si5 0.567129 0.531753 0.840170
Si Si6 0.790199 0.926495 0.254348
Si Si7 0.824513 0.061393 0.004562
Si Si8 0.056143 0.136604 0.332207
O O1 0.926852 0.506567 0.731561
O O2 0.607779 0.812762 0.818601
O O3 0.006594 0.717097 0.605768
O O4 0.115176 0.577153 0.414917
O O5 0.770273 0.198476 0.533277
O O6 0.487487 0.115975 0.783421
O O7 0.723395 0.059636 0.747820
O O8 0.290153 0.381294 0.964793
O O9 0.012252 0.285157 0.853199
O O10 0.528704 0.529818 0.121678
O O11 0.835694 0.939402 0.971807
O O12 0.813304 0.869727 0.863419
O O13 0.417561 0.736080 0.885835
O O14 0.500000 0.500000 0.000000
O O15 0.500000 0.000000 0.500000
O O16 0.759602 0.025715 0.162141
O O17 0.900026 0.973887 0.214883
#
# Coordination Sequence:
#
# PCOD8041684 Si02
#       8
#     2   2   2   2   2   2   2   2
#     4  11  20  35  59  90 128 160 192 235 296 362
#     4  10  19  33  57  89 119 162 194 230 294 361
#     4  11  20  37  62  85 117 155 207 246 289 353
#     4  11  21  35  59  89 127 152 190 242 300 363
#     4  11  24  36  57  92 125 156 195 249 298 355
#     4  10  23  44  65  80 108 161 208 251 299 344
#     4  10  24  42  59  86 119 151 201 249 302 352
#     4  10  19  33  56  87 128 163 190 227 297 359
#
# _framework density 19.914721
#
# number of rings (size 3 to 8) (size 9 to 14) (size 15 to 20)
#    0.000    1.500    3.750    2.250    0.000    5.000 
#    0.000    0.625    0.000    1.500    0.000    0.000 
#    0.000    0.000    0.000    0.000    0.000    0.000 
#
# Total GULP energy -198327.900985 kJ/mol
# GULP energy per Si atom -12395.493812 kJ/mol
# Density = 1.986939 g / cm^3
# Si number density = 19.914721 Si / 1000 Ang^3
#
#
#
# Elastic Constant Matrix: (Units=GPa)
#
#
# Indices 1 2 3 4 5 6 
#
# 1 106.2306 34.2922 38.4777 2.2855 -14.6641 22.8314
# 2 34.2922 94.2273 27.6901 -5.1772 -8.8694 2.0030
# 3 38.4777 27.6901 115.4368 -9.6176 -11.1189 1.8925
# 4 2.2855 -5.1772 -9.6176 23.8935 5.5570 -3.0898
# 5 -14.6641 -8.8694 -11.1189 5.5570 24.5199 -10.8327
# 6 22.8314 2.0030 1.8925 -3.0898 -10.8327 30.4532
#
#
#
# Elastic Compliance Matrix: (Units=1/GPa)
#
#
# Indices 1 2 3 4 5 6 
#
# 1 0.014897 -0.004107 -0.004075 -0.005836 0.002294 -0.010422
# 2 -0.004107 0.012794 -0.001303 0.002497 0.002552 0.003480
# 3 -0.004075 -0.001303 0.010899 0.004354 0.002765 0.003889
# 4 -0.005836 0.002497 0.004354 0.047499 -0.008907 0.005592
# 5 0.002294 0.002552 0.002765 -0.008907 0.053440 0.016046
# 6 -0.010422 0.003480 0.003889 0.005592 0.016046 0.046455
#
#
# Mechanical properties :
#
#
# Convention : Reuss Voigt Hill
#
# Bulk Modulus (GPa) = 50.96902 57.42387 54.19644
# Shear Modulus (GPa) = 23.64128 30.13563 26.88845
#
# Velocity S-wave (km/s) = 3.44921 3.89425 3.67847
# Velocity P-wave (km/s) = 6.44297 7.00840 6.73163
#
# Compressibility (1/GPa) = 0.01961976
#
# Stress axis : x y z
#
# Youngs Moduli (GPa) = 67.12570 78.16300 91.75250
#
# Poissons Ratio (x) = 0.32104 0.37387
# Poissons Ratio (y) = 0.27571 0.11955
# Poissons Ratio (z) = 0.27352 0.10185
#
# Static dielectric constant tensor:
#      x y z
#    x 3.502140 0.613880 -0.026940 
#    y 0.613880 2.615500 -0.810990 
#    z -0.026940 -0.810990 3.337300 
# 
# 
# High freq. dielectric constant tensor:
#      x y z
#    x 1.758640 0.030000 -0.009940 
#    y 0.030000 1.776390 -0.015770 
#    z -0.009940 -0.015770 1.776600 
# 
# From -- ./inp_files/465460.got.cif
#   From: 2010.06.25/outbox.cif.g09.slc.cpg/sg2_233_cif.got.tgz:465460.got - 2010.06.27 13:26:56.
