data_PCOD8041340
_publ_section_title
;
Structure prediction by ZEFSAII (Michael W. Deem and Ramdas Pophale) SiO2 
 PCOD8041340
Probable space group: P -1
;
_chemical_formula_sum "Si O2"
_cell_formula_units_Z 14
_cell_length_a 11.784506
_cell_length_b 13.117704
_cell_length_c 8.977892
_cell_angle_alpha 75.291725
_cell_angle_beta 124.205286
_cell_angle_gamma 133.552202
_cell_volume 810.984185
_symmetry_space_group_name_H-M "P -1"
_symmetry_group_IT_number 2
_symmetry_cell_setting 'triclinic'
loop_
_space_group_symop_operation_xyz
x,y,z
-x,-y,-z
loop_
_atom_site_type_symbol
_atom_site_label
_atom_site_fract_x
_atom_site_fract_y
_atom_site_fract_z
Si Si1 0.559590 0.789588 0.706150
Si Si2 0.517783 0.475279 0.188874
Si Si3 0.753557 0.051966 0.960711
Si Si4 0.524890 0.090667 0.622178
Si Si5 0.176642 0.235179 0.192103
Si Si6 0.800586 0.774235 0.445946
Si Si7 0.228433 0.002588 0.668211
O O1 0.434263 0.625156 0.731314
O O2 0.446877 0.781878 0.485887
O O3 0.761125 0.851531 0.771685
O O4 0.604302 0.893200 0.835128
O O5 0.317882 0.391309 0.155860
O O6 0.685106 0.628850 0.323969
O O7 0.500000 0.500000 0.000000
O O8 0.698470 0.141825 0.833416
O O9 0.739978 0.035802 0.134420
O O10 0.962238 0.139931 0.020981
O O11 0.500000 0.000000 0.500000
O O12 0.344156 0.000345 0.630156
O O13 0.201053 0.266270 0.372471
O O14 0.012686 0.885727 0.499256
O O15 0.709499 0.842276 0.332804
#
# Coordination Sequence:
#
# PCOD8041340 Si02
#       7
#     2   2   2   2   2   2   2
#     4   9  19  33  51  77 107 137 172 208 261 302
#     4  10  20  31  52  79 105 134 173 221 259 300
#     4  10  19  32  54  78 107 136 173 214 252 308
#     4  10  20  34  52  76 109 140 168 211 261 310
#     4   9  19  32  52  76 106 135 174 211 258 299
#     4  10  19  33  55  79 106 134 171 223 257 303
#     4  10  19  33  54  81 102 135 177 213 260 300
#
# _framework density 17.262975000000001
#
# number of rings (size 3 to 8) (size 9 to 14) (size 15 to 20)
#    0.857    1.429    1.429    2.143    0.000    2.286 
#    0.000    0.000    0.000   17.143    0.000    0.000 
#    0.000    0.000    0.000    0.000    0.000    0.000 
#
# Total GULP energy -173464.628852 kJ/mol
# GULP energy per Si atom -12390.330632 kJ/mol
# Density = 1.722368 g / cm^3
# Si number density = 17.262975 Si / 1000 Ang^3
#
#
#
# Elastic Constant Matrix: (Units=GPa)
#
#
# Indices 1 2 3 4 5 6 
#
# 1 82.9363 26.8187 44.4516 -10.2064 0.3602 -5.9394
# 2 26.8187 100.2823 55.2730 -7.2951 1.3926 -0.2848
# 3 44.4516 55.2730 118.3562 -20.7409 4.5117 -2.7247
# 4 -10.2064 -7.2951 -20.7409 31.4383 -5.7706 -4.4736
# 5 0.3602 1.3926 4.5117 -5.7706 28.4367 -5.5328
# 6 -5.9394 -0.2848 -2.7247 -4.4736 -5.5328 13.7997
#
#
#
# Elastic Compliance Matrix: (Units=1/GPa)
#
#
# Indices 1 2 3 4 5 6 
#
# 1 0.016035 -0.001499 -0.004626 0.003520 0.002928 0.008272
# 2 -0.001499 0.013635 -0.006158 -0.001814 -0.000501 -0.002369
# 3 -0.004626 -0.006158 0.014352 0.006982 0.000086 0.003014
# 4 0.003520 -0.001814 0.006982 0.042298 0.011653 0.021241
# 5 0.002928 -0.000501 0.000086 0.011653 0.041742 0.021780
# 6 0.008272 -0.002369 0.003014 0.021241 0.021780 0.092190
#
#
# Mechanical properties :
#
#
# Convention : Reuss Voigt Hill
#
# Bulk Modulus (GPa) = 51.40151 61.62902 56.51527
# Shear Modulus (GPa) = 19.89616 26.40370 23.14993
#
# Velocity S-wave (km/s) = 3.39858 3.91512 3.66596
# Velocity P-wave (km/s) = 6.72612 7.49768 7.12236
#
# Compressibility (1/GPa) = 0.01945468
#
# Stress axis : x y z
#
# Youngs Moduli (GPa) = 62.36446 73.33963 69.67612
#
# Poissons Ratio (x) = 0.10996 0.32234
# Poissons Ratio (y) = 0.09351 0.42906
# Poissons Ratio (z) = 0.28852 0.45162
#
# Static dielectric constant tensor:
#      x y z
#    x 3.213710 -0.005430 0.100300 
#    y -0.005430 3.128130 -0.157100 
#    z 0.100300 -0.157100 3.701240 
# 
# 
# High freq. dielectric constant tensor:
#      x y z
#    x 1.660720 -0.000350 -0.010070 
#    y -0.000350 1.642200 -0.017960 
#    z -0.010070 -0.017960 1.676270 
# 
# From -- ./inp_files/262328.got.cif
#   From: 2010.06.25/outbox.cif.g09.slc.cpg/sg2_132_cif.got.tgz:262328.got - 2010.06.27 13:26:56.
