data_PCOD8041805
_publ_section_title
;
Structure prediction by ZEFSAII (Michael W. Deem and Ramdas Pophale) SiO2 
 PCOD8041805
Probable space group: P -1
;
_chemical_formula_sum "Si O2"
_cell_formula_units_Z 16
_cell_length_a 11.020638
_cell_length_b 20.758339
_cell_length_c 8.138138
_cell_angle_alpha 125.434926
_cell_angle_beta 124.190653
_cell_angle_gamma 32.886963
_cell_volume 811.711979
_symmetry_space_group_name_H-M "P -1"
_symmetry_group_IT_number 2
_symmetry_cell_setting 'triclinic'
loop_
_space_group_symop_operation_xyz
x,y,z
-x,-y,-z
loop_
_atom_site_type_symbol
_atom_site_label
_atom_site_fract_x
_atom_site_fract_y
_atom_site_fract_z
Si Si1 0.234482 0.992413 0.337262
Si Si2 0.886432 0.033733 0.289628
Si Si3 0.708478 0.957727 0.890313
Si Si4 0.110329 0.268624 0.156622
Si Si5 0.394788 0.285792 0.225227
Si Si6 0.932785 0.462882 0.524068
Si Si7 0.284374 0.262567 0.755038
Si Si8 0.188191 0.164939 0.747278
O O1 0.200931 0.053203 0.233593
O O2 0.171509 0.080167 0.564002
O O3 0.062695 0.989813 0.218541
O O4 0.490161 0.855760 0.347260
O O5 0.660535 0.178594 0.308441
O O6 0.000000 0.000000 0.500000
O O7 0.830801 0.963778 0.125034
O O8 0.761307 0.844776 0.793388
O O9 0.440429 0.081793 0.884044
O O10 0.276537 0.270551 0.230780
O O11 0.909783 0.389722 0.295263
O O12 0.022217 0.257361 0.910190
O O13 0.298684 0.413504 0.381092
O O14 0.351250 0.286572 0.000937
O O15 0.128477 0.376910 0.684141
O O16 0.000000 0.500000 0.500000
O O17 0.146790 0.239923 0.671852
#
# Coordination Sequence:
#
# PCOD8041805 Si02
#       8
#     2   2   2   2   2   2   2   2
#     4  11  22  35  58  92 121 152 192 232 308 352
#     4  12  25  37  57  87 127 158 186 237 300 360
#     4  11  20  36  59  85 122 153 191 247 287 349
#     4  10  19  34  59  85 113 147 197 243 287 329
#     4  10  22  39  55  88 118 158 194 240 289 345
#     4  10  21  34  59  87 114 150 201 250 285 330
#     4  10  19  36  60  85 117 151 198 244 288 341
#     4  10  19  33  59  87 121 150 194 244 291 342
#
# _framework density 19.711424999999998
#
# number of rings (size 3 to 8) (size 9 to 14) (size 15 to 20)
#    0.000    1.500    3.750    4.875    5.250    0.000 
#    0.000    0.000    0.000    6.000    0.000    0.000 
#    0.000    0.000    0.000    0.000    0.000    0.000 
#
# Total GULP energy -198290.380128 kJ/mol
# GULP energy per Si atom -12393.148758 kJ/mol
# Density = 1.966656 g / cm^3
# Si number density = 19.711425 Si / 1000 Ang^3
#
#
#
# Elastic Constant Matrix: (Units=GPa)
#
#
# Indices 1 2 3 4 5 6 
#
# 1 43.4671 31.8720 12.5925 -1.5759 -4.4433 11.5588
# 2 31.8720 122.5065 50.5245 10.9932 -16.4225 13.5396
# 3 12.5925 50.5245 119.2830 18.8140 -9.3656 -2.4970
# 4 -1.5759 10.9932 18.8140 41.3214 -2.6268 -7.2947
# 5 -4.4433 -16.4225 -9.3656 -2.6268 23.3115 -0.5814
# 6 11.5588 13.5396 -2.4970 -7.2947 -0.5814 26.3382
#
#
#
# Elastic Compliance Matrix: (Units=1/GPa)
#
#
# Indices 1 2 3 4 5 6 
#
# 1 0.030852 -0.006644 -0.000845 0.001663 0.000805 -0.009726
# 2 -0.006644 0.013119 -0.004121 -0.002325 0.005940 -0.004732
# 3 -0.000845 -0.004121 0.010882 -0.003366 0.000993 0.002611
# 4 0.001663 -0.002325 -0.003366 0.027847 0.000661 0.007873
# 5 0.000805 0.005940 0.000993 0.000661 0.047657 -0.002077
# 6 -0.009726 -0.004732 0.002611 0.007873 -0.002077 0.047050
#
#
# Mechanical properties :
#
#
# Convention : Reuss Voigt Hill
#
# Bulk Modulus (GPa) = 31.61521 52.80386 42.20954
# Shear Modulus (GPa) = 23.67730 30.87873 27.27802
#
# Velocity S-wave (km/s) = 3.46959 3.96225 3.72407
# Velocity P-wave (km/s) = 5.66785 6.91225 6.32075
#
# Compressibility (1/GPa) = 0.03163034
#
# Stress axis : x y z
#
# Youngs Moduli (GPa) = 32.41327 76.22505 91.89540
#
# Poissons Ratio (x) = 0.50647 0.07769
# Poissons Ratio (y) = 0.21537 0.37873
# Poissons Ratio (z) = 0.02740 0.31415
#
# Static dielectric constant tensor:
#      x y z
#    x 3.631680 0.123190 -0.249350 
#    y 0.123190 3.788110 0.471560 
#    z -0.249350 0.471560 3.933500 
# 
# 
# High freq. dielectric constant tensor:
#      x y z
#    x 1.749880 0.026550 -0.028870 
#    y 0.026550 1.749540 0.020440 
#    z -0.028870 0.020440 1.779690 
# 
# From -- ./inp_files/185986.got.cif
#   From: 2010.06.25/outbox.cif.g09.slc.cpg/sg2_93_cif.got.tgz:185986.got - 2010.06.27 13:26:56.
