data_PCOD8041589
_publ_section_title
;
Structure prediction by ZEFSAII (Michael W. Deem and Ramdas Pophale) SiO2 
 PCOD8041589
Probable space group: P -1
;
_chemical_formula_sum "Si O2"
_cell_formula_units_Z 14
_cell_length_a 15.449766
_cell_length_b 5.306507
_cell_length_c 28.174772
_cell_angle_alpha 118.432068
_cell_angle_beta 22.917469
_cell_angle_gamma 129.987967
_cell_volume 635.151209
_symmetry_space_group_name_H-M "P -1"
_symmetry_group_IT_number 2
_symmetry_cell_setting 'triclinic'
loop_
_space_group_symop_operation_xyz
x,y,z
-x,-y,-z
loop_
_atom_site_type_symbol
_atom_site_label
_atom_site_fract_x
_atom_site_fract_y
_atom_site_fract_z
Si Si1 0.051587 0.299427 0.045806
Si Si2 0.826432 0.708150 0.844559
Si Si3 0.297171 0.884842 0.899197
Si Si4 0.845480 0.389544 0.711737
Si Si5 0.208784 0.705598 0.095309
Si Si6 0.555371 0.094557 0.694573
Si Si7 0.020152 0.170540 0.409977
O O1 0.242652 0.586622 0.015923
O O2 0.078227 0.502075 0.000697
O O3 0.730426 0.051323 0.201760
O O4 0.157881 0.060726 0.961827
O O5 0.914259 0.598354 0.744477
O O6 0.955794 0.640408 0.818364
O O7 0.960758 0.128000 0.810314
O O8 0.500000 0.500000 0.000000
O O9 0.512378 0.140911 0.854243
O O10 0.477151 0.881722 0.765337
O O11 0.985222 0.671519 0.623529
O O12 0.953744 0.148170 0.637942
O O13 0.500000 0.000000 0.000000
O O14 0.729607 0.518131 0.655677
O O15 0.729157 0.005539 0.567875
#
# Coordination Sequence:
#
# PCOD8041589 Si02
#       7
#     2   2   2   2   2   2   2
#     4  12  23  37  59  90 126 153 187 243 304 349
#     4  10  19  33  56  85 114 143 185 237 292 343
#     4  11  22  36  58  90 122 153 188 241 301 353
#     4  11  21  39  63  88 118 154 197 243 290 349
#     4  10  19  33  54  83 116 148 182 226 290 357
#     4  10  24  41  60  85 120 160 201 239 284 347
#     4  10  24  41  61  84 115 162 206 236 276 345
#
# _framework density 22.041995
#
# number of rings (size 3 to 8) (size 9 to 14) (size 15 to 20)
#    0.000    1.429    0.000    7.714    0.000    9.714 
#    0.000    0.000    0.000    5.143    0.000    0.000 
#    0.000    0.000    0.000    0.000    0.000    0.000 
#
# Total GULP energy -173566.586232 kJ/mol
# GULP energy per Si atom -12397.613302 kJ/mol
# Density = 2.199183 g / cm^3
# Si number density = 22.041995 Si / 1000 Ang^3
#
#
#
# Elastic Constant Matrix: (Units=GPa)
#
#
# Indices 1 2 3 4 5 6 
#
# 1 117.5236 68.7376 45.5898 4.5467 25.0588 -31.5251
# 2 68.7376 143.6559 55.9981 22.9073 18.9757 -41.5876
# 3 45.5898 55.9981 133.9694 5.8363 9.7143 -12.7017
# 4 4.5467 22.9073 5.8363 27.9419 5.5972 -2.6358
# 5 25.0588 18.9757 9.7143 5.5972 26.3563 -1.9055
# 6 -31.5251 -41.5876 -12.7017 -2.6358 -1.9055 48.8053
#
#
#
# Elastic Compliance Matrix: (Units=1/GPa)
#
#
# Indices 1 2 3 4 5 6 
#
# 1 0.015664 -0.003958 -0.002457 0.004083 -0.011580 0.005874
# 2 -0.003958 0.014319 -0.003261 -0.009075 -0.002824 0.008195
# 3 -0.002457 -0.003261 0.009388 0.000752 0.000931 -0.001846
# 4 0.004083 -0.009075 0.000752 0.043559 -0.007080 -0.002824
# 5 -0.011580 -0.002824 0.000931 -0.007080 0.051566 -0.008013
# 6 0.005874 0.008195 -0.001846 -0.002824 -0.008013 0.030322
#
#
# Mechanical properties :
#
#
# Convention : Reuss Voigt Hill
#
# Bulk Modulus (GPa) = 49.95409 81.75553 65.85481
# Shear Modulus (GPa) = 26.19947 35.60894 30.90421
#
# Velocity S-wave (km/s) = 3.45137 4.02369 3.74847
# Velocity P-wave (km/s) = 6.21248 7.66539 6.97686
#
# Compressibility (1/GPa) = 0.02001838
#
# Stress axis : x y z
#
# Youngs Moduli (GPa) = 63.84038 69.83788 106.51370
#
# Poissons Ratio (x) = 0.27643 0.26173
# Poissons Ratio (y) = 0.25269 0.34735
# Poissons Ratio (z) = 0.15687 0.22775
#
# Static dielectric constant tensor:
#      x y z
#    x 4.861680 -0.911780 0.218950 
#    y -0.911780 4.810070 -0.061130 
#    z 0.218950 -0.061130 3.771300 
# 
# 
# High freq. dielectric constant tensor:
#      x y z
#    x 1.878040 -0.010480 0.019730 
#    y -0.010480 1.876630 0.009980 
#    z 0.019730 0.009980 1.834460 
# 
# From -- ./inp_files/623756.got.cif
#   From: 2010.06.25/outbox.cif.g09.slc.cpg/sg2_312_cif.got.tgz:623756.got - 2010.06.27 13:26:56.
