data_PCOD8041896
_publ_section_title
;
Structure prediction by ZEFSAII (Michael W. Deem and Ramdas Pophale) SiO2 
 PCOD8041896
Probable space group: P -1
;
_chemical_formula_sum "Si O2"
_cell_formula_units_Z 14
_cell_length_a 9.093650
_cell_length_b 18.896410
_cell_length_c 12.100566
_cell_angle_alpha 28.408257
_cell_angle_beta 124.326213
_cell_angle_gamma 118.597501
_cell_volume 816.160188
_symmetry_space_group_name_H-M "P -1"
_symmetry_group_IT_number 2
_symmetry_cell_setting 'triclinic'
loop_
_space_group_symop_operation_xyz
x,y,z
-x,-y,-z
loop_
_atom_site_type_symbol
_atom_site_label
_atom_site_fract_x
_atom_site_fract_y
_atom_site_fract_z
Si Si1 0.838571 0.664959 0.986298
Si Si2 0.512874 0.181852 0.467520
Si Si3 0.946454 0.210152 0.269748
Si Si4 0.743187 0.041409 0.253844
Si Si5 0.180946 0.670945 0.503931
Si Si6 0.056958 0.844672 0.003281
Si Si7 0.131011 0.847175 0.446155
O O1 0.832383 0.505209 0.258563
O O2 0.912316 0.782698 0.942698
O O3 0.641281 0.721170 0.791227
O O4 0.968904 0.654141 0.948401
O O5 0.442297 0.038666 0.699571
O O6 0.612047 0.285250 0.456671
O O7 0.657746 0.124346 0.516335
O O8 0.898888 0.248762 0.323248
O O9 0.094512 0.078280 0.510327
O O10 0.767856 0.157357 0.205625
O O11 0.759737 0.125178 0.027691
O O12 0.100594 0.724860 0.280096
O O13 0.068082 0.748121 0.451585
O O14 0.978362 0.996241 0.816499
#
# Coordination Sequence:
#
# PCOD8041896 Si02
#       7
#     2   2   2   2   2   2   2
#     4  10  19  34  53  71  96 131 166 195 233 291
#     4   9  19  31  51  76  98 122 160 206 246 273
#     4   8  15  29  49  72  94 124 164 200 232 278
#     4   8  15  29  49  72  94 124 164 200 232 278
#     4  10  21  32  49  74 104 128 156 194 249 292
#     4  10  19  34  53  71  96 131 166 195 233 291
#     4   9  19  31  51  76  98 122 160 206 246 273
#
# _framework density 17.153493999999998
#
# number of rings (size 3 to 8) (size 9 to 14) (size 15 to 20)
#    0.857    2.000    0.000    3.857    0.000    3.429 
#    0.000    0.000    0.000    0.000    0.000    6.000 
#    0.000    0.000    0.000    0.000    0.000    0.000 
#
# Total GULP energy -173452.967132 kJ/mol
# GULP energy per Si atom -12389.497652 kJ/mol
# Density = 1.711445 g / cm^3
# Si number density = 17.153494 Si / 1000 Ang^3
#
#
#
# Elastic Constant Matrix: (Units=GPa)
#
#
# Indices 1 2 3 4 5 6 
#
# 1 71.7813 12.8277 24.6128 18.8012 -18.8550 -1.4073
# 2 12.8277 43.4575 15.2376 13.6928 -6.0063 -1.7918
# 3 24.6128 15.2376 82.8856 12.0325 -15.8405 -2.9875
# 4 18.8012 13.6928 12.0325 11.9340 -2.1516 -5.6668
# 5 -18.8550 -6.0063 -15.8405 -2.1516 23.5516 0.6942
# 6 -1.4073 -1.7918 -2.9875 -5.6668 0.6942 22.4868
#
#
#
# Elastic Compliance Matrix: (Units=1/GPa)
#
#
# Indices 1 2 3 4 5 6 
#
# 1 0.044569 0.022066 0.003592 -0.103351 0.034934 -0.022099
# 2 0.022066 0.049263 0.002548 -0.099152 0.023476 -0.020067
# 3 0.003592 0.002548 0.016341 -0.024734 0.012375 -0.004016
# 4 -0.103351 -0.099152 -0.024734 0.411297 -0.089705 0.088764
# 5 0.034934 0.023476 0.012375 -0.089705 0.077111 -0.019286
# 6 -0.022099 -0.020067 -0.004016 0.088764 -0.019286 0.063919
#
#
# Mechanical properties :
#
#
# Convention : Reuss Voigt Hill
#
# Bulk Modulus (GPa) = 6.00294 33.72007 19.86150
# Shear Modulus (GPa) = 7.55726 21.29089 14.42408
#
# Velocity S-wave (km/s) = 2.10125 3.52689 2.90294
# Velocity P-wave (km/s) = 3.06498 6.02377 4.77911
#
# Compressibility (1/GPa) = 0.16658508
#
# Stress axis : x y z
#
# Youngs Moduli (GPa) = 22.43699 20.29940 61.19717
#
# Poissons Ratio (x) = -0.44793 -0.21982
# Poissons Ratio (y) = -0.49510 -0.15595
# Poissons Ratio (z) = -0.08059 -0.05173
#
# Static dielectric constant tensor:
#      x y z
#    x 3.303560 -0.019300 -0.465980 
#    y -0.019300 3.041380 0.024480 
#    z -0.465980 0.024480 3.139540 
# 
# 
# High freq. dielectric constant tensor:
#      x y z
#    x 1.650120 -0.001550 -0.028170 
#    y -0.001550 1.653380 0.002310 
#    z -0.028170 0.002310 1.647990 
# 
# From -- ./inp_files/266700.got.cif
#   From: 2010.06.25/outbox.cif.g09.slc.cpg/sg2_134_cif.got.tgz:266700.got - 2010.06.27 13:26:56.
