data_PCOD8041349
_publ_section_title
;
Structure prediction by ZEFSAII (Michael W. Deem and Ramdas Pophale) SiO2 
 PCOD8041349
Probable space group: P -1
;
_chemical_formula_sum "Si O2"
_cell_formula_units_Z 16
_cell_length_a 12.636838
_cell_length_b 9.257809
_cell_length_c 12.337327
_cell_angle_alpha 47.547232
_cell_angle_beta 77.957786
_cell_angle_gamma 56.459272
_cell_volume 855.352763
_symmetry_space_group_name_H-M "P -1"
_symmetry_group_IT_number 2
_symmetry_cell_setting 'triclinic'
loop_
_space_group_symop_operation_xyz
x,y,z
-x,-y,-z
loop_
_atom_site_type_symbol
_atom_site_label
_atom_site_fract_x
_atom_site_fract_y
_atom_site_fract_z
Si Si1 0.929052 0.602572 0.802758
Si Si2 0.876326 0.263075 0.876669
Si Si3 0.671833 0.419242 0.181723
Si Si4 0.574304 0.118365 0.957772
Si Si5 0.986675 0.733644 0.347827
Si Si6 0.201806 0.291376 0.003126
Si Si7 0.279711 0.863387 0.899910
Si Si8 0.903746 0.972383 0.464267
O O1 0.884356 0.430294 0.875215
O O2 0.086667 0.452925 0.858717
O O3 0.881785 0.787113 0.620314
O O4 0.858187 0.739181 0.859631
O O5 0.884222 0.334795 0.714658
O O6 0.745953 0.275029 0.930376
O O7 0.000000 0.000000 0.000000
O O8 0.528176 0.595016 0.180156
O O9 0.725006 0.578828 0.055990
O O10 0.657749 0.299178 0.138290
O O11 0.763128 0.221551 0.351933
O O12 0.620879 0.082418 0.093121
O O13 0.500000 0.000000 0.000000
O O14 0.704483 0.979951 0.924698
O O15 0.000000 0.500000 0.500000
O O16 0.855366 0.886003 0.226314
O O17 0.974704 0.884466 0.377631
O O18 0.000000 0.000000 0.500000
#
# Coordination Sequence:
#
# PCOD8041349 Si02
#       8
#     2   2   2   2   2   2   2   2
#     4  11  20  34  58  84 121 145 182 236 288 337
#     4  10  19  32  54  82 114 149 182 234 281 333
#     4  10  20  38  56  84 111 150 194 229 276 338
#     4  10  22  37  59  82 110 147 197 238 277 333
#     4  10  20  32  54  86 120 146 185 225 288 345
#     4  10  20  34  57  85 112 149 188 229 282 332
#     4  10  20  35  57  81 111 146 194 235 281 328
#     4  11  22  34  55  84 121 149 178 231 289 334
#
# _framework density 18.705732000000001
#
# number of rings (size 3 to 8) (size 9 to 14) (size 15 to 20)
#    0.000    1.750    3.750    1.875    0.000    1.000 
#    0.000    0.625    0.000    3.750    0.000    0.000 
#    0.000    0.000    0.000    0.000    0.000    0.000 
#
# Total GULP energy -198284.538006 kJ/mol
# GULP energy per Si atom -12392.783625 kJ/mol
# Density = 1.866316 g / cm^3
# Si number density = 18.705732 Si / 1000 Ang^3
#
#
#
# Elastic Constant Matrix: (Units=GPa)
#
#
# Indices 1 2 3 4 5 6 
#
# 1 82.4019 45.6451 32.6134 -0.2643 18.6079 12.5473
# 2 45.6451 134.4183 51.3782 -5.0219 17.7924 -10.1026
# 3 32.6134 51.3782 103.0151 3.1685 5.3675 -6.2035
# 4 -0.2643 -5.0219 3.1685 24.5823 2.7441 3.1905
# 5 18.6079 17.7924 5.3675 2.7441 28.1046 2.6189
# 6 12.5473 -10.1026 -6.2035 3.1905 2.6189 36.5694
#
#
#
# Elastic Compliance Matrix: (Units=1/GPa)
#
#
# Indices 1 2 3 4 5 6 
#
# 1 0.019382 -0.004438 -0.004015 0.001839 -0.008682 -0.008096
# 2 -0.004438 0.011398 -0.003901 0.002721 -0.004178 0.004071
# 3 -0.004015 -0.003901 0.013036 -0.003159 0.002704 0.002593
# 4 0.001839 0.002721 -0.003159 0.042833 -0.006174 -0.003710
# 5 -0.008682 -0.004178 0.002704 -0.006174 0.044092 -0.000336
# 6 -0.008096 0.004071 0.002593 -0.003710 -0.000336 0.032035
#
#
# Mechanical properties :
#
#
# Convention : Reuss Voigt Hill
#
# Bulk Modulus (GPa) = 52.32804 64.34540 58.33672
# Shear Modulus (GPa) = 25.79285 30.53116 28.16201
#
# Velocity S-wave (km/s) = 3.71735 4.04441 3.88432
# Velocity P-wave (km/s) = 6.81615 7.50221 7.16739
#
# Compressibility (1/GPa) = 0.01911021
#
# Stress axis : x y z
#
# Youngs Moduli (GPa) = 51.59464 87.73465 76.71025
#
# Poissons Ratio (x) = 0.38934 0.30795
# Poissons Ratio (y) = 0.22896 0.29922
# Poissons Ratio (z) = 0.20713 0.34222
#
# Static dielectric constant tensor:
#      x y z
#    x 3.452660 -0.095140 -0.066670 
#    y -0.095140 3.911090 0.120230 
#    z -0.066670 0.120230 3.712430 
# 
# 
# High freq. dielectric constant tensor:
#      x y z
#    x 1.711600 0.013750 0.005700 
#    y 0.013750 1.748870 -0.000040 
#    z 0.005700 -0.000040 1.701750 
# 
# From -- ./inp_files/176409.got.cif
#   From: 2010.06.25/outbox.cif.g09.slc.cpg/sg2_89_cif.got.tgz:176409.got - 2010.06.27 13:26:56.
