data_PCOD8041144
_publ_section_title
;
Structure prediction by ZEFSAII (Michael W. Deem and Ramdas Pophale) SiO2 
 PCOD8041144
Probable space group: P -1
;
_chemical_formula_sum "Si O2"
_cell_formula_units_Z 14
_cell_length_a 9.345666
_cell_length_b 13.630113
_cell_length_c 9.246344
_cell_angle_alpha 48.935130
_cell_angle_beta 60.360754
_cell_angle_gamma 54.360424
_cell_volume 709.600491
_symmetry_space_group_name_H-M "P -1"
_symmetry_group_IT_number 2
_symmetry_cell_setting 'triclinic'
loop_
_space_group_symop_operation_xyz
x,y,z
-x,-y,-z
loop_
_atom_site_type_symbol
_atom_site_label
_atom_site_fract_x
_atom_site_fract_y
_atom_site_fract_z
Si Si1 0.791751 0.549998 0.563702
Si Si2 0.743597 0.120027 0.571086
Si Si3 0.046000 0.190851 0.224052
Si Si4 0.504835 0.240755 0.322319
Si Si5 0.449781 0.366852 0.654261
Si Si6 0.316295 0.316126 0.074434
Si Si7 0.748175 0.402602 0.990384
O O1 0.684748 0.698190 0.556890
O O2 0.730540 0.574453 0.405441
O O3 0.751487 0.429612 0.790236
O O4 0.000000 0.500000 0.500000
O O5 0.653511 0.117452 0.460181
O O6 0.602102 0.230022 0.640671
O O7 0.911180 0.166035 0.430226
O O8 0.808746 0.961395 0.754635
O O9 0.145365 0.278563 0.168583
O O10 0.933788 0.271952 0.062843
O O11 0.461641 0.199116 0.223032
O O12 0.575534 0.368590 0.147843
O O13 0.500000 0.500000 0.500000
O O14 0.414576 0.319866 0.873931
O O15 0.251405 0.466355 0.041585
#
# Coordination Sequence:
#
# PCOD8041144 Si02
#       7
#     2   2   2   2   2   2   2
#     4  10  19  31  50  78 107 133 167 215 263 304
#     4   9  21  39  55  74 107 147 175 211 272 316
#     4  10  20  35  57  78 105 141 182 219 254 315
#     4   9  19  36  54  74 107 143 172 211 267 320
#     4  11  21  35  56  81 107 136 175 222 264 311
#     4  11  20  32  56  84 104 135 182 223 256 308
#     4  10  19  36  55  77 108 142 173 209 269 318
#
# _framework density 19.729410999999999
#
# number of rings (size 3 to 8) (size 9 to 14) (size 15 to 20)
#    0.000    2.000    0.000    6.429    0.000    4.571 
#    0.000    0.000    0.000   15.429    0.000    0.000 
#    0.000    0.000    0.000    0.000    0.000    0.000 
#
# Total GULP energy -173472.431289 kJ/mol
# GULP energy per Si atom -12390.887949 kJ/mol
# Density = 1.968451 g / cm^3
# Si number density = 19.729411 Si / 1000 Ang^3
#
#
#
# Elastic Constant Matrix: (Units=GPa)
#
#
# Indices 1 2 3 4 5 6 
#
# 1 116.6687 43.4983 34.7113 18.0470 -1.5247 -7.2348
# 2 43.4983 74.8869 32.8354 2.9047 5.3351 -15.4630
# 3 34.7113 32.8354 70.2775 17.1132 11.9226 -2.8571
# 4 18.0470 2.9047 17.1132 24.5805 2.4909 3.8617
# 5 -1.5247 5.3351 11.9226 2.4909 38.8638 2.1100
# 6 -7.2348 -15.4630 -2.8571 3.8617 2.1100 29.5726
#
#
#
# Elastic Compliance Matrix: (Units=1/GPa)
#
#
# Indices 1 2 3 4 5 6 
#
# 1 0.012734 -0.006375 -0.001846 -0.007622 0.002406 0.000427
# 2 -0.006375 0.022305 -0.008252 0.006614 -0.001669 0.008561
# 3 -0.001846 -0.008252 0.023046 -0.013121 -0.005144 -0.000460
# 4 -0.007622 0.006614 -0.013121 0.055759 -0.000379 -0.006928
# 5 0.002406 -0.001669 -0.005144 -0.000379 0.027804 -0.002715
# 6 0.000427 0.008561 -0.000460 -0.006928 -0.002715 0.039450
#
#
# Mechanical properties :
#
#
# Convention : Reuss Voigt Hill
#
# Bulk Modulus (GPa) = 39.77920 53.76923 46.77421
# Shear Modulus (GPa) = 22.47972 28.65592 25.56782
#
# Velocity S-wave (km/s) = 3.37916 3.81523 3.60380
# Velocity P-wave (km/s) = 5.95241 6.83524 6.40904
#
# Compressibility (1/GPa) = 0.02513877
#
# Stress axis : x y z
#
# Youngs Moduli (GPa) = 78.52846 44.83362 43.39238
#
# Poissons Ratio (x) = 0.28581 0.08010
# Poissons Ratio (y) = 0.50061 0.35807
# Poissons Ratio (z) = 0.14497 0.36997
#
# Static dielectric constant tensor:
#      x y z
#    x 3.970120 -0.129790 0.298950 
#    y -0.129790 3.305300 -0.051210 
#    z 0.298950 -0.051210 3.789170 
# 
# 
# High freq. dielectric constant tensor:
#      x y z
#    x 1.789650 -0.018590 0.011670 
#    y -0.018590 1.735430 -0.000030 
#    z 0.011670 -0.000030 1.769460 
# 
# From -- ./inp_files/175892.got.cif
#   From: 2010.06.25/outbox.cif.g09.slc.cpg/sg2_88_cif.got.tgz:175892.got - 2010.06.27 13:26:56.
