data_PCOD8041774
_publ_section_title
;
Structure prediction by ZEFSAII (Michael W. Deem and Ramdas Pophale) SiO2 
 PCOD8041774
Probable space group: P -1
;
_chemical_formula_sum "Si O2"
_cell_formula_units_Z 14
_cell_length_a 20.631548
_cell_length_b 17.871494
_cell_length_c 8.919742
_cell_angle_alpha 39.952030
_cell_angle_beta 38.929896
_cell_angle_gamma 20.058665
_cell_volume 698.935022
_symmetry_space_group_name_H-M "P -1"
_symmetry_group_IT_number 2
_symmetry_cell_setting 'triclinic'
loop_
_space_group_symop_operation_xyz
x,y,z
-x,-y,-z
loop_
_atom_site_type_symbol
_atom_site_label
_atom_site_fract_x
_atom_site_fract_y
_atom_site_fract_z
Si Si1 0.762172 0.635859 0.086288
Si Si2 0.085003 0.356024 0.711829
Si Si3 0.273004 0.755719 0.028322
Si Si4 0.950910 0.899961 0.342161
Si Si5 0.343421 0.931582 0.728433
Si Si6 0.673649 0.979535 0.723143
Si Si7 0.220853 0.451863 0.479222
O O1 0.796342 0.529680 0.337368
O O2 0.546222 0.815414 0.132736
O O3 0.783758 0.752701 0.905302
O O4 0.915987 0.453789 0.960718
O O5 0.190117 0.351934 0.628679
O O6 0.000000 0.500000 0.500000
O O7 0.238425 0.110748 0.765405
O O8 0.123688 0.796105 0.290539
O O9 0.500000 0.500000 0.000000
O O10 0.257334 0.883115 0.967655
O O11 0.184526 0.874021 0.842892
O O12 0.795460 0.965773 0.609730
O O13 0.060320 0.703267 0.331452
O O14 0.570101 0.706131 0.712071
O O15 0.326210 0.000341 0.487242
#
# Coordination Sequence:
#
# PCOD8041774 Si02
#       7
#     2   2   2   2   2   2   2
#     4  10  20  34  57  81 122 155 191 224 285 356
#     4  12  21  35  53  85 124 152 183 240 296 340
#     4  10  19  35  58  85 114 149 194 247 287 326
#     4  10  19  33  58  86 112 144 197 243 278 330
#     4  10  20  35  55  85 118 149 191 241 291 335
#     4   9  18  35  54  84 113 155 192 228 278 350
#     4  11  21  35  56  88 115 155 191 228 287 360
#
# _framework density 20.030473000000001
#
# number of rings (size 3 to 8) (size 9 to 14) (size 15 to 20)
#    0.000    1.714    4.286    1.714    0.000    0.000 
#    0.000    0.000    0.000    1.714    0.000    0.000 
#    0.000    0.000    0.000    0.000    0.000    0.000 
#
# Total GULP energy -173468.798831 kJ/mol
# GULP energy per Si atom -12390.628488 kJ/mol
# Density = 1.998488 g / cm^3
# Si number density = 20.030473 Si / 1000 Ang^3
#
#
#
# Elastic Constant Matrix: (Units=GPa)
#
#
# Indices 1 2 3 4 5 6 
#
# 1 74.2460 44.2166 34.0134 14.3457 -29.2666 -0.2083
# 2 44.2166 115.6305 41.9593 3.9081 -8.9847 -2.7915
# 3 34.0134 41.9593 71.7749 14.3822 -26.8827 0.5497
# 4 14.3457 3.9081 14.3822 37.4224 -4.5944 -6.0553
# 5 -29.2666 -8.9847 -26.8827 -4.5944 42.5462 5.9730
# 6 -0.2083 -2.7915 0.5497 -6.0553 5.9730 32.9741
#
#
#
# Elastic Compliance Matrix: (Units=1/GPa)
#
#
# Indices 1 2 3 4 5 6 
#
# 1 0.026706 -0.008946 0.000499 -0.008284 0.016622 -0.005129
# 2 -0.008946 0.014337 -0.008226 0.004662 -0.008334 0.003660
# 3 0.000499 -0.008226 0.025708 -0.008265 0.014701 -0.005303
# 4 -0.008284 0.004662 -0.008265 0.032944 -0.007486 0.007886
# 5 0.016622 -0.008334 0.014701 -0.007486 0.043066 -0.010021
# 6 -0.005129 0.003660 -0.005303 0.007886 -0.010021 0.033956
#
#
# Mechanical properties :
#
#
# Convention : Reuss Voigt Hill
#
# Bulk Modulus (GPa) = 29.93468 55.78111 42.85789
# Shear Modulus (GPa) = 22.60415 32.01933 27.31174
#
# Velocity S-wave (km/s) = 3.36294 4.00250 3.69658
# Velocity P-wave (km/s) = 5.48235 7.01916 6.29781
#
# Compressibility (1/GPa) = 0.03340607
#
# Stress axis : x y z
#
# Youngs Moduli (GPa) = 37.44440 69.74872 38.89843
#
# Poissons Ratio (x) = 0.62394 -0.01940
# Poissons Ratio (y) = 0.33496 0.31997
# Poissons Ratio (z) = -0.01868 0.57374
#
# Static dielectric constant tensor:
#      x y z
#    x 3.704390 -0.197630 -0.470820 
#    y -0.197630 3.932810 0.068150 
#    z -0.470820 0.068150 3.709530 
# 
# 
# High freq. dielectric constant tensor:
#      x y z
#    x 1.748970 -0.031620 -0.041780 
#    y -0.031620 1.800240 -0.006330 
#    z -0.041780 -0.006330 1.764320 
# 
# From -- ./inp_files/182069.got.cif
#   From: 2010.06.25/outbox.cif.g09.slc.cpg/sg2_92_cif.got.tgz:182069.got - 2010.06.27 13:26:56.
