data_PCOD8041400
_publ_section_title
;
Structure prediction by ZEFSAII (Michael W. Deem and Ramdas Pophale) SiO2 
 PCOD8041400
Probable space group: P -1
;
_chemical_formula_sum "Si O2"
_cell_formula_units_Z 16
_cell_length_a 12.495336
_cell_length_b 15.710297
_cell_length_c 11.362228
_cell_angle_alpha 84.883110
_cell_angle_beta 142.556629
_cell_angle_gamma 124.572232
_cell_volume 772.820193
_symmetry_space_group_name_H-M "P -1"
_symmetry_group_IT_number 2
_symmetry_cell_setting 'triclinic'
loop_
_space_group_symop_operation_xyz
x,y,z
-x,-y,-z
loop_
_atom_site_type_symbol
_atom_site_label
_atom_site_fract_x
_atom_site_fract_y
_atom_site_fract_z
Si Si1 0.324155 0.697421 0.198259
Si Si2 0.282360 0.078068 0.664931
Si Si3 0.313959 0.593501 0.643469
Si Si4 0.937371 0.705291 0.791412
Si Si5 0.656922 0.592756 0.807693
Si Si6 0.288962 0.728586 0.769410
Si Si7 0.046857 0.594605 0.199317
Si Si8 0.516462 0.016867 0.150330
O O1 0.659119 0.843454 0.412117
O O2 0.342638 0.717024 0.353776
O O3 0.209195 0.557832 0.081183
O O4 0.090969 0.673921 0.942695
O O5 0.251752 0.967087 0.609202
O O6 0.577228 0.205020 0.991942
O O7 0.000000 0.000000 0.500000
O O8 0.590891 0.650942 0.820246
O O9 0.447482 0.709815 0.846283
O O10 0.074891 0.432391 0.514114
O O11 0.133894 0.583845 0.396868
O O12 0.806074 0.684795 0.804540
O O13 0.659854 0.584591 0.471163
O O14 0.182174 0.872521 0.937346
O O15 0.896290 0.628115 0.084520
O O16 0.347212 0.834727 0.723316
O O17 0.500000 0.000000 0.000000
#
# Coordination Sequence:
#
# PCOD8041400 Si02
#       8
#     2   2   2   2   2   2   2   2
#     4   9  17  32  54  82 114 135 179 235 280 308
#     4  10  19  35  58  84 110 137 184 235 267 325
#     4  11  21  41  55  77 121 144 184 229 271 341
#     4   9  17  32  55  82 113 139 184 234 275 321
#     4  10  19  32  57  86 105 147 183 227 280 320
#     4  10  22  39  56  76 111 156 178 221 288 326
#     4  10  19  32  56  83 109 141 180 230 276 323
#     4   9  18  35  55  76 107 146 179 224 277 319
#
# _framework density 20.703392999999998
#
# number of rings (size 3 to 8) (size 9 to 14) (size 15 to 20)
#    0.000    2.250    2.500    1.500    1.750    3.000 
#    2.250    1.875    0.000    2.250    0.000    0.000 
#    0.000    0.000    0.000    0.000    0.000    0.000 
#
# Total GULP energy -198282.171086 kJ/mol
# GULP energy per Si atom -12392.635693 kJ/mol
# Density = 2.065627 g / cm^3
# Si number density = 20.703393 Si / 1000 Ang^3
#
#
#
# Elastic Constant Matrix: (Units=GPa)
#
#
# Indices 1 2 3 4 5 6 
#
# 1 125.6826 54.7643 12.8064 11.9361 28.2378 -4.4191
# 2 54.7643 123.0646 24.0657 20.8104 13.0371 8.0898
# 3 12.8064 24.0657 20.4268 4.1905 12.5286 1.7199
# 4 11.9361 20.8104 4.1905 26.5584 5.6565 5.9260
# 5 28.2378 13.0371 12.5286 5.6565 30.9390 5.5348
# 6 -4.4191 8.0898 1.7199 5.9260 5.5348 39.9278
#
#
#
# Elastic Compliance Matrix: (Units=1/GPa)
#
#
# Indices 1 2 3 4 5 6 
#
# 1 0.012829 -0.005783 0.006129 -0.000478 -0.012403 0.004118
# 2 -0.005783 0.014504 -0.016442 -0.007160 0.007647 -0.002868
# 3 0.006129 -0.016442 0.084483 0.003056 -0.034271 0.004668
# 4 -0.000478 -0.007160 0.003056 0.045155 -0.005196 -0.004715
# 5 -0.012403 0.007647 -0.034271 -0.005196 0.056776 -0.008545
# 6 0.004118 -0.002868 0.004668 -0.004715 -0.008545 0.027765
#
#
# Mechanical properties :
#
#
# Convention : Reuss Voigt Hill
#
# Bulk Modulus (GPa) = 12.55898 50.27188 31.41543
# Shear Modulus (GPa) = 16.65312 31.32090 23.98701
#
# Velocity S-wave (km/s) = 2.83921 3.89374 3.40752
# Velocity P-wave (km/s) = 4.10213 6.67455 5.53973
#
# Compressibility (1/GPa) = 0.07962429
#
# Stress axis : x y z
#
# Youngs Moduli (GPa) = 77.94879 68.94696 11.83677
#
# Poissons Ratio (x) = 0.39875 -0.07255
# Poissons Ratio (y) = 0.45081 0.19461
# Poissons Ratio (z) = -0.47779 1.13360
#
# Static dielectric constant tensor:
#      x y z
#    x 4.080030 -0.046710 0.256130 
#    y -0.046710 4.405390 -0.016920 
#    z 0.256130 -0.016920 3.327660 
# 
# 
# High freq. dielectric constant tensor:
#      x y z
#    x 1.822990 0.008130 0.021930 
#    y 0.008130 1.819630 -0.001810 
#    z 0.021930 -0.001810 1.746990 
# 
# From -- ./inp_files/252201.got.cif
#   From: 2010.06.25/outbox.cif.g09.slc.cpg/sg2_127_cif.got.tgz:252201.got - 2010.06.27 13:26:56.
