data_PCOD8041035
_publ_section_title
;
Structure prediction by ZEFSAII (Michael W. Deem and Ramdas Pophale) SiO2 
 PCOD8041035
Probable space group: P -1
;
_chemical_formula_sum "Si O2"
_cell_formula_units_Z 16
_cell_length_a 23.732254
_cell_length_b 10.173240
_cell_length_c 23.399337
_cell_angle_alpha 137.893786
_cell_angle_beta 168.044375
_cell_angle_gamma 42.209814
_cell_volume 780.175493
_symmetry_space_group_name_H-M "P -1"
_symmetry_group_IT_number 2
_symmetry_cell_setting 'triclinic'
loop_
_space_group_symop_operation_xyz
x,y,z
-x,-y,-z
loop_
_atom_site_type_symbol
_atom_site_label
_atom_site_fract_x
_atom_site_fract_y
_atom_site_fract_z
Si Si1 0.543498 0.936986 0.936182
Si Si2 0.072350 0.726892 0.358634
Si Si3 0.116682 0.074754 0.256303
Si Si4 0.910882 0.368669 0.920069
Si Si5 0.608316 0.143653 0.699579
Si Si6 0.920762 0.526559 0.604149
Si Si7 0.442016 0.311479 0.017985
Si Si8 0.381427 0.456191 0.492661
O O1 0.243171 0.896002 0.606523
O O2 0.613644 0.833263 0.032392
O O3 0.770483 0.841616 0.085263
O O4 0.545091 0.174214 0.021925
O O5 0.209062 0.652654 0.409924
O O6 0.056337 0.550477 0.331948
O O7 0.030497 0.240396 0.271974
O O8 0.427266 0.120114 0.568020
O O9 0.926569 0.106777 0.020950
O O10 0.126230 0.847768 0.212160
O O11 0.625301 0.479478 0.696903
O O12 0.000000 0.500000 0.000000
O O13 0.152692 0.336443 0.196946
O O14 0.542105 0.358040 0.675208
O O15 0.500000 0.000000 0.500000
O O16 0.636856 0.477518 0.280162
O O17 0.146132 0.428723 0.752096
#
# Coordination Sequence:
#
# PCOD8041035 Si02
#       8
#     2   2   2   2   2   2   2   2
#     4   9  17  29  44  67 107 146 172 196 249 319
#     4  10  19  29  48  76 103 134 176 216 257 308
#     4  12  22  35  54  80 109 139 180 226 263 315
#     4  12  26  42  56  74 107 149 184 221 269 323
#     4  12  21  34  55  82 104 136 176 224 279 313
#     4  10  19  28  47  74 106 135 178 211 255 310
#     4   9  17  29  43  67 106 150 170 196 246 320
#     4  12  23  37  58  80 108 138 183 229 266 316
#
# _framework density 20.508206999999999
#
# number of rings (size 3 to 8) (size 9 to 14) (size 15 to 20)
#    0.000    1.250    3.750    3.750    3.500    3.000 
#    0.000    0.000    0.000    0.000    0.000    0.000 
#    0.000   20.000    0.000    0.000    0.000    0.000 
#
# Total GULP energy -198240.032405 kJ/mol
# GULP energy per Si atom -12390.002025 kJ/mol
# Density = 2.046153 g / cm^3
# Si number density = 20.508207 Si / 1000 Ang^3
#
#
#
# Elastic Constant Matrix: (Units=GPa)
#
#
# Indices 1 2 3 4 5 6 
#
# 1 45.7554 53.4340 20.3060 0.7619 21.4821 -10.6389
# 2 53.4340 119.4751 29.4468 9.5354 16.4714 -27.3636
# 3 20.3060 29.4468 84.2219 -5.2292 21.9072 -7.8059
# 4 0.7619 9.5354 -5.2292 28.8399 -10.4388 3.8189
# 5 21.4821 16.4714 21.9072 -10.4388 28.2297 -5.9337
# 6 -10.6389 -27.3636 -7.8059 3.8189 -5.9337 28.4572
#
#
#
# Elastic Compliance Matrix: (Units=1/GPa)
#
#
# Indices 1 2 3 4 5 6 
#
# 1 0.074143 -0.028615 0.003054 -0.007794 -0.046580 -0.007625
# 2 -0.028615 0.024359 -0.003533 -0.005828 0.011279 0.014890
# 3 0.003054 -0.003533 0.015587 -0.000611 -0.012699 -0.000546
# 4 -0.007794 -0.005828 -0.000611 0.047099 0.025170 -0.009757
# 5 -0.046580 0.011279 -0.012699 0.025170 0.084324 0.004153
# 6 -0.007625 0.014890 -0.000546 -0.009757 0.004153 0.048632
#
#
# Mechanical properties :
#
#
# Convention : Reuss Voigt Hill
#
# Bulk Modulus (GPa) = 17.88888 50.64731 34.26810
# Shear Modulus (GPa) = 13.47831 26.85642 20.16736
#
# Velocity S-wave (km/s) = 2.56640 3.62269 3.13929
# Velocity P-wave (km/s) = 4.18612 6.49986 5.46680
#
# Compressibility (1/GPa) = 0.05590064
#
# Stress axis : x y z
#
# Youngs Moduli (GPa) = 13.48741 41.05272 64.15564
#
# Poissons Ratio (x) = 1.17473 -0.19594
# Poissons Ratio (y) = 0.38595 0.22668
# Poissons Ratio (z) = -0.04119 0.14505
#
# Static dielectric constant tensor:
#      x y z
#    x 3.146640 -0.457740 0.194710 
#    y -0.457740 3.826400 -0.147520 
#    z 0.194710 -0.147520 3.958900 
# 
# 
# High freq. dielectric constant tensor:
#      x y z
#    x 1.727800 -0.050850 0.015790 
#    y -0.050850 1.792680 0.000220 
#    z 0.015790 0.000220 1.825660 
# 
# From -- ./inp_files/621215.got.cif
#   From: 2010.06.25/outbox.cif.g09.slc.cpg/sg2_311_cif.got.tgz:621215.got - 2010.06.27 13:26:56.
