data_PCOD8041220
_publ_section_title
;
Structure prediction by ZEFSAII (Michael W. Deem and Ramdas Pophale) SiO2 
 PCOD8041220
Probable space group: P -1
;
_chemical_formula_sum "Si O2"
_cell_formula_units_Z 16
_cell_length_a 16.674370
_cell_length_b 9.517676
_cell_length_c 8.839673
_cell_angle_alpha 63.260793
_cell_angle_beta 129.151181
_cell_angle_gamma 132.523855
_cell_volume 801.117117
_symmetry_space_group_name_H-M "P -1"
_symmetry_group_IT_number 2
_symmetry_cell_setting 'triclinic'
loop_
_space_group_symop_operation_xyz
x,y,z
-x,-y,-z
loop_
_atom_site_type_symbol
_atom_site_label
_atom_site_fract_x
_atom_site_fract_y
_atom_site_fract_z
Si Si1 0.670413 0.470871 0.232946
Si Si2 0.748751 0.878669 0.098908
Si Si3 0.881004 0.496036 0.315887
Si Si4 0.891071 0.834724 0.047935
Si Si5 0.384028 0.481487 0.182753
Si Si6 0.695522 0.101360 0.137915
Si Si7 0.504012 0.871715 0.275223
Si Si8 0.536367 0.774844 0.671672
O O1 0.800039 0.483440 0.371377
O O2 0.584465 0.302692 0.328457
O O3 0.687020 0.668882 0.201241
O O4 0.609734 0.418391 0.018004
O O5 0.772830 0.023136 0.192271
O O6 0.872909 0.927469 0.132500
O O7 0.660159 0.888228 0.866350
O O8 0.936280 0.698357 0.205094
O O9 0.793967 0.323875 0.179736
O O10 0.000000 0.500000 0.500000
O O11 0.757778 0.703368 0.865732
O O12 0.000000 0.000000 0.000000
O O13 0.431713 0.643806 0.284941
O O14 0.474503 0.408745 0.325320
O O15 0.631194 0.987801 0.271990
O O16 0.588010 0.065408 0.910413
O O17 0.538714 0.909660 0.476921
#
# Coordination Sequence:
#
# PCOD8041220 Si02
#       8
#     2   2   2   2   2   2   2   2
#     4   9  17  37  58  80 115 159 191 237 289 351
#     4   9  20  36  60  85 118 156 191 233 301 356
#     4  10  22  41  63  81 113 162 205 237 293 353
#     4   9  19  40  62  83 112 159 202 240 286 346
#     4   9  17  35  58  84 118 156 190 232 303 352
#     4  11  22  39  57  83 124 160 186 238 306 349
#     4  11  21  33  56  90 126 151 186 242 298 352
#     4  10  19  31  56  90 117 149 197 239 284 353
#
# _framework density 19.972111999999999
#
# number of rings (size 3 to 8) (size 9 to 14) (size 15 to 20)
#    0.000    2.750    2.500    3.375    1.750    2.500 
#    2.250    4.375    0.000    0.000    0.000    0.000 
#    0.000    0.000    0.000    0.000    0.000    0.000 
#
# Total GULP energy -198275.052100 kJ/mol
# GULP energy per Si atom -12392.190756 kJ/mol
# Density = 1.992665 g / cm^3
# Si number density = 19.972112 Si / 1000 Ang^3
#
#
#
# Elastic Constant Matrix: (Units=GPa)
#
#
# Indices 1 2 3 4 5 6 
#
# 1 120.8085 65.2452 52.7107 -11.3331 -2.3633 12.4488
# 2 65.2452 92.7745 29.8577 -5.5471 -7.2316 4.7602
# 3 52.7107 29.8577 87.1725 -19.5155 6.2424 12.8836
# 4 -11.3331 -5.5471 -19.5155 16.2567 1.6547 -7.3085
# 5 -2.3633 -7.2316 6.2424 1.6547 26.1829 -6.2317
# 6 12.4488 4.7602 12.8836 -7.3085 -6.2317 41.0263
#
#
#
# Elastic Compliance Matrix: (Units=1/GPa)
#
#
# Indices 1 2 3 4 5 6 
#
# 1 0.016276 -0.009287 -0.006486 -0.000467 0.000027 -0.001903
# 2 -0.009287 0.018017 -0.001616 -0.002044 0.005042 0.001637
# 3 -0.006486 -0.001616 0.021416 0.020489 -0.007939 -0.002126
# 4 -0.000467 -0.002044 0.020489 0.089867 -0.009132 0.008566
# 5 0.000027 0.005042 -0.007939 -0.009132 0.043703 0.006911
# 6 -0.001903 0.001637 -0.002126 0.008566 0.006911 0.028006
#
#
# Mechanical properties :
#
#
# Convention : Reuss Voigt Hill
#
# Bulk Modulus (GPa) = 47.77440 66.26474 57.01957
# Shear Modulus (GPa) = 19.30204 26.88930 23.09567
#
# Velocity S-wave (km/s) = 3.11215 3.67323 3.40427
# Velocity P-wave (km/s) = 6.07342 7.15827 6.63805
#
# Compressibility (1/GPa) = 0.02093171
#
# Stress axis : x y z
#
# Youngs Moduli (GPa) = 61.43995 55.50290 46.69343
#
# Poissons Ratio (x) = 0.51547 0.30284
# Poissons Ratio (y) = 0.57061 0.07545
# Poissons Ratio (z) = 0.39848 0.08968
#
# Static dielectric constant tensor:
#      x y z
#    x 3.699390 -0.199370 0.141120 
#    y -0.199370 3.570930 -0.143640 
#    z 0.141120 -0.143640 3.373880 
# 
# 
# High freq. dielectric constant tensor:
#      x y z
#    x 1.777800 -0.018420 0.007150 
#    y -0.018420 1.777670 -0.017700 
#    z 0.007150 -0.017700 1.746130 
# 
# From -- ./inp_files/285372.got.cif
#   From: 2010.06.25/outbox.cif.g09.slc.cpg/sg2_143_cif.got.tgz:285372.got - 2010.06.27 13:26:56.
