data_PCOD8041638
_publ_section_title
;
Structure prediction by ZEFSAII (Michael W. Deem and Ramdas Pophale) SiO2 
 PCOD8041638
Probable space group: P -1
;
_chemical_formula_sum "Si O2"
_cell_formula_units_Z 14
_cell_length_a 10.054389
_cell_length_b 9.424348
_cell_length_c 9.910616
_cell_angle_alpha 134.627158
_cell_angle_beta 89.920715
_cell_angle_gamma 71.027611
_cell_volume 594.063182
_symmetry_space_group_name_H-M "P -1"
_symmetry_group_IT_number 2
_symmetry_cell_setting 'triclinic'
loop_
_space_group_symop_operation_xyz
x,y,z
-x,-y,-z
loop_
_atom_site_type_symbol
_atom_site_label
_atom_site_fract_x
_atom_site_fract_y
_atom_site_fract_z
Si Si1 0.965907 0.253947 0.785678
Si Si2 0.374250 0.699052 0.477673
Si Si3 0.228370 0.200740 0.397481
Si Si4 0.232332 0.324473 0.779203
Si Si5 0.543590 0.777202 0.764026
Si Si6 0.451433 0.750381 0.214446
Si Si7 0.059767 0.772269 0.521112
O O1 0.905068 0.366563 0.712974
O O2 0.140830 0.202365 0.764255
O O3 0.859164 0.415205 0.007695
O O4 0.951923 0.028760 0.649588
O O5 0.440678 0.817251 0.658567
O O6 0.464419 0.425150 0.288474
O O7 0.373389 0.793285 0.391122
O O8 0.211027 0.750409 0.571908
O O9 0.238367 0.317542 0.613423
O O10 0.286810 0.296908 0.338462
O O11 0.053051 0.273900 0.412897
O O12 0.334483 0.931427 0.232414
O O13 0.401292 0.211751 0.758049
O O14 0.500000 0.000000 0.000000
O O15 0.500000 0.500000 0.000000
#
# Coordination Sequence:
#
# PCOD8041638 Si02
#       7
#     2   2   2   2   2   2   2
#     4   9  19  34  58  92 137 157 196 256 327 383
#     4  11  24  44  67  92 132 170 212 267 321 378
#     4  11  23  40  65  93 130 158 213 267 315 383
#     4  10  19  33  55  92 127 166 198 251 317 378
#     4  11  26  47  65  91 127 175 220 265 317 382
#     4  12  22  36  66  99 126 163 212 266 322 381
#     4  10  20  39  60  91 125 166 202 262 318 381
#
# _framework density 23.566514999999999
#
# number of rings (size 3 to 8) (size 9 to 14) (size 15 to 20)
#    0.000    1.429    1.429    5.571    2.000    0.571 
#    5.143    0.714    0.000    0.000    0.000    0.000 
#    0.000    0.000    0.000    0.000    0.000    0.000 
#
# Total GULP energy -173506.949789 kJ/mol
# GULP energy per Si atom -12393.353556 kJ/mol
# Density = 2.351288 g / cm^3
# Si number density = 23.566515 Si / 1000 Ang^3
#
#
#
# Elastic Constant Matrix: (Units=GPa)
#
#
# Indices 1 2 3 4 5 6 
#
# 1 152.1402 -8.6080 21.1457 -10.3769 -18.9154 2.6128
# 2 -8.6080 34.1365 -5.6709 -3.8465 2.4822 17.5901
# 3 21.1457 -5.6709 123.9951 1.0012 4.9586 9.5510
# 4 -10.3769 -3.8465 1.0012 18.6099 6.4320 -2.3057
# 5 -18.9154 2.4822 4.9586 6.4320 40.6125 -0.0789
# 6 2.6128 17.5901 9.5510 -2.3057 -0.0789 23.2590
#
#
#
# Elastic Compliance Matrix: (Units=1/GPa)
#
#
# Indices 1 2 3 4 5 6 
#
# 1 0.007552 0.003171 -0.001101 0.003631 0.002878 -0.002425
# 2 0.003171 0.054272 0.005320 0.008775 -0.003962 -0.042729
# 3 -0.001101 0.005320 0.009168 -0.000296 -0.001925 -0.007701
# 4 0.003631 0.008775 -0.000296 0.060362 -0.008371 -0.000967
# 5 0.002878 -0.003962 -0.001925 -0.008371 0.027772 0.002728
# 6 -0.002425 -0.042729 -0.007701 -0.000967 0.002728 0.078657
#
#
# Mechanical properties :
#
#
# Convention : Reuss Voigt Hill
#
# Bulk Modulus (GPa) = 11.65849 36.00059 23.82954
# Shear Modulus (GPa) = 19.87326 36.72330 28.29828
#
# Velocity S-wave (km/s) = 2.90709 3.95179 3.46899
# Velocity P-wave (km/s) = 4.02815 6.01095 5.11652
#
# Compressibility (1/GPa) = 0.08577442
#
# Stress axis : x y z
#
# Youngs Moduli (GPa) = 132.40822 18.42560 109.07033
#
# Poissons Ratio (x) = -0.05843 0.12004
# Poissons Ratio (y) = -0.41986 -0.58029
# Poissons Ratio (z) = 0.14573 -0.09803
#
# Static dielectric constant tensor:
#      x y z
#    x 4.599840 0.227140 -0.045850 
#    y 0.227140 3.833750 0.037420 
#    z -0.045850 0.037420 4.251030 
# 
# 
# High freq. dielectric constant tensor:
#      x y z
#    x 1.956380 0.016030 -0.003910 
#    y 0.016030 1.896070 0.013560 
#    z -0.003910 0.013560 1.932520 
# 
# From -- ./inp_files/391580.got.cif
#   From: 2010.06.25/outbox.cif.g09.slc.cpg/sg2_196_cif.got.tgz:391580.got - 2010.06.27 13:26:56.
