data_PCOD8041759
_publ_section_title
;
Structure prediction by ZEFSAII (Michael W. Deem and Ramdas Pophale) SiO2 
 PCOD8041759
Probable space group: P -1
;
_chemical_formula_sum "Si O2"
_cell_formula_units_Z 16
_cell_length_a 10.396035
_cell_length_b 14.089159
_cell_length_c 20.744192
_cell_angle_alpha 148.114508
_cell_angle_beta 33.087150
_cell_angle_gamma 126.781848
_cell_volume 806.559289
_symmetry_space_group_name_H-M "P -1"
_symmetry_group_IT_number 2
_symmetry_cell_setting 'triclinic'
loop_
_space_group_symop_operation_xyz
x,y,z
-x,-y,-z
loop_
_atom_site_type_symbol
_atom_site_label
_atom_site_fract_x
_atom_site_fract_y
_atom_site_fract_z
Si Si1 0.745481 0.188178 0.452048
Si Si2 0.115651 0.242017 0.434486
Si Si3 0.282618 0.430017 0.982946
Si Si4 0.937295 0.210410 0.959506
Si Si5 0.720931 0.507916 0.121428
Si Si6 0.386687 0.005296 0.979996
Si Si7 0.042585 0.604622 0.605523
Si Si8 0.152568 0.780919 0.334835
O O1 0.931404 0.218069 0.443960
O O2 0.458346 0.283201 0.653257
O O3 0.762897 0.294695 0.438837
O O4 0.827630 0.959695 0.273161
O O5 0.003121 0.239682 0.550011
O O6 0.396503 0.071556 0.210039
O O7 0.147748 0.447353 0.527870
O O8 0.355281 0.506919 0.929104
O O9 0.547813 0.265679 0.803568
O O10 0.151687 0.619738 0.191257
O O11 0.066965 0.339782 0.015753
O O12 0.725956 0.331345 0.063574
O O13 0.788513 0.123297 0.020624
O O14 0.000000 0.500000 0.000000
O O15 0.500000 0.000000 0.000000
O O16 0.218948 0.229173 0.162468
O O17 0.000000 0.500000 0.500000
O O18 0.000000 0.000000 0.500000
#
# Coordination Sequence:
#
# PCOD8041759 Si02
#       8
#     2   2   2   2   2   2   2   2
#     4  10  19  33  57  93 124 155 184 245 314 365
#     4  11  21  36  59  88 120 156 203 245 297 355
#     4  10  24  43  59  85 119 164 215 249 297 352
#     4  10  22  37  62  93 130 154 189 253 314 371
#     4  10  21  34  57  90 123 158 192 248 312 361
#     4  11  19  32  58  96 123 154 189 236 309 372
#     4   9  18  31  54  84 124 147 182 239 297 360
#     4  11  26  44  64  81 114 170 217 256 283 351
#
# _framework density 19.837350000000001
#
# number of rings (size 3 to 8) (size 9 to 14) (size 15 to 20)
#    0.000    1.750    5.000    0.750    3.500    6.000 
#    0.000    0.625    0.000    3.750    0.000    0.000 
#    0.000    0.000    0.000    0.000    0.000    0.000 
#
# Total GULP energy -198279.612829 kJ/mol
# GULP energy per Si atom -12392.475802 kJ/mol
# Density = 1.979220 g / cm^3
# Si number density = 19.837350 Si / 1000 Ang^3
#
#
#
# Elastic Constant Matrix: (Units=GPa)
#
#
# Indices 1 2 3 4 5 6 
#
# 1 70.4803 41.3561 42.5854 6.1149 0.3752 0.2593
# 2 41.3561 70.1985 49.3154 6.3976 4.1425 -8.5797
# 3 42.5854 49.3154 178.8540 -1.3130 -10.1848 -5.0599
# 4 6.1149 6.3976 -1.3130 35.9685 -0.9486 -2.2750
# 5 0.3752 4.1425 -10.1848 -0.9486 28.2819 -1.7450
# 6 0.2593 -8.5797 -5.0599 -2.2750 -1.7450 28.8141
#
#
#
# Elastic Compliance Matrix: (Units=1/GPa)
#
#
# Indices 1 2 3 4 5 6 
#
# 1 0.022951 -0.012371 -0.002172 -0.002050 0.000385 -0.004410
# 2 -0.012371 0.025851 -0.004290 -0.002363 -0.004841 0.006576
# 3 -0.002172 -0.004290 0.007509 0.001521 0.003436 0.000389
# 4 -0.002050 -0.002363 0.001521 0.028805 0.002009 0.001978
# 5 0.000385 -0.004841 0.003436 0.002009 0.037465 0.001586
# 6 -0.004410 0.006576 0.000389 0.001978 0.001586 0.037023
#
#
# Mechanical properties :
#
#
# Convention : Reuss Voigt Hill
#
# Bulk Modulus (GPa) = 53.62520 65.11631 59.37075
# Shear Modulus (GPa) = 24.57198 31.03131 27.80164
#
# Velocity S-wave (km/s) = 3.52330 3.95940 3.74770
# Velocity P-wave (km/s) = 6.60626 7.33477 6.98002
#
# Compressibility (1/GPa) = 0.01864795
#
# Stress axis : x y z
#
# Youngs Moduli (GPa) = 43.57059 38.68270 133.17635
#
# Poissons Ratio (x) = 0.47853 0.28922
# Poissons Ratio (y) = 0.53899 0.57126
# Poissons Ratio (z) = 0.09462 0.16593
#
# Static dielectric constant tensor:
#      x y z
#    x 3.765100 -0.521220 -0.360840 
#    y -0.521220 4.297910 0.095170 
#    z -0.360840 0.095170 4.467710 
# 
# 
# High freq. dielectric constant tensor:
#      x y z
#    x 1.728580 -0.005260 -0.018120 
#    y -0.005260 1.776660 0.002360 
#    z -0.018120 0.002360 1.795920 
# 
# From -- ./inp_files/595644.got.cif
#   From: 2010.06.25/outbox.cif.g09.slc.cpg/sg2_298_cif.got.tgz:595644.got - 2010.06.27 13:26:56.
