data_PCOD8041569
_publ_section_title
;
Structure prediction by ZEFSAII (Michael W. Deem and Ramdas Pophale) SiO2 
 PCOD8041569
Probable space group: P -1
;
_chemical_formula_sum "Si O2"
_cell_formula_units_Z 16
_cell_length_a 15.579216
_cell_length_b 9.278187
_cell_length_c 25.870622
_cell_angle_alpha 44.387418
_cell_angle_beta 18.838873
_cell_angle_gamma 42.800184
_cell_volume 816.955399
_symmetry_space_group_name_H-M "P -1"
_symmetry_group_IT_number 2
_symmetry_cell_setting 'triclinic'
loop_
_space_group_symop_operation_xyz
x,y,z
-x,-y,-z
loop_
_atom_site_type_symbol
_atom_site_label
_atom_site_fract_x
_atom_site_fract_y
_atom_site_fract_z
Si Si1 0.214056 0.943628 0.679697
Si Si2 0.934695 0.377584 0.313158
Si Si3 0.335551 0.614239 0.977575
Si Si4 0.273075 0.780838 0.170484
Si Si5 0.378877 0.977621 0.156986
Si Si6 0.375128 0.521308 0.640291
Si Si7 0.969664 0.772381 0.057465
Si Si8 0.176389 0.054127 0.008210
O O1 0.254549 0.693098 0.709581
O O2 0.500000 0.000000 0.500000
O O3 0.034140 0.096561 0.700164
O O4 0.067714 0.991991 0.806323
O O5 0.706924 0.474850 0.461604
O O6 0.763646 0.366865 0.361420
O O7 0.144145 0.526419 0.149281
O O8 0.101757 0.138593 0.295788
O O9 0.221321 0.610205 0.984682
O O10 0.645628 0.463971 0.834039
O O11 0.341061 0.844661 0.936684
O O12 0.306149 0.792148 0.211153
O O13 0.490897 0.883194 0.991685
O O14 0.595138 0.874499 0.105311
O O15 0.302367 0.295782 0.750698
O O16 0.965182 0.765109 0.999285
O O17 0.000000 0.000000 0.000000
#
# Coordination Sequence:
#
# PCOD8041569 Si02
#       8
#     2   2   2   2   2   2   2   2
#     4  11  22  34  54  85 119 136 176 233 280 322
#     4   9  17  31  55  79 105 139 181 214 285 326
#     4   9  18  34  57  78 108 144 179 230 269 323
#     4   9  18  33  53  79 112 141 175 221 281 323
#     4   9  17  31  52  79 110 136 178 227 267 325
#     4  10  19  33  54  80 109 147 177 223 274 325
#     4   9  20  38  54  78 107 147 191 224 261 322
#     4  10  21  34  54  82 109 145 187 222 268 320
#
# _framework density 19.584913
#
# number of rings (size 3 to 8) (size 9 to 14) (size 15 to 20)
#    0.000    2.500    1.250    0.750    5.250    7.000 
#    0.000    0.625    0.000    0.750    0.000    0.000 
#    0.000    0.000    0.000    0.000    0.000    0.000 
#
# Total GULP energy -198231.213984 kJ/mol
# GULP energy per Si atom -12389.450874 kJ/mol
# Density = 1.954034 g / cm^3
# Si number density = 19.584913 Si / 1000 Ang^3
#
#
#
# Elastic Constant Matrix: (Units=GPa)
#
#
# Indices 1 2 3 4 5 6 
#
# 1 108.6507 22.7292 41.8192 8.9691 7.3856 -0.9626
# 2 22.7292 82.0867 41.7569 13.8869 0.0893 6.4489
# 3 41.8192 41.7569 77.5814 12.8758 -14.9853 -9.5373
# 4 8.9691 13.8869 12.8758 29.1407 -2.4700 0.4742
# 5 7.3856 0.0893 -14.9853 -2.4700 20.3931 -0.6367
# 6 -0.9626 6.4489 -9.5373 0.4742 -0.6367 20.2108
#
#
#
# Elastic Compliance Matrix: (Units=1/GPa)
#
#
# Indices 1 2 3 4 5 6 
#
# 1 0.014862 0.003749 -0.013774 -0.001504 -0.015935 -0.007455
# 2 0.003749 0.022694 -0.018543 -0.004883 -0.016180 -0.016208
# 3 -0.013774 -0.018543 0.040683 -0.002309 0.035485 0.025631
# 4 -0.001504 -0.004883 -0.002309 0.038431 0.003512 -0.000394
# 5 -0.015935 -0.016180 0.035485 0.003512 0.082117 0.023653
# 6 -0.007455 -0.016208 0.025631 -0.000394 0.023653 0.067144
#
#
# Mechanical properties :
#
#
# Convention : Reuss Voigt Hill
#
# Bulk Modulus (GPa) = 47.38546 53.43660 50.41103
# Shear Modulus (GPa) = 15.14687 24.74982 19.94835
#
# Velocity S-wave (km/s) = 2.78401 3.55874 3.19495
# Velocity P-wave (km/s) = 5.88062 6.65056 6.27741
#
# Compressibility (1/GPa) = 0.02110352
#
# Stress axis : x y z
#
# Youngs Moduli (GPa) = 67.28364 44.06511 24.58039
#
# Poissons Ratio (x) = -0.16520 0.33857
# Poissons Ratio (y) = -0.25224 0.45579
# Poissons Ratio (z) = 0.92677 0.81708
#
# Static dielectric constant tensor:
#      x y z
#    x 3.844200 -0.081110 -0.035440 
#    y -0.081110 3.611680 0.255420 
#    z -0.035440 0.255420 3.313680 
# 
# 
# High freq. dielectric constant tensor:
#      x y z
#    x 1.760650 0.005360 -0.013560 
#    y 0.005360 1.754540 0.022660 
#    z -0.013560 0.022660 1.724290 
# 
# From -- ./inp_files/304718.got.cif
#   From: 2010.06.25/outbox.cif.g09.slc.cpg/sg2_153_cif.got.tgz:304718.got - 2010.06.27 13:26:56.
