data_PCOD8041680
_publ_section_title
;
Structure prediction by ZEFSAII (Michael W. Deem and Ramdas Pophale) SiO2 
 PCOD8041680
Probable space group: P -1
;
_chemical_formula_sum "Si O2"
_cell_formula_units_Z 16
_cell_length_a 27.615825
_cell_length_b 10.938253
_cell_length_c 13.183586
_cell_angle_alpha 147.702468
_cell_angle_beta 157.224759
_cell_angle_gamma 30.050770
_cell_volume 748.776484
_symmetry_space_group_name_H-M "P -1"
_symmetry_group_IT_number 2
_symmetry_cell_setting 'triclinic'
loop_
_space_group_symop_operation_xyz
x,y,z
-x,-y,-z
loop_
_atom_site_type_symbol
_atom_site_label
_atom_site_fract_x
_atom_site_fract_y
_atom_site_fract_z
Si Si1 0.542627 0.746814 0.341333
Si Si2 0.412999 0.333435 0.315699
Si Si3 0.233994 0.385480 0.706143
Si Si4 0.294540 0.752504 0.224103
Si Si5 0.040731 0.175738 0.127482
Si Si6 0.407356 0.394195 0.879806
Si Si7 0.241488 0.603962 0.355363
Si Si8 0.642390 0.020866 0.187050
O O1 0.551059 0.793814 0.269412
O O2 0.695467 0.524325 0.504675
O O3 0.500000 0.000000 0.500000
O O4 0.423256 0.648120 0.059846
O O5 0.357793 0.607032 0.348282
O O6 0.579822 0.203718 0.554340
O O7 0.349869 0.384282 0.340544
O O8 0.346947 0.171697 0.016359
O O9 0.086395 0.367998 0.413170
O O10 0.260798 0.440592 0.678931
O O11 0.345893 0.113508 0.775440
O O12 0.230644 0.608859 0.927268
O O13 0.170096 0.016069 0.194373
O O14 0.914615 0.352182 0.936148
O O15 0.000000 0.000000 0.000000
O O16 0.501731 0.269939 0.074683
O O17 0.238114 0.881264 0.528186
#
# Coordination Sequence:
#
# PCOD8041680 Si02
#       8
#     2   2   2   2   2   2   2   2
#     4  10  22  41  64  86 117 159 209 263 302 345
#     4  10  19  33  56  87 118 157 202 241 294 364
#     4  11  22  36  59  89 128 163 195 246 304 369
#     4  10  21  34  54  86 124 160 195 240 300 363
#     4  12  23  39  57  89 133 168 198 239 302 378
#     4  10  21  37  60  92 118 152 206 256 308 360
#     4  11  22  39  61  89 123 165 206 244 304 363
#     4  10  19  33  59  90 124 155 189 249 311 362
#
# _framework density 21.368192000000001
#
# number of rings (size 3 to 8) (size 9 to 14) (size 15 to 20)
#    0.000    1.500    2.500    3.375    0.000    4.500 
#    0.000    0.625    0.000    2.250    0.000    0.000 
#    0.000    0.000    0.000    0.000    0.000    0.000 
#
# Total GULP energy -198293.281673 kJ/mol
# GULP energy per Si atom -12393.330105 kJ/mol
# Density = 2.131956 g / cm^3
# Si number density = 21.368192 Si / 1000 Ang^3
#
#
#
# Elastic Constant Matrix: (Units=GPa)
#
#
# Indices 1 2 3 4 5 6 
#
# 1 78.1086 26.1918 43.0322 -6.6481 0.2442 7.1133
# 2 26.1918 65.6098 31.4215 -5.7107 4.5872 -6.6829
# 3 43.0322 31.4215 138.9391 1.2160 -0.6640 -7.6878
# 4 -6.6481 -5.7107 1.2160 40.1880 -6.6100 -0.5077
# 5 0.2442 4.5872 -0.6640 -6.6100 18.8527 0.5967
# 6 7.1133 -6.6829 -7.6878 -0.5077 0.5967 33.7518
#
#
#
# Elastic Compliance Matrix: (Units=1/GPa)
#
#
# Indices 1 2 3 4 5 6 
#
# 1 0.017958 -0.005452 -0.004670 0.002596 0.002027 -0.005924
# 2 -0.005452 0.019501 -0.002503 0.001269 -0.004461 0.004538
# 3 -0.004670 -0.002503 0.009367 -0.001303 0.000460 0.002594
# 4 0.002596 0.001269 -0.001303 0.027024 0.009098 -0.000347
# 5 0.002027 -0.004461 0.000460 0.009098 0.057374 -0.002083
# 6 -0.005924 0.004538 0.002594 -0.000347 -0.002083 0.032398
#
#
# Mechanical properties :
#
#
# Convention : Reuss Voigt Hill
#
# Bulk Modulus (GPa) = 46.34594 53.77205 50.05900
# Shear Modulus (GPa) = 25.50203 30.69265 28.09734
#
# Velocity S-wave (km/s) = 3.45839 3.79406 3.63011
# Velocity P-wave (km/s) = 6.13870 6.66426 6.40687
#
# Compressibility (1/GPa) = 0.02157686
#
# Stress axis : x y z
#
# Youngs Moduli (GPa) = 55.68678 51.27865 106.75810
#
# Poissons Ratio (x) = 0.27955 0.49854
# Poissons Ratio (y) = 0.30358 0.26723
# Poissons Ratio (z) = 0.26004 0.12836
#
# Static dielectric constant tensor:
#      x y z
#    x 3.785170 0.196430 -0.095410 
#    y 0.196430 3.633480 0.085970 
#    z -0.095410 0.085970 4.173450 
# 
# 
# High freq. dielectric constant tensor:
#      x y z
#    x 1.822600 0.007680 -0.014690 
#    y 0.007680 1.812010 0.022510 
#    z -0.014690 0.022510 1.850540 
# 
# From -- ./inp_files/535396.got.cif
#   From: 2010.06.25/outbox.cif.g09.slc.cpg/sg2_268_cif.got.tgz:535396.got - 2010.06.27 13:26:56.
