data_PCOD8041844
_publ_section_title
;
Structure prediction by ZEFSAII (Michael W. Deem and Ramdas Pophale) SiO2 
 PCOD8041844
Probable space group: P -1
;
_chemical_formula_sum "Si O2"
_cell_formula_units_Z 14
_cell_length_a 13.933458
_cell_length_b 21.435029
_cell_length_c 8.658195
_cell_angle_alpha 41.866297
_cell_angle_beta 138.989040
_cell_angle_gamma 158.118532
_cell_volume 621.853689
_symmetry_space_group_name_H-M "P -1"
_symmetry_group_IT_number 2
_symmetry_cell_setting 'triclinic'
loop_
_space_group_symop_operation_xyz
x,y,z
-x,-y,-z
loop_
_atom_site_type_symbol
_atom_site_label
_atom_site_fract_x
_atom_site_fract_y
_atom_site_fract_z
Si Si1 0.556349 0.819177 0.205030
Si Si2 0.270836 0.484507 0.591583
Si Si3 0.321172 0.815299 0.664416
Si Si4 0.045773 0.092076 0.105305
Si Si5 0.295392 0.057690 0.316694
Si Si6 0.768793 0.644303 0.928539
Si Si7 0.257399 0.935707 0.790516
O O1 0.371254 0.639611 0.377741
O O2 0.695548 0.940479 0.297323
O O3 0.796413 0.906506 0.229522
O O4 0.383699 0.804076 0.928790
O O5 0.484281 0.518131 0.736507
O O6 0.986199 0.320250 0.467716
O O7 0.242511 0.455961 0.796429
O O8 0.410371 0.787958 0.689885
O O9 0.500000 0.000000 0.500000
O O10 0.268989 0.137900 0.237552
O O11 0.165006 0.233812 0.100756
O O12 0.929985 0.077004 0.838101
O O13 0.244977 0.942267 0.579794
O O14 0.985127 0.743886 0.875009
O O15 0.500000 0.000000 0.000000
#
# Coordination Sequence:
#
# PCOD8041844 Si02
#       7
#     2   2   2   2   2   2   2
#     4  10  21  37  62  86 115 152 193 239 287 342
#     4  11  21  37  59  86 115 152 197 239 288 341
#     4  11  22  40  62  84 114 155 196 238 291 349
#     4   9  19  38  60  85 110 150 193 234 288 344
#     4  10  19  33  61  86 110 144 195 241 276 337
#     4  10  22  38  59  83 118 156 191 235 287 345
#     4  11  21  37  60  88 116 154 195 232 283 346
#
# _framework density 22.513335999999999
#
# number of rings (size 3 to 8) (size 9 to 14) (size 15 to 20)
#    0.000    1.714    0.000    6.429    0.000    2.286 
#    0.000    7.857    0.000   46.286    0.000    0.000 
#    0.000    0.000    0.000    0.000    0.000    0.000 
#
# Total GULP energy -173503.130489 kJ/mol
# GULP energy per Si atom -12393.080749 kJ/mol
# Density = 2.246209 g / cm^3
# Si number density = 22.513336 Si / 1000 Ang^3
#
#
#
# Elastic Constant Matrix: (Units=GPa)
#
#
# Indices 1 2 3 4 5 6 
#
# 1 57.1215 20.9634 7.8157 7.5703 -2.7961 14.7198
# 2 20.9634 122.0431 52.6941 -0.0233 -2.5655 29.2561
# 3 7.8157 52.6941 146.6489 -7.7024 -12.8099 11.5275
# 4 7.5703 -0.0233 -7.7024 47.8439 5.3602 5.7331
# 5 -2.7961 -2.5655 -12.8099 5.3602 34.0636 -1.4342
# 6 14.7198 29.2561 11.5275 5.7331 -1.4342 30.5541
#
#
#
# Elastic Compliance Matrix: (Units=1/GPa)
#
#
# Indices 1 2 3 4 5 6 
#
# 1 0.020522 -0.001685 0.000139 -0.002480 0.001673 -0.007782
# 2 -0.001685 0.012413 -0.003636 0.001008 -0.001148 -0.009945
# 3 0.000139 -0.003636 0.008396 0.000998 0.002746 0.000189
# 4 -0.002480 0.001008 0.000998 0.022383 -0.003465 -0.004509
# 5 0.001673 -0.001148 0.002746 -0.003465 0.031043 0.001365
# 6 -0.007782 -0.009945 0.000189 -0.004509 0.001365 0.046839
#
#
# Mechanical properties :
#
#
# Convention : Reuss Voigt Hill
#
# Bulk Modulus (GPa) = 32.29262 54.30665 43.29964
# Shear Modulus (GPa) = 30.81045 38.78170 34.79607
#
# Velocity S-wave (km/s) = 3.70339 4.15494 3.93565
# Velocity P-wave (km/s) = 5.71505 6.86967 6.31879
#
# Compressibility (1/GPa) = 0.03096682
#
# Stress axis : x y z
#
# Youngs Moduli (GPa) = 48.72861 80.55812 119.11090
#
# Poissons Ratio (x) = 0.13575 -0.01659
# Poissons Ratio (y) = 0.08211 0.43311
# Poissons Ratio (z) = -0.00679 0.29292
#
# Static dielectric constant tensor:
#      x y z
#    x 4.663350 0.402230 -0.266560 
#    y 0.402230 4.015930 0.082830 
#    z -0.266560 0.082830 4.501090 
# 
# 
# High freq. dielectric constant tensor:
#      x y z
#    x 1.869290 0.028550 -0.004800 
#    y 0.028550 1.869130 0.006840 
#    z -0.004800 0.006840 1.915100 
# 
# From -- ./inp_files/210212.got.cif
#   From: 2010.06.25/outbox.cif.g09.slc.cpg/sg2_106_cif.got.tgz:210212.got - 2010.06.27 13:26:56.
