data_PCOD8041283
_publ_section_title
;
Structure prediction by ZEFSAII (Michael W. Deem and Ramdas Pophale) SiO2 
 PCOD8041283
Probable space group: P -1
;
_chemical_formula_sum "Si O2"
_cell_formula_units_Z 16
_cell_length_a 17.902274
_cell_length_b 15.550355
_cell_length_c 14.826888
_cell_angle_alpha 19.415116
_cell_angle_beta 49.310561
_cell_angle_gamma 39.655361
_cell_volume 820.358224
_symmetry_space_group_name_H-M "P -1"
_symmetry_group_IT_number 2
_symmetry_cell_setting 'triclinic'
loop_
_space_group_symop_operation_xyz
x,y,z
-x,-y,-z
loop_
_atom_site_type_symbol
_atom_site_label
_atom_site_fract_x
_atom_site_fract_y
_atom_site_fract_z
Si Si1 0.700823 0.177128 0.213651
Si Si2 0.147321 0.752298 0.416666
Si Si3 0.854992 0.728884 0.789743
Si Si4 0.147165 0.251946 0.028198
Si Si5 0.856575 0.789145 0.322454
Si Si6 0.852996 0.231664 0.178601
Si Si7 0.472948 0.257356 0.341443
Si Si8 0.248027 0.542033 0.350822
O O1 0.765636 0.308266 0.085942
O O2 0.605508 0.163774 0.363894
O O3 0.808155 0.833363 0.420567
O O4 0.617018 0.392305 0.981713
O O5 0.229843 0.625914 0.387164
O O6 0.197045 0.913749 0.275555
O O7 0.180010 0.444717 0.751414
O O8 0.999111 0.004479 0.260393
O O9 0.792724 0.813742 0.854232
O O10 0.827486 0.052413 0.449877
O O11 0.804298 0.583280 0.908336
O O12 0.001005 0.445376 0.964759
O O13 0.798155 0.672431 0.418281
O O14 0.000000 0.500000 0.500000
O O15 0.830243 0.120473 0.978439
O O16 0.396035 0.293800 0.454474
O O17 0.500000 0.000000 0.500000
#
# Coordination Sequence:
#
# PCOD8041283 Si02
#       8
#     2   2   2   2   2   2   2   2
#     4  10  22  36  55  78 105 145 183 229 270 306
#     4  10  19  32  51  80 110 138 170 217 262 323
#     4   9  18  31  50  78 108 143 168 206 261 327
#     4   9  17  32  51  74 112 143 168 201 264 328
#     4  11  22  35  53  77 111 143 171 216 278 328
#     4  10  20  31  51  81 110 133 175 219 263 318
#     4  10  21  40  56  72 104 146 191 232 261 309
#     4  11  22  36  54  78 105 141 187 221 261 316
#
# _framework density 19.503672999999999
#
# number of rings (size 3 to 8) (size 9 to 14) (size 15 to 20)
#    0.000    2.000    1.250    2.625    1.750    6.000 
#    0.000    0.000    0.000    0.000    0.000    5.250 
#    0.000    0.000    0.000    0.000    0.000    0.000 
#
# Total GULP energy -198310.516718 kJ/mol
# GULP energy per Si atom -12394.407295 kJ/mol
# Density = 1.945928 g / cm^3
# Si number density = 19.503673 Si / 1000 Ang^3
#
#
#
# Elastic Constant Matrix: (Units=GPa)
#
#
# Indices 1 2 3 4 5 6 
#
# 1 70.3476 52.9387 16.1355 -11.7858 -20.5946 13.4452
# 2 52.9387 155.2049 32.1074 -2.5078 -6.6454 10.9594
# 3 16.1355 32.1074 56.7823 -2.2417 -23.6903 -0.1630
# 4 -11.7858 -2.5078 -2.2417 19.6644 4.1892 -0.5448
# 5 -20.5946 -6.6454 -23.6903 4.1892 30.2418 -4.1881
# 6 13.4452 10.9594 -0.1630 -0.5448 -4.1881 28.2845
#
#
#
# Elastic Compliance Matrix: (Units=1/GPa)
#
#
# Indices 1 2 3 4 5 6 
#
# 1 0.029419 -0.009697 0.005846 0.012658 0.019756 -0.007024
# 2 -0.009697 0.010958 -0.007734 -0.003204 -0.009980 -0.001220
# 3 0.005846 -0.007734 0.032004 0.000341 0.027935 0.004545
# 4 0.012658 -0.003204 0.000341 0.058047 -0.000372 -0.003711
# 5 0.019756 -0.009980 0.027935 -0.000372 0.066890 0.004534
# 6 -0.007024 -0.001220 0.004545 -0.003711 0.004534 0.039793
#
#
# Mechanical properties :
#
#
# Convention : Reuss Voigt Hill
#
# Bulk Modulus (GPa) = 20.32124 53.85533 37.08828
# Shear Modulus (GPa) = 18.07106 27.71500 22.89303
#
# Velocity S-wave (km/s) = 3.04722 3.77372 3.42976
# Velocity P-wave (km/s) = 4.77730 6.83087 5.89421
#
# Compressibility (1/GPa) = 0.04920960
#
# Stress axis : x y z
#
# Youngs Moduli (GPa) = 33.99184 91.25932 31.24570
#
# Poissons Ratio (x) = 0.88497 -0.18265
# Poissons Ratio (y) = 0.32963 0.24166
# Poissons Ratio (z) = -0.19870 0.70581
#
# Static dielectric constant tensor:
#      x y z
#    x 3.634640 -0.116820 -0.185190 
#    y -0.116820 4.104520 -0.216090 
#    z -0.185190 -0.216090 3.739180 
# 
# 
# High freq. dielectric constant tensor:
#      x y z
#    x 1.737740 0.012930 -0.028240 
#    y 0.012930 1.754660 0.004450 
#    z -0.028240 0.004450 1.757450 
# 
# From -- ./inp_files/66205.got.cif
#   From: 2010.06.25/outbox.cif.g09.slc.cpg/sg2_34_cif.got.tgz:66205.got - 2010.06.27 13:26:56.
