data_PCOD8041050
_publ_section_title
;
Structure prediction by ZEFSAII (Michael W. Deem and Ramdas Pophale) SiO2 
 PCOD8041050
Probable space group: P -1
;
_chemical_formula_sum "Si O2"
_cell_formula_units_Z 16
_cell_length_a 21.832606
_cell_length_b 12.447004
_cell_length_c 15.395426
_cell_angle_alpha 153.665364
_cell_angle_beta 27.749560
_cell_angle_gamma 150.983078
_cell_volume 794.333428
_symmetry_space_group_name_H-M "P -1"
_symmetry_group_IT_number 2
_symmetry_cell_setting 'triclinic'
loop_
_space_group_symop_operation_xyz
x,y,z
-x,-y,-z
loop_
_atom_site_type_symbol
_atom_site_label
_atom_site_fract_x
_atom_site_fract_y
_atom_site_fract_z
Si Si1 0.630729 0.682403 0.710542
Si Si2 0.200220 0.175238 0.117954
Si Si3 0.377844 0.731362 0.348315
Si Si4 0.369471 0.458330 0.571513
Si Si5 0.613674 0.997436 0.117271
Si Si6 0.937597 0.697119 0.123250
Si Si7 0.926773 0.698048 0.343025
Si Si8 0.393543 0.238292 0.771635
O O1 0.640941 0.753297 0.645615
O O2 0.760410 0.588408 0.502950
O O3 0.470272 0.467281 0.772347
O O4 0.650482 0.932597 0.927236
O O5 0.239922 0.454754 0.319426
O O6 0.264931 0.993956 0.959525
O O7 0.258559 0.246437 0.998381
O O8 0.031685 0.998709 0.194978
O O9 0.462480 0.782222 0.186544
O O10 0.483927 0.724713 0.285232
O O11 0.329579 0.965876 0.601316
O O12 0.500000 0.500000 0.500000
O O13 0.226965 0.369304 0.745495
O O14 0.391687 0.718390 0.675468
O O15 0.937468 0.681243 0.214927
O O16 0.995134 0.489530 0.855084
O O17 0.000000 0.000000 0.500000
#
# Coordination Sequence:
#
# PCOD8041050 Si02
#       8
#     2   2   2   2   2   2   2   2
#     4  11  19  34  58  84 111 145 183 225 273 333
#     4  11  19  32  54  89 126 137 166 218 289 357
#     4  10  19  29  51  87 123 147 165 212 275 348
#     4  11  25  42  57  74 104 151 203 242 263 304
#     4  11  19  34  57  86 117 142 180 224 275 329
#     4  10  22  35  52  80 112 146 179 226 284 331
#     4  10  20  33  52  82 115 145 174 220 286 343
#     4  10  19  29  50  88 119 148 176 198 274 350
#
# _framework density 20.142676000000002
#
# number of rings (size 3 to 8) (size 9 to 14) (size 15 to 20)
#    0.000    1.500    3.750    4.500    3.500    0.500 
#    0.000    0.000    0.000    1.500    0.000    0.000 
#    0.000    0.000    0.000    0.000    0.000    0.000 
#
# Total GULP energy -198260.413372 kJ/mol
# GULP energy per Si atom -12391.275836 kJ/mol
# Density = 2.009683 g / cm^3
# Si number density = 20.142676 Si / 1000 Ang^3
#
#
#
# Elastic Constant Matrix: (Units=GPa)
#
#
# Indices 1 2 3 4 5 6 
#
# 1 53.7970 16.4601 32.2014 -10.1827 3.0298 14.8061
# 2 16.4601 125.2130 29.7951 -11.7412 -10.2574 15.2720
# 3 32.2014 29.7951 80.0047 -3.7366 20.3667 14.7354
# 4 -10.1827 -11.7412 -3.7366 30.2262 1.8659 2.4251
# 5 3.0298 -10.2574 20.3667 1.8659 23.0007 -4.5621
# 6 14.8061 15.2720 14.7354 2.4251 -4.5621 21.3244
#
#
#
# Elastic Compliance Matrix: (Units=1/GPa)
#
#
# Indices 1 2 3 4 5 6 
#
# 1 0.030376 0.001330 -0.009284 0.010908 0.000608 -0.016739
# 2 0.001330 0.010713 -0.006237 0.003480 0.009309 -0.002690
# 3 -0.009284 -0.006237 0.029516 0.001320 -0.031029 -0.016272
# 4 0.010908 0.003480 0.001320 0.040129 -0.007719 -0.017193
# 5 0.000608 0.009309 -0.031029 -0.007719 0.082157 0.032807
# 6 -0.016739 -0.002690 -0.016272 -0.017193 0.032807 0.080662
#
#
# Mechanical properties :
#
#
# Convention : Reuss Voigt Hill
#
# Bulk Modulus (GPa) = 23.68314 46.21422 34.94868
# Shear Modulus (GPa) = 15.82245 26.94745 21.38495
#
# Velocity S-wave (km/s) = 2.80575 3.66160 3.26187
# Velocity P-wave (km/s) = 4.72012 6.39294 5.61913
#
# Compressibility (1/GPa) = 0.04222412
#
# Stress axis : x y z
#
# Youngs Moduli (GPa) = 32.92118 93.34862 33.87992
#
# Poissons Ratio (x) = -0.12417 0.31453
# Poissons Ratio (y) = -0.04379 0.21129
# Poissons Ratio (z) = 0.30563 0.58217
#
# Static dielectric constant tensor:
#      x y z
#    x 3.116080 0.095620 0.389620 
#    y 0.095620 3.969450 -0.190460 
#    z 0.389620 -0.190460 3.964800 
# 
# 
# High freq. dielectric constant tensor:
#      x y z
#    x 1.713310 0.008530 0.049540 
#    y 0.008530 1.797640 -0.004170 
#    z 0.049540 -0.004170 1.785470 
# 
# From -- ./inp_files/451551.got.cif
#   From: 2010.06.25/outbox.cif.g09.slc.cpg/sg2_226_cif.got.tgz:451551.got - 2010.06.27 13:26:56.
