data_PCOD8041373
_publ_section_title
;
Structure prediction by ZEFSAII (Michael W. Deem and Ramdas Pophale) SiO2 
 PCOD8041373
Probable space group: P -1
;
_chemical_formula_sum "Si O2"
_cell_formula_units_Z 14
_cell_length_a 12.068178
_cell_length_b 9.851696
_cell_length_c 9.423624
_cell_angle_alpha 131.891577
_cell_angle_beta 50.407729
_cell_angle_gamma 105.663135
_cell_volume 618.617515
_symmetry_space_group_name_H-M "P -1"
_symmetry_group_IT_number 2
_symmetry_cell_setting 'triclinic'
loop_
_space_group_symop_operation_xyz
x,y,z
-x,-y,-z
loop_
_atom_site_type_symbol
_atom_site_label
_atom_site_fract_x
_atom_site_fract_y
_atom_site_fract_z
Si Si1 0.147330 0.657704 0.842791
Si Si2 0.640533 0.127627 0.055511
Si Si3 0.180523 0.209854 0.828550
Si Si4 0.502871 0.854093 0.521961
Si Si5 0.321777 0.275113 0.321548
Si Si6 0.759432 0.221894 0.439243
Si Si7 0.171066 0.443992 0.279932
O O1 0.233777 0.760108 0.953279
O O2 0.224229 0.432219 0.618349
O O3 0.138644 0.749657 0.757249
O O4 0.974538 0.693264 0.057923
O O5 0.588491 0.060820 0.203142
O O6 0.496622 0.265259 0.192501
O O7 0.703464 0.934266 0.777829
O O8 0.323179 0.232257 0.635362
O O9 0.188505 0.992176 0.699798
O O10 0.198829 0.316388 0.031219
O O11 0.413572 0.712298 0.429003
O O12 0.500000 0.000000 0.500000
O O13 0.276165 0.330940 0.237694
O O14 0.781650 0.359514 0.644417
O O15 0.000000 0.500000 0.500000
#
# Coordination Sequence:
#
# PCOD8041373 Si02
#       7
#     2   2   2   2   2   2   2
#     4  10  19  32  55  82 106 137 184 226 266 314
#     4  10  21  37  58  76 108 147 183 219 267 325
#     4  11  20  33  55  84 114 138 176 228 276 312
#     4   9  19  36  54  80 110 147 180 214 272 330
#     4  10  20  35  56  82 105 142 184 227 264 310
#     4   9  19  32  52  80 110 146 173 219 273 314
#     4  11  20  32  56  86 110 130 184 233 261 318
#
# _framework density 22.63111
#
# number of rings (size 3 to 8) (size 9 to 14) (size 15 to 20)
#    0.000    2.000    2.857    3.429    2.000    0.571 
#    0.000    5.000    0.000    3.429    0.000    0.000 
#    0.000    0.000    0.000    0.000    0.000    0.000 
#
# Total GULP energy -173456.059660 kJ/mol
# GULP energy per Si atom -12389.718547 kJ/mol
# Density = 2.257960 g / cm^3
# Si number density = 22.631110 Si / 1000 Ang^3
#
#
#
# Elastic Constant Matrix: (Units=GPa)
#
#
# Indices 1 2 3 4 5 6 
#
# 1 152.6350 30.7573 51.0129 19.4179 -19.7266 41.0345
# 2 30.7573 42.9985 41.1768 13.5575 -3.9390 23.4611
# 3 51.0129 41.1768 110.7139 34.3956 -23.8570 35.9307
# 4 19.4179 13.5575 34.3956 40.2600 10.3097 4.0089
# 5 -19.7266 -3.9390 -23.8570 10.3097 35.3898 -0.1084
# 6 41.0345 23.4611 35.9307 4.0089 -0.1084 44.6698
#
#
#
# Elastic Compliance Matrix: (Units=1/GPa)
#
#
# Indices 1 2 3 4 5 6 
#
# 1 0.012574 -0.002134 0.008769 -0.015643 0.017191 -0.016038
# 2 -0.002134 0.041577 -0.011913 -0.000637 -0.004438 -0.010248
# 3 0.008769 -0.011913 0.046496 -0.049059 0.049091 -0.034676
# 4 -0.015643 -0.000637 -0.049059 0.087093 -0.067093 0.046187
# 5 0.017191 -0.004438 0.049091 -0.067093 0.089841 -0.046709
# 6 -0.016038 -0.010248 -0.034676 0.046187 -0.046709 0.066135
#
#
# Mechanical properties :
#
#
# Convention : Reuss Voigt Hill
#
# Bulk Modulus (GPa) = 11.09983 61.36014 36.22998
# Shear Modulus (GPa) = 13.01061 36.29063 24.65062
#
# Velocity S-wave (km/s) = 2.40031 4.00881 3.30394
# Velocity P-wave (km/s) = 3.54927 6.97133 5.53158
#
# Compressibility (1/GPa) = 0.09009151
#
# Stress axis : x y z
#
# Youngs Moduli (GPa) = 79.52681 24.05187 21.50733
#
# Poissons Ratio (x) = 0.05133 -0.18860
# Poissons Ratio (y) = 0.16973 0.25621
# Poissons Ratio (z) = -0.69738 0.28652
#
# Static dielectric constant tensor:
#      x y z
#    x 4.575850 0.500280 0.046450 
#    y 0.500280 4.056670 0.002830 
#    z 0.046450 0.002830 5.019290 
# 
# 
# High freq. dielectric constant tensor:
#      x y z
#    x 1.912690 0.025060 -0.009050 
#    y 0.025060 1.860930 0.020350 
#    z -0.009050 0.020350 1.882190 
# 
# From -- ./inp_files/383374.got.cif
#   From: 2010.06.25/outbox.cif.g09.slc.cpg/sg2_192_cif.got.tgz:383374.got - 2010.06.27 13:26:56.
