data_PCOD8041182
_publ_section_title
;
Structure prediction by ZEFSAII (Michael W. Deem and Ramdas Pophale) SiO2 
 PCOD8041182
Probable space group: P -1
;
_chemical_formula_sum "Si O2"
_cell_formula_units_Z 14
_cell_length_a 11.478445
_cell_length_b 12.008276
_cell_length_c 5.054135
_cell_angle_alpha 74.954443
_cell_angle_beta 92.366854
_cell_angle_gamma 54.952463
_cell_volume 534.569733
_symmetry_space_group_name_H-M "P -1"
_symmetry_group_IT_number 2
_symmetry_cell_setting 'triclinic'
loop_
_space_group_symop_operation_xyz
x,y,z
-x,-y,-z
loop_
_atom_site_type_symbol
_atom_site_label
_atom_site_fract_x
_atom_site_fract_y
_atom_site_fract_z
Si Si1 0.083716 0.504473 0.252114
Si Si2 0.272985 0.794657 0.945350
Si Si3 0.023940 0.776792 0.906077
Si Si4 0.435498 0.646073 0.552649
Si Si5 0.599624 0.777159 0.482161
Si Si6 0.123548 0.218329 0.630828
Si Si7 0.421212 0.942660 0.848648
O O1 0.221017 0.338058 0.444002
O O2 0.969928 0.605509 0.428596
O O3 0.000000 0.500000 0.000000
O O4 0.134029 0.602653 0.093481
O O5 0.375916 0.657500 0.837303
O O6 0.307010 0.906515 0.804088
O O7 0.107958 0.848332 0.850717
O O8 0.301766 0.764101 0.278159
O O9 0.938399 0.808138 0.610473
O O10 0.901029 0.853426 0.078805
O O11 0.500000 0.500000 0.500000
O O12 0.561067 0.666061 0.551301
O O13 0.549810 0.867026 0.693278
O O14 0.502135 0.896820 0.165606
O O15 0.305234 0.121657 0.688471
#
# Coordination Sequence:
#
# PCOD8041182 Si02
#       7
#     2   2   2   2   2   2   2
#     4  10  25  45  66  91 119 159 210 261 309 356
#     4  10  20  33  55  91 121 162 195 243 288 367
#     4  10  22  37  64  90 124 160 208 244 306 353
#     4  10  19  31  53  84 126 157 200 238 300 351
#     4  10  22  38  64  89 122 162 203 252 301 361
#     4  10  23  41  64  87 130 160 202 252 303 364
#     4  10  22  41  61  94 129 161 198 244 305 366
#
# _framework density 26.189287
#
# number of rings (size 3 to 8) (size 9 to 14) (size 15 to 20)
#    0.857    1.143    0.000    3.000    4.000    2.857 
#    0.000    1.429    0.000    0.000    0.000    0.000 
#    0.000    0.000    0.000    0.000    0.000    0.000 
#
# Total GULP energy -173540.313901 kJ/mol
# GULP energy per Si atom -12395.736707 kJ/mol
# Density = 2.612968 g / cm^3
# Si number density = 26.189287 Si / 1000 Ang^3
#
#
#
# Elastic Constant Matrix: (Units=GPa)
#
#
# Indices 1 2 3 4 5 6 
#
# 1 158.3325 63.1034 61.3639 -3.1012 24.0581 -17.2878
# 2 63.1034 126.7037 70.2698 -6.1354 10.0641 -21.7972
# 3 61.3639 70.2698 160.2397 28.5329 17.1765 -21.9121
# 4 -3.1012 -6.1354 28.5329 40.0985 -5.6393 -4.3926
# 5 24.0581 10.0641 17.1765 -5.6393 40.8086 2.4245
# 6 -17.2878 -21.7972 -21.9121 -4.3926 2.4245 40.9760
#
#
#
# Elastic Compliance Matrix: (Units=1/GPa)
#
#
# Indices 1 2 3 4 5 6 
#
# 1 0.008890 -0.002821 -0.001742 0.001150 -0.003752 0.001663
# 2 -0.002821 0.013110 -0.005457 0.006244 0.001384 0.003453
# 3 -0.001742 -0.005457 0.011697 -0.009655 -0.003992 0.001818
# 4 0.001150 0.006244 -0.009655 0.033965 0.006426 0.001904
# 5 -0.003752 0.001384 -0.003992 0.006426 0.029182 -0.004019
# 6 0.001663 0.003453 0.001818 0.001904 -0.004019 0.028357
#
#
# Mechanical properties :
#
#
# Convention : Reuss Voigt Hill
#
# Bulk Modulus (GPa) = 73.22905 92.74999 82.98952
# Shear Modulus (GPa) = 33.37908 41.07921 37.22914
#
# Velocity S-wave (km/s) = 3.57393 3.96479 3.77442
# Velocity P-wave (km/s) = 6.71214 7.51342 7.12406
#
# Compressibility (1/GPa) = 0.01365578
#
# Stress axis : x y z
#
# Youngs Moduli (GPa) = 112.48993 76.27593 85.49449
#
# Poissons Ratio (x) = 0.21520 0.14896
# Poissons Ratio (y) = 0.31737 0.46653
# Poissons Ratio (z) = 0.19599 0.41622
#
# Static dielectric constant tensor:
#      x y z
#    x 3.640820 -0.417870 4.200200 
#    y -0.417870 4.870550 1.639300 
#    z 4.200200 1.639300 -7.549530 
# 
# 
# High freq. dielectric constant tensor:
#      x y z
#    x 2.095120 0.017740 -0.009550 
#    y 0.017740 2.063940 0.004240 
#    z -0.009550 0.004240 2.058350 
# 
# From -- ./inp_files/77899.got.cif
#   From: 2010.06.25/outbox.cif.g09.slc.cpg/sg2_39_cif.got.tgz:77899.got - 2010.06.27 13:26:56.
