data_PCOD8041916
_publ_section_title
;
Structure prediction by ZEFSAII (Michael W. Deem and Ramdas Pophale) SiO2 
 PCOD8041916
Probable space group: P -1
;
_chemical_formula_sum "Si O2"
_cell_formula_units_Z 16
_cell_length_a 9.942065
_cell_length_b 11.372643
_cell_length_c 10.069932
_cell_angle_alpha 94.149484
_cell_angle_beta 135.824655
_cell_angle_gamma 85.475688
_cell_volume 790.752188
_symmetry_space_group_name_H-M "P -1"
_symmetry_group_IT_number 2
_symmetry_cell_setting 'triclinic'
loop_
_space_group_symop_operation_xyz
x,y,z
-x,-y,-z
loop_
_atom_site_type_symbol
_atom_site_label
_atom_site_fract_x
_atom_site_fract_y
_atom_site_fract_z
Si Si1 0.299690 0.374560 0.433081
Si Si2 0.883539 0.488704 0.188766
Si Si3 0.681309 0.849705 0.411011
Si Si4 0.957496 0.742874 0.374318
Si Si5 0.003225 0.984870 0.342437
Si Si6 0.609637 0.093463 0.997829
Si Si7 0.607200 0.546141 0.778763
Si Si8 0.334343 0.677053 0.792398
O O1 0.347014 0.239325 0.494852
O O2 0.454293 0.451566 0.622299
O O3 0.316731 0.384220 0.288197
O O4 0.085681 0.415491 0.331811
O O5 0.911865 0.623500 0.258290
O O6 0.736267 0.434382 0.184018
O O7 0.791549 0.482164 0.976168
O O8 0.792115 0.779306 0.365064
O O9 0.477836 0.901631 0.212705
O O10 0.797412 0.960123 0.559832
O O11 0.160898 0.733972 0.590579
O O12 0.982252 0.845452 0.288551
O O13 0.835024 0.057196 0.150934
O O14 0.000000 0.000000 0.500000
O O15 0.579368 0.224737 0.044367
O O16 0.500000 0.000000 0.000000
O O17 0.509915 0.638543 0.818812
#
# Coordination Sequence:
#
# PCOD8041916 Si02
#       8
#     2   2   2   2   2   2   2   2
#     4  11  23  42  59  83 122 160 194 236 294 352
#     4  12  22  39  62  88 117 155 195 243 295 345
#     4  11  20  36  59  85 115 156 193 240 290 347
#     4  11  19  34  59  86 119 148 186 246 295 333
#     4  10  19  34  53  90 116 148 189 239 291 341
#     4  12  20  33  60  90 118 149 189 246 297 339
#     4  11  25  38  57  90 120 156 196 237 292 358
#     4  12  21  37  60  92 121 148 194 247 294 341
#
# _framework density 20.233898
#
# number of rings (size 3 to 8) (size 9 to 14) (size 15 to 20)
#    0.000    0.750    7.500    3.375    0.000    0.000 
#    0.000    0.000    0.000    3.750    0.000    0.000 
#    0.000    0.000    0.000    0.000    0.000    0.000 
#
# Total GULP energy -198419.277266 kJ/mol
# GULP energy per Si atom -12401.204829 kJ/mol
# Density = 2.018784 g / cm^3
# Si number density = 20.233898 Si / 1000 Ang^3
#
#
#
# Elastic Constant Matrix: (Units=GPa)
#
#
# Indices 1 2 3 4 5 6 
#
# 1 52.6284 29.4200 22.7263 0.2437 -3.1131 12.9465
# 2 29.4200 128.0187 33.1665 -3.6757 -2.7057 18.6854
# 3 22.7263 33.1665 105.8690 -13.9922 15.0474 4.6364
# 4 0.2437 -3.6757 -13.9922 33.8868 4.7487 -0.5598
# 5 -3.1131 -2.7057 15.0474 4.7487 23.3195 -3.0493
# 6 12.9465 18.6854 4.6364 -0.5598 -3.0493 19.0219
#
#
#
# Elastic Compliance Matrix: (Units=1/GPa)
#
#
# Indices 1 2 3 4 5 6 
#
# 1 0.026561 -0.002703 -0.005627 -0.003856 0.005920 -0.013216
# 2 -0.002703 0.010184 -0.002548 -0.000268 0.001565 -0.007300
# 3 -0.005627 -0.002548 0.013946 0.007131 -0.011324 0.001329
# 4 -0.003856 -0.000268 0.007131 0.034149 -0.012073 0.000219
# 5 0.005920 0.001565 -0.011324 -0.012073 0.054346 0.005550
# 6 -0.013216 -0.007300 0.001329 0.000219 0.005550 0.069308
#
#
# Mechanical properties :
#
#
# Convention : Reuss Voigt Hill
#
# Bulk Modulus (GPa) = 34.56183 50.79352 42.67768
# Shear Modulus (GPa) = 20.84247 28.65920 24.75083
#
# Velocity S-wave (km/s) = 3.21296 3.76759 3.50127
# Velocity P-wave (km/s) = 5.55719 6.63957 6.12235
#
# Compressibility (1/GPa) = 0.02893365
#
# Stress axis : x y z
#
# Youngs Moduli (GPa) = 37.64897 98.19789 71.70609
#
# Poissons Ratio (x) = 0.26540 0.40352
# Poissons Ratio (y) = 0.10176 0.18273
# Poissons Ratio (z) = 0.21186 0.25024
#
# Static dielectric constant tensor:
#      x y z
#    x 3.396390 0.239000 0.288290 
#    y 0.239000 4.065310 -0.152240 
#    z 0.288290 -0.152240 4.014700 
# 
# 
# High freq. dielectric constant tensor:
#      x y z
#    x 1.746790 0.022170 0.027850 
#    y 0.022170 1.802300 -0.008440 
#    z 0.027850 -0.008440 1.807400 
# 
# From -- ./inp_files/188023.got.cif
#   From: 2010.06.25/outbox.cif.g09.slc.cpg/sg2_95_cif.got.tgz:188023.got - 2010.06.27 13:26:56.
