data_PCOD8041083
_publ_section_title
;
Structure prediction by ZEFSAII (Michael W. Deem and Ramdas Pophale) SiO2 
 PCOD8041083
Probable space group: P -1
;
_chemical_formula_sum "Si O2"
_cell_formula_units_Z 12
_cell_length_a 4.893342
_cell_length_b 11.747339
_cell_length_c 15.425627
_cell_angle_alpha 129.859836
_cell_angle_beta 98.831588
_cell_angle_gamma 65.424420
_cell_volume 610.836075
_symmetry_space_group_name_H-M "P -1"
_symmetry_group_IT_number 2
_symmetry_cell_setting 'triclinic'
loop_
_space_group_symop_operation_xyz
x,y,z
-x,-y,-z
loop_
_atom_site_type_symbol
_atom_site_label
_atom_site_fract_x
_atom_site_fract_y
_atom_site_fract_z
Si Si1 0.516909 0.944833 0.272992
Si Si2 0.236175 0.063459 0.140243
Si Si3 0.422291 0.791281 0.880798
Si Si4 0.247759 0.417563 0.898817
Si Si5 0.883319 0.088094 0.627068
Si Si6 0.332961 0.545634 0.191223
O O1 0.545238 0.768361 0.156890
O O2 0.843742 0.941253 0.306955
O O3 0.317392 0.993300 0.375137
O O4 0.353404 0.064576 0.244102
O O5 0.303841 0.195170 0.151938
O O6 0.874343 0.123103 0.151695
O O7 0.390256 0.883737 0.016334
O O8 0.489579 0.602558 0.807390
O O9 0.016901 0.429744 0.814695
O O10 0.521692 0.502941 0.085541
O O11 0.000000 0.500000 0.000000
O O12 0.674372 0.281099 0.693425
O O13 0.000000 0.000000 0.500000
#
# Coordination Sequence:
#
# PCOD8041083 Si02
#       6
#     2   2   2   2   2   2
#     4  10  20  34  54  78 103 134 173 213 259 310
#     4  10  20  33  51  76 107 142 170 199 244 306
#     4  10  20  33  51  75 108 143 170 198 242 307
#     4  10  19  30  49  76 105 131 162 210 259 309
#     4  10  21  37  57  77  99 132 174 226 272 300
#     4  10  20  33  51  75 101 135 172 208 256 307
#
# _framework density 19.645205000000001
#
# number of rings (size 3 to 8) (size 9 to 14) (size 15 to 20)
#    0.000    2.000    0.000    4.000    0.000    5.333 
#    0.000    0.000    0.000    6.000    0.000    0.000 
#    0.000    0.000    0.000    0.000    0.000    0.000 
#
# Total GULP energy -148734.464344 kJ/mol
# GULP energy per Si atom -12394.538695 kJ/mol
# Density = 1.960049 g / cm^3
# Si number density = 19.645205 Si / 1000 Ang^3
#
#
#
# Elastic Constant Matrix: (Units=GPa)
#
#
# Indices 1 2 3 4 5 6 
#
# 1 86.8280 11.5041 -2.1665 2.1500 -10.7973 4.7928
# 2 11.5041 96.7516 35.4280 -0.5325 -3.2265 3.5162
# 3 -2.1665 35.4280 61.6894 -3.5052 -20.5327 4.7549
# 4 2.1500 -0.5325 -3.5052 17.0502 0.5666 5.5290
# 5 -10.7973 -3.2265 -20.5327 0.5666 26.6163 -2.2284
# 6 4.7928 3.5162 4.7549 5.5290 -2.2284 21.1690
#
#
#
# Elastic Compliance Matrix: (Units=1/GPa)
#
#
# Indices 1 2 3 4 5 6 
#
# 1 0.013366 -0.003219 0.005552 -0.000048 0.009084 -0.002770
# 2 -0.003219 0.014567 -0.011311 -0.001297 -0.008211 0.000324
# 3 0.005552 -0.011311 0.032018 0.006530 0.024969 -0.005647
# 4 -0.000048 -0.001297 0.006530 0.065804 0.001935 -0.018224
# 5 0.009084 -0.008211 0.024969 0.001935 0.059436 -0.000550
# 6 -0.002770 0.000324 -0.005647 -0.018224 -0.000550 0.053783
#
#
# Mechanical properties :
#
#
# Convention : Reuss Voigt Hill
#
# Bulk Modulus (GPa) = 23.81125 37.20004 30.50565
# Shear Modulus (GPa) = 18.45516 26.33397 22.39457
#
# Velocity S-wave (km/s) = 3.06833 3.66523 3.37998
# Velocity P-wave (km/s) = 4.96989 6.07362 5.54927
#
# Compressibility (1/GPa) = 0.04199696
#
# Stress axis : x y z
#
# Youngs Moduli (GPa) = 74.81775 68.64635 31.23245
#
# Poissons Ratio (x) = 0.22098 -0.17342
# Poissons Ratio (y) = 0.24084 0.35326
# Poissons Ratio (z) = -0.41542 0.77643
#
# Static dielectric constant tensor:
#      x y z
#    x 6.641060 0.019280 0.461530 
#    y 0.019280 3.333410 0.025680 
#    z 0.461530 0.025680 3.287950 
# 
# 
# High freq. dielectric constant tensor:
#      x y z
#    x 1.794100 -0.000770 -0.007590 
#    y -0.000770 1.752540 -0.004320 
#    z -0.007590 -0.004320 1.717380 
# 
# From -- ./inp_files/108272.got.cif
#   From: 2010.06.25/outbox.cif.g09.slc.cpg/sg2_55_cif.got.tgz:108272.got - 2010.06.27 13:26:56.
