data_PCOD8041951
_publ_section_title
;
Structure prediction by ZEFSAII (Michael W. Deem and Ramdas Pophale) SiO2 
 PCOD8041951
Probable space group: P -1
;
_chemical_formula_sum "Si O2"
_cell_formula_units_Z 16
_cell_length_a 9.119083
_cell_length_b 9.447797
_cell_length_c 18.606357
_cell_angle_alpha 65.704554
_cell_angle_beta 67.347094
_cell_angle_gamma 30.769757
_cell_volume 745.743743
_symmetry_space_group_name_H-M "P -1"
_symmetry_group_IT_number 2
_symmetry_cell_setting 'triclinic'
loop_
_space_group_symop_operation_xyz
x,y,z
-x,-y,-z
loop_
_atom_site_type_symbol
_atom_site_label
_atom_site_fract_x
_atom_site_fract_y
_atom_site_fract_z
Si Si1 0.765133 0.498953 0.597434
Si Si2 0.241586 0.681039 0.931708
Si Si3 0.870445 0.268116 0.907486
Si Si4 0.923959 0.789561 0.260047
Si Si5 0.524768 0.567828 0.310117
Si Si6 0.785561 0.824559 0.533713
Si Si7 0.657254 0.708998 0.373501
Si Si8 0.027339 0.907398 0.779617
O O1 0.551024 0.532001 0.613620
O O2 0.641363 0.774482 0.546261
O O3 0.823337 0.450417 0.681236
O O4 0.062542 0.225383 0.554719
O O5 0.581974 0.409653 0.908510
O O6 0.065468 0.774749 0.873439
O O7 0.171861 0.626164 0.025737
O O8 0.141969 0.931637 0.925682
O O9 0.942634 0.339367 0.818607
O O10 0.667426 0.873978 0.302516
O O11 0.817105 0.053691 0.239871
O O12 0.541054 0.686913 0.340980
O O13 0.829400 0.297557 0.271019
O O14 0.301143 0.797280 0.241897
O O15 0.029900 0.593593 0.595287
O O16 0.556541 0.123591 0.552577
#
# Coordination Sequence:
#
# PCOD8041951 Si02
#       8
#     2   2   2   2   2   2   2   2
#     4   9  20  36  57  78 102 134 176 216 258 309
#     4   9  16  29  49  78 107 130 165 212 255 296
#     4   9  17  28  49  79 106 130 164 212 257 296
#     4   9  19  35  56  78 104 136 174 213 255 308
#     4  11  22  35  54  78 104 138 174 214 258 305
#     4  10  22  38  55  76 103 137 173 216 262 308
#     4  11  23  37  53  76 107 138 172 214 262 308
#     4  10  19  34  55  77 103 136 174 211 253 304
#
# _framework density 21.455088
#
# number of rings (size 3 to 8) (size 9 to 14) (size 15 to 20)
#    0.000    2.250    0.000    3.750    0.000   10.500 
#    0.000    0.000    0.000    1.500    0.000    0.000 
#    0.000    0.000    0.000    0.000    0.000    0.000 
#
# Total GULP energy -198276.657452 kJ/mol
# GULP energy per Si atom -12392.291091 kJ/mol
# Density = 2.140626 g / cm^3
# Si number density = 21.455088 Si / 1000 Ang^3
#
#
#
# Elastic Constant Matrix: (Units=GPa)
#
#
# Indices 1 2 3 4 5 6 
#
# 1 92.9327 12.8483 24.3796 -0.4730 10.6215 14.5740
# 2 12.8483 62.1869 1.6212 9.1038 0.4610 5.0704
# 3 24.3796 1.6212 115.2641 12.7492 13.8886 9.4224
# 4 -0.4730 9.1038 12.7492 27.3317 -2.8400 6.1021
# 5 10.6215 0.4610 13.8886 -2.8400 21.4149 2.8855
# 6 14.5740 5.0704 9.4224 6.1021 2.8855 24.0478
#
#
#
# Elastic Compliance Matrix: (Units=1/GPa)
#
#
# Indices 1 2 3 4 5 6 
#
# 1 0.013207 -0.002546 -0.002087 0.003225 -0.003770 -0.007016
# 2 -0.002546 0.017577 0.001129 -0.006271 -0.000552 -0.000948
# 3 -0.002087 0.001129 0.010604 -0.005844 -0.006526 -0.000862
# 4 0.003225 -0.006271 -0.005844 0.044907 0.009751 -0.010907
# 5 -0.003770 -0.000552 -0.006526 0.009751 0.054652 -0.004074
# 6 -0.007016 -0.000948 -0.000862 -0.010907 -0.004074 0.049630
#
#
# Mechanical properties :
#
#
# Convention : Reuss Voigt Hill
#
# Bulk Modulus (GPa) = 29.08660 38.67576 33.88118
# Shear Modulus (GPa) = 23.91820 29.99454 26.95637
#
# Velocity S-wave (km/s) = 3.34249 3.74306 3.54843
# Velocity P-wave (km/s) = 5.33692 6.06186 5.71091
#
# Compressibility (1/GPa) = 0.03438009
#
# Stress axis : x y z
#
# Youngs Moduli (GPa) = 75.71514 56.89373 94.30024
#
# Poissons Ratio (x) = 0.14488 0.19677
# Poissons Ratio (y) = 0.19281 -0.10646
# Poissons Ratio (z) = 0.15799 -0.06423
#
# Static dielectric constant tensor:
#      x y z
#    x 3.555670 -0.055280 0.122110 
#    y -0.055280 3.736980 0.017700 
#    z 0.122110 0.017700 4.531840 
# 
# 
# High freq. dielectric constant tensor:
#      x y z
#    x 1.789190 -0.017080 0.030510 
#    y -0.017080 1.844230 0.007190 
#    z 0.030510 0.007190 1.858530 
# 
# From -- ./inp_files/42232.got.cif
#   From: 2010.06.25/outbox.cif.g09.slc.cpg/sg2_22_cif.got.tgz:42232.got - 2010.06.27 13:26:56.
