data_PCOD8041029
_publ_section_title
;
Structure prediction by ZEFSAII (Michael W. Deem and Ramdas Pophale) SiO2 
 PCOD8041029
Probable space group: P -1
;
_chemical_formula_sum "Si O2"
_cell_formula_units_Z 14
_cell_length_a 14.883919
_cell_length_b 15.830603
_cell_length_c 16.376971
_cell_angle_alpha 17.764581
_cell_angle_beta 43.126740
_cell_angle_gamma 39.542496
_cell_volume 749.345999
_symmetry_space_group_name_H-M "P -1"
_symmetry_group_IT_number 2
_symmetry_cell_setting 'triclinic'
loop_
_space_group_symop_operation_xyz
x,y,z
-x,-y,-z
loop_
_atom_site_type_symbol
_atom_site_label
_atom_site_fract_x
_atom_site_fract_y
_atom_site_fract_z
Si Si1 0.195262 0.062000 0.505045
Si Si2 0.933304 0.402927 0.012483
Si Si3 0.782790 0.649396 0.052955
Si Si4 0.557802 0.334912 0.982710
Si Si5 0.625592 0.132028 0.290365
Si Si6 0.594702 0.304531 0.546519
Si Si7 0.507328 0.211828 0.520410
O O1 0.125859 0.396869 0.211947
O O2 0.237291 0.078658 0.557052
O O3 0.333321 0.864370 0.545001
O O4 0.080130 0.911565 0.706317
O O5 0.097624 0.340652 0.973216
O O6 0.843925 0.575434 0.990022
O O7 0.726966 0.398701 0.352289
O O8 0.654141 0.963153 0.849106
O O9 0.422632 0.544249 0.931883
O O10 0.598278 0.541925 0.699123
O O11 0.670248 0.168441 0.133095
O O12 0.524645 0.088050 0.180086
O O13 0.500000 0.000000 0.500000
O O14 0.500000 0.500000 0.500000
O O15 0.493426 0.345027 0.497551
#
# Coordination Sequence:
#
# PCOD8041029 Si02
#       7
#     2   2   2   2   2   2   2
#     4  11  19  30  50  76 109 144 176 203 261 327
#     4  11  21  34  54  77 105 149 178 213 258 328
#     4  11  22  38  54  76 107 139 187 221 264 314
#     4  10  19  29  44  68 104 145 166 204 257 320
#     4  10  19  27  45  73 108 143 168 206 256 318
#     4  12  24  38  57  79 106 141 185 232 267 301
#     4  11  19  32  49  70 106 140 174 210 259 320
#
# _framework density 18.682957999999999
#
# number of rings (size 3 to 8) (size 9 to 14) (size 15 to 20)
#    0.000    1.143    5.714    3.857    2.000    2.286 
#    0.000    0.000    0.000    0.000    0.000    0.000 
#    0.000   22.857    0.000    0.000    0.000    0.000 
#
# Total GULP energy -173543.886625 kJ/mol
# GULP energy per Si atom -12395.991902 kJ/mol
# Density = 1.864043 g / cm^3
# Si number density = 18.682958 Si / 1000 Ang^3
#
#
#
# Elastic Constant Matrix: (Units=GPa)
#
#
# Indices 1 2 3 4 5 6 
#
# 1 92.8121 19.5148 14.6117 3.6974 15.5683 12.7861
# 2 19.5148 44.0460 4.7959 -1.6016 5.3129 14.8648
# 3 14.6117 4.7959 79.8078 -7.0190 4.3167 4.2178
# 4 3.6974 -1.6016 -7.0190 8.8838 4.1922 -0.9997
# 5 15.5683 5.3129 4.3167 4.1922 43.8708 -0.5326
# 6 12.7861 14.8648 4.2178 -0.9997 -0.5326 19.8506
#
#
#
# Elastic Compliance Matrix: (Units=1/GPa)
#
#
# Indices 1 2 3 4 5 6 
#
# 1 0.013618 -0.003564 -0.002402 -0.007214 -0.003549 -0.006051
# 2 -0.003564 0.032242 0.000687 0.007116 -0.003651 -0.021734
# 3 -0.002402 0.000687 0.014260 0.013133 -0.001906 -0.001387
# 4 -0.007214 0.007116 0.013133 0.133359 -0.012302 0.002913
# 5 -0.003549 -0.003651 -0.001906 -0.012302 0.025926 0.005501
# 6 -0.006051 -0.021734 -0.001387 0.002913 0.005501 0.071138
#
#
# Mechanical properties :
#
#
# Convention : Reuss Voigt Hill
#
# Bulk Modulus (GPa) = 20.17682 32.72340 26.45011
# Shear Modulus (GPa) = 15.74200 26.37060 21.05630
#
# Velocity S-wave (km/s) = 2.90588 3.76104 3.36077
# Velocity P-wave (km/s) = 4.69914 6.03438 5.40812
#
# Compressibility (1/GPa) = 0.04956183
#
# Stress axis : x y z
#
# Youngs Moduli (GPa) = 73.43066 31.01560 70.12616
#
# Poissons Ratio (x) = 0.11055 0.16844
# Poissons Ratio (y) = 0.26173 -0.04818
# Poissons Ratio (z) = 0.17637 -0.02131
#
# Static dielectric constant tensor:
#      x y z
#    x 3.844730 0.227270 0.259260 
#    y 0.227270 2.784730 -0.069550 
#    z 0.259260 -0.069550 3.740460 
# 
# 
# High freq. dielectric constant tensor:
#      x y z
#    x 1.740490 0.028520 0.010790 
#    y 0.028520 1.637010 -0.018010 
#    z 0.010790 -0.018010 1.751340 
# 
# From -- ./inp_files/108896.got.cif
#   From: 2010.06.25/outbox.cif.g09.slc.cpg/sg2_55_cif.got.tgz:108896.got - 2010.06.27 13:26:56.
