data_PCOD8041232
_publ_section_title
;
Structure prediction by ZEFSAII (Michael W. Deem and Ramdas Pophale) SiO2 
 PCOD8041232
Probable space group: P -1
;
_chemical_formula_sum "Si O2"
_cell_formula_units_Z 10
_cell_length_a 9.374921
_cell_length_b 11.744485
_cell_length_c 13.852025
_cell_angle_alpha 148.440820
_cell_angle_beta 45.024960
_cell_angle_gamma 131.004000
_cell_volume 558.679451
_symmetry_space_group_name_H-M "P -1"
_symmetry_group_IT_number 2
_symmetry_cell_setting 'triclinic'
loop_
_space_group_symop_operation_xyz
x,y,z
-x,-y,-z
loop_
_atom_site_type_symbol
_atom_site_label
_atom_site_fract_x
_atom_site_fract_y
_atom_site_fract_z
Si Si1 0.171339 0.912341 0.916256
Si Si2 0.498623 0.194395 0.066242
Si Si3 0.116823 0.220949 0.651302
Si Si4 0.549265 0.403513 0.508994
Si Si5 0.939355 0.304026 0.985482
O O1 0.080430 0.840894 0.013297
O O2 0.368115 0.101945 0.968949
O O3 0.250595 0.713656 0.678443
O O4 0.000000 0.000000 0.000000
O O5 0.389164 0.392489 0.302007
O O6 0.736051 0.281552 0.998144
O O7 0.500000 0.000000 0.000000
O O8 0.353082 0.238263 0.520405
O O9 0.104754 0.218708 0.773494
O O10 0.019132 0.437028 0.818276
O O11 0.000000 0.000000 0.500000
O O12 0.500000 0.500000 0.500000
#
# Coordination Sequence:
#
# PCOD8041232 Si02
#       5
#     2   2   2   2   2
#     4  11  22  35  55  84 116 147 181 229 279 323
#     4   9  17  32  57  77 109 140 182 228 269 313
#     4  10  19  31  58  84 107 137 187 232 271 312
#     4  11  19  35  57  84 106 145 191 224 266 334
#     4   9  19  34  53  84 108 139 186 228 268 330
#
# _framework density 17.899350999999999
#
# number of rings (size 3 to 8) (size 9 to 14) (size 15 to 20)
#    0.000    2.000    6.000    1.200    2.800    0.800 
#    0.000    1.000    0.000   16.800    0.000    0.000 
#    0.000    0.000    0.000    0.000    0.000    0.000 
#
# Total GULP energy -123900.208169 kJ/mol
# GULP energy per Si atom -12390.020817 kJ/mol
# Density = 1.785861 g / cm^3
# Si number density = 17.899351 Si / 1000 Ang^3
#
#
#
# Elastic Constant Matrix: (Units=GPa)
#
#
# Indices 1 2 3 4 5 6 
#
# 1 90.2973 34.1564 44.2062 6.7923 -12.7134 1.8016
# 2 34.1564 93.8737 43.5464 -5.1144 2.5820 -1.2280
# 3 44.2062 43.5464 115.2329 0.8314 -4.5873 -0.2615
# 4 6.7923 -5.1144 0.8314 37.7987 6.4144 13.0011
# 5 -12.7134 2.5820 -4.5873 6.4144 28.3547 4.4856
# 6 1.8016 -1.2280 -0.2615 13.0011 4.4856 23.0259
#
#
#
# Elastic Compliance Matrix: (Units=1/GPa)
#
#
# Indices 1 2 3 4 5 6 
#
# 1 0.016349 -0.004476 -0.004222 -0.004658 0.008193 -0.000532
# 2 -0.004476 0.014450 -0.003961 0.003683 -0.004786 -0.000072
# 3 -0.004222 -0.003961 0.011812 -0.000202 0.000378 0.000294
# 4 -0.004658 0.003683 -0.000202 0.035225 -0.007602 -0.017850
# 5 0.008193 -0.004786 0.000378 -0.007602 0.041911 -0.004764
# 6 -0.000532 -0.000072 0.000294 -0.017850 -0.004764 0.054477
#
#
# Mechanical properties :
#
#
# Convention : Reuss Voigt Hill
#
# Bulk Modulus (GPa) = 57.82652 60.35801 59.09226
# Shear Modulus (GPa) = 24.35387 29.66887 27.01137
#
# Velocity S-wave (km/s) = 3.69263 4.07570 3.88889
# Velocity P-wave (km/s) = 7.11037 7.47947 7.29725
#
# Compressibility (1/GPa) = 0.01729311
#
# Stress axis : x y z
#
# Youngs Moduli (GPa) = 61.16533 69.20418 84.66293
#
# Poissons Ratio (x) = 0.30978 0.35743
# Poissons Ratio (y) = 0.27380 0.33532
# Poissons Ratio (z) = 0.25823 0.27409
#
# Static dielectric constant tensor:
#      x y z
#    x -12.724570 -8.683920 -26.102320 
#    y -8.683920 -1.440570 -15.160480 
#    z -26.102320 -15.160480 -40.342010 
# 
# 
# High freq. dielectric constant tensor:
#      x y z
#    x 1.638550 0.015210 0.025230 
#    y 0.015210 1.703640 -0.001330 
#    z 0.025230 -0.001330 1.706300 
# 
# From -- ./inp_files/146809.got.cif
#   From: 2010.06.25/outbox.cif.g09.slc.cpg/sg2_74_cif.got.tgz:146809.got - 2010.06.27 13:26:56.
