data_PCOD8041634
_publ_section_title
;
Structure prediction by ZEFSAII (Michael W. Deem and Ramdas Pophale) SiO2 
 PCOD8041634
Probable space group: P -1
;
_chemical_formula_sum "Si O2"
_cell_formula_units_Z 14
_cell_length_a 8.736105
_cell_length_b 9.114328
_cell_length_c 12.261903
_cell_angle_alpha 67.648438
_cell_angle_beta 131.001109
_cell_angle_gamma 119.849217
_cell_volume 636.931020
_symmetry_space_group_name_H-M "P -1"
_symmetry_group_IT_number 2
_symmetry_cell_setting 'triclinic'
loop_
_space_group_symop_operation_xyz
x,y,z
-x,-y,-z
loop_
_atom_site_type_symbol
_atom_site_label
_atom_site_fract_x
_atom_site_fract_y
_atom_site_fract_z
Si Si1 0.938764 0.419181 0.237245
Si Si2 0.459576 0.609920 0.644883
Si Si3 0.608491 0.336818 0.712117
Si Si4 0.628157 0.914251 0.510825
Si Si5 0.077132 0.729841 0.489042
Si Si6 0.599639 0.200780 0.985595
Si Si7 0.315567 0.403655 0.819635
O O1 0.955394 0.334504 0.384164
O O2 0.791401 0.538966 0.143929
O O3 0.168785 0.537899 0.268361
O O4 0.822566 0.270279 0.138660
O O5 0.446930 0.443205 0.615722
O O6 0.661585 0.768735 0.645448
O O7 0.238820 0.654967 0.520274
O O8 0.496805 0.571431 0.800148
O O9 0.505554 0.175050 0.632758
O O10 0.650189 0.267431 0.867550
O O11 0.500000 0.000000 0.500000
O O12 0.845264 0.064490 0.531979
O O13 0.852931 0.666769 0.338501
O O14 0.422266 0.267549 0.941503
O O15 0.500000 0.000000 0.000000
#
# Coordination Sequence:
#
# PCOD8041634 Si02
#       7
#     2   2   2   2   2   2   2
#     4  11  21  40  64  87 117 161 200 236 291 362
#     4   9  19  35  57  86 121 152 188 237 291 347
#     4  11  22  38  60  87 119 157 198 243 294 353
#     4  10  19  33  55  88 122 151 186 239 294 343
#     4  10  20  37  62  92 120 153 195 243 294 348
#     4  11  25  43  59  85 121 157 199 250 296 343
#     4  10  21  40  63  87 117 159 200 238 291 358
#
# _framework density 21.980402999999999
#
# number of rings (size 3 to 8) (size 9 to 14) (size 15 to 20)
#    0.000    1.714    0.000    6.429    0.000    2.286 
#    0.000    5.000    0.000    0.000    0.000    0.000 
#    0.000    0.000    0.000    0.000    0.000    0.000 
#
# Total GULP energy -173449.847734 kJ/mol
# GULP energy per Si atom -12389.274838 kJ/mol
# Density = 2.193037 g / cm^3
# Si number density = 21.980403 Si / 1000 Ang^3
#
#
#
# Elastic Constant Matrix: (Units=GPa)
#
#
# Indices 1 2 3 4 5 6 
#
# 1 99.0829 43.6688 30.6060 -0.1255 -18.5076 8.5445
# 2 43.6688 148.9975 61.6197 6.4197 -14.4461 19.6940
# 3 30.6060 61.6197 87.7029 11.1206 -15.6244 4.3468
# 4 -0.1255 6.4197 11.1206 38.8173 -7.6657 -7.4642
# 5 -18.5076 -14.4461 -15.6244 -7.6657 21.1777 -5.2042
# 6 8.5445 19.6940 4.3468 -7.4642 -5.2042 36.7837
#
#
#
# Elastic Compliance Matrix: (Units=1/GPa)
#
#
# Indices 1 2 3 4 5 6 
#
# 1 0.013551 -0.002537 -0.001536 0.002997 0.010171 0.000439
# 2 -0.002537 0.010687 -0.006475 -0.001088 -0.001270 -0.004768
# 3 -0.001536 -0.006475 0.017944 -0.002207 0.007241 0.002280
# 4 0.002997 -0.001088 -0.002207 0.030838 0.013452 0.008308
# 5 0.010171 -0.001270 0.007241 0.013452 0.067860 0.009792
# 6 0.000439 -0.004768 0.002280 0.008308 0.009792 0.032439
#
#
# Mechanical properties :
#
#
# Convention : Reuss Voigt Hill
#
# Bulk Modulus (GPa) = 47.42609 67.50803 57.46706
# Shear Modulus (GPa) = 24.82080 32.68166 28.75123
#
# Velocity S-wave (km/s) = 3.36404 3.86016 3.62061
# Velocity P-wave (km/s) = 6.05907 7.11669 6.60907
#
# Compressibility (1/GPa) = 0.02108544
#
# Stress axis : x y z
#
# Youngs Moduli (GPa) = 73.79480 93.57164 55.72789
#
# Poissons Ratio (x) = 0.23743 0.08559
# Poissons Ratio (y) = 0.18725 0.36085
# Poissons Ratio (z) = 0.11334 0.60589
#
# Static dielectric constant tensor:
#      x y z
#    x 4.281110 0.183650 -0.242430 
#    y 0.183650 4.900190 -0.309340 
#    z -0.242430 -0.309340 3.888320 
# 
# 
# High freq. dielectric constant tensor:
#      x y z
#    x 1.874220 0.000410 -0.017720 
#    y 0.000410 1.876810 -0.006500 
#    z -0.017720 -0.006500 1.842890 
# 
# From -- ./inp_files/158114.got.cif
#   From: 2010.06.25/outbox.cif.g09.slc.cpg/sg2_80_cif.got.tgz:158114.got - 2010.06.27 13:26:56.
