data_PCOD8041214
_publ_section_title
;
Structure prediction by ZEFSAII (Michael W. Deem and Ramdas Pophale) SiO2 
 PCOD8041214
Probable space group: P -1
;
_chemical_formula_sum "Si O2"
_cell_formula_units_Z 16
_cell_length_a 21.954477
_cell_length_b 9.410278
_cell_length_c 12.855222
_cell_angle_alpha 87.500313
_cell_angle_beta 27.506100
_cell_angle_gamma 108.015358
_cell_volume 804.773838
_symmetry_space_group_name_H-M "P -1"
_symmetry_group_IT_number 2
_symmetry_cell_setting 'triclinic'
loop_
_space_group_symop_operation_xyz
x,y,z
-x,-y,-z
loop_
_atom_site_type_symbol
_atom_site_label
_atom_site_fract_x
_atom_site_fract_y
_atom_site_fract_z
Si Si1 0.319856 0.195953 0.856864
Si Si2 0.809202 0.766728 0.341549
Si Si3 0.688737 0.492238 0.130901
Si Si4 0.075289 0.831143 0.082553
Si Si5 0.629387 0.115183 0.697843
Si Si6 0.934119 0.502969 0.904818
Si Si7 0.416208 0.161566 0.384117
Si Si8 0.625772 0.348153 0.539744
O O1 0.503016 0.349253 0.494634
O O2 0.236009 0.284898 0.007635
O O3 0.402747 0.187876 0.835810
O O4 0.141231 0.957762 0.086280
O O5 0.637853 0.747708 0.611135
O O6 0.732245 0.587493 0.381382
O O7 0.868670 0.739717 0.361143
O O8 0.000000 0.000000 0.000000
O O9 0.619772 0.363793 0.131700
O O10 0.868498 0.545001 0.904709
O O11 0.239660 0.981662 0.738249
O O12 0.033032 0.632140 0.177070
O O13 0.608293 0.257189 0.680041
O O14 0.860634 0.266240 0.367183
O O15 0.541187 0.936445 0.751350
O O16 0.500000 0.000000 0.000000
O O17 0.763799 0.363914 0.255636
#
# Coordination Sequence:
#
# PCOD8041214 Si02
#       8
#     2   2   2   2   2   2   2   2
#     4   9  19  31  54  90 123 144 180 239 295 341
#     4  10  19  31  56  88 117 148 189 237 285 339
#     4   9  19  32  55  89 120 146 185 234 291 346
#     4  10  19  31  55  92 119 143 185 237 290 342
#     4  12  26  41  57  83 118 157 198 241 286 340
#     4  11  21  35  60  89 115 150 189 240 291 345
#     4  10  20  36  56  83 117 155 185 235 292 338
#     4  11  20  38  62  85 119 151 195 238 290 346
#
# _framework density 19.881363
#
# number of rings (size 3 to 8) (size 9 to 14) (size 15 to 20)
#    0.000    1.750    3.750    1.875    8.750    1.500 
#    0.000    1.250    0.000    0.750    0.000    0.000 
#    0.000    0.000    0.000    0.000    0.000    0.000 
#
# Total GULP energy -198392.666885 kJ/mol
# GULP energy per Si atom -12399.541680 kJ/mol
# Density = 1.983611 g / cm^3
# Si number density = 19.881363 Si / 1000 Ang^3
#
#
#
# Elastic Constant Matrix: (Units=GPa)
#
#
# Indices 1 2 3 4 5 6 
#
# 1 149.6032 53.2144 42.4654 -2.0092 -30.5601 -3.1718
# 2 53.2144 128.3062 16.3961 -9.4741 -9.3907 5.3155
# 3 42.4654 16.3961 23.1557 -0.7310 -0.2412 -2.8103
# 4 -2.0092 -9.4741 -0.7310 11.0082 2.8366 -8.6923
# 5 -30.5601 -9.3907 -0.2412 2.8366 27.0611 -1.3288
# 6 -3.1718 5.3155 -2.8103 -8.6923 -1.3288 41.1179
#
#
#
# Elastic Compliance Matrix: (Units=1/GPa)
#
#
# Indices 1 2 3 4 5 6 
#
# 1 0.028221 -0.003859 -0.049294 -0.011072 0.031153 -0.002027
# 2 -0.003859 0.009824 0.000387 0.008379 -0.001815 0.000172
# 3 -0.049294 0.000387 0.134356 0.021009 -0.056147 0.007957
# 4 -0.011072 0.008379 0.021009 0.122332 -0.021019 0.024680
# 5 0.031153 -0.001815 -0.056147 -0.021019 0.073046 -0.003283
# 6 -0.002027 0.000172 0.007957 0.024680 -0.003283 0.029797
#
#
# Mechanical properties :
#
#
# Convention : Reuss Voigt Hill
#
# Bulk Modulus (GPa) = 14.95430 58.35741 36.65586
# Shear Modulus (GPa) = 9.51663 28.43672 18.97668
#
# Velocity S-wave (km/s) = 2.19023 3.78606 3.09284
# Velocity P-wave (km/s) = 3.73286 6.96627 5.58852
#
# Compressibility (1/GPa) = 0.06687038
#
# Stress axis : x y z
#
# Youngs Moduli (GPa) = 35.43429 101.79606 7.44291
#
# Poissons Ratio (x) = 0.39282 0.36689
# Poissons Ratio (y) = 0.13674 -0.00288
# Poissons Ratio (z) = 1.74669 -0.03944
#
# Static dielectric constant tensor:
#      x y z
#    x 4.031950 -0.055740 -0.413150 
#    y -0.055740 3.786110 -0.102250 
#    z -0.413150 -0.102250 2.965640 
# 
# 
# High freq. dielectric constant tensor:
#      x y z
#    x 1.788610 -0.004540 -0.035030 
#    y -0.004540 1.792430 -0.012250 
#    z -0.035030 -0.012250 1.700020 
# 
# From -- ./inp_files/179199.got.cif
#   From: 2010.06.25/outbox.cif.g09.slc.cpg/sg2_90_cif.got.tgz:179199.got - 2010.06.27 13:26:56.
