data_PCOD8041667
_publ_section_title
;
Structure prediction by ZEFSAII (Michael W. Deem and Ramdas Pophale) SiO2 
 PCOD8041667
Probable space group: P -1
;
_chemical_formula_sum "Si O2"
_cell_formula_units_Z 16
_cell_length_a 11.996984
_cell_length_b 16.227324
_cell_length_c 12.407810
_cell_angle_alpha 24.688949
_cell_angle_beta 130.961410
_cell_angle_gamma 128.497941
_cell_volume 759.143015
_symmetry_space_group_name_H-M "P -1"
_symmetry_group_IT_number 2
_symmetry_cell_setting 'triclinic'
loop_
_space_group_symop_operation_xyz
x,y,z
-x,-y,-z
loop_
_atom_site_type_symbol
_atom_site_label
_atom_site_fract_x
_atom_site_fract_y
_atom_site_fract_z
Si Si1 0.099889 0.585199 0.363675
Si Si2 0.498907 0.149788 0.164317
Si Si3 0.163114 0.209888 0.113455
Si Si4 0.311005 0.588987 0.667269
Si Si5 0.670008 0.590861 0.402004
Si Si6 0.547837 0.779608 0.294561
Si Si7 0.716627 0.143206 0.486370
Si Si8 0.387877 0.209020 0.439036
O O1 0.249182 0.678570 0.409157
O O2 0.158802 0.425849 0.506051
O O3 0.000000 0.500000 0.500000
O O4 0.007700 0.737005 0.057844
O O5 0.629210 0.240586 0.217935
O O6 0.388944 0.005220 0.334261
O O7 0.567187 0.016603 0.273031
O O8 0.420981 0.329909 0.850133
O O9 0.232437 0.226798 0.257494
O O10 0.158140 0.985812 0.330894
O O11 0.268318 0.353257 0.930292
O O12 0.223587 0.681497 0.603356
O O13 0.487189 0.641490 0.718934
O O14 0.668405 0.739221 0.326405
O O15 0.595882 0.371197 0.642909
O O16 0.626101 0.737573 0.507931
O O17 0.500000 0.000000 0.000000
#
# Coordination Sequence:
#
# PCOD8041667 Si02
#       8
#     2   2   2   2   2   2   2   2
#     4  10  21  37  57  88 124 157 184 227 295 364
#     4   9  17  32  53  85 119 138 188 243 291 333
#     4  10  21  35  53  84 126 149 187 234 296 350
#     4  10  19  33  56  84 117 157 194 229 291 347
#     4  11  22  38  61  84 117 156 191 246 292 336
#     4  11  23  39  60  90 108 148 209 254 285 325
#     4   9  19  30  51  86 116 153 182 231 286 350
#     4  10  19  35  59  85 111 151 194 251 282 337
#
# _framework density 21.076398000000001
#
# number of rings (size 3 to 8) (size 9 to 14) (size 15 to 20)
#    0.000    2.000    2.500    2.625    1.750    0.500 
#    0.000    4.375    0.000    0.750    0.000    0.000 
#    0.000    0.000    0.000    0.000    0.000    0.000 
#
# Total GULP energy -198279.274782 kJ/mol
# GULP energy per Si atom -12392.454674 kJ/mol
# Density = 2.102843 g / cm^3
# Si number density = 21.076398 Si / 1000 Ang^3
#
#
#
# Elastic Constant Matrix: (Units=GPa)
#
#
# Indices 1 2 3 4 5 6 
#
# 1 82.3152 22.5017 35.1046 1.9542 21.2834 -31.9302
# 2 22.5017 71.2943 23.3165 7.9657 11.9276 -30.9357
# 3 35.1046 23.3165 109.5147 11.8982 22.3861 -12.2815
# 4 1.9542 7.9657 11.8982 33.4335 3.3643 -0.7880
# 5 21.2834 11.9276 22.3861 3.3643 33.2293 -5.1645
# 6 -31.9302 -30.9357 -12.2815 -0.7880 -5.1645 34.3571
#
#
#
# Elastic Compliance Matrix: (Units=1/GPa)
#
#
# Indices 1 2 3 4 5 6 
#
# 1 0.025385 0.006781 -0.004239 0.000214 -0.011753 0.026420
# 2 0.006781 0.026720 -0.002739 -0.004392 -0.007263 0.028189
# 3 -0.004239 -0.002739 0.012002 -0.002982 -0.004531 -0.002865
# 4 0.000214 -0.004392 -0.002982 0.031951 -0.000432 -0.004154
# 5 -0.011753 -0.007263 -0.004531 -0.000432 0.041323 -0.012880
# 6 0.026420 0.028189 -0.002865 -0.004154 -0.012880 0.075986
#
#
# Mechanical properties :
#
#
# Convention : Reuss Voigt Hill
#
# Bulk Modulus (GPa) = 15.69564 47.21883 31.45724
# Shear Modulus (GPa) = 21.27678 32.35073 26.81376
#
# Velocity S-wave (km/s) = 3.18072 3.92206 3.57069
# Velocity P-wave (km/s) = 4.57739 6.55457 5.65309
#
# Compressibility (1/GPa) = 0.06371195
#
# Stress axis : x y z
#
# Youngs Moduli (GPa) = 39.39400 37.42571 83.31956
#
# Poissons Ratio (x) = -0.25378 0.35316
# Poissons Ratio (y) = -0.26713 0.22824
# Poissons Ratio (z) = 0.16698 0.10252
#
# Static dielectric constant tensor:
#      x y z
#    x 3.630300 -0.335600 0.282600 
#    y -0.335600 4.208880 0.040790 
#    z 0.282600 0.040790 3.984750 
# 
# 
# High freq. dielectric constant tensor:
#      x y z
#    x 1.780680 -0.035200 0.013780 
#    y -0.035200 1.825490 0.000360 
#    z 0.013780 0.000360 1.826460 
# 
# From -- ./inp_files/354930.got.cif
#   From: 2010.06.25/outbox.cif.g09.slc.cpg/sg2_178_cif.got.tgz:354930.got - 2010.06.27 13:26:56.
