data_PCOD8041489
_publ_section_title
;
Structure prediction by ZEFSAII (Michael W. Deem and Ramdas Pophale) SiO2 
 PCOD8041489
Probable space group: P -1
;
_chemical_formula_sum "Si O2"
_cell_formula_units_Z 16
_cell_length_a 29.910876
_cell_length_b 11.673266
_cell_length_c 15.198527
_cell_angle_alpha 151.207718
_cell_angle_beta 19.655196
_cell_angle_gamma 152.338339
_cell_volume 797.718916
_symmetry_space_group_name_H-M "P -1"
_symmetry_group_IT_number 2
_symmetry_cell_setting 'triclinic'
loop_
_space_group_symop_operation_xyz
x,y,z
-x,-y,-z
loop_
_atom_site_type_symbol
_atom_site_label
_atom_site_fract_x
_atom_site_fract_y
_atom_site_fract_z
Si Si1 0.179004 0.989419 0.078430
Si Si2 0.562259 0.977582 0.591585
Si Si3 0.518900 0.643768 0.281807
Si Si4 0.730368 0.215761 0.898569
Si Si5 0.662160 0.688455 0.339243
Si Si6 0.385372 0.113173 0.259678
Si Si7 0.875289 0.978209 0.598367
Si Si8 0.297649 0.608805 0.519801
O O1 0.166574 0.959233 0.185702
O O2 0.313546 0.244345 0.976910
O O3 0.041203 0.023646 0.315367
O O4 0.190729 0.735042 0.842960
O O5 0.491858 0.795765 0.517238
O O6 0.684404 0.899852 0.363445
O O7 0.641673 0.267555 0.604749
O O8 0.430704 0.950968 0.881178
O O9 0.469395 0.350194 0.201144
O O10 0.430738 0.679366 0.386351
O O11 0.740377 0.097469 0.704930
O O12 0.848817 0.182409 0.720229
O O13 0.760674 0.518664 0.034441
O O14 0.500000 0.500000 0.500000
O O15 0.689841 0.815412 0.469449
O O16 0.500000 0.000000 0.000000
O O17 0.781168 0.691821 0.549244
#
# Coordination Sequence:
#
# PCOD8041489 Si02
#       8
#     2   2   2   2   2   2   2   2
#     4  10  24  39  54  83 120 150 187 229 287 341
#     4  10  19  34  55  85 117 145 179 238 291 322
#     4  11  20  36  58  88 114 143 186 242 285 327
#     4  11  20  33  55  83 114 145 193 226 276 341
#     4  10  19  33  50  83 119 147 176 232 290 324
#     4  12  20  32  56  89 114 144 184 236 284 326
#     4  11  23  38  57  83 114 160 185 223 287 346
#     4  11  22  37  60  87 113 143 190 242 284 329
#
# _framework density 20.057189999999999
#
# number of rings (size 3 to 8) (size 9 to 14) (size 15 to 20)
#    0.000    1.250    6.250    3.375    1.750    1.000 
#    0.000    0.000    0.000    6.750    0.000    6.125 
#    0.000    0.000    0.000    0.000    0.000    0.000 
#
# Total GULP energy -198391.127063 kJ/mol
# GULP energy per Si atom -12399.445441 kJ/mol
# Density = 2.001154 g / cm^3
# Si number density = 20.057190 Si / 1000 Ang^3
#
#
#
# Elastic Constant Matrix: (Units=GPa)
#
#
# Indices 1 2 3 4 5 6 
#
# 1 137.8370 36.0546 37.0059 9.4204 -17.1774 -6.3573
# 2 36.0546 48.5089 24.8833 13.1740 -8.3614 -7.6679
# 3 37.0059 24.8833 64.6600 8.4571 -11.0419 3.7922
# 4 9.4204 13.1740 8.4571 25.3933 -4.7129 -3.7788
# 5 -17.1774 -8.3614 -11.0419 -4.7129 34.4023 10.0960
# 6 -6.3573 -7.6679 3.7922 -3.7788 10.0960 34.3994
#
#
#
# Elastic Compliance Matrix: (Units=1/GPa)
#
#
# Indices 1 2 3 4 5 6 
#
# 1 0.009803 -0.005335 -0.003231 0.000730 0.002572 0.000304
# 2 -0.005335 0.032986 -0.008655 -0.011470 -0.000848 0.006310
# 3 -0.003231 -0.008655 0.022133 -0.001725 0.005103 -0.006654
# 4 0.000730 -0.011470 -0.001725 0.046457 0.002784 0.002055
# 5 0.002572 -0.000848 0.005103 0.002784 0.035187 -0.010298
# 6 0.000304 0.006310 -0.006654 0.002055 -0.010298 0.034514
#
#
# Mechanical properties :
#
#
# Convention : Reuss Voigt Hill
#
# Bulk Modulus (GPa) = 32.81042 49.65483 41.23263
# Shear Modulus (GPa) = 22.15486 29.04315 25.59901
#
# Velocity S-wave (km/s) = 3.32713 3.80941 3.57641
# Velocity P-wave (km/s) = 5.58155 6.64524 6.13648
#
# Compressibility (1/GPa) = 0.03047812
#
# Stress axis : x y z
#
# Youngs Moduli (GPa) = 102.01365 30.31546 45.18144
#
# Poissons Ratio (x) = 0.16174 0.14599
# Poissons Ratio (y) = 0.54428 0.39107
# Poissons Ratio (z) = 0.32962 0.26239
#
# Static dielectric constant tensor:
#      x y z
#    x 4.254390 -0.270550 0.011920 
#    y -0.270550 3.278630 -0.047930 
#    z 0.011920 -0.047930 3.042710 
# 
# 
# High freq. dielectric constant tensor:
#      x y z
#    x 1.804790 -0.007990 0.005680 
#    y -0.007990 1.758560 0.036230 
#    z 0.005680 0.036230 1.767320 
# 
# From -- ./inp_files/453504.got.cif
#   From: 2010.06.25/outbox.cif.g09.slc.cpg/sg2_227_cif.got.tgz:453504.got - 2010.06.27 13:26:56.
