data_PCOD8041717
_publ_section_title
;
Structure prediction by ZEFSAII (Michael W. Deem and Ramdas Pophale) SiO2 
 PCOD8041717
Probable space group: P -1
;
_chemical_formula_sum "Si O2"
_cell_formula_units_Z 12
_cell_length_a 9.194537
_cell_length_b 11.178330
_cell_length_c 18.763179
_cell_angle_alpha 156.268878
_cell_angle_beta 130.412780
_cell_angle_gamma 59.414878
_cell_volume 567.921611
_symmetry_space_group_name_H-M "P -1"
_symmetry_group_IT_number 2
_symmetry_cell_setting 'triclinic'
loop_
_space_group_symop_operation_xyz
x,y,z
-x,-y,-z
loop_
_atom_site_type_symbol
_atom_site_label
_atom_site_fract_x
_atom_site_fract_y
_atom_site_fract_z
Si Si1 0.332659 0.280048 0.637050
Si Si2 0.624257 0.424106 0.934027
Si Si3 0.562561 0.397858 0.292440
Si Si4 0.839275 0.911762 0.733687
Si Si5 0.006589 0.179629 0.793081
Si Si6 0.784495 0.149464 0.118273
O O1 0.478887 0.246112 0.728250
O O2 0.462414 0.372951 0.655831
O O3 0.230647 0.557572 0.774824
O O4 0.160562 0.956736 0.395158
O O5 0.756621 0.204233 0.883159
O O6 0.500000 0.500000 0.000000
O O7 0.772081 0.751752 0.132575
O O8 0.659217 0.599560 0.501629
O O9 0.704073 0.191132 0.195602
O O10 0.353859 0.176221 0.132906
O O11 0.990142 0.874508 0.823089
O O12 0.960490 0.935126 0.709786
O O13 0.000000 0.500000 0.000000
#
# Coordination Sequence:
#
# PCOD8041717 Si02
#       6
#     2   2   2   2   2   2
#     4   9  19  34  54  79 109 141 177 221 270 315
#     4  11  24  38  52  76 112 150 184 220 263 314
#     4   8  17  30  57  83 111 131 170 224 279 314
#     4  10  19  33  57  83 107 135 178 221 268 321
#     4   9  20  34  57  82 107 138 180 223 268 320
#     4   9  17  31  54  87 108 133 168 225 276 320
#
# _framework density 21.129677000000001
#
# number of rings (size 3 to 8) (size 9 to 14) (size 15 to 20)
#    1.000    1.667    0.000    1.500    0.000    9.333 
#    0.000    0.833    0.000    2.000    0.000    0.000 
#    0.000    0.000    0.000    0.000    0.000    0.000 
#
# Total GULP energy -148671.983395 kJ/mol
# GULP energy per Si atom -12389.331950 kJ/mol
# Density = 2.108158 g / cm^3
# Si number density = 21.129677 Si / 1000 Ang^3
#
#
#
# Elastic Constant Matrix: (Units=GPa)
#
#
# Indices 1 2 3 4 5 6 
#
# 1 67.6935 11.6119 30.1511 -2.5752 8.3959 -13.9255
# 2 11.6119 80.4625 24.6607 -13.6068 0.9649 -19.6577
# 3 30.1511 24.6607 173.1575 -10.3995 14.6184 -2.6218
# 4 -2.5752 -13.6068 -10.3995 25.6905 -1.6502 2.4924
# 5 8.3959 0.9649 14.6184 -1.6502 10.4801 0.7986
# 6 -13.9255 -19.6577 -2.6218 2.4924 0.7986 15.6418
#
#
#
# Elastic Compliance Matrix: (Units=1/GPa)
#
#
# Indices 1 2 3 4 5 6 
#
# 1 0.022624 0.003970 -0.002727 -0.000286 -0.016681 0.025571
# 2 0.003970 0.020835 -0.002572 0.007495 -0.002482 0.028219
# 3 -0.002727 -0.002572 0.007229 0.001248 -0.007140 -0.004282
# 4 -0.000286 0.007495 0.001248 0.043442 0.004469 0.002223
# 5 -0.016681 -0.002482 -0.007140 0.004469 0.121662 -0.026090
# 6 0.025571 0.028219 -0.004282 0.002223 -0.026090 0.122421
#
#
# Mechanical properties :
#
#
# Convention : Reuss Voigt Hill
#
# Bulk Modulus (GPa) = 20.81992 50.46233 35.64112
# Shear Modulus (GPa) = 14.01028 27.35513 20.68270
#
# Velocity S-wave (km/s) = 2.57779 3.60200 3.13205
# Velocity P-wave (km/s) = 4.32837 6.42131 5.47577
#
# Compressibility (1/GPa) = 0.04803094
#
# Stress axis : x y z
#
# Youngs Moduli (GPa) = 44.20034 47.99646 138.33308
#
# Poissons Ratio (x) = -0.19052 0.37717
# Poissons Ratio (y) = -0.17545 0.35573
# Poissons Ratio (z) = 0.12051 0.12342
#
# Static dielectric constant tensor:
#      x y z
#    x 3.369900 -0.066210 0.385230 
#    y -0.066210 3.481710 0.013250 
#    z 0.385230 0.013250 4.252400 
# 
# 
# High freq. dielectric constant tensor:
#      x y z
#    x 1.755200 -0.017550 0.012330 
#    y -0.017550 1.807730 -0.002500 
#    z 0.012330 -0.002500 1.848830 
# 
# From -- ./inp_files/381218.got.cif
#   From: 2010.06.25/outbox.cif.g09.slc.cpg/sg2_191_cif.got.tgz:381218.got - 2010.06.27 13:26:56.
