data_PCOD8041507
_publ_section_title
;
Structure prediction by ZEFSAII (Michael W. Deem and Ramdas Pophale) SiO2 
 PCOD8041507
Probable space group: P -1
;
_chemical_formula_sum "Si O2"
_cell_formula_units_Z 14
_cell_length_a 8.379417
_cell_length_b 6.407431
_cell_length_c 22.253091
_cell_angle_alpha 125.581293
_cell_angle_beta 135.556734
_cell_angle_gamma 59.805952
_cell_volume 672.306968
_symmetry_space_group_name_H-M "P -1"
_symmetry_group_IT_number 2
_symmetry_cell_setting 'triclinic'
loop_
_space_group_symop_operation_xyz
x,y,z
-x,-y,-z
loop_
_atom_site_type_symbol
_atom_site_label
_atom_site_fract_x
_atom_site_fract_y
_atom_site_fract_z
Si Si1 0.572180 0.704237 0.732902
Si Si2 0.890211 0.093310 0.907649
Si Si3 0.230909 0.618093 0.957949
Si Si4 0.092041 0.767271 0.569685
Si Si5 0.724577 0.741102 0.643475
Si Si6 0.878880 0.254296 0.796856
Si Si7 0.764988 0.209346 0.521438
O O1 0.295062 0.766121 0.672776
O O2 0.652554 0.692162 0.683775
O O3 0.646283 0.430306 0.740394
O O4 0.683373 0.926135 0.834172
O O5 0.873449 0.237070 0.864181
O O6 0.843950 0.322574 0.982952
O O7 0.136488 0.894235 0.945270
O O8 0.097544 0.389161 0.858766
O O9 0.500000 0.500000 0.000000
O O10 0.179091 0.848646 0.542428
O O11 0.000000 0.500000 0.500000
O O12 0.878544 0.992444 0.563299
O O13 0.863244 0.471101 0.611478
O O14 0.509078 0.790091 0.547525
O O15 0.883274 0.968359 0.721066
#
# Coordination Sequence:
#
# PCOD8041507 Si02
#       7
#     2   2   2   2   2   2   2
#     4   9  19  35  55  78 111 146 181 230 277 330
#     4   9  20  40  60  83 115 151 184 230 289 339
#     4  10  21  39  63  86 114 145 186 239 283 338
#     4  10  19  33  52  79 111 145 188 228 273 326
#     4   9  18  35  56  77 108 150 187 228 277 324
#     4  10  19  36  61  82 112 151 188 223 287 347
#     4   9  19  34  53  77 110 147 187 233 270 318
#
# _framework density 20.823823000000001
#
# number of rings (size 3 to 8) (size 9 to 14) (size 15 to 20)
#    0.000    2.571    0.000    1.286    0.000    2.857 
#   10.286    4.286    6.286    0.000    0.000    0.000 
#    0.000    0.000    0.000    0.000    0.000    0.000 
#
# Total GULP energy -173459.269194 kJ/mol
# GULP energy per Si atom -12389.947800 kJ/mol
# Density = 2.077643 g / cm^3
# Si number density = 20.823823 Si / 1000 Ang^3
#
#
#
# Elastic Constant Matrix: (Units=GPa)
#
#
# Indices 1 2 3 4 5 6 
#
# 1 33.8427 32.5829 18.8143 -8.4901 9.5591 -9.7410
# 2 32.5829 157.7902 66.6833 -11.7953 15.5793 -13.9744
# 3 18.8143 66.6833 114.6444 -3.7977 15.4014 -13.1027
# 4 -8.4901 -11.7953 -3.7977 45.3203 -1.0725 -0.8713
# 5 9.5591 15.5793 15.4014 -1.0725 27.7507 -2.1241
# 6 -9.7410 -13.9744 -13.1027 -0.8713 -2.1241 26.5371
#
#
#
# Elastic Compliance Matrix: (Units=1/GPa)
#
#
# Indices 1 2 3 4 5 6 
#
# 1 0.043817 -0.006247 -0.000629 0.006520 -0.010075 0.011891
# 2 -0.006247 0.009692 -0.004409 0.000977 -0.000758 0.000605
# 3 -0.000629 -0.004409 0.012267 -0.000268 -0.003883 0.003185
# 4 0.006520 0.000977 -0.000268 0.023549 -0.001473 0.003431
# 5 -0.010075 -0.000758 -0.003883 -0.001473 0.041822 -0.002716
# 6 0.011891 0.000605 0.003185 0.003431 -0.002716 0.043835
#
#
# Mechanical properties :
#
#
# Convention : Reuss Voigt Hill
#
# Bulk Modulus (GPa) = 23.14451 60.27091 41.70771
# Shear Modulus (GPa) = 23.59019 32.46809 28.02914
#
# Velocity S-wave (km/s) = 3.36943 3.95293 3.67279
# Velocity P-wave (km/s) = 5.12601 7.05977 6.16913
#
# Compressibility (1/GPa) = 0.04320679
#
# Stress axis : x y z
#
# Youngs Moduli (GPa) = 22.82241 103.17558 81.51962
#
# Poissons Ratio (x) = 0.64453 0.05125
# Poissons Ratio (y) = 0.14257 0.35941
# Poissons Ratio (z) = 0.01435 0.45489
#
# Static dielectric constant tensor:
#      x y z
#    x 3.315050 -0.099180 0.046200 
#    y -0.099180 4.043560 -0.164120 
#    z 0.046200 -0.164120 4.234780 
# 
# 
# High freq. dielectric constant tensor:
#      x y z
#    x 1.767500 0.005390 -0.001540 
#    y 0.005390 1.829660 -0.002760 
#    z -0.001540 -0.002760 1.829850 
# 
# From -- ./inp_files/39588.got.cif
#   From: 2010.06.25/outbox.cif.g09.slc.cpg/sg2_20_cif.got.tgz:39588.got - 2010.06.27 13:26:56.
