data_PCOD8041180
_publ_section_title
;
Structure prediction by ZEFSAII (Michael W. Deem and Ramdas Pophale) SiO2 
 PCOD8041180
Probable space group: P -1
;
_chemical_formula_sum "Si O2"
_cell_formula_units_Z 14
_cell_length_a 9.877418
_cell_length_b 15.130524
_cell_length_c 10.879097
_cell_angle_alpha 128.766511
_cell_angle_beta 72.594405
_cell_angle_gamma 64.658710
_cell_volume 680.023488
_symmetry_space_group_name_H-M "P -1"
_symmetry_group_IT_number 2
_symmetry_cell_setting 'triclinic'
loop_
_space_group_symop_operation_xyz
x,y,z
-x,-y,-z
loop_
_atom_site_type_symbol
_atom_site_label
_atom_site_fract_x
_atom_site_fract_y
_atom_site_fract_z
Si Si1 0.650167 0.320285 0.139148
Si Si2 0.667724 0.425897 0.778173
Si Si3 0.510731 0.116946 0.656375
Si Si4 0.775623 0.107966 0.394105
Si Si5 0.052564 0.528172 0.855971
Si Si6 0.480097 0.346256 0.449867
Si Si7 0.943369 0.714966 0.287734
O O1 0.504129 0.391395 0.113571
O O2 0.580703 0.270368 0.216702
O O3 0.546282 0.506904 0.377664
O O4 0.949528 0.128038 0.869395
O O5 0.796614 0.228045 0.517470
O O6 0.872400 0.378551 0.731887
O O7 0.500000 0.500000 0.000000
O O8 0.579404 0.174809 0.596824
O O9 0.500000 0.000000 0.500000
O O10 0.235285 0.317248 0.965583
O O11 0.736431 0.953387 0.552006
O O12 0.676677 0.155013 0.322576
O O13 0.183464 0.325598 0.693306
O O14 0.204890 0.468678 0.642983
O O15 0.077223 0.611889 0.026370
#
# Coordination Sequence:
#
# PCOD8041180 Si02
#       7
#     2   2   2   2   2   2   2
#     4  10  22  37  56  82 110 145 182 221 273 325
#     4  11  22  36  54  81 115 144 178 225 276 329
#     4  10  19  31  53  83 107 135 178 223 270 316
#     4  11  21  35  57  83 111 144 181 227 277 320
#     4  10  19  35  57  79 107 141 180 227 273 315
#     4  10  20  37  58  80 109 143 185 227 264 322
#     4  10  20  34  53  82 111 137 179 227 272 324
#
# _framework density 20.587524999999999
#
# number of rings (size 3 to 8) (size 9 to 14) (size 15 to 20)
#    0.000    1.714    0.000    8.143    0.000    3.429 
#    0.000    0.714    0.000    1.714    0.000    0.000 
#    0.000    0.000    0.000    0.000    0.000    0.000 
#
# Total GULP energy -173498.650387 kJ/mol
# GULP energy per Si atom -12392.760742 kJ/mol
# Density = 2.054067 g / cm^3
# Si number density = 20.587525 Si / 1000 Ang^3
#
#
#
# Elastic Constant Matrix: (Units=GPa)
#
#
# Indices 1 2 3 4 5 6 
#
# 1 77.5760 43.0675 27.7292 0.0931 -18.9926 -9.8665
# 2 43.0675 131.6130 46.5876 6.3890 -22.5402 -17.7751
# 3 27.7292 46.5876 68.7235 2.6468 -24.2995 -9.8492
# 4 0.0931 6.3890 2.6468 37.4825 6.5907 -6.2154
# 5 -18.9926 -22.5402 -24.2995 6.5907 30.7306 5.7501
# 6 -9.8665 -17.7751 -9.8492 -6.2154 5.7501 33.7081
#
#
#
# Elastic Compliance Matrix: (Units=1/GPa)
#
#
# Indices 1 2 3 4 5 6 
#
# 1 0.017379 -0.003681 -0.002152 -0.000091 0.006085 0.001462
# 2 -0.003681 0.011380 -0.005137 -0.001406 0.001776 0.002860
# 3 -0.002152 -0.005137 0.024332 -0.003321 0.014733 0.000645
# 4 -0.000091 -0.001406 -0.003321 0.030078 -0.011235 0.005724
# 5 0.006085 0.001776 0.014733 -0.011235 0.052410 -0.003989
# 6 0.001462 0.002860 0.000645 0.005724 -0.003989 0.033527
#
#
# Mechanical properties :
#
#
# Convention : Reuss Voigt Hill
#
# Bulk Modulus (GPa) = 32.10280 56.96459 44.53369
# Shear Modulus (GPa) = 24.82248 31.08613 27.95430
#
# Velocity S-wave (km/s) = 3.47609 3.89002 3.68887
# Velocity P-wave (km/s) = 5.63366 6.92141 6.31047
#
# Compressibility (1/GPa) = 0.03114993
#
# Stress axis : x y z
#
# Youngs Moduli (GPa) = 57.53931 87.87626 41.09888
#
# Poissons Ratio (x) = 0.32348 0.08846
# Poissons Ratio (y) = 0.21181 0.21112
# Poissons Ratio (z) = 0.12384 0.45141
#
# Static dielectric constant tensor:
#      x y z
#    x 4.855390 -0.605690 -0.732520 
#    y -0.605690 4.687780 0.716790 
#    z -0.732520 0.716790 4.236620 
# 
# 
# High freq. dielectric constant tensor:
#      x y z
#    x 1.787820 0.011690 -0.020260 
#    y 0.011690 1.807920 0.028030 
#    z -0.020260 0.028030 1.790470 
# 
# From -- ./inp_files/399577.got.cif
#   From: 2010.06.25/outbox.cif.g09.slc.cpg/sg2_200_cif.got.tgz:399577.got - 2010.06.27 13:26:56.
