data_PCOD8041508
_publ_section_title
;
Structure prediction by ZEFSAII (Michael W. Deem and Ramdas Pophale) SiO2 
 PCOD8041508
Probable space group: P -1
;
_chemical_formula_sum "Si O2"
_cell_formula_units_Z 14
_cell_length_a 12.587146
_cell_length_b 15.789995
_cell_length_c 11.787804
_cell_angle_alpha 46.006168
_cell_angle_beta 127.527174
_cell_angle_gamma 153.050244
_cell_volume 763.510371
_symmetry_space_group_name_H-M "P -1"
_symmetry_group_IT_number 2
_symmetry_cell_setting 'triclinic'
loop_
_space_group_symop_operation_xyz
x,y,z
-x,-y,-z
loop_
_atom_site_type_symbol
_atom_site_label
_atom_site_fract_x
_atom_site_fract_y
_atom_site_fract_z
Si Si1 0.147013 0.241558 0.482449
Si Si2 0.654349 0.221677 0.864819
Si Si3 0.233510 0.299290 0.970754
Si Si4 0.613768 0.393689 0.844837
Si Si5 0.862168 0.842595 0.202989
Si Si6 0.027157 0.310686 0.003215
Si Si7 0.247588 0.048812 0.670237
O O1 0.330678 0.466355 0.342711
O O2 0.124875 0.236294 0.608288
O O3 0.239204 0.181133 0.561040
O O4 0.888880 0.082547 0.411105
O O5 0.688393 0.322533 0.907321
O O6 0.519671 0.202147 0.698954
O O7 0.902989 0.348207 0.867586
O O8 0.500000 0.000000 0.000000
O O9 0.208665 0.289680 0.827474
O O10 0.500000 0.500000 0.000000
O O11 0.096833 0.310640 0.926110
O O12 0.113181 0.088467 0.124976
O O13 0.336454 0.200560 0.867811
O O14 0.741351 0.503425 0.944589
O O15 0.866936 0.098891 0.158970
#
# Coordination Sequence:
#
# PCOD8041508 Si02
#       7
#     2   2   2   2   2   2   2
#     4  10  19  33  55  87 117 140 176 237 287 337
#     4  10  19  33  52  79 117 149 179 232 281 337
#     4  11  22  37  56  81 114 154 191 230 269 325
#     4  11  20  33  57  89 111 144 183 231 296 336
#     4  11  21  35  56  84 118 143 184 233 280 330
#     4  10  19  35  53  81 117 145 190 225 276 337
#     4   9  18  31  54  83 115 144 177 229 290 330
#
# _framework density 18.336357
#
# number of rings (size 3 to 8) (size 9 to 14) (size 15 to 20)
#    0.000    1.714    4.286    1.714    0.000    0.000 
#    0.000    0.000    0.000    1.714    0.000    0.000 
#    0.000    0.000    0.000    0.000    0.000    0.000 
#
# Total GULP energy -173533.344279 kJ/mol
# GULP energy per Si atom -12395.238877 kJ/mol
# Density = 1.829462 g / cm^3
# Si number density = 18.336357 Si / 1000 Ang^3
#
#
#
# Elastic Constant Matrix: (Units=GPa)
#
#
# Indices 1 2 3 4 5 6 
#
# 1 123.0236 41.9973 40.3377 16.2470 -5.0705 -12.5574
# 2 41.9973 106.7704 36.6338 9.5593 -8.7404 -2.7794
# 3 40.3377 36.6338 69.6908 13.7923 -4.9842 -1.8226
# 4 16.2470 9.5593 13.7923 30.6936 -6.6304 4.1333
# 5 -5.0705 -8.7404 -4.9842 -6.6304 29.1107 4.0697
# 6 -12.5574 -2.7794 -1.8226 4.1333 4.0697 32.5415
#
#
#
# Elastic Compliance Matrix: (Units=1/GPa)
#
#
# Indices 1 2 3 4 5 6 
#
# 1 0.011421 -0.002588 -0.004393 -0.004129 -0.001124 0.004605
# 2 -0.002588 0.012198 -0.004820 0.000368 0.002553 -0.000593
# 3 -0.004393 -0.004820 0.020477 -0.005307 0.000127 -0.000302
# 4 -0.004129 0.000368 -0.005307 0.039999 0.008716 -0.008030
# 5 -0.001124 0.002553 0.000127 0.008716 0.037774 -0.006040
# 6 0.004605 -0.000593 -0.000302 -0.008030 -0.006040 0.034215
#
#
# Mechanical properties :
#
#
# Convention : Reuss Voigt Hill
#
# Bulk Modulus (GPa) = 48.79373 59.71360 54.25367
# Shear Modulus (GPa) = 26.80698 30.50357 28.65528
#
# Velocity S-wave (km/s) = 3.82770 4.08310 3.95746
# Velocity P-wave (km/s) = 6.79730 7.40711 7.10875
#
# Compressibility (1/GPa) = 0.02049443
#
# Stress axis : x y z
#
# Youngs Moduli (GPa) = 87.55497 81.97967 48.83471
#
# Poissons Ratio (x) = 0.21213 0.21456
# Poissons Ratio (y) = 0.22655 0.23539
# Poissons Ratio (z) = 0.38467 0.39515
#
# Static dielectric constant tensor:
#      x y z
#    x 3.691600 0.166060 0.236060 
#    y 0.166060 3.828260 0.319800 
#    z 0.236060 0.319800 3.370570 
# 
# 
# High freq. dielectric constant tensor:
#      x y z
#    x 1.694990 -0.009270 0.007110 
#    y -0.009270 1.739080 0.009860 
#    z 0.007110 0.009860 1.675900 
# 
# From -- ./inp_files/254613.got.cif
#   From: 2010.06.25/outbox.cif.g09.slc.cpg/sg2_128_cif.got.tgz:254613.got - 2010.06.27 13:26:56.
