data_PCOD8041128
_publ_section_title
;
Structure prediction by ZEFSAII (Michael W. Deem and Ramdas Pophale) SiO2 
 PCOD8041128
Probable space group: P -1
;
_chemical_formula_sum "Si O2"
_cell_formula_units_Z 12
_cell_length_a 17.005750
_cell_length_b 7.077041
_cell_length_c 5.339268
_cell_angle_alpha 59.439026
_cell_angle_beta 117.718853
_cell_angle_gamma 101.084920
_cell_volume 488.996625
_symmetry_space_group_name_H-M "P -1"
_symmetry_group_IT_number 2
_symmetry_cell_setting 'triclinic'
loop_
_space_group_symop_operation_xyz
x,y,z
-x,-y,-z
loop_
_atom_site_type_symbol
_atom_site_label
_atom_site_fract_x
_atom_site_fract_y
_atom_site_fract_z
Si Si1 0.096701 0.915734 0.116503
Si Si2 0.389570 0.916212 0.133614
Si Si3 0.923969 0.600198 0.557731
Si Si4 0.466480 0.738196 0.873553
Si Si5 0.875715 0.530206 0.029305
Si Si6 0.190578 0.917267 0.751333
O O1 0.099194 0.653949 0.278676
O O2 0.165261 0.985933 0.384606
O O3 0.121303 0.008799 0.808662
O O4 0.000000 0.000000 0.000000
O O5 0.402768 0.823067 0.495824
O O6 0.447033 0.126100 0.049502
O O7 0.414455 0.743387 0.060071
O O8 0.287098 0.000139 0.898693
O O9 0.877547 0.689822 0.169068
O O10 0.029867 0.621755 0.708453
O O11 0.874795 0.694691 0.674932
O O12 0.500000 0.500000 0.000000
O O13 0.801233 0.353228 0.037735
#
# Coordination Sequence:
#
# PCOD8041128 Si02
#       6
#     2   2   2   2   2   2
#     4  10  19  31  48  70 104 147 188 233 283 333
#     4  10  21  38  63  91 121 158 194 245 306 360
#     4   8  14  25  40  59  83 120 166 207 256 306
#     4  10  21  40  64  90 122 156 193 239 306 381
#     4   8  14  25  42  60  84 119 161 211 255 303
#     4  10  19  33  51  74 105 142 191 239 284 341
#
# _framework density 24.540050000000001
#
# number of rings (size 3 to 8) (size 9 to 14) (size 15 to 20)
#    0.000    2.667    0.000    2.000    0.000    0.000 
#    0.000    3.333    0.000    4.000    0.000    0.000 
#    0.000    0.000    0.000    0.000    0.000    0.000 
#
# Total GULP energy -148725.320109 kJ/mol
# GULP energy per Si atom -12393.776676 kJ/mol
# Density = 2.448420 g / cm^3
# Si number density = 24.540050 Si / 1000 Ang^3
#
#
#
# Elastic Constant Matrix: (Units=GPa)
#
#
# Indices 1 2 3 4 5 6 
#
# 1 97.2664 14.1944 63.8782 17.6922 -15.1894 -8.1872
# 2 14.1944 80.1958 18.8025 21.0154 -9.4338 -19.2421
# 3 63.8782 18.8025 168.0040 30.2487 -36.8086 15.7518
# 4 17.6922 21.0154 30.2487 29.9706 0.3175 -1.2852
# 5 -15.1894 -9.4338 -36.8086 0.3175 56.7564 9.1719
# 6 -8.1872 -19.2421 15.7518 -1.2852 9.1719 26.0227
#
#
#
# Elastic Compliance Matrix: (Units=1/GPa)
#
#
# Indices 1 2 3 4 5 6 
#
# 1 0.015980 0.002271 -0.007271 -0.003167 -0.001923 0.011629
# 2 0.002271 0.019639 -0.002528 -0.011857 -0.000335 0.016298
# 3 -0.007271 -0.002528 0.014357 -0.009246 0.009699 -0.016723
# 4 -0.003167 -0.011857 -0.009246 0.053057 -0.009397 0.001765
# 5 -0.001923 -0.000335 0.009699 -0.009397 0.026036 -0.016365
# 6 0.011629 0.016298 -0.016723 0.001765 -0.016365 0.070116
#
#
# Mechanical properties :
#
#
# Convention : Reuss Voigt Hill
#
# Bulk Modulus (GPa) = 28.63816 59.91293 44.27554
# Shear Modulus (GPa) = 22.13551 39.12267 30.62909
#
# Velocity S-wave (km/s) = 3.00662 3.99712 3.53672
# Velocity P-wave (km/s) = 4.87322 6.76535 5.89569
#
# Compressibility (1/GPa) = 0.03491845
#
# Stress axis : x y z
#
# Youngs Moduli (GPa) = 62.57951 50.91984 69.65009
#
# Poissons Ratio (x) = -0.11562 0.50645
# Poissons Ratio (y) = -0.14209 0.17607
# Poissons Ratio (z) = 0.45504 0.12872
#
# Static dielectric constant tensor:
#      x y z
#    x 4.609300 -0.188940 -1.133570 
#    y -0.188940 4.983650 0.429560 
#    z -1.133570 0.429560 5.305000 
# 
# 
# High freq. dielectric constant tensor:
#      x y z
#    x 1.947220 -0.005520 -0.050150 
#    y -0.005520 2.018390 0.017850 
#    z -0.050150 0.017850 1.987690 
# 
# From -- ./inp_files/86265.got.cif
#   From: 2010.06.25/outbox.cif.g09.slc.cpg/sg2_44_cif.got.tgz:86265.got - 2010.06.27 13:26:56.
