data_PCOD8041121
_publ_section_title
;
Structure prediction by ZEFSAII (Michael W. Deem and Ramdas Pophale) SiO2 
 PCOD8041121
Probable space group: P -1
;
_chemical_formula_sum "Si O2"
_cell_formula_units_Z 16
_cell_length_a 12.234606
_cell_length_b 20.972995
_cell_length_c 8.888121
_cell_angle_alpha 94.721105
_cell_angle_beta 112.717935
_cell_angle_gamma 28.097508
_cell_volume 796.519333
_symmetry_space_group_name_H-M "P -1"
_symmetry_group_IT_number 2
_symmetry_cell_setting 'triclinic'
loop_
_space_group_symop_operation_xyz
x,y,z
-x,-y,-z
loop_
_atom_site_type_symbol
_atom_site_label
_atom_site_fract_x
_atom_site_fract_y
_atom_site_fract_z
Si Si1 0.220399 0.803518 0.167404
Si Si2 0.438017 0.562785 0.137163
Si Si3 0.148572 0.065999 0.731871
Si Si4 0.174265 0.647895 0.428663
Si Si5 0.649369 0.024408 0.496145
Si Si6 0.329625 0.193386 0.820253
Si Si7 0.412238 0.846744 0.268209
Si Si8 0.761236 0.882825 0.800615
O O1 0.427952 0.645148 0.166752
O O2 0.433830 0.759998 0.283014
O O3 0.109026 0.842447 0.286726
O O4 0.924508 0.962968 0.935183
O O5 0.737047 0.389775 0.356297
O O6 0.500000 0.500000 0.000000
O O7 0.089971 0.713456 0.033159
O O8 0.083358 0.173844 0.727745
O O9 0.139406 0.054038 0.546000
O O10 0.496604 0.880276 0.944295
O O11 0.500000 0.500000 0.500000
O O12 0.026561 0.651878 0.313326
O O13 0.526861 0.148963 0.539461
O O14 0.360076 0.128225 0.295163
O O15 0.828898 0.887250 0.680622
O O16 0.327755 0.259639 0.734361
O O17 0.512316 0.047201 0.795787
#
# Coordination Sequence:
#
# PCOD8041121 Si02
#       8
#     2   2   2   2   2   2   2   2
#     4  10  20  40  57  85 116 155 193 246 281 345
#     4  12  24  36  57  89 120 150 187 246 304 341
#     4  11  20  35  58  87 117 151 191 242 293 340
#     4  12  23  34  55  89 123 151 181 243 310 345
#     4  10  19  30  61  85 109 149 195 243 275 335
#     4  10  20  37  60  84 113 160 197 237 284 349
#     4   9  20  38  63  80 112 155 210 233 273 339
#     4  10  19  37  55  83 120 148 199 238 286 344
#
# _framework density 20.087395000000001
#
# number of rings (size 3 to 8) (size 9 to 14) (size 15 to 20)
#    0.000    1.500    6.250    1.125    5.250    0.500 
#    0.000    0.625    0.000    0.000    0.000    2.625 
#    0.000    0.000    0.000    0.000    0.000    0.000 
#
# Total GULP energy -198215.673649 kJ/mol
# GULP energy per Si atom -12388.479603 kJ/mol
# Density = 2.004168 g / cm^3
# Si number density = 20.087395 Si / 1000 Ang^3
#
#
#
# Elastic Constant Matrix: (Units=GPa)
#
#
# Indices 1 2 3 4 5 6 
#
# 1 148.4747 40.0820 31.2927 8.4275 9.1811 0.6502
# 2 40.0820 60.6281 3.1206 16.4228 -5.1047 1.1636
# 3 31.2927 3.1206 36.2817 3.5227 -4.7998 -2.0129
# 4 8.4275 16.4228 3.5227 27.6991 -7.5436 5.4257
# 5 9.1811 -5.1047 -4.7998 -7.5436 32.3997 7.3841
# 6 0.6502 1.1636 -2.0129 5.4257 7.3841 27.4623
#
#
#
# Elastic Compliance Matrix: (Units=1/GPa)
#
#
# Indices 1 2 3 4 5 6 
#
# 1 0.011148 -0.007528 -0.009751 0.000565 -0.005840 0.000799
# 2 -0.007528 0.024803 0.006121 -0.012336 0.003853 0.000977
# 3 -0.009751 0.006121 0.036914 -0.003363 0.008151 0.001150
# 4 0.000565 -0.012336 -0.003363 0.049357 0.011774 -0.012654
# 5 -0.005840 0.003853 0.008151 0.011774 0.039921 -0.012488
# 6 0.000799 0.000977 0.001150 -0.012654 -0.012488 0.042295
#
#
# Mechanical properties :
#
#
# Convention : Reuss Voigt Hill
#
# Bulk Modulus (GPa) = 19.78233 43.81946 31.80089
# Shear Modulus (GPa) = 20.52501 28.90483 24.71492
#
# Velocity S-wave (km/s) = 3.20001 3.79747 3.51147
# Velocity P-wave (km/s) = 4.85004 6.41011 5.68385
#
# Compressibility (1/GPa) = 0.05055016
#
# Stress axis : x y z
#
# Youngs Moduli (GPa) = 89.70064 40.31737 27.08984
#
# Poissons Ratio (x) = 0.30352 0.26415
# Poissons Ratio (y) = 0.67530 -0.16583
# Poissons Ratio (z) = 0.87466 -0.24680
#
# Static dielectric constant tensor:
#      x y z
#    x 4.001400 -0.281540 0.075170 
#    y -0.281540 3.259760 0.573590 
#    z 0.075170 0.573590 3.123870 
# 
# 
# High freq. dielectric constant tensor:
#      x y z
#    x 1.779030 -0.016350 -0.000270 
#    y -0.016350 1.745920 0.016670 
#    z -0.000270 0.016670 1.786860 
# 
# From -- ./inp_files/281978.got.cif
#   From: 2010.06.25/outbox.cif.g09.slc.cpg/sg2_141_cif.got.tgz:281978.got - 2010.06.27 13:26:56.
