data_PCOD8041966
_publ_section_title
;
Structure prediction by ZEFSAII (Michael W. Deem and Ramdas Pophale) SiO2 
 PCOD8041966
Probable space group: P -1
;
_chemical_formula_sum "Si O2"
_cell_formula_units_Z 14
_cell_length_a 12.793601
_cell_length_b 10.146623
_cell_length_c 12.727636
_cell_angle_alpha 36.144971
_cell_angle_beta 112.748180
_cell_angle_gamma 134.603529
_cell_volume 626.588259
_symmetry_space_group_name_H-M "P -1"
_symmetry_group_IT_number 2
_symmetry_cell_setting 'triclinic'
loop_
_space_group_symop_operation_xyz
x,y,z
-x,-y,-z
loop_
_atom_site_type_symbol
_atom_site_label
_atom_site_fract_x
_atom_site_fract_y
_atom_site_fract_z
Si Si1 0.415455 0.370694 0.814728
Si Si2 0.773214 0.939266 0.611014
Si Si3 0.803893 0.151846 0.265224
Si Si4 0.328148 0.768345 0.138718
Si Si5 0.540657 0.874113 0.681791
Si Si6 0.929962 0.718912 0.820254
Si Si7 0.559179 0.269479 0.591316
O O1 0.410706 0.489975 0.851419
O O2 0.607547 0.581538 0.734592
O O3 0.359492 0.459181 0.640970
O O4 0.303223 0.994151 0.016295
O O5 0.844046 0.178835 0.386317
O O6 0.723734 0.036434 0.624744
O O7 0.905949 0.944654 0.696420
O O8 0.612298 0.871920 0.345142
O O9 0.885190 0.073088 0.275713
O O10 0.878220 0.496933 0.041881
O O11 0.178686 0.488415 0.190055
O O12 0.325410 0.600623 0.346966
O O13 0.500000 0.000000 0.000000
O O14 0.525442 0.966576 0.729824
O O15 0.500000 0.000000 0.500000
#
# Coordination Sequence:
#
# PCOD8041966 Si02
#       7
#     2   2   2   2   2   2   2
#     4   8  18  31  50  78  98 127 166 212 250 292
#     4   9  17  34  54  78  97 131 175 216 248 288
#     4  10  20  34  54  73 106 137 171 204 257 297
#     4  12  20  32  49  76 112 130 165 210 255 303
#     4   8  15  32  54  80  98 122 180 220 243 292
#     4  11  22  34  48  81 108 136 167 204 253 320
#     4  10  19  34  55  80  95 135 169 217 254 286
#
# _framework density 22.343219999999999
#
# number of rings (size 3 to 8) (size 9 to 14) (size 15 to 20)
#    0.857    1.429    4.286    0.429    0.000    2.286 
#    0.000    0.000    0.000    1.714    0.000    0.000 
#    0.000    0.000    0.000    0.000    0.000    0.000 
#
# Total GULP energy -173433.065406 kJ/mol
# GULP energy per Si atom -12388.076100 kJ/mol
# Density = 2.229237 g / cm^3
# Si number density = 22.343220 Si / 1000 Ang^3
#
#
#
# Elastic Constant Matrix: (Units=GPa)
#
#
# Indices 1 2 3 4 5 6 
#
# 1 104.6120 13.1374 25.0521 7.9700 25.2203 15.2430
# 2 13.1374 30.7105 10.1847 6.7266 4.1464 -0.4999
# 3 25.0521 10.1847 69.9126 21.4652 13.7447 14.9780
# 4 7.9700 6.7266 21.4652 23.2446 0.7032 3.0088
# 5 25.2203 4.1464 13.7447 0.7032 33.4433 2.1875
# 6 15.2430 -0.4999 14.9780 3.0088 2.1875 9.1716
#
#
#
# Elastic Compliance Matrix: (Units=1/GPa)
#
#
# Indices 1 2 3 4 5 6 
#
# 1 0.017457 -0.007400 0.006203 -0.004659 -0.012406 -0.035060
# 2 -0.007400 0.039762 -0.008193 -0.005228 0.002229 0.029029
# 3 0.006203 -0.008193 0.036389 -0.025361 -0.014260 -0.058461
# 4 -0.004659 -0.005228 -0.025361 0.066036 0.011597 0.024444
# 5 -0.012406 0.002229 -0.014260 0.011597 0.042631 0.030055
# 6 -0.035060 0.029029 -0.058461 0.024444 0.030055 0.249167
#
#
# Mechanical properties :
#
#
# Convention : Reuss Voigt Hill
#
# Bulk Modulus (GPa) = 13.36406 33.55373 23.45890
# Shear Modulus (GPa) = 10.09764 23.62928 16.86346
#
# Velocity S-wave (km/s) = 2.12818 3.25554 2.75025
# Velocity P-wave (km/s) = 3.46888 5.40198 4.53952
#
# Compressibility (1/GPa) = 0.07482755
#
# Stress axis : x y z
#
# Youngs Moduli (GPa) = 57.28264 25.14985 27.48087
#
# Poissons Ratio (x) = 0.18612 -0.17046
# Poissons Ratio (y) = 0.42391 0.22515
# Poissons Ratio (z) = -0.35532 0.20605
#
# Static dielectric constant tensor:
#      x y z
#    x 4.625100 -0.371430 0.407240 
#    y -0.371430 3.817290 0.213610 
#    z 0.407240 0.213610 4.036020 
# 
# 
# High freq. dielectric constant tensor:
#      x y z
#    x 1.873060 -0.005810 0.026370 
#    y -0.005810 1.830090 0.021780 
#    z 0.026370 0.021780 1.880040 
# 
# From -- ./inp_files/518580.got.cif
#   From: 2010.06.25/outbox.cif.g09.slc.cpg/sg2_260_cif.got.tgz:518580.got - 2010.06.27 13:26:56.
