data_PCOD8041259
_publ_section_title
;
Structure prediction by ZEFSAII (Michael W. Deem and Ramdas Pophale) SiO2 
 PCOD8041259
Probable space group: P -1
;
_chemical_formula_sum "Si O2"
_cell_formula_units_Z 14
_cell_length_a 14.743854
_cell_length_b 14.322723
_cell_length_c 12.073129
_cell_angle_alpha 121.718819
_cell_angle_beta 116.717369
_cell_angle_gamma 20.187021
_cell_volume 739.987534
_symmetry_space_group_name_H-M "P -1"
_symmetry_group_IT_number 2
_symmetry_cell_setting 'triclinic'
loop_
_space_group_symop_operation_xyz
x,y,z
-x,-y,-z
loop_
_atom_site_type_symbol
_atom_site_label
_atom_site_fract_x
_atom_site_fract_y
_atom_site_fract_z
Si Si1 0.206633 0.193029 0.044262
Si Si2 0.116560 0.269337 0.288901
Si Si3 0.771781 0.370541 0.612047
Si Si4 0.230779 0.410163 0.116739
Si Si5 0.671290 0.243637 0.557498
Si Si6 0.766839 0.970177 0.595921
Si Si7 0.267872 0.344499 0.494816
O O1 0.099875 0.255704 0.142798
O O2 0.178973 0.352194 0.122948
O O3 0.026394 0.312657 0.928213
O O4 0.512960 0.855588 0.986888
O O5 0.288088 0.208982 0.358060
O O6 0.828680 0.578929 0.382043
O O7 0.255514 0.028928 0.283144
O O8 0.718838 0.541336 0.741614
O O9 0.676554 0.370444 0.646036
O O10 0.603311 0.523985 0.502499
O O11 0.085120 0.044196 0.561867
O O12 0.706987 0.156426 0.646411
O O13 0.558313 0.104106 0.498572
O O14 0.056573 0.639738 0.505238
#
# Coordination Sequence:
#
# PCOD8041259 Si02
#       7
#     2   2   2   2   2   2   2
#     4  10  22  35  54  76 104 144 180 207 259 313
#     4   9  21  32  52  75 109 135 175 210 264 315
#     4  10  21  38  55  80 107 140 173 224 261 312
#     4  10  22  38  51  77 104 141 182 217 249 306
#     4  10  21  34  59  83 104 136 176 212 282 312
#     4  10  19  32  49  81 105 130 168 213 265 322
#     4   9  20  31  48  80 104 140 165 209 271 314
#
# _framework density 18.919238
#
# number of rings (size 3 to 8) (size 9 to 14) (size 15 to 20)
#    0.857    1.429    0.000    2.143    6.000    0.000 
#    0.000    0.000    0.000    1.714    0.000    0.000 
#    0.000    0.000    0.000    0.000    0.000    0.000 
#
# Total GULP energy -173494.536426 kJ/mol
# GULP energy per Si atom -12392.466888 kJ/mol
# Density = 1.887618 g / cm^3
# Si number density = 18.919238 Si / 1000 Ang^3
#
#
#
# Elastic Constant Matrix: (Units=GPa)
#
#
# Indices 1 2 3 4 5 6 
#
# 1 66.2188 19.2287 19.8754 -13.7095 -1.7169 18.3578
# 2 19.2287 82.8007 8.8371 -15.7316 -0.3952 -0.7446
# 3 19.8754 8.8371 45.3398 -4.9906 2.4791 2.6013
# 4 -13.7095 -15.7316 -4.9906 18.3193 2.1634 -0.3817
# 5 -1.7169 -0.3952 2.4791 2.1634 26.3935 -6.9232
# 6 18.3578 -0.7446 2.6013 -0.3817 -6.9232 32.8617
#
#
#
# Elastic Compliance Matrix: (Units=1/GPa)
#
#
# Indices 1 2 3 4 5 6 
#
# 1 0.024880 -0.002315 -0.007945 0.014470 -0.002441 -0.013669
# 2 -0.002315 0.014764 -0.000758 0.010809 -0.000284 0.001754
# 3 -0.007945 -0.000758 0.025803 0.000770 -0.002528 0.001855
# 4 0.014470 0.010809 0.000770 0.075606 -0.007418 -0.008584
# 5 -0.002441 -0.000284 -0.002528 -0.007418 0.041235 0.010159
# 6 -0.013669 0.001754 0.001855 -0.008584 0.010159 0.040000
#
#
# Mechanical properties :
#
#
# Convention : Reuss Voigt Hill
#
# Bulk Modulus (GPa) = 23.03578 32.24908 27.64243
# Shear Modulus (GPa) = 19.32036 25.27613 22.29824
#
# Velocity S-wave (km/s) = 3.19909 3.65910 3.43680
# Velocity P-wave (km/s) = 5.08408 5.91056 5.51283
#
# Compressibility (1/GPa) = 0.04341074
#
# Stress axis : x y z
#
# Youngs Moduli (GPa) = 40.19226 67.73279 38.75560
#
# Poissons Ratio (x) = 0.15682 0.30791
# Poissons Ratio (y) = 0.09306 0.02937
# Poissons Ratio (z) = 0.31932 0.05134
#
# Static dielectric constant tensor:
#      x y z
#    x 3.678940 0.094960 -0.021840 
#    y 0.094960 3.540210 -0.137630 
#    z -0.021840 -0.137630 2.878430 
# 
# 
# High freq. dielectric constant tensor:
#      x y z
#    x 1.740330 -0.002130 -0.006490 
#    y -0.002130 1.748050 -0.016820 
#    z -0.006490 -0.016820 1.676950 
# 
# From -- ./inp_files/453995.got.cif
#   From: 2010.06.25/outbox.cif.g09.slc.cpg/sg2_227_cif.got.tgz:453995.got - 2010.06.27 13:26:56.
