data_PCOD8041743
_publ_section_title
;
Structure prediction by ZEFSAII (Michael W. Deem and Ramdas Pophale) SiO2 
 PCOD8041743
Probable space group: P -1
;
_chemical_formula_sum "Si O2"
_cell_formula_units_Z 14
_cell_length_a 13.942413
_cell_length_b 10.978518
_cell_length_c 15.970469
_cell_angle_alpha 105.567361
_cell_angle_beta 18.463324
_cell_angle_gamma 96.174679
_cell_volume 653.502783
_symmetry_space_group_name_H-M "P -1"
_symmetry_group_IT_number 2
_symmetry_cell_setting 'triclinic'
loop_
_space_group_symop_operation_xyz
x,y,z
-x,-y,-z
loop_
_atom_site_type_symbol
_atom_site_label
_atom_site_fract_x
_atom_site_fract_y
_atom_site_fract_z
Si Si1 0.823614 0.908588 0.775811
Si Si2 0.400887 0.424226 0.495592
Si Si3 0.709149 0.422635 0.068113
Si Si4 0.906353 0.916291 0.310235
Si Si5 0.403594 0.442553 0.151546
Si Si6 0.303165 0.836885 0.233931
Si Si7 0.213070 0.916523 0.887687
O O1 0.155182 0.786366 0.426547
O O2 0.668407 0.834454 0.954212
O O3 0.951311 0.010950 0.729841
O O4 0.500000 0.000000 0.000000
O O5 0.500000 0.500000 0.500000
O O6 0.461471 0.477167 0.364557
O O7 0.627014 0.253620 0.289896
O O8 0.998257 0.472051 0.847008
O O9 0.508460 0.489061 0.159907
O O10 0.861045 0.252969 0.905169
O O11 0.510660 0.960750 0.666067
O O12 0.943878 0.968293 0.196543
O O13 0.000000 0.500000 0.500000
O O14 0.500000 0.500000 0.000000
O O15 0.620497 0.267629 0.928514
O O16 0.000000 0.000000 0.500000
O O17 0.000000 0.000000 0.000000
#
# Coordination Sequence:
#
# PCOD8041743 Si02
#       7
#     2   2   2   2   2   2   2
#     4  10  19  33  57  88 117 149 197 248 281 335
#     4  10  21  39  64  87 112 153 202 250 300 361
#     4  10  21  39  62  85 116 161 206 238 295 377
#     4  10  20  36  61  87 115 158 199 237 296 367
#     4  12  25  42  62  90 129 168 204 254 307 359
#     4  10  21  37  59  84 117 159 202 243 288 347
#     4  10  21  38  59  87 117 148 191 248 307 358
#
# _framework density 21.423016000000001
#
# number of rings (size 3 to 8) (size 9 to 14) (size 15 to 20)
#    0.000    1.714    0.000    5.143    0.000    6.857 
#    0.000    8.571    0.000    0.000    0.000    0.000 
#    0.000    0.000    0.000    0.000    0.000    0.000 
#
# Total GULP energy -173489.577774 kJ/mol
# GULP energy per Si atom -12392.112698 kJ/mol
# Density = 2.137426 g / cm^3
# Si number density = 21.423016 Si / 1000 Ang^3
#
#
#
# Elastic Constant Matrix: (Units=GPa)
#
#
# Indices 1 2 3 4 5 6 
#
# 1 157.5355 59.4545 55.7523 -23.0329 -0.5730 5.3469
# 2 59.4545 75.4093 56.0874 -33.3956 1.5754 11.0844
# 3 55.7523 56.0874 122.4256 -40.3109 19.6294 0.4117
# 4 -23.0329 -33.3956 -40.3109 46.7075 -6.0656 -0.0155
# 5 -0.5730 1.5754 19.6294 -6.0656 40.2437 -7.8366
# 6 5.3469 11.0844 0.4117 -0.0155 -7.8366 47.1409
#
#
#
# Elastic Compliance Matrix: (Units=1/GPa)
#
#
# Indices 1 2 3 4 5 6 
#
# 1 0.009329 -0.006893 -0.001875 -0.001790 0.001199 0.000778
# 2 -0.006893 0.030289 -0.007055 0.012546 0.002921 -0.005789
# 3 -0.001875 -0.007055 0.015377 0.006506 -0.006130 0.000720
# 4 -0.001790 0.012546 0.006506 0.035256 0.001116 -0.002606
# 5 0.001199 0.002921 -0.006130 0.001116 0.028688 0.004000
# 6 0.000778 -0.005789 0.000720 -0.002606 0.004000 0.023144
#
#
# Mechanical properties :
#
#
# Convention : Reuss Voigt Hill
#
# Bulk Modulus (GPa) = 42.82883 77.55097 60.18990
# Shear Modulus (GPa) = 27.54633 39.09016 33.31824
#
# Velocity S-wave (km/s) = 3.58974 4.27626 3.94795
# Velocity P-wave (km/s) = 6.10057 7.78847 6.99562
#
# Compressibility (1/GPa) = 0.02334876
#
# Stress axis : x y z
#
# Youngs Moduli (GPa) = 107.19409 33.01545 65.03196
#
# Poissons Ratio (x) = 0.22757 0.12192
# Poissons Ratio (y) = 0.73887 0.45883
# Poissons Ratio (z) = 0.20096 0.23294
#
# Static dielectric constant tensor:
#      x y z
#    x 3.805890 0.227580 0.139580 
#    y 0.227580 3.358580 0.246830 
#    z 0.139580 0.246830 3.692860 
# 
# 
# High freq. dielectric constant tensor:
#      x y z
#    x 1.835970 0.002290 0.020810 
#    y 0.002290 1.840940 -0.029140 
#    z 0.020810 -0.029140 1.850560 
# 
# From -- ./inp_files/76846.got.cif
#   From: 2010.06.25/outbox.cif.g09.slc.cpg/sg2_39_cif.got.tgz:76846.got - 2010.06.27 13:26:56.
