data_PCOD8041809
_publ_section_title
;
Structure prediction by ZEFSAII (Michael W. Deem and Ramdas Pophale) SiO2 
 PCOD8041809
Probable space group: P -1
;
_chemical_formula_sum "Si O2"
_cell_formula_units_Z 16
_cell_length_a 16.577735
_cell_length_b 11.973705
_cell_length_c 21.908148
_cell_angle_alpha 27.646448
_cell_angle_beta 28.401518
_cell_angle_gamma 27.003681
_cell_volume 827.611760
_symmetry_space_group_name_H-M "P -1"
_symmetry_group_IT_number 2
_symmetry_cell_setting 'triclinic'
loop_
_space_group_symop_operation_xyz
x,y,z
-x,-y,-z
loop_
_atom_site_type_symbol
_atom_site_label
_atom_site_fract_x
_atom_site_fract_y
_atom_site_fract_z
Si Si1 0.749944 0.945765 0.679124
Si Si2 0.994123 0.179797 0.619011
Si Si3 0.904928 0.336285 0.848540
Si Si4 0.682259 0.802730 0.184400
Si Si5 0.701857 0.041930 0.177716
Si Si6 0.694227 0.664609 0.651902
Si Si7 0.964384 0.182506 0.343248
Si Si8 0.123483 0.888222 0.145211
O O1 0.801810 0.664104 0.743882
O O2 0.848574 0.853567 0.725484
O O3 0.514250 0.148324 0.742725
O O4 0.828759 0.121179 0.506917
O O5 0.195201 0.178425 0.471882
O O6 0.807968 0.500973 0.593095
O O7 0.019511 0.021287 0.744038
O O8 0.945598 0.036081 0.666237
O O9 0.977139 0.127723 0.842927
O O10 0.759759 0.280030 0.014341
O O11 0.106074 0.251201 0.791554
O O12 0.830028 0.483227 0.257256
O O13 0.613359 0.994948 0.197435
O O14 0.794811 0.901462 0.015900
O O15 0.539448 0.122433 0.300793
O O16 0.703261 0.434198 0.805125
#
# Coordination Sequence:
#
# PCOD8041809 Si02
#       8
#     2   2   2   2   2   2   2   2
#     4  11  23  37  61  85 115 155 190 243 293 340
#     4   9  20  38  59  81 117 158 191 235 281 345
#     4  10  19  34  57  90 120 138 192 245 297 329
#     4  11  21  37  59  89 114 153 195 236 295 341
#     4  10  19  33  59  91 115 145 186 251 288 339
#     4   9  18  36  60  82 109 153 194 231 291 333
#     4  11  23  40  56  84 120 154 193 237 283 350
#     4   9  19  35  59  85 111 154 190 234 289 339
#
# _framework density 19.332736000000001
#
# number of rings (size 3 to 8) (size 9 to 14) (size 15 to 20)
#    0.750    1.250    1.250    3.375    0.000    2.500 
#    0.000    2.500    0.000    0.000    0.000    0.000 
#    0.000    0.000    0.000    0.000    0.000    0.000 
#
# Total GULP energy -198268.121915 kJ/mol
# GULP energy per Si atom -12391.757620 kJ/mol
# Density = 1.928873 g / cm^3
# Si number density = 19.332736 Si / 1000 Ang^3
#
#
#
# Elastic Constant Matrix: (Units=GPa)
#
#
# Indices 1 2 3 4 5 6 
#
# 1 94.8751 42.2357 32.4078 7.7931 -9.3679 -5.2405
# 2 42.2357 84.2109 44.2437 8.8304 -10.6786 -11.9014
# 3 32.4078 44.2437 90.7925 2.6406 -1.6024 -7.6944
# 4 7.7931 8.8304 2.6406 31.3788 -2.4575 -0.1254
# 5 -9.3679 -10.6786 -1.6024 -2.4575 24.9644 1.5678
# 6 -5.2405 -11.9014 -7.6944 -0.1254 1.5678 28.3281
#
#
#
# Elastic Compliance Matrix: (Units=1/GPa)
#
#
# Indices 1 2 3 4 5 6 
#
# 1 0.014120 -0.005400 -0.002353 -0.001579 0.002711 -0.000453
# 2 -0.005400 0.020177 -0.007273 -0.003274 0.005489 0.005184
# 3 -0.002353 -0.007273 0.015387 0.001109 -0.002951 0.000856
# 4 -0.001579 -0.003274 0.001109 0.033195 0.001428 -0.001298
# 5 0.002711 0.005489 -0.002951 0.001428 0.043398 -0.000389
# 6 -0.000453 0.005184 0.000856 -0.001298 -0.000389 0.037643
#
#
# Mechanical properties :
#
#
# Convention : Reuss Voigt Hill
#
# Bulk Modulus (GPa) = 50.94173 56.40586 53.67380
# Shear Modulus (GPa) = 24.93548 27.00035 25.96791
#
# Velocity S-wave (km/s) = 3.59528 3.74118 3.66896
# Velocity P-wave (km/s) = 6.60620 6.92110 6.76548
#
# Compressibility (1/GPa) = 0.01963027
#
# Stress axis : x y z
#
# Youngs Moduli (GPa) = 70.81950 49.56164 64.99158
#
# Poissons Ratio (x) = 0.26766 0.15293
# Poissons Ratio (y) = 0.38246 0.47270
# Poissons Ratio (z) = 0.16665 0.36047
#
# Static dielectric constant tensor:
#      x y z
#    x 3.449230 -0.056110 -0.078690 
#    y -0.056110 3.205280 -0.074240 
#    z -0.078690 -0.074240 3.506190 
# 
# 
# High freq. dielectric constant tensor:
#      x y z
#    x 1.738300 -0.001710 -0.007940 
#    y -0.001710 1.730360 -0.006390 
#    z -0.007940 -0.006390 1.756130 
# 
# From -- ./inp_files/597937.got.cif
#   From: 2010.06.25/outbox.cif.g09.slc.cpg/sg2_299_cif.got.tgz:597937.got - 2010.06.27 13:26:56.
