data_PCOD8041599
_publ_section_title
;
Structure prediction by ZEFSAII (Michael W. Deem and Ramdas Pophale) SiO2 
 PCOD8041599
Probable space group: P -1
;
_chemical_formula_sum "Si O2"
_cell_formula_units_Z 16
_cell_length_a 15.759945
_cell_length_b 16.464706
_cell_length_c 5.062698
_cell_angle_alpha 84.584570
_cell_angle_beta 85.257326
_cell_angle_gamma 37.282821
_cell_volume 792.148953
_symmetry_space_group_name_H-M "P -1"
_symmetry_group_IT_number 2
_symmetry_cell_setting 'triclinic'
loop_
_space_group_symop_operation_xyz
x,y,z
-x,-y,-z
loop_
_atom_site_type_symbol
_atom_site_label
_atom_site_fract_x
_atom_site_fract_y
_atom_site_fract_z
Si Si1 0.742278 0.499958 0.884753
Si Si2 0.697032 0.759146 0.245777
Si Si3 0.567458 0.216447 0.179173
Si Si4 0.215533 0.208846 0.291925
Si Si5 0.392750 0.918334 0.295976
Si Si6 0.420041 0.617297 0.769873
Si Si7 0.926942 0.474705 0.124823
Si Si8 0.687131 0.444044 0.438159
O O1 0.871126 0.464563 0.891431
O O2 0.716807 0.484438 0.187257
O O3 0.601657 0.654163 0.788919
O O4 0.777646 0.402548 0.686141
O O5 0.737745 0.797263 0.430983
O O6 0.537492 0.856902 0.299861
O O7 0.794987 0.603324 0.301233
O O8 0.718656 0.779509 0.942461
O O9 0.631758 0.123122 0.442652
O O10 0.631725 0.259387 0.120364
O O11 0.617091 0.128055 0.945544
O O12 0.045497 0.333908 0.292753
O O13 0.267411 0.078196 0.270229
O O14 0.523942 0.569052 0.525408
O O15 0.291427 0.664428 0.651957
O O16 0.500000 0.500000 0.000000
O O17 0.000000 0.500000 0.000000
#
# Coordination Sequence:
#
# PCOD8041599 Si02
#       8
#     2   2   2   2   2   2   2   2
#     4  11  21  36  55  84 118 152 194 236 293 340
#     4  11  22  39  61  81 112 151 203 250 291 336
#     4  11  22  34  58  87 119 151 188 235 298 349
#     4  11  24  41  56  83 113 159 199 242 293 338
#     4  12  23  37  58  84 119 154 193 239 292 358
#     4  10  19  33  54  87 125 147 180 238 308 347
#     4  10  24  40  61  86 118 155 204 250 287 332
#     4  10  20  32  55  82 120 151 181 234 300 356
#
# _framework density 20.198221
#
# number of rings (size 3 to 8) (size 9 to 14) (size 15 to 20)
#    0.000    1.250    3.750    4.125    3.500    2.000 
#    0.000    0.000    0.000    0.000    0.000    5.250 
#    0.000    0.000    0.000    0.000    0.000    0.000 
#
# Total GULP energy -198309.173256 kJ/mol
# GULP energy per Si atom -12394.323328 kJ/mol
# Density = 2.015225 g / cm^3
# Si number density = 20.198221 Si / 1000 Ang^3
#
#
#
# Elastic Constant Matrix: (Units=GPa)
#
#
# Indices 1 2 3 4 5 6 
#
# 1 126.9305 42.9110 43.5306 4.9191 32.4793 32.5349
# 2 42.9110 114.5538 35.2932 -8.6098 11.8763 23.2813
# 3 43.5306 35.2932 116.5852 6.7748 14.2309 17.4336
# 4 4.9191 -8.6098 6.7748 22.2057 18.0139 4.3168
# 5 32.4793 11.8763 14.2309 18.0139 36.8662 13.2729
# 6 32.5349 23.2813 17.4336 4.3168 13.2729 29.7209
#
#
#
# Elastic Compliance Matrix: (Units=1/GPa)
#
#
# Indices 1 2 3 4 5 6 
#
# 1 0.014262 -0.000582 -0.002774 0.009488 -0.012602 -0.009279
# 2 -0.000582 0.012645 -0.002555 0.011979 -0.005963 -0.006846
# 3 -0.002774 -0.002555 0.010632 -0.005103 0.002170 -0.001426
# 4 0.009488 0.011979 -0.005103 0.094145 -0.053963 -0.006352
# 5 -0.012602 -0.005963 0.002170 -0.053963 0.067523 -0.005124
# 6 -0.009279 -0.006846 -0.001426 -0.006352 -0.005124 0.053214
#
#
# Mechanical properties :
#
#
# Convention : Reuss Voigt Hill
#
# Bulk Modulus (GPa) = 38.88803 66.83770 52.86286
# Shear Modulus (GPa) = 18.32744 33.51422 25.92083
#
# Velocity S-wave (km/s) = 3.01554 4.07783 3.58624
# Velocity P-wave (km/s) = 5.60532 7.43870 6.58612
#
# Compressibility (1/GPa) = 0.02571485
#
# Stress axis : x y z
#
# Youngs Moduli (GPa) = 70.11667 79.08468 94.05879
#
# Poissons Ratio (x) = 0.04604 0.26096
# Poissons Ratio (y) = 0.04082 0.24032
# Poissons Ratio (z) = 0.19454 0.20206
#
# Static dielectric constant tensor:
#      x y z
#    x 3.982840 0.263620 0.305160 
#    y 0.263620 3.900870 0.250010 
#    z 0.305160 0.250010 4.069150 
# 
# 
# High freq. dielectric constant tensor:
#      x y z
#    x 1.788980 0.032670 0.009740 
#    y 0.032670 1.747070 0.014660 
#    z 0.009740 0.014660 1.802750 
# 
# From -- ./inp_files/97003.got.cif
#   From: 2010.06.25/outbox.cif.g09.slc.cpg/sg2_49_cif.got.tgz:97003.got - 2010.06.27 13:26:56.
