data_PCOD8041714
_publ_section_title
;
Structure prediction by ZEFSAII (Michael W. Deem and Ramdas Pophale) SiO2 
 PCOD8041714
Probable space group: P -1
;
_chemical_formula_sum "Si O2"
_cell_formula_units_Z 16
_cell_length_a 9.569789
_cell_length_b 25.981909
_cell_length_c 15.583451
_cell_angle_alpha 28.421901
_cell_angle_beta 27.512796
_cell_angle_gamma 43.643871
_cell_volume 823.455173
_symmetry_space_group_name_H-M "P -1"
_symmetry_group_IT_number 2
_symmetry_cell_setting 'triclinic'
loop_
_space_group_symop_operation_xyz
x,y,z
-x,-y,-z
loop_
_atom_site_type_symbol
_atom_site_label
_atom_site_fract_x
_atom_site_fract_y
_atom_site_fract_z
Si Si1 0.320674 0.406971 0.172050
Si Si2 0.072815 0.730301 0.280979
Si Si3 0.593645 0.108083 0.729391
Si Si4 0.693783 0.771309 0.798682
Si Si5 0.293169 0.090984 0.740502
Si Si6 0.229566 0.296560 0.688518
Si Si7 0.400311 0.783849 0.762743
Si Si8 0.314522 0.474668 0.888199
O O1 0.535104 0.323539 0.160007
O O2 0.989093 0.348370 0.485478
O O3 0.500000 0.500000 0.000000
O O4 0.269165 0.464907 0.028505
O O5 0.854455 0.812493 0.289687
O O6 0.940950 0.669917 0.352126
O O7 0.442986 0.787679 0.983387
O O8 0.486230 0.061998 0.759523
O O9 0.441153 0.208818 0.690994
O O10 0.967163 0.160372 0.454233
O O11 0.500000 0.000000 0.000000
O O12 0.617513 0.818689 0.678361
O O13 0.647877 0.637672 0.012767
O O14 0.523000 0.118312 0.493196
O O15 0.000000 0.000000 0.000000
O O16 0.415017 0.417388 0.446415
O O17 0.964602 0.238609 0.985400
O O18 0.000000 0.500000 0.000000
#
# Coordination Sequence:
#
# PCOD8041714 Si02
#       8
#     2   2   2   2   2   2   2   2
#     4  10  19  33  57  82 115 150 191 226 271 330
#     4   9  20  37  60  85 113 150 193 234 273 340
#     4  11  23  40  61  83 115 149 188 243 289 336
#     4  10  21  38  59  88 116 148 193 231 284 336
#     4  10  21  41  62  82 113 149 191 239 286 337
#     4  10  20  38  59  85 116 154 192 227 285 336
#     4   9  21  36  59  86 110 150 193 233 273 339
#     4  11  21  35  57  84 123 154 183 231 281 341
#
# _framework density 19.430323000000001
#
# number of rings (size 3 to 8) (size 9 to 14) (size 15 to 20)
#    0.000    2.000    2.500    0.750    1.750    2.500 
#    2.250    5.625    0.000    0.000    0.000    0.000 
#    0.000    0.000    0.000    0.000    0.000    0.000 
#
# Total GULP energy -198238.325097 kJ/mol
# GULP energy per Si atom -12389.895319 kJ/mol
# Density = 1.938610 g / cm^3
# Si number density = 19.430323 Si / 1000 Ang^3
#
#
#
# Elastic Constant Matrix: (Units=GPa)
#
#
# Indices 1 2 3 4 5 6 
#
# 1 98.6721 18.0405 63.9045 5.0890 -1.3653 -5.7100
# 2 18.0405 25.1018 30.6680 18.5630 5.2202 -2.9835
# 3 63.9045 30.6680 149.5881 18.5164 -5.7253 -4.0248
# 4 5.0890 18.5630 18.5164 39.1812 0.5826 -1.2190
# 5 -1.3653 5.2202 -5.7253 0.5826 38.9667 -0.9892
# 6 -5.7100 -2.9835 -4.0248 -1.2190 -0.9892 26.3410
#
#
#
# Elastic Compliance Matrix: (Units=1/GPa)
#
#
# Indices 1 2 3 4 5 6 
#
# 1 0.014740 -0.006972 -0.005280 0.003930 0.000662 0.001805
# 2 -0.006972 0.087329 -0.010970 -0.034949 -0.012916 0.004601
# 3 -0.005280 -0.010970 0.011222 0.000519 0.002912 -0.000539
# 4 0.003930 -0.034949 0.000519 0.041231 0.004255 -0.000959
# 5 0.000662 -0.012916 0.002912 0.004255 0.027790 0.000366
# 6 0.001805 0.004601 -0.000539 -0.000959 0.000366 0.038763
#
#
# Mechanical properties :
#
#
# Convention : Reuss Voigt Hill
#
# Bulk Modulus (GPa) = 14.95951 55.39866 35.17908
# Shear Modulus (GPa) = 17.25319 31.61438 24.43379
#
# Velocity S-wave (km/s) = 2.98309 4.03806 3.54998
# Velocity P-wave (km/s) = 4.42502 7.09328 5.91166
#
# Compressibility (1/GPa) = 0.06684712
#
# Stress axis : x y z
#
# Youngs Moduli (GPa) = 67.84325 11.45100 89.10777
#
# Poissons Ratio (x) = 0.07983 0.47050
# Poissons Ratio (y) = 0.47299 0.97750
# Poissons Ratio (z) = 0.35822 0.12562
#
# Static dielectric constant tensor:
#      x y z
#    x 2.474660 -0.833820 -0.844230 
#    y -0.833820 2.758300 -0.525930 
#    z -0.844230 -0.525930 3.122180 
# 
# 
# High freq. dielectric constant tensor:
#      x y z
#    x 1.752090 0.004010 0.004590 
#    y 0.004010 1.748000 0.005290 
#    z 0.004590 0.005290 1.767970 
# 
# From -- ./inp_files/179435.got.cif
#   From: 2010.06.25/outbox.cif.g09.slc.cpg/sg2_90_cif.got.tgz:179435.got - 2010.06.27 13:26:56.
