data_PCOD8041630
_publ_section_title
;
Structure prediction by ZEFSAII (Michael W. Deem and Ramdas Pophale) SiO2 
 PCOD8041630
Probable space group: P -1
;
_chemical_formula_sum "Si O2"
_cell_formula_units_Z 16
_cell_length_a 11.560387
_cell_length_b 8.967081
_cell_length_c 15.037204
_cell_angle_alpha 38.954756
_cell_angle_beta 61.311269
_cell_angle_gamma 81.013782
_cell_volume 790.305144
_symmetry_space_group_name_H-M "P -1"
_symmetry_group_IT_number 2
_symmetry_cell_setting 'triclinic'
loop_
_space_group_symop_operation_xyz
x,y,z
-x,-y,-z
loop_
_atom_site_type_symbol
_atom_site_label
_atom_site_fract_x
_atom_site_fract_y
_atom_site_fract_z
Si Si1 0.552809 0.069874 0.046222
Si Si2 0.695080 0.452360 0.014767
Si Si3 0.848738 0.620605 0.246118
Si Si4 0.631302 0.793957 0.530703
Si Si5 0.698008 0.376494 0.239218
Si Si6 0.610494 0.434713 0.550949
Si Si7 0.609123 0.636389 0.801792
Si Si8 0.831260 0.158411 0.986107
O O1 0.721303 0.116102 0.964684
O O2 0.466078 0.846785 0.249951
O O3 0.532421 0.326420 0.962388
O O4 0.500000 0.000000 0.000000
O O5 0.748828 0.550337 0.049604
O O6 0.522285 0.276772 0.169524
O O7 0.774868 0.272488 0.036935
O O8 0.716635 0.679779 0.827400
O O9 0.811848 0.517901 0.207016
O O10 0.740143 0.424427 0.447222
O O11 0.835098 0.891236 0.140177
O O12 0.010320 0.647235 0.193092
O O13 0.458677 0.652847 0.657960
O O14 0.680516 0.646439 0.504898
O O15 0.690297 0.765870 0.620868
O O16 0.693660 0.095428 0.346688
O O17 0.500000 0.500000 0.500000
#
# Coordination Sequence:
#
# PCOD8041630 Si02
#       8
#     2   2   2   2   2   2   2   2
#     4  11  21  37  66  94 117 156 203 258 299 362
#     4   9  19  35  56  81 113 156 197 242 297 355
#     4  11  23  38  59  92 126 162 199 254 311 365
#     4  10  19  33  55  87 120 151 199 258 300 347
#     4  10  20  32  57  86 118 154 205 253 296 352
#     4  12  21  36  63  94 120 157 208 253 302 358
#     4   9  19  34  57  87 118 152 197 250 305 352
#     4  10  22  40  61  86 129 159 200 253 314 360
#
# _framework density 20.245343999999999
#
# number of rings (size 3 to 8) (size 9 to 14) (size 15 to 20)
#    0.000    1.750    3.750    0.750    3.500    3.500 
#    0.000    0.625    0.000    3.750    0.000    0.000 
#    0.000    0.000    0.000    0.000    0.000    0.000 
#
# Total GULP energy -198288.910085 kJ/mol
# GULP energy per Si atom -12393.056880 kJ/mol
# Density = 2.019926 g / cm^3
# Si number density = 20.245344 Si / 1000 Ang^3
#
#
#
# Elastic Constant Matrix: (Units=GPa)
#
#
# Indices 1 2 3 4 5 6 
#
# 1 112.7185 43.5854 55.3831 23.4688 -7.5379 10.0457
# 2 43.5854 81.5633 25.1138 22.3873 -4.4717 -2.2776
# 3 55.3831 25.1138 87.7407 18.0469 6.5488 8.1806
# 4 23.4688 22.3873 18.0469 29.9106 5.2354 13.8349
# 5 -7.5379 -4.4717 6.5488 5.2354 31.5508 7.0139
# 6 10.0457 -2.2776 8.1806 13.8349 7.0139 32.9584
#
#
#
# Elastic Compliance Matrix: (Units=1/GPa)
#
#
# Indices 1 2 3 4 5 6 
#
# 1 0.016309 -0.004825 -0.008301 -0.003914 0.006236 -0.002928
# 2 -0.004825 0.019429 -0.000426 -0.014917 0.002229 0.008706
# 3 -0.008301 -0.000426 0.017765 -0.003222 -0.005324 0.000577
# 4 -0.003914 -0.014917 -0.003222 0.061721 -0.007428 -0.023366
# 5 0.006236 0.002229 -0.005324 -0.007428 0.036990 -0.005179
# 6 -0.002928 0.008706 0.000577 -0.023366 -0.005179 0.042603
#
#
# Mechanical properties :
#
#
# Convention : Reuss Voigt Hill
#
# Bulk Modulus (GPa) = 37.87758 58.90969 48.39363
# Shear Modulus (GPa) = 21.67141 29.41331 25.54236
#
# Velocity S-wave (km/s) = 3.27531 3.81575 3.55581
# Velocity P-wave (km/s) = 5.74921 6.96953 6.38857
#
# Compressibility (1/GPa) = 0.02640084
#
# Stress axis : x y z
#
# Youngs Moduli (GPa) = 61.31761 51.46816 56.29099
#
# Poissons Ratio (x) = 0.24832 0.46725
# Poissons Ratio (y) = 0.29584 0.02397
# Poissons Ratio (z) = 0.50897 0.02191
#
# Static dielectric constant tensor:
#      x y z
#    x 3.782720 0.094210 0.309100 
#    y 0.094210 3.766650 0.245250 
#    z 0.309100 0.245250 3.688040 
# 
# 
# High freq. dielectric constant tensor:
#      x y z
#    x 1.768160 0.004790 0.029460 
#    y 0.004790 1.803160 0.013650 
#    z 0.029460 0.013650 1.764980 
# 
# From -- ./inp_files/514898.got.cif
#   From: 2010.06.25/outbox.cif.g09.slc.cpg/sg2_258_cif.got.tgz:514898.got - 2010.06.27 13:26:56.
