data_PCOD8041003
_publ_section_title
;
Structure prediction by ZEFSAII (Michael W. Deem and Ramdas Pophale) SiO2 
 PCOD8041003
Probable space group: P -1
;
_chemical_formula_sum "Si O2"
_cell_formula_units_Z 16
_cell_length_a 8.733588
_cell_length_b 21.513373
_cell_length_c 8.696360
_cell_angle_alpha 38.098668
_cell_angle_beta 127.636688
_cell_angle_gamma 132.235694
_cell_volume 734.411332
_symmetry_space_group_name_H-M "P -1"
_symmetry_group_IT_number 2
_symmetry_cell_setting 'triclinic'
loop_
_space_group_symop_operation_xyz
x,y,z
-x,-y,-z
loop_
_atom_site_type_symbol
_atom_site_label
_atom_site_fract_x
_atom_site_fract_y
_atom_site_fract_z
Si Si1 0.329982 0.633899 0.031361
Si Si2 0.987111 0.724518 0.613666
Si Si3 0.421397 0.914173 0.252508
Si Si4 0.297094 0.147236 0.219558
Si Si5 0.267374 0.959950 0.371412
Si Si6 0.324186 0.487806 0.041968
Si Si7 0.002981 0.247193 0.771849
Si Si8 0.047350 0.479105 0.399374
O O1 0.252658 0.574088 0.264975
O O2 0.138678 0.660575 0.791417
O O3 0.522029 0.749481 0.952042
O O4 0.404081 0.556789 0.115082
O O5 0.112925 0.836574 0.569049
O O6 0.910670 0.753135 0.348186
O O7 0.786453 0.643191 0.742554
O O8 0.608272 0.889420 0.499686
O O9 0.292674 0.959575 0.203396
O O10 0.251627 0.805113 0.282386
O O11 0.500000 0.000000 0.000000
O O12 0.189076 0.049125 0.220142
O O13 0.103215 0.182117 0.072556
O O14 0.500000 0.000000 0.500000
O O15 0.160114 0.536999 0.789991
O O16 0.500000 0.500000 0.000000
O O17 0.089594 0.369781 0.646185
O O18 0.000000 0.500000 0.500000
#
# Coordination Sequence:
#
# PCOD8041003 Si02
#       8
#     2   2   2   2   2   2   2   2
#     4  11  20  43  70  88 138 181 214 273 347 395
#     4  10  18  41  69  90 130 186 212 279 340 392
#     4  10  22  42  65  90 137 175 213 286 338 385
#     4  11  23  39  69 101 123 180 230 267 335 411
#     4   9  18  39  67  92 122 168 227 264 331 399
#     4  11  23  40  67  97 129 179 231 273 334 409
#     4  11  22  42  66  93 134 177 225 272 338 403
#     4  11  24  41  63  98 133 174 221 280 336 393
#
# _framework density 21.786155000000001
#
# number of rings (size 3 to 8) (size 9 to 14) (size 15 to 20)
#    0.000    1.500    6.250    0.750    1.750    5.000 
#    2.250    3.750    0.000    0.000    0.000    0.000 
#    0.000    0.000    0.000    0.000    0.000    0.000 
#
# Total GULP energy -198232.657457 kJ/mol
# GULP energy per Si atom -12389.541091 kJ/mol
# Density = 2.173657 g / cm^3
# Si number density = 21.786155 Si / 1000 Ang^3
#
#
#
# Elastic Constant Matrix: (Units=GPa)
#
#
# Indices 1 2 3 4 5 6 
#
# 1 84.8184 46.3087 49.4891 -15.5796 -17.4073 -4.6893
# 2 46.3087 114.5121 63.5253 -32.0561 -11.9399 -4.8372
# 3 49.4891 63.5253 136.7361 -18.0538 -4.2980 -3.8732
# 4 -15.5796 -32.0561 -18.0538 40.9752 8.2389 0.9101
# 5 -17.4073 -11.9399 -4.2980 8.2389 43.6292 -1.5400
# 6 -4.6893 -4.8372 -3.8732 0.9101 -1.5400 24.5411
#
#
#
# Elastic Compliance Matrix: (Units=1/GPa)
#
#
# Indices 1 2 3 4 5 6 
#
# 1 0.017853 -0.003996 -0.004286 0.000602 0.005574 0.002275
# 2 -0.003996 0.015292 -0.004506 0.008305 0.000623 0.001270
# 3 -0.004286 -0.004506 0.010899 0.000028 -0.001878 -0.000106
# 4 0.000602 0.008305 0.000028 0.031836 -0.003484 0.000357
# 5 0.005574 0.000623 -0.001878 -0.003484 0.025881 0.002645
# 6 0.002275 0.001270 -0.000106 0.000357 0.002645 0.041569
#
#
# Mechanical properties :
#
#
# Convention : Reuss Voigt Hill
#
# Bulk Modulus (GPa) = 54.14710 72.74588 63.44649
# Shear Modulus (GPa) = 28.56135 33.61198 31.08667
#
# Velocity S-wave (km/s) = 3.62468 3.93213 3.78153
# Velocity P-wave (km/s) = 6.51350 7.35383 6.94638
#
# Compressibility (1/GPa) = 0.01846821
#
# Stress axis : x y z
#
# Youngs Moduli (GPa) = 56.01431 65.39378 91.74770
#
# Poissons Ratio (x) = 0.26134 0.39320
# Poissons Ratio (y) = 0.22386 0.41340
# Poissons Ratio (z) = 0.24006 0.29466
#
# Static dielectric constant tensor:
#      x y z
#    x 4.086930 -0.425280 0.043770 
#    y -0.425280 4.810570 -0.239630 
#    z 0.043770 -0.239630 4.018400 
# 
# 
# High freq. dielectric constant tensor:
#      x y z
#    x 1.828980 0.007010 0.002930 
#    y 0.007010 1.863680 -0.014010 
#    z 0.002930 -0.014010 1.853740 
# 
# From -- ./inp_files/221729.got.cif
#   From: 2010.06.25/outbox.cif.g09.slc.cpg/sg2_111_cif.got.tgz:221729.got - 2010.06.27 13:26:56.
