data_PCOD8041818
_publ_section_title
;
Structure prediction by ZEFSAII (Michael W. Deem and Ramdas Pophale) SiO2 
 PCOD8041818
Probable space group: P -1
;
_chemical_formula_sum "Si O2"
_cell_formula_units_Z 16
_cell_length_a 9.694692
_cell_length_b 11.702363
_cell_length_c 8.414996
_cell_angle_alpha 96.390258
_cell_angle_beta 109.148906
_cell_angle_gamma 118.425274
_cell_volume 750.913713
_symmetry_space_group_name_H-M "P -1"
_symmetry_group_IT_number 2
_symmetry_cell_setting 'triclinic'
loop_
_space_group_symop_operation_xyz
x,y,z
-x,-y,-z
loop_
_atom_site_type_symbol
_atom_site_label
_atom_site_fract_x
_atom_site_fract_y
_atom_site_fract_z
Si Si1 0.598413 0.589027 0.730886
Si Si2 0.075628 0.565733 0.210181
Si Si3 0.810956 0.819802 0.065679
Si Si4 0.535290 0.325707 0.580127
Si Si5 0.846518 0.067353 0.989021
Si Si6 0.002139 0.768796 0.376026
Si Si7 0.340593 0.014179 0.420545
Si Si8 0.044366 0.318909 0.297698
O O1 0.510769 0.425289 0.706134
O O2 0.467588 0.615631 0.587143
O O3 0.774585 0.641545 0.705741
O O4 0.644670 0.672831 0.924972
O O5 0.285655 0.662990 0.309246
O O6 0.998579 0.655360 0.243695
O O7 0.017228 0.444165 0.295738
O O8 0.000000 0.500000 0.000000
O O9 0.864006 0.800500 0.257584
O O10 0.771544 0.938845 0.063293
O O11 0.965573 0.876588 0.005728
O O12 0.382837 0.165190 0.504538
O O13 0.710173 0.022815 0.788602
O O14 0.874888 0.192877 0.125795
O O15 0.947879 0.715664 0.523347
O O16 0.190060 0.909777 0.466954
O O17 0.500000 0.000000 0.500000
#
# Coordination Sequence:
#
# PCOD8041818 Si02
#       8
#     2   2   2   2   2   2   2   2
#     4   9  18  36  59  83 107 143 194 238 275 325
#     4  11  21  39  63  83 107 149 198 231 268 336
#     4   9  17  33  56  79 106 144 195 230 265 323
#     4  10  19  33  60  84 106 142 194 242 267 317
#     4   9  18  34  54  79 108 149 190 230 267 328
#     4  11  22  35  56  86 117 150 178 233 290 335
#     4  11  20  35  58  82 114 149 198 229 272 335
#     4  10  22  36  56  85 118 145 182 233 292 335
#
# _framework density 21.307376999999999
#
# number of rings (size 3 to 8) (size 9 to 14) (size 15 to 20)
#    0.000    2.000    2.500    3.375    1.750    0.500 
#    0.000    0.625    0.000   15.000    0.000    0.000 
#    0.000    0.000    0.000    0.000    0.000    0.000 
#
# Total GULP energy -198271.475316 kJ/mol
# GULP energy per Si atom -12391.967207 kJ/mol
# Density = 2.125888 g / cm^3
# Si number density = 21.307377 Si / 1000 Ang^3
#
#
#
# Elastic Constant Matrix: (Units=GPa)
#
#
# Indices 1 2 3 4 5 6 
#
# 1 21.3110 8.1835 9.8472 0.1239 7.3808 -5.0992
# 2 8.1835 132.9807 45.3674 10.2096 -11.7163 -17.8597
# 3 9.8472 45.3674 102.6542 8.9658 11.9983 6.4168
# 4 0.1239 10.2096 8.9658 47.3191 -4.2765 -1.1935
# 5 7.3808 -11.7163 11.9983 -4.2765 30.2361 -2.9452
# 6 -5.0992 -17.8597 6.4168 -1.1935 -2.9452 18.2693
#
#
#
# Elastic Compliance Matrix: (Units=1/GPa)
#
#
# Indices 1 2 3 4 5 6 
#
# 1 0.056772 -0.000813 -0.004799 0.000343 -0.010757 0.015025
# 2 -0.000813 0.013748 -0.008353 0.000025 0.010583 0.017855
# 3 -0.004799 -0.008353 0.016447 -0.002697 -0.010646 -0.017174
# 4 0.000343 0.000025 -0.002697 0.022120 0.004439 0.003228
# 5 -0.010757 0.010583 -0.010646 0.004439 0.046490 0.018867
# 6 0.015025 0.017855 -0.017174 0.003228 0.018867 0.085669
#
#
# Mechanical properties :
#
#
# Convention : Reuss Voigt Hill
#
# Bulk Modulus (GPa) = 16.93818 42.63800 29.78809
# Shear Modulus (GPa) = 17.30968 32.06809 24.68888
#
# Velocity S-wave (km/s) = 2.85332 3.88367 3.40766
# Velocity P-wave (km/s) = 4.33843 6.33758 5.43078
#
# Compressibility (1/GPa) = 0.05903821
#
# Stress axis : x y z
#
# Youngs Moduli (GPa) = 17.61420 72.73738 60.80206
#
# Poissons Ratio (x) = 0.05912 0.29176
# Poissons Ratio (y) = 0.01432 0.50789
# Poissons Ratio (z) = 0.08452 0.60759
#
# Static dielectric constant tensor:
#      x y z
#    x 3.342820 -0.353660 0.210620 
#    y -0.353660 4.535730 0.309790 
#    z 0.210620 0.309790 4.121900 
# 
# 
# High freq. dielectric constant tensor:
#      x y z
#    x 1.774570 -0.029430 0.023370 
#    y -0.029430 1.856410 0.016340 
#    z 0.023370 0.016340 1.847820 
# 
# From -- ./inp_files/252196.got.cif
#   From: 2010.06.25/outbox.cif.g09.slc.cpg/sg2_127_cif.got.tgz:252196.got - 2010.06.27 13:26:56.
