data_PCOD8041322
_publ_section_title
;
Structure prediction by ZEFSAII (Michael W. Deem and Ramdas Pophale) SiO2 
 PCOD8041322
Probable space group: P -1
;
_chemical_formula_sum "Si O2"
_cell_formula_units_Z 16
_cell_length_a 13.086576
_cell_length_b 22.516998
_cell_length_c 16.012156
_cell_angle_alpha 28.093103
_cell_angle_beta 27.265614
_cell_angle_gamma 27.107684
_cell_volume 886.568724
_symmetry_space_group_name_H-M "P -1"
_symmetry_group_IT_number 2
_symmetry_cell_setting 'triclinic'
loop_
_space_group_symop_operation_xyz
x,y,z
-x,-y,-z
loop_
_atom_site_type_symbol
_atom_site_label
_atom_site_fract_x
_atom_site_fract_y
_atom_site_fract_z
Si Si1 0.154915 0.047303 0.266398
Si Si2 0.693937 0.987056 0.982224
Si Si3 0.985765 0.561721 0.559449
Si Si4 0.088918 0.624055 0.919670
Si Si5 0.567168 0.566783 0.947066
Si Si6 0.452162 0.319518 0.770009
Si Si7 0.991317 0.295907 0.796254
Si Si8 0.507158 0.518545 0.609900
O O1 0.124065 0.034574 0.204219
O O2 0.461232 0.955448 0.170475
O O3 0.000000 0.000000 0.500000
O O4 0.056086 0.209299 0.161784
O O5 0.583297 0.147430 0.901279
O O6 0.849913 0.869726 0.085297
O O7 0.742092 0.637809 0.704743
O O8 0.908762 0.674434 0.399976
O O9 0.009532 0.406431 0.711495
O O10 0.247970 0.531674 0.447411
O O11 0.249047 0.582724 0.770364
O O12 0.276926 0.550444 0.951036
O O13 0.858743 0.588500 0.118764
O O14 0.500000 0.500000 0.000000
O O15 0.293145 0.681321 0.041208
O O16 0.552073 0.378166 0.699943
O O17 0.538799 0.350070 0.580047
#
# Coordination Sequence:
#
# PCOD8041322 Si02
#       8
#     2   2   2   2   2   2   2   2
#     4  10  21  32  55  83 112 149 175 230 287 334
#     4  10  22  37  53  81 120 146 183 221 286 343
#     4  10  20  34  56  83 108 142 192 229 277 324
#     4  11  20  35  57  85 113 139 189 233 280 329
#     4  10  19  32  53  81 110 140 177 229 279 322
#     4  10  23  39  56  83 112 152 186 235 275 325
#     4  10  21  34  54  83 112 146 176 234 279 338
#     4  11  21  37  61  82 110 146 196 235 271 324
#
# _framework density 18.047105999999999
#
# number of rings (size 3 to 8) (size 9 to 14) (size 15 to 20)
#    0.000    1.750    2.500    2.625    5.250    1.000 
#    0.000    0.625    0.000    0.750    0.000    0.000 
#    0.000    0.000    0.000    0.000    0.000    0.000 
#
# Total GULP energy -198283.968665 kJ/mol
# GULP energy per Si atom -12392.748042 kJ/mol
# Density = 1.800603 g / cm^3
# Si number density = 18.047106 Si / 1000 Ang^3
#
#
#
# Elastic Constant Matrix: (Units=GPa)
#
#
# Indices 1 2 3 4 5 6 
#
# 1 81.4837 42.9545 34.8340 2.6103 2.1069 -16.9345
# 2 42.9545 98.7764 48.7072 15.6320 -1.8568 -30.4955
# 3 34.8340 48.7072 110.8535 15.7062 17.8605 -3.4962
# 4 2.6103 15.6320 15.7062 41.3553 -2.7184 -0.1812
# 5 2.1069 -1.8568 17.8605 -2.7184 35.2505 6.0886
# 6 -16.9345 -30.4955 -3.4962 -0.1812 6.0886 31.1283
#
#
#
# Elastic Compliance Matrix: (Units=1/GPa)
#
#
# Indices 1 2 3 4 5 6 
#
# 1 0.017056 -0.004729 -0.003411 0.002017 -0.000127 0.004299
# 2 -0.004729 0.022107 -0.007190 -0.005144 0.001596 0.017935
# 3 -0.003411 -0.007190 0.014593 -0.003081 -0.006778 -0.005953
# 4 0.002017 -0.005144 -0.003081 0.027418 0.004137 -0.004937
# 5 -0.000127 0.001596 -0.006778 0.004137 0.033204 -0.005738
# 6 0.004299 0.017935 -0.005953 -0.004937 -0.005738 0.052460
#
#
# Mechanical properties :
#
#
# Convention : Reuss Voigt Hill
#
# Bulk Modulus (GPa) = 43.30002 60.45612 51.87807
# Shear Modulus (GPa) = 24.36678 32.52135 28.44407
#
# Velocity S-wave (km/s) = 3.67846 4.24963 3.97432
# Velocity P-wave (km/s) = 6.48740 7.59282 7.06177
#
# Compressibility (1/GPa) = 0.02309467
#
# Stress axis : x y z
#
# Youngs Moduli (GPa) = 58.63069 45.23416 68.52654
#
# Poissons Ratio (x) = 0.21392 0.23377
# Poissons Ratio (y) = 0.27728 0.49271
# Poissons Ratio (z) = 0.20001 0.32524
#
# Static dielectric constant tensor:
#      x y z
#    x 3.323740 -0.131870 -0.055180 
#    y -0.131870 3.315920 0.456480 
#    z -0.055180 0.456480 3.769860 
# 
# 
# High freq. dielectric constant tensor:
#      x y z
#    x 1.691520 -0.012790 0.011880 
#    y -0.012790 1.682270 0.022760 
#    z 0.011880 0.022760 1.712100 
# 
# From -- ./inp_files/423499.got.cif
#   From: 2010.06.25/outbox.cif.g09.slc.cpg/sg2_212_cif.got.tgz:423499.got - 2010.06.27 13:26:56.
