data_PCOD8041939
_publ_section_title
;
Structure prediction by ZEFSAII (Michael W. Deem and Ramdas Pophale) SiO2 
 PCOD8041939
Probable space group: P -1
;
_chemical_formula_sum "Si O2"
_cell_formula_units_Z 16
_cell_length_a 14.225134
_cell_length_b 9.120858
_cell_length_c 23.045962
_cell_angle_alpha 126.760519
_cell_angle_beta 159.667464
_cell_angle_gamma 50.841986
_cell_volume 805.398912
_symmetry_space_group_name_H-M "P -1"
_symmetry_group_IT_number 2
_symmetry_cell_setting 'triclinic'
loop_
_space_group_symop_operation_xyz
x,y,z
-x,-y,-z
loop_
_atom_site_type_symbol
_atom_site_label
_atom_site_fract_x
_atom_site_fract_y
_atom_site_fract_z
Si Si1 0.132746 0.121696 0.061732
Si Si2 0.760110 0.491964 0.314398
Si Si3 0.823545 0.300649 0.188283
Si Si4 0.187090 0.082995 0.951853
Si Si5 0.837307 0.573156 0.165170
Si Si6 0.167879 0.059586 0.697234
Si Si7 0.837245 0.533429 0.023263
Si Si8 0.725203 0.895353 0.359866
O O1 0.002149 0.344723 0.042164
O O2 0.462945 0.077452 0.255746
O O3 0.092351 0.062730 0.958180
O O4 0.000000 0.000000 0.000000
O O5 0.904003 0.361501 0.312862
O O6 0.621089 0.707645 0.266132
O O7 0.000000 0.500000 0.500000
O O8 0.497910 0.423334 0.171622
O O9 0.962015 0.402890 0.242243
O O10 0.924024 0.072839 0.185921
O O11 0.493476 0.361837 0.003076
O O12 0.056345 0.291402 0.899580
O O13 0.520839 0.048435 0.130332
O O14 0.952932 0.756496 0.289146
O O15 0.918243 0.504561 0.130833
O O16 0.144601 0.132853 0.635315
O O17 0.961147 0.918993 0.548875
#
# Coordination Sequence:
#
# PCOD8041939 Si02
#       8
#     2   2   2   2   2   2   2   2
#     4  11  21  38  59  79 109 155 193 223 265 336
#     4  11  21  33  56  84 119 143 179 232 290 331
#     4   9  18  33  55  83 111 146 186 226 280 330
#     4  10  21  35  57  84 114 142 185 238 277 323
#     4   9  17  32  57  80 112 146 187 230 270 331
#     4   9  18  33  57  83 113 142 181 233 283 320
#     4  11  22  35  55  86 112 147 189 228 278 327
#     4  10  19  34  54  84 112 146 185 226 274 334
#
# _framework density 19.865932999999998
#
# number of rings (size 3 to 8) (size 9 to 14) (size 15 to 20)
#    0.000    2.000    2.500    1.875    3.500    5.500 
#    0.000    0.625    0.000    0.750    0.000    0.000 
#    0.000    0.000    0.000    0.000    0.000    0.000 
#
# Total GULP energy -198354.017487 kJ/mol
# GULP energy per Si atom -12397.126093 kJ/mol
# Density = 1.982072 g / cm^3
# Si number density = 19.865933 Si / 1000 Ang^3
#
#
#
# Elastic Constant Matrix: (Units=GPa)
#
#
# Indices 1 2 3 4 5 6 
#
# 1 85.4891 45.8648 35.6446 6.6638 -8.7966 -6.8895
# 2 45.8648 132.1229 26.2765 20.6765 -10.6497 -4.8472
# 3 35.6446 26.2765 61.3610 13.3448 -19.7062 -14.6913
# 4 6.6638 20.6765 13.3448 27.6034 -2.6971 -0.1840
# 5 -8.7966 -10.6497 -19.7062 -2.6971 22.8955 7.3513
# 6 -6.8895 -4.8472 -14.6913 -0.1840 7.3513 32.0071
#
#
#
# Elastic Compliance Matrix: (Units=1/GPa)
#
#
# Indices 1 2 3 4 5 6 
#
# 1 0.018137 -0.005184 -0.010703 0.004295 -0.003866 -0.000881
# 2 -0.005184 0.010475 0.000967 -0.006783 0.002842 0.000223
# 3 -0.010703 0.000967 0.033521 -0.012231 0.021078 0.008317
# 4 0.004295 -0.006783 -0.012231 0.045639 -0.005295 -0.004238
# 5 -0.003866 0.002842 0.021078 -0.005295 0.062687 -0.005155
# 6 -0.000881 0.000223 0.008317 -0.004238 -0.005155 0.036064
#
#
# Mechanical properties :
#
#
# Convention : Reuss Voigt Hill
#
# Bulk Modulus (GPa) = 30.96563 54.94943 42.95753
# Shear Modulus (GPa) = 20.23262 27.91367 24.07315
#
# Velocity S-wave (km/s) = 3.19479 3.75254 3.48484
# Velocity P-wave (km/s) = 5.40648 6.81876 6.15328
#
# Compressibility (1/GPa) = 0.03229387
#
# Stress axis : x y z
#
# Youngs Moduli (GPa) = 55.13496 95.46903 29.83238
#
# Poissons Ratio (x) = 0.49488 0.31928
# Poissons Ratio (y) = 0.28580 -0.02885
# Poissons Ratio (z) = 0.59009 -0.09231
#
# Static dielectric constant tensor:
#      x y z
#    x 3.589450 0.003090 -0.149360 
#    y 0.003090 3.778620 0.363970 
#    z -0.149360 0.363970 3.434270 
# 
# 
# High freq. dielectric constant tensor:
#      x y z
#    x 1.766390 0.005360 -0.017800 
#    y 0.005360 1.784030 0.025710 
#    z -0.017800 0.025710 1.737710 
# 
# From -- ./inp_files/257661.got.cif
#   From: 2010.06.25/outbox.cif.g09.slc.cpg/sg2_129_cif.got.tgz:257661.got - 2010.06.27 13:26:56.
