data_PCOD8041284
_publ_section_title
;
Structure prediction by ZEFSAII (Michael W. Deem and Ramdas Pophale) SiO2 
 PCOD8041284
Probable space group: P -1
;
_chemical_formula_sum "Si O2"
_cell_formula_units_Z 16
_cell_length_a 5.261135
_cell_length_b 20.990764
_cell_length_c 16.866479
_cell_angle_alpha 28.575975
_cell_angle_beta 82.884823
_cell_angle_gamma 71.778046
_cell_volume 798.334753
_symmetry_space_group_name_H-M "P -1"
_symmetry_group_IT_number 2
_symmetry_cell_setting 'triclinic'
loop_
_space_group_symop_operation_xyz
x,y,z
-x,-y,-z
loop_
_atom_site_type_symbol
_atom_site_label
_atom_site_fract_x
_atom_site_fract_y
_atom_site_fract_z
Si Si1 0.049762 0.183358 0.981146
Si Si2 0.244307 0.531059 0.416676
Si Si3 0.370769 0.930114 0.845653
Si Si4 0.648279 0.329248 0.154762
Si Si5 0.112108 0.339988 0.211519
Si Si6 0.660128 0.308351 0.991968
Si Si7 0.547582 0.386101 0.406002
Si Si8 0.160847 0.260238 0.472318
O O1 0.914680 0.298745 0.789210
O O2 0.956878 0.265366 0.980823
O O3 0.915360 0.064781 0.107275
O O4 0.390901 0.108489 0.051926
O O5 0.500000 0.500000 0.500000
O O6 0.390049 0.424312 0.454195
O O7 0.000000 0.500000 0.500000
O O8 0.313172 0.085881 0.638780
O O9 0.469266 0.804729 0.909480
O O10 0.447192 0.253215 0.274371
O O11 0.947343 0.252793 0.272992
O O12 0.500000 0.500000 0.000000
O O13 0.710526 0.302481 0.089302
O O14 0.057673 0.350864 0.295513
O O15 0.000000 0.500000 0.000000
O O16 0.456443 0.473656 0.793957
O O17 0.394678 0.302989 0.455088
O O18 0.887815 0.289209 0.506881
#
# Coordination Sequence:
#
# PCOD8041284 Si02
#       8
#     2   2   2   2   2   2   2   2
#     4   9  21  38  64  87 116 168 200 238 303 361
#     4  11  22  39  66 100 129 149 196 251 302 355
#     4  10  22  39  62  85 123 165 209 247 300 367
#     4  10  19  32  51  81 113 150 194 258 307 346
#     4  10  20  33  52  80 117 156 191 255 315 341
#     4   9  22  36  64  84 117 159 220 244 306 370
#     4  11  23  37  66  93 117 156 205 258 292 351
#     4  12  23  40  61  91 124 157 213 255 304 357
#
# _framework density 20.041719000000001
#
# number of rings (size 3 to 8) (size 9 to 14) (size 15 to 20)
#    0.750    1.000    0.000    6.000    5.250    0.000 
#    0.000    1.250    0.000   15.000    0.000    0.000 
#    0.000    0.000    0.000    0.000    0.000    0.000 
#
# Total GULP energy -198217.636625 kJ/mol
# GULP energy per Si atom -12388.602289 kJ/mol
# Density = 1.999610 g / cm^3
# Si number density = 20.041719 Si / 1000 Ang^3
#
#
#
# Elastic Constant Matrix: (Units=GPa)
#
#
# Indices 1 2 3 4 5 6 
#
# 1 173.3680 36.7482 38.6220 2.5093 0.6293 9.2196
# 2 36.7482 65.7249 39.2332 8.1332 -9.4700 9.3423
# 3 38.6220 39.2332 88.8497 -1.3455 -9.4157 11.4781
# 4 2.5093 8.1332 -1.3455 34.6545 2.8982 -6.1551
# 5 0.6293 -9.4700 -9.4157 2.8982 24.2114 5.8147
# 6 9.2196 9.3423 11.4781 -6.1551 5.8147 31.0791
#
#
#
# Elastic Compliance Matrix: (Units=1/GPa)
#
#
# Indices 1 2 3 4 5 6 
#
# 1 0.006831 -0.003082 -0.001837 0.000346 -0.002151 0.000050
# 2 -0.003082 0.025011 -0.007918 -0.007990 0.009427 -0.007026
# 3 -0.001837 -0.007918 0.016463 0.001660 0.004013 -0.003577
# 4 0.000346 -0.007990 0.001660 0.033276 -0.008858 0.009934
# 5 -0.002151 0.009427 0.004013 -0.008858 0.051276 -0.015025
# 6 0.000050 -0.007026 -0.003577 0.009934 -0.015025 0.040372
#
#
# Mechanical properties :
#
#
# Convention : Reuss Voigt Hill
#
# Bulk Modulus (GPa) = 44.19319 61.90549 53.04934
# Shear Modulus (GPa) = 24.21921 32.21162 28.21541
#
# Velocity S-wave (km/s) = 3.48003 4.01337 3.75618
# Velocity P-wave (km/s) = 6.18433 7.24097 6.73341
#
# Compressibility (1/GPa) = 0.02262792
#
# Stress axis : x y z
#
# Youngs Moduli (GPa) = 146.39327 39.98264 60.74337
#
# Poissons Ratio (x) = 0.12324 0.11161
# Poissons Ratio (y) = 0.45124 0.48100
# Poissons Ratio (z) = 0.26898 0.31660
#
# Static dielectric constant tensor:
#      x y z
#    x 5.158670 0.036930 0.081480 
#    y 0.036930 3.388420 0.061900 
#    z 0.081480 0.061900 3.439770 
# 
# 
# High freq. dielectric constant tensor:
#      x y z
#    x 1.807810 0.002720 -0.004060 
#    y 0.002720 1.754160 0.009360 
#    z -0.004060 0.009360 1.760660 
# 
# From -- ./inp_files/485531.got.cif
#   From: 2010.06.25/outbox.cif.g09.slc.cpg/sg2_243_cif.got.tgz:485531.got - 2010.06.27 13:26:56.
