data_PCOD8041560
_publ_section_title
;
Structure prediction by ZEFSAII (Michael W. Deem and Ramdas Pophale) SiO2 
 PCOD8041560
Probable space group: P -1
;
_chemical_formula_sum "Si O2"
_cell_formula_units_Z 16
_cell_length_a 7.942680
_cell_length_b 19.204122
_cell_length_c 8.112673
_cell_angle_alpha 65.441848
_cell_angle_beta 68.630805
_cell_angle_gamma 45.976656
_cell_volume 803.884679
_symmetry_space_group_name_H-M "P -1"
_symmetry_group_IT_number 2
_symmetry_cell_setting 'triclinic'
loop_
_space_group_symop_operation_xyz
x,y,z
-x,-y,-z
loop_
_atom_site_type_symbol
_atom_site_label
_atom_site_fract_x
_atom_site_fract_y
_atom_site_fract_z
Si Si1 0.337123 0.999987 0.686151
Si Si2 0.340447 0.468717 0.434117
Si Si3 0.944726 0.997965 0.834096
Si Si4 0.388738 0.626416 0.253721
Si Si5 0.902188 0.552721 0.721876
Si Si6 0.926688 0.839429 0.102880
Si Si7 0.444562 0.157158 0.957808
Si Si8 0.235733 0.363768 0.979675
O O1 0.210949 0.097013 0.748224
O O2 0.138167 0.998363 0.667512
O O3 0.500000 0.000000 0.500000
O O4 0.506441 0.903843 0.835045
O O5 0.374605 0.543813 0.274235
O O6 0.559064 0.385626 0.555254
O O7 0.316764 0.413665 0.348838
O O8 0.098339 0.539674 0.553739
O O9 0.670099 0.096976 0.810595
O O10 0.977346 0.897155 0.901641
O O11 0.000000 0.000000 0.000000
O O12 0.605919 0.603336 0.101748
O O13 0.161123 0.737147 0.184156
O O14 0.001372 0.448594 0.877070
O O15 0.822574 0.636681 0.806247
O O16 0.776147 0.817934 0.081471
O O17 0.379530 0.259376 0.938276
#
# Coordination Sequence:
#
# PCOD8041560 Si02
#       8
#     2   2   2   2   2   2   2   2
#     4  10  20  35  55  80 109 137 171 222 271 309
#     4   9  19  35  53  75 107 140 170 215 273 318
#     4   8  16  33  56  75 103 139 174 211 259 315
#     4  10  19  33  54  77 104 139 177 216 262 315
#     4   9  19  35  53  76 105 138 176 218 265 314
#     4  10  19  35  56  77 105 146 183 210 258 322
#     4  10  19  35  56  77 104 144 182 213 259 318
#     4  10  19  33  55  78 103 137 181 223 256 306
#
# _framework density 19.903352999999999
#
# number of rings (size 3 to 8) (size 9 to 14) (size 15 to 20)
#    0.000    2.750    0.000    4.500    0.000    1.500 
#    0.000    6.250    0.000    0.000    0.000    0.875 
#    0.000    0.000    0.000    0.000    0.000    0.000 
#
# Total GULP energy -198249.630268 kJ/mol
# GULP energy per Si atom -12390.601892 kJ/mol
# Density = 1.985805 g / cm^3
# Si number density = 19.903353 Si / 1000 Ang^3
#
#
#
# Elastic Constant Matrix: (Units=GPa)
#
#
# Indices 1 2 3 4 5 6 
#
# 1 125.8726 35.9492 36.0289 0.1701 -6.2151 -2.9822
# 2 35.9492 86.1402 27.3619 -16.8648 -1.3431 -4.6492
# 3 36.0289 27.3619 59.9226 5.8086 -15.4950 -6.5180
# 4 0.1701 -16.8648 5.8086 21.9994 -6.4504 0.6127
# 5 -6.2151 -1.3431 -15.4950 -6.4504 33.5162 -0.9337
# 6 -2.9822 -4.6492 -6.5180 0.6127 -0.9337 18.6382
#
#
#
# Elastic Compliance Matrix: (Units=1/GPa)
#
#
# Indices 1 2 3 4 5 6 
#
# 1 0.010144 -0.002982 -0.004905 -0.001273 -0.000774 -0.000833
# 2 -0.002982 0.018793 -0.008444 0.016491 -0.000511 0.000690
# 3 -0.004905 -0.008444 0.027934 -0.011173 0.009731 0.007732
# 4 -0.001273 0.016491 -0.011173 0.063271 0.007389 -0.001707
# 5 -0.000774 -0.000511 0.009731 0.007389 0.035724 0.004698
# 6 -0.000833 0.000690 0.007732 -0.001707 0.004698 0.056688
#
#
# Mechanical properties :
#
#
# Convention : Reuss Voigt Hill
#
# Bulk Modulus (GPa) = 41.30675 52.29058 46.79867
# Shear Modulus (GPa) = 19.74056 26.33712 23.03884
#
# Velocity S-wave (km/s) = 3.15274 3.64160 3.40595
# Velocity P-wave (km/s) = 5.83538 6.63407 6.24750
#
# Compressibility (1/GPa) = 0.02420912
#
# Stress axis : x y z
#
# Youngs Moduli (GPa) = 98.58236 53.21002 35.79911
#
# Poissons Ratio (x) = 0.15865 0.17560
# Poissons Ratio (y) = 0.29393 0.30230
# Poissons Ratio (z) = 0.48355 0.44932
#
# Static dielectric constant tensor:
#      x y z
#    x 4.344280 -0.263900 -0.280970 
#    y -0.263900 3.604550 -0.090310 
#    z -0.280970 -0.090310 3.590080 
# 
# 
# High freq. dielectric constant tensor:
#      x y z
#    x 1.795280 -0.007590 -0.005790 
#    y -0.007590 1.756890 -0.011990 
#    z -0.005790 -0.011990 1.749520 
# 
# From -- ./inp_files/220633.got.cif
#   From: 2010.06.25/outbox.cif.g09.slc.cpg/sg2_111_cif.got.tgz:220633.got - 2010.06.27 13:26:56.
