data_PCOD8041199
_publ_section_title
;
Structure prediction by ZEFSAII (Michael W. Deem and Ramdas Pophale) SiO2 
 PCOD8041199
Probable space group: P -1
;
_chemical_formula_sum "Si O2"
_cell_formula_units_Z 14
_cell_length_a 10.276173
_cell_length_b 6.299919
_cell_length_c 13.089793
_cell_angle_alpha 74.889388
_cell_angle_beta 47.271185
_cell_angle_gamma 71.558416
_cell_volume 589.235583
_symmetry_space_group_name_H-M "P -1"
_symmetry_group_IT_number 2
_symmetry_cell_setting 'triclinic'
loop_
_space_group_symop_operation_xyz
x,y,z
-x,-y,-z
loop_
_atom_site_type_symbol
_atom_site_label
_atom_site_fract_x
_atom_site_fract_y
_atom_site_fract_z
Si Si1 0.792950 0.733414 0.831893
Si Si2 0.516032 0.786460 0.406020
Si Si3 0.111950 0.366101 0.690106
Si Si4 0.484223 0.059546 0.202384
Si Si5 0.515883 0.593634 0.133912
Si Si6 0.761119 0.188308 0.901166
Si Si7 0.424589 0.366405 0.402153
O O1 0.002126 0.622658 0.723103
O O2 0.705670 0.813603 0.758826
O O3 0.762653 0.937229 0.898313
O O4 0.688110 0.550969 0.967616
O O5 0.413945 0.615091 0.425173
O O6 0.453964 0.806517 0.557751
O O7 0.734406 0.690737 0.296414
O O8 0.470490 0.030754 0.339367
O O9 0.967930 0.206990 0.802911
O O10 0.215020 0.333885 0.528793
O O11 0.535409 0.802629 0.168971
O O12 0.635429 0.203562 0.068453
O O13 0.331788 0.646030 0.160245
O O14 0.497163 0.378385 0.244772
#
# Coordination Sequence:
#
# PCOD8041199 Si02
#       7
#     2   2   2   2   2   2   2
#     4   9  18  33  55  80  97 127 177 214 242 292
#     4   8  16  32  53  70 101 144 169 190 259 316
#     4  10  19  31  54  82  98 130 172 213 249 290
#     4   8  15  31  50  71 103 138 162 201 256 303
#     4   8  15  31  50  71 103 138 162 201 256 303
#     4   9  18  31  51  78 109 127 163 214 262 290
#     4   8  16  32  53  70 101 144 169 190 259 316
#
# _framework density 23.759595999999998
#
# number of rings (size 3 to 8) (size 9 to 14) (size 15 to 20)
#    0.857    2.571    0.000    1.714    0.000    3.429 
#    0.000   12.857    0.000   13.714    0.000    0.000 
#    0.000    0.000    0.000    0.000    0.000    0.000 
#
# Total GULP energy -173436.561713 kJ/mol
# GULP energy per Si atom -12388.325837 kJ/mol
# Density = 2.370552 g / cm^3
# Si number density = 23.759596 Si / 1000 Ang^3
#
#
#
# Elastic Constant Matrix: (Units=GPa)
#
#
# Indices 1 2 3 4 5 6 
#
# 1 78.7537 29.8260 60.6933 -1.8614 8.0195 -6.3598
# 2 29.8260 90.2212 54.3055 -29.5592 17.3870 -20.7359
# 3 60.6933 54.3055 149.9318 -7.7273 21.9587 -8.4857
# 4 -1.8614 -29.5592 -7.7273 46.4051 -7.3460 1.1480
# 5 8.0195 17.3870 21.9587 -7.3460 55.8713 -2.2338
# 6 -6.3598 -20.7359 -8.4857 1.1480 -2.2338 35.1328
#
#
#
# Elastic Compliance Matrix: (Units=1/GPa)
#
#
# Indices 1 2 3 4 5 6 
#
# 1 0.018954 -0.002975 -0.006786 -0.002174 0.000592 0.000145
# 2 -0.002975 0.022282 -0.005264 0.012558 -0.002356 0.010781
# 3 -0.006786 -0.005264 0.011451 -0.002029 -0.002221 -0.001644
# 4 -0.002174 0.012558 -0.002029 0.029184 0.001265 0.005655
# 5 0.000592 -0.002356 -0.002221 0.001265 0.019561 -0.000617
# 6 0.000145 0.010781 -0.001644 0.005655 -0.000617 0.034232
#
#
# Mechanical properties :
#
#
# Convention : Reuss Voigt Hill
#
# Bulk Modulus (GPa) = 44.17350 67.61739 55.89544
# Shear Modulus (GPa) = 28.85872 39.08729 33.97300
#
# Velocity S-wave (km/s) = 3.48891 4.06040 3.78546
# Velocity P-wave (km/s) = 5.90442 7.10656 6.53320
#
# Compressibility (1/GPa) = 0.02263801
#
# Stress axis : x y z
#
# Youngs Moduli (GPa) = 52.75897 44.87963 87.32940
#
# Poissons Ratio (x) = 0.13350 0.59261
# Poissons Ratio (y) = 0.15694 0.45970
# Poissons Ratio (z) = 0.35802 0.23624
#
# Static dielectric constant tensor:
#      x y z
#    x 4.146490 0.268380 0.333580 
#    y 0.268380 4.741240 -0.329220 
#    z 0.333580 -0.329220 4.493580 
# 
# 
# High freq. dielectric constant tensor:
#      x y z
#    x 1.919200 0.034780 0.022200 
#    y 0.034780 2.000650 -0.017800 
#    z 0.022200 -0.017800 1.940990 
# 
# From -- ./inp_files/250686.got.cif
#   From: 2010.06.25/outbox.cif.g09.slc.cpg/sg2_126_cif.got.tgz:250686.got - 2010.06.27 13:26:56.
