data_PCOD8041031
_publ_section_title
;
Structure prediction by ZEFSAII (Michael W. Deem and Ramdas Pophale) SiO2 
 PCOD8041031
Probable space group: P -1
;
_chemical_formula_sum "Si O2"
_cell_formula_units_Z 16
_cell_length_a 14.666338
_cell_length_b 5.193641
_cell_length_c 28.935442
_cell_angle_alpha 96.647103
_cell_angle_beta 31.904387
_cell_angle_gamma 78.099577
_cell_volume 942.519616
_symmetry_space_group_name_H-M "P -1"
_symmetry_group_IT_number 2
_symmetry_cell_setting 'triclinic'
loop_
_space_group_symop_operation_xyz
x,y,z
-x,-y,-z
loop_
_atom_site_type_symbol
_atom_site_label
_atom_site_fract_x
_atom_site_fract_y
_atom_site_fract_z
Si Si1 0.291554 0.245817 0.704870
Si Si2 0.053236 0.683467 0.446801
Si Si3 0.770945 0.292787 0.425548
Si Si4 0.846200 0.714843 0.132809
Si Si5 0.743109 0.496366 0.088850
Si Si6 0.792510 0.809390 0.470335
Si Si7 0.538147 0.182610 0.206340
Si Si8 0.269972 0.730470 0.659915
O O1 0.205582 0.340002 0.795414
O O2 0.201576 0.567151 0.721663
O O3 0.544547 0.028538 0.592599
O O4 0.198967 0.068432 0.717496
O O5 0.913540 0.773099 0.463689
O O6 0.000000 0.500000 0.500000
O O7 0.297727 0.463174 0.324242
O O8 0.000000 0.000000 0.500000
O O9 0.864888 0.467090 0.412945
O O10 0.519457 0.514290 0.540732
O O11 0.844046 0.219431 0.339137
O O12 0.857503 0.964204 0.407357
O O13 0.856203 0.454774 0.089112
O O14 0.662957 0.069739 0.199724
O O15 0.075365 0.656712 0.031856
O O16 0.633320 0.313478 0.133358
O O17 0.566914 0.875694 0.163240
#
# Coordination Sequence:
#
# PCOD8041031 Si02
#       8
#     2   2   2   2   2   2   2   2
#     4  10  19  27  47  72 101 120 161 192 246 294
#     4  12  24  35  49  72 104 133 171 208 236 270
#     4   9  17  33  48  61  97 124 167 192 235 293
#     4   9  20  31  52  70 102 128 163 200 248 299
#     4   9  20  33  51  69  92 139 163 198 250 287
#     4  10  20  32  47  69  92 138 163 191 232 285
#     4  10  20  34  49  66  97 133 168 200 234 285
#     4   9  18  29  45  71  91 128 150 203 244 284
#
# _framework density 16.975774999999999
#
# number of rings (size 3 to 8) (size 9 to 14) (size 15 to 20)
#    0.750    1.500    0.000    3.375    3.500    4.000 
#    0.000    0.000    0.000    0.000    0.000    0.000 
#    0.000   20.000    0.000    0.000    0.000    0.000 
#
# Total GULP energy -198337.120072 kJ/mol
# GULP energy per Si atom -12396.070005 kJ/mol
# Density = 1.693714 g / cm^3
# Si number density = 16.975775 Si / 1000 Ang^3
#
#
#
# Elastic Constant Matrix: (Units=GPa)
#
#
# Indices 1 2 3 4 5 6 
#
# 1 99.3270 51.6273 28.4358 -5.0336 8.9113 -2.8616
# 2 51.6273 141.1585 35.3987 -20.0015 5.9006 3.7669
# 3 28.4358 35.3987 58.8799 -11.5844 3.8611 -9.0257
# 4 -5.0336 -20.0015 -11.5844 22.2417 -3.6134 4.0684
# 5 8.9113 5.9006 3.8611 -3.6134 17.5485 -4.4136
# 6 -2.8616 3.7669 -9.0257 4.0684 -4.4136 26.8586
#
#
#
# Elastic Compliance Matrix: (Units=1/GPa)
#
#
# Indices 1 2 3 4 5 6 
#
# 1 0.013878 -0.004294 -0.004511 -0.003994 -0.005361 0.000289
# 2 -0.004294 0.010744 -0.003542 0.007610 -0.000176 -0.004336
# 3 -0.004511 -0.003542 0.023678 0.007066 0.001526 0.007153
# 4 -0.003994 0.007610 0.007066 0.057066 0.008045 -0.006440
# 5 -0.005361 -0.000176 0.001526 0.008045 0.063392 0.009165
# 6 0.000289 -0.004336 0.007153 -0.006440 0.009165 0.042756
#
#
# Mechanical properties :
#
#
# Convention : Reuss Voigt Hill
#
# Bulk Modulus (GPa) = 42.35893 58.92101 50.63997
# Shear Modulus (GPa) = 20.48539 25.59000 23.03769
#
# Velocity S-wave (km/s) = 3.47759 3.88679 3.68787
# Velocity P-wave (km/s) = 6.41339 7.41128 6.93032
#
# Compressibility (1/GPa) = 0.02360777
#
# Stress axis : x y z
#
# Youngs Moduli (GPa) = 72.05694 93.07255 42.23325
#
# Poissons Ratio (x) = 0.39967 0.19050
# Poissons Ratio (y) = 0.30942 0.14957
# Poissons Ratio (z) = 0.32502 0.32962
#
# Static dielectric constant tensor:
#      x y z
#    x 3.037280 0.073290 0.110480 
#    y 0.073290 3.366350 -0.127830 
#    z 0.110480 -0.127830 2.827270 
# 
# 
# High freq. dielectric constant tensor:
#      x y z
#    x 1.630320 0.007570 0.014080 
#    y 0.007570 1.673720 -0.011550 
#    z 0.014080 -0.011550 1.620330 
# 
# From -- ./inp_files/533768.got.cif
#   From: 2010.06.25/outbox.cif.g09.slc.cpg/sg2_267_cif.got.tgz:533768.got - 2010.06.27 13:26:56.
