data_PCOD8041857
_publ_section_title
;
Structure prediction by ZEFSAII (Michael W. Deem and Ramdas Pophale) SiO2 
 PCOD8041857
Probable space group: P -1
;
_chemical_formula_sum "Si O2"
_cell_formula_units_Z 14
_cell_length_a 11.562591
_cell_length_b 15.677252
_cell_length_c 16.773994
_cell_angle_alpha 153.408489
_cell_angle_beta 145.517912
_cell_angle_gamma 36.088701
_cell_volume 739.705719
_symmetry_space_group_name_H-M "P -1"
_symmetry_group_IT_number 2
_symmetry_cell_setting 'triclinic'
loop_
_space_group_symop_operation_xyz
x,y,z
-x,-y,-z
loop_
_atom_site_type_symbol
_atom_site_label
_atom_site_fract_x
_atom_site_fract_y
_atom_site_fract_z
Si Si1 0.986911 0.902256 0.027245
Si Si2 0.289847 0.775585 0.958488
Si Si3 0.449476 0.590220 0.286171
Si Si4 0.144183 0.858849 0.528326
Si Si5 0.984989 0.140905 0.810612
Si Si6 0.829728 0.537533 0.865090
Si Si7 0.571145 0.869480 0.705112
O O1 0.797559 0.796111 0.818589
O O2 0.199886 0.777602 0.998685
O O3 0.043417 0.916982 0.163540
O O4 0.908696 0.125041 0.131016
O O5 0.401124 0.548466 0.809630
O O6 0.459946 0.905615 0.157652
O O7 0.393678 0.452670 0.210100
O O8 0.575385 0.731328 0.515341
O O9 0.237850 0.724666 0.236796
O O10 0.119616 0.638619 0.318867
O O11 0.386169 0.863243 0.656538
O O12 0.065753 0.936370 0.636373
O O13 0.000000 0.000000 0.500000
O O14 0.165719 0.259384 0.006198
O O15 0.000000 0.500000 0.000000
#
# Coordination Sequence:
#
# PCOD8041857 Si02
#       7
#     2   2   2   2   2   2   2
#     4   9  22  41  55  77 114 148 186 229 271 322
#     4   9  20  41  59  72 111 154 185 221 282 320
#     4  10  19  33  62  80 104 146 190 218 274 332
#     4  11  18  33  58  84 115 143 177 221 281 333
#     4  11  21  35  55  88 114 137 187 232 264 324
#     4   9  18  31  52  83 111 144 170 216 281 329
#     4   9  19  37  58  79 107 150 182 218 277 337
#
# _framework density 18.926445999999999
#
# number of rings (size 3 to 8) (size 9 to 14) (size 15 to 20)
#    0.857    1.429    4.286    0.857    2.000    1.714 
#    2.571    2.143    0.000    0.000    0.000    0.000 
#    0.000    0.000    0.000    0.000    0.000    0.000 
#
# Total GULP energy -173496.811065 kJ/mol
# GULP energy per Si atom -12392.629362 kJ/mol
# Density = 1.888337 g / cm^3
# Si number density = 18.926446 Si / 1000 Ang^3
#
#
#
# Elastic Constant Matrix: (Units=GPa)
#
#
# Indices 1 2 3 4 5 6 
#
# 1 104.7090 34.5314 51.8176 2.8583 -44.6238 -6.6032
# 2 34.5314 26.2782 33.7978 2.9502 -13.0546 -7.4046
# 3 51.8176 33.7978 119.8900 7.5232 -32.9533 -9.2531
# 4 2.8583 2.9502 7.5232 21.1468 -5.5675 -7.6133
# 5 -44.6238 -13.0546 -32.9533 -5.5675 33.1638 0.5501
# 6 -6.6032 -7.4046 -9.2531 -7.6133 0.5501 31.4480
#
#
#
# Elastic Compliance Matrix: (Units=1/GPa)
#
#
# Indices 1 2 3 4 5 6 
#
# 1 0.035310 -0.032430 0.004780 0.009906 0.041112 0.002864
# 2 -0.032430 0.095311 -0.018952 -0.005751 -0.026067 0.009119
# 3 0.004780 -0.018952 0.015685 0.000656 0.014650 0.001059
# 4 0.009906 -0.005751 0.000656 0.057260 0.021091 0.014412
# 5 0.041112 -0.026067 0.014650 0.021091 0.093137 0.010282
# 6 0.002864 0.009119 0.001059 0.014412 0.010282 0.038168
#
#
# Mechanical properties :
#
#
# Convention : Reuss Voigt Hill
#
# Bulk Modulus (GPa) = 18.83169 54.57456 36.70313
# Shear Modulus (GPa) = 11.21642 25.86708 18.54175
#
# Velocity S-wave (km/s) = 2.43704 3.70092 3.13337
# Velocity P-wave (km/s) = 4.22971 6.86732 5.70309
#
# Compressibility (1/GPa) = 0.05310197
#
# Stress axis : x y z
#
# Youngs Moduli (GPa) = 28.32041 10.49200 63.75554
#
# Poissons Ratio (x) = 0.34025 -0.30477
# Poissons Ratio (y) = 0.91843 1.20832
# Poissons Ratio (z) = -0.13538 0.19885
#
# Static dielectric constant tensor:
#      x y z
#    x 3.028070 -0.095290 0.427960 
#    y -0.095290 3.091520 0.137250 
#    z 0.427960 0.137250 3.416880 
# 
# 
# High freq. dielectric constant tensor:
#      x y z
#    x 1.730480 -0.014510 -0.006100 
#    y -0.014510 1.694280 0.002900 
#    z -0.006100 0.002900 1.739690 
# 
# From -- ./inp_files/453532.got.cif
#   From: 2010.06.25/outbox.cif.g09.slc.cpg/sg2_227_cif.got.tgz:453532.got - 2010.06.27 13:26:56.
