data_PCOD8041222
_publ_section_title
;
Structure prediction by ZEFSAII (Michael W. Deem and Ramdas Pophale) SiO2 
 PCOD8041222
Probable space group: P -1
;
_chemical_formula_sum "Si O2"
_cell_formula_units_Z 14
_cell_length_a 13.609968
_cell_length_b 11.529083
_cell_length_c 13.530526
_cell_angle_alpha 63.685891
_cell_angle_beta 147.129681
_cell_angle_gamma 138.563676
_cell_volume 651.869703
_symmetry_space_group_name_H-M "P -1"
_symmetry_group_IT_number 2
_symmetry_cell_setting 'triclinic'
loop_
_space_group_symop_operation_xyz
x,y,z
-x,-y,-z
loop_
_atom_site_type_symbol
_atom_site_label
_atom_site_fract_x
_atom_site_fract_y
_atom_site_fract_z
Si Si1 0.125911 0.215463 0.435464
Si Si2 0.165820 0.325550 0.792417
Si Si3 0.776759 0.550097 0.412865
Si Si4 0.186824 0.102746 0.021994
Si Si5 0.569200 0.857147 0.229475
Si Si6 0.273654 0.951418 0.001479
Si Si7 0.753985 0.375883 0.142350
O O1 0.334027 0.409483 0.613116
O O2 0.296919 0.177110 0.571307
O O3 0.827033 0.043832 0.307272
O O4 0.029230 0.228348 0.246441
O O5 0.056094 0.289876 0.600435
O O6 0.109173 0.413885 0.784442
O O7 0.500000 0.500000 0.000000
O O8 0.045965 0.126720 0.815194
O O9 0.513490 0.320727 0.238980
O O10 0.001623 0.592251 0.647417
O O11 0.190529 0.958134 0.037222
O O12 0.000000 0.000000 0.000000
O O13 0.436668 0.904172 0.161123
O O14 0.320676 0.659687 0.023743
O O15 0.469638 0.175434 0.037520
#
# Coordination Sequence:
#
# PCOD8041222 Si02
#       7
#     2   2   2   2   2   2   2
#     4  10  20  32  60  95 126 155 189 250 314 361
#     4  10  20  34  60  87 116 154 204 246 299 355
#     4  11  20  37  64  92 119 156 200 253 306 354
#     4  11  26  43  58  82 124 168 206 249 299 359
#     4  10  19  31  56  95 134 148 188 252 317 354
#     4  11  20  37  58  92 129 152 198 252 307 356
#     4  11  18  34  59  98 122 149 195 258 305 361
#
# _framework density 21.476685
#
# number of rings (size 3 to 8) (size 9 to 14) (size 15 to 20)
#    0.000    1.429    5.714    3.000    4.000    0.000 
#    0.000    1.429    0.000    1.714    0.000    0.000 
#    0.000    0.000    0.000    0.000    0.000    0.000 
#
# Total GULP energy -173454.879486 kJ/mol
# GULP energy per Si atom -12389.634249 kJ/mol
# Density = 2.142780 g / cm^3
# Si number density = 21.476685 Si / 1000 Ang^3
#
#
#
# Elastic Constant Matrix: (Units=GPa)
#
#
# Indices 1 2 3 4 5 6 
#
# 1 147.9490 49.3607 45.2973 -13.8608 0.1377 -33.3363
# 2 49.3607 50.8834 26.1290 -20.0854 5.8426 -19.4157
# 3 45.2973 26.1290 105.0931 -24.1158 -4.1408 -13.6630
# 4 -13.8608 -20.0854 -24.1158 25.9352 -16.7970 5.7072
# 5 0.1377 5.8426 -4.1408 -16.7970 24.7563 -0.3824
# 6 -33.3363 -19.4157 -13.6630 5.7072 -0.3824 41.1851
#
#
#
# Elastic Compliance Matrix: (Units=1/GPa)
#
#
# Indices 1 2 3 4 5 6 
#
# 1 0.011845 -0.011376 -0.004597 -0.011499 -0.005886 0.004239
# 2 -0.011376 0.048203 0.007155 0.052618 0.025722 0.008837
# 3 -0.004597 0.007155 0.020437 0.041049 0.029622 0.001019
# 4 -0.011499 0.052618 0.041049 0.190830 0.124048 0.003823
# 5 -0.005886 0.025722 0.029622 0.124048 0.123495 0.001145
# 6 0.004239 0.008837 0.001019 0.003823 0.001145 0.031696
#
#
# Mechanical properties :
#
#
# Convention : Reuss Voigt Hill
#
# Bulk Modulus (GPa) = 15.91083 60.61107 38.26095
# Shear Modulus (GPa) = 10.75061 30.58454 20.66758
#
# Velocity S-wave (km/s) = 2.23977 3.77779 3.10550
# Velocity P-wave (km/s) = 3.75676 6.87837 5.54190
#
# Compressibility (1/GPa) = 0.06285029
#
# Stress axis : x y z
#
# Youngs Moduli (GPa) = 84.42333 20.74579 48.93170
#
# Poissons Ratio (x) = 0.23600 0.22492
# Poissons Ratio (y) = 0.96039 -0.35013
# Poissons Ratio (z) = 0.38806 -0.14845
#
# Static dielectric constant tensor:
#      x y z
#    x 3.665910 -0.140240 -0.311910 
#    y -0.140240 3.906960 -0.498720 
#    z -0.311910 -0.498720 4.184540 
# 
# 
# High freq. dielectric constant tensor:
#      x y z
#    x 1.828540 -0.053230 -0.018560 
#    y -0.053230 1.794580 -0.019590 
#    z -0.018560 -0.019590 1.851640 
# 
# From -- ./inp_files/213818.got.cif
#   From: 2010.06.25/outbox.cif.g09.slc.cpg/sg2_107_cif.got.tgz:213818.got - 2010.06.27 13:26:56.
