data_PCOD8041482
_publ_section_title
;
Structure prediction by ZEFSAII (Michael W. Deem and Ramdas Pophale) SiO2 
 PCOD8041482
Probable space group: P -1
;
_chemical_formula_sum "Si O2"
_cell_formula_units_Z 16
_cell_length_a 27.244219
_cell_length_b 9.478538
_cell_length_c 14.489090
_cell_angle_alpha 56.499764
_cell_angle_beta 19.823227
_cell_angle_gamma 44.423710
_cell_volume 766.460134
_symmetry_space_group_name_H-M "P -1"
_symmetry_group_IT_number 2
_symmetry_cell_setting 'triclinic'
loop_
_space_group_symop_operation_xyz
x,y,z
-x,-y,-z
loop_
_atom_site_type_symbol
_atom_site_label
_atom_site_fract_x
_atom_site_fract_y
_atom_site_fract_z
Si Si1 0.057511 0.620370 0.299772
Si Si2 0.677719 0.751955 0.502798
Si Si3 0.972040 0.506848 0.322515
Si Si4 0.938269 0.747783 0.920423
Si Si5 0.389141 0.032795 0.275686
Si Si6 0.190996 0.853452 0.449547
Si Si7 0.328846 0.474904 0.028941
Si Si8 0.525085 0.406763 0.129178
O O1 0.236294 0.571385 0.055303
O O2 0.000000 0.500000 0.500000
O O3 0.116385 0.500404 0.137250
O O4 0.870719 0.900424 0.519226
O O5 0.869726 0.499490 0.289846
O O6 0.547289 0.912735 0.764510
O O7 0.546233 0.728507 0.683434
O O8 0.741768 0.859249 0.287193
O O9 0.095768 0.288511 0.112135
O O10 0.847583 0.749708 0.397666
O O11 0.820600 0.512056 0.646798
O O12 0.985705 0.908724 0.788653
O O13 0.500000 0.000000 0.000000
O O14 0.454910 0.788500 0.267953
O O15 0.341335 0.680941 0.328930
O O16 0.302959 0.722358 0.204274
O O17 0.373712 0.619378 0.944006
#
# Coordination Sequence:
#
# PCOD8041482 Si02
#       8
#     2   2   2   2   2   2   2   2
#     4  10  22  34  51  83 113 149 183 228 274 328
#     4   9  19  32  56  87 110 143 179 230 276 327
#     4   9  17  33  53  79 105 149 179 226 278 324
#     4   9  17  36  55  80 115 141 184 224 279 331
#     4   9  18  30  56  81 110 139 179 231 273 321
#     4  10  20  34  57  83 112 142 182 234 276 325
#     4  10  19  33  49  83 112 140 183 231 274 318
#     4  10  20  32  57  88 108 138 184 236 280 310
#
# _framework density 20.875187
#
# number of rings (size 3 to 8) (size 9 to 14) (size 15 to 20)
#    0.000    2.500    1.250    0.750   10.500    0.500 
#    0.000    1.250    0.000   10.500    0.000    0.000 
#    0.000    0.000    0.000    0.000    0.000    0.000 
#
# Total GULP energy -198219.155617 kJ/mol
# GULP energy per Si atom -12388.697226 kJ/mol
# Density = 2.082767 g / cm^3
# Si number density = 20.875187 Si / 1000 Ang^3
#
#
#
# Elastic Constant Matrix: (Units=GPa)
#
#
# Indices 1 2 3 4 5 6 
#
# 1 145.2788 25.6880 37.2451 -9.2517 -19.3524 37.2371
# 2 25.6880 73.1956 27.9818 -12.0058 2.2351 14.4517
# 3 37.2451 27.9818 62.7218 -19.1258 -1.2058 8.4634
# 4 -9.2517 -12.0058 -19.1258 20.4276 8.2373 -3.9307
# 5 -19.3524 2.2351 -1.2058 8.2373 25.4713 -4.5657
# 6 37.2371 14.4517 8.4634 -3.9307 -4.5657 29.3062
#
#
#
# Elastic Compliance Matrix: (Units=1/GPa)
#
#
# Indices 1 2 3 4 5 6 
#
# 1 0.013569 -0.000525 -0.008448 -0.008953 0.010317 -0.014137
# 2 -0.000525 0.018429 -0.004975 0.006909 -0.005732 -0.006950
# 3 -0.008448 -0.004975 0.030729 0.028272 -0.012568 0.006147
# 4 -0.008953 0.006909 0.028272 0.090470 -0.034141 0.006619
# 5 0.010317 -0.005732 -0.012568 -0.034141 0.057644 -0.002252
# 6 -0.014137 -0.006950 0.006147 0.006619 -0.002252 0.054274
#
#
# Mechanical properties :
#
#
# Convention : Reuss Voigt Hill
#
# Bulk Modulus (GPa) = 28.70985 51.44732 40.07859
# Shear Modulus (GPa) = 16.41379 27.72645 22.07012
#
# Velocity S-wave (km/s) = 2.80711 3.64840 3.25505
# Velocity P-wave (km/s) = 4.92844 6.51510 5.77650
#
# Compressibility (1/GPa) = 0.03483125
#
# Stress axis : x y z
#
# Youngs Moduli (GPa) = 73.69472 54.26288 32.54232
#
# Poissons Ratio (x) = 0.02850 0.27490
# Poissons Ratio (y) = 0.03871 0.16191
# Poissons Ratio (z) = 0.62254 0.26998
#
# Static dielectric constant tensor:
#      x y z
#    x 4.224250 0.141890 -0.144020 
#    y 0.141890 3.832400 -0.011540 
#    z -0.144020 -0.011540 3.563070 
# 
# 
# High freq. dielectric constant tensor:
#      x y z
#    x 1.823860 0.023420 -0.011400 
#    y 0.023420 1.801280 0.004160 
#    z -0.011400 0.004160 1.764840 
# 
# From -- ./inp_files/278619.got.cif
#   From: 2010.06.25/outbox.cif.g09.slc.cpg/sg2_140_cif.got.tgz:278619.got - 2010.06.27 13:26:56.
