data_PCOD8041376
_publ_section_title
;
Structure prediction by ZEFSAII (Michael W. Deem and Ramdas Pophale) SiO2 
 PCOD8041376
Probable space group: P -1
;
_chemical_formula_sum "Si O2"
_cell_formula_units_Z 16
_cell_length_a 9.448268
_cell_length_b 9.456011
_cell_length_c 15.678935
_cell_angle_alpha 117.276773
_cell_angle_beta 136.651566
_cell_angle_gamma 57.111765
_cell_volume 802.547270
_symmetry_space_group_name_H-M "P -1"
_symmetry_group_IT_number 2
_symmetry_cell_setting 'triclinic'
loop_
_space_group_symop_operation_xyz
x,y,z
-x,-y,-z
loop_
_atom_site_type_symbol
_atom_site_label
_atom_site_fract_x
_atom_site_fract_y
_atom_site_fract_z
Si Si1 0.310890 0.034333 0.220079
Si Si2 0.867460 0.163096 0.787464
Si Si3 0.569523 0.737534 0.132810
Si Si4 0.607263 0.535638 0.754161
Si Si5 0.524260 0.550913 0.908120
Si Si6 0.982284 0.688297 0.948900
Si Si7 0.939169 0.892879 0.322213
Si Si8 0.321844 0.814379 0.592172
O O1 0.241477 0.967748 0.258793
O O2 0.382188 0.885589 0.140038
O O3 0.106752 0.184758 0.133851
O O4 0.512497 0.097310 0.347431
O O5 0.671343 0.333606 0.718918
O O6 0.016289 0.077164 0.748368
O O7 0.019979 0.205310 0.937003
O O8 0.623439 0.560343 0.158547
O O9 0.795186 0.772999 0.233696
O O10 0.476902 0.717220 0.992362
O O11 0.475474 0.603944 0.803248
O O12 0.830905 0.576077 0.866939
O O13 0.453530 0.627029 0.633673
O O14 0.776589 0.433811 0.001808
O O15 0.167585 0.796126 0.443575
O O16 0.819183 0.075673 0.361559
#
# Coordination Sequence:
#
# PCOD8041376 Si02
#       8
#     2   2   2   2   2   2   2   2
#     4  10  20  36  56  81 109 142 176 217 265 316
#     4  11  20  33  57  81 109 137 179 220 265 317
#     4  10  19  34  55  80 109 146 169 215 266 320
#     4  10  19  35  55  83 107 139 179 220 264 316
#     4  10  19  32  55  82 115 138 170 216 269 322
#     4  10  19  33  54  83 114 139 169 217 271 319
#     4  10  21  39  57  74 106 145 185 218 265 310
#     4   9  22  40  57  73 107 144 182 224 264 307
#
# _framework density 19.936520000000002
#
# number of rings (size 3 to 8) (size 9 to 14) (size 15 to 20)
#    0.000    2.000    2.500    3.375    0.000    2.000 
#    2.250    4.375    0.000    0.000    0.000    0.000 
#    0.000    0.000    0.000    0.000    0.000    0.000 
#
# Total GULP energy -198419.571023 kJ/mol
# GULP energy per Si atom -12401.223189 kJ/mol
# Density = 1.989114 g / cm^3
# Si number density = 19.936520 Si / 1000 Ang^3
#
#
#
# Elastic Constant Matrix: (Units=GPa)
#
#
# Indices 1 2 3 4 5 6 
#
# 1 115.7584 23.5075 28.1494 -0.8021 -12.9639 20.5630
# 2 23.5075 61.9622 12.3892 -7.1899 -2.6049 20.6658
# 3 28.1494 12.3892 44.0182 -7.1053 0.6823 7.5368
# 4 -0.8021 -7.1899 -7.1053 23.3275 -4.4433 -3.5929
# 5 -12.9639 -2.6049 0.6823 -4.4433 19.8873 -3.0291
# 6 20.5630 20.6658 7.5368 -3.5929 -3.0291 25.2405
#
#
#
# Elastic Compliance Matrix: (Units=1/GPa)
#
#
# Indices 1 2 3 4 5 6 
#
# 1 0.012471 -0.001035 -0.006926 -0.001726 0.006830 -0.006670
# 2 -0.001035 0.023052 -0.002348 0.003931 0.000763 -0.016679
# 3 -0.006926 -0.002348 0.029114 0.006973 -0.004364 -0.000659
# 4 -0.001726 0.003931 0.006973 0.048857 0.010728 0.004348
# 5 0.006830 0.000763 -0.004364 0.010728 0.057930 0.003593
# 6 -0.006670 -0.016679 -0.000659 0.004348 0.003593 0.059956
#
#
# Mechanical properties :
#
#
# Convention : Reuss Voigt Hill
#
# Bulk Modulus (GPa) = 22.71752 38.87010 30.79381
# Shear Modulus (GPa) = 18.74972 24.20389 21.47680
#
# Velocity S-wave (km/s) = 3.07004 3.48810 3.28572
# Velocity P-wave (km/s) = 4.89760 5.98011 5.46572
#
# Compressibility (1/GPa) = 0.04401889
#
# Stress axis : x y z
#
# Youngs Moduli (GPa) = 80.18635 43.38053 34.34754
#
# Poissons Ratio (x) = 0.04489 0.23790
# Poissons Ratio (y) = 0.08298 0.08065
# Poissons Ratio (z) = 0.55539 0.10186
#
# Static dielectric constant tensor:
#      x y z
#    x 3.738860 0.149180 -0.018100 
#    y 0.149180 3.602390 0.059190 
#    z -0.018100 0.059190 3.437760 
# 
# 
# High freq. dielectric constant tensor:
#      x y z
#    x 1.786380 0.009970 -0.003520 
#    y 0.009970 1.773610 0.003550 
#    z -0.003520 0.003550 1.754180 
# 
# From -- ./inp_files/186182.got.cif
#   From: 2010.06.25/outbox.cif.g09.slc.cpg/sg2_94_cif.got.tgz:186182.got - 2010.06.27 13:26:56.
