data_PCOD8041346
_publ_section_title
;
Structure prediction by ZEFSAII (Michael W. Deem and Ramdas Pophale) SiO2 
 PCOD8041346
Probable space group: P -1
;
_chemical_formula_sum "Si O2"
_cell_formula_units_Z 16
_cell_length_a 8.070677
_cell_length_b 23.693407
_cell_length_c 16.128879
_cell_angle_alpha 162.324534
_cell_angle_beta 114.599658
_cell_angle_gamma 70.872683
_cell_volume 824.458286
_symmetry_space_group_name_H-M "P -1"
_symmetry_group_IT_number 2
_symmetry_cell_setting 'triclinic'
loop_
_space_group_symop_operation_xyz
x,y,z
-x,-y,-z
loop_
_atom_site_type_symbol
_atom_site_label
_atom_site_fract_x
_atom_site_fract_y
_atom_site_fract_z
Si Si1 0.783964 0.585219 0.926925
Si Si2 0.794541 0.880762 0.472677
Si Si3 0.221626 0.034998 0.585395
Si Si4 0.888721 0.580148 0.287550
Si Si5 0.417534 0.748928 0.309948
Si Si6 0.830992 0.838007 0.770953
Si Si7 0.568160 0.208832 0.435681
Si Si8 0.100187 0.965666 0.778729
O O1 0.632053 0.389045 0.639248
O O2 0.963144 0.550053 0.865541
O O3 0.849618 0.694468 0.181685
O O4 0.695576 0.731912 0.058321
O O5 0.624168 0.812371 0.404538
O O6 0.978224 0.009542 0.737741
O O7 0.739741 0.009547 0.566365
O O8 0.309922 0.913349 0.496846
O O9 0.000000 0.000000 0.500000
O O10 0.845044 0.634843 0.449756
O O11 0.970050 0.771978 0.520625
O O12 0.692041 0.458012 0.037824
O O13 0.433332 0.725764 0.378570
O O14 0.641378 0.895390 0.782940
O O15 0.851277 0.849882 0.891695
O O16 0.000000 0.000000 0.000000
O O17 0.701265 0.064846 0.252743
#
# Coordination Sequence:
#
# PCOD8041346 Si02
#       8
#     2   2   2   2   2   2   2   2
#     4   9  20  35  54  85 115 144 179 224 286 323
#     4  10  21  34  54  83 113 143 183 224 269 336
#     4  10  20  37  53  83 115 151 176 217 282 342
#     4  10  19  32  54  80 113 144 180 228 273 327
#     4  12  20  33  58  87 113 145 178 226 288 320
#     4  10  21  35  53  83 111 145 185 230 276 319
#     4  11  21  35  58  86 111 142 182 236 273 329
#     4  10  20  36  53  80 111 149 185 225 270 322
#
# _framework density 19.406682
#
# number of rings (size 3 to 8) (size 9 to 14) (size 15 to 20)
#    0.750    1.000    1.250    5.250    0.000    3.500 
#    0.000    0.000    0.000    0.750    6.500    7.000 
#    0.000    0.000    0.000    0.000    0.000    0.000 
#
# Total GULP energy -198232.901882 kJ/mol
# GULP energy per Si atom -12389.556368 kJ/mol
# Density = 1.936251 g / cm^3
# Si number density = 19.406682 Si / 1000 Ang^3
#
#
#
# Elastic Constant Matrix: (Units=GPa)
#
#
# Indices 1 2 3 4 5 6 
#
# 1 118.9699 9.5037 36.6197 -11.9628 2.5706 -3.3120
# 2 9.5037 41.7709 13.8400 0.2251 7.5976 -7.2118
# 3 36.6197 13.8400 80.1774 -26.3546 0.5955 -1.4859
# 4 -11.9628 0.2251 -26.3546 24.4732 -0.7426 3.2076
# 5 2.5706 7.5976 0.5955 -0.7426 33.1120 -5.0822
# 6 -3.3120 -7.2118 -1.4859 3.2076 -5.0822 26.1983
#
#
#
# Elastic Compliance Matrix: (Units=1/GPa)
#
#
# Indices 1 2 3 4 5 6 
#
# 1 0.009828 -0.000576 -0.004378 -0.000017 -0.000437 0.000753
# 2 -0.000576 0.029096 -0.007960 -0.010295 -0.005542 0.007671
# 3 -0.004378 -0.007960 0.023636 0.023963 0.001662 -0.004015
# 4 -0.000017 -0.010295 0.023963 0.068048 0.002013 -0.009418
# 5 -0.000437 -0.005542 0.001662 0.002013 0.032214 0.004516
# 6 0.000753 0.007671 -0.004015 -0.009418 0.004516 0.042179
#
#
# Mechanical properties :
#
#
# Convention : Reuss Voigt Hill
#
# Bulk Modulus (GPa) = 27.22377 40.09388 33.65883
# Shear Modulus (GPa) = 20.57004 28.82035 24.69520
#
# Velocity S-wave (km/s) = 3.25921 3.85785 3.57110
# Velocity P-wave (km/s) = 5.31242 6.36778 5.86389
#
# Compressibility (1/GPa) = 0.03673260
#
# Stress axis : x y z
#
# Youngs Moduli (GPa) = 101.75387 34.36856 42.30899
#
# Poissons Ratio (x) = 0.01980 0.18521
# Poissons Ratio (y) = 0.05861 0.33678
# Poissons Ratio (z) = 0.44543 0.27357
#
# Static dielectric constant tensor:
#      x y z
#    x 3.822660 0.154220 -0.194870 
#    y 0.154220 3.523420 -0.115920 
#    z -0.194870 -0.115920 3.752580 
# 
# 
# High freq. dielectric constant tensor:
#      x y z
#    x 1.779400 0.006720 -0.001920 
#    y 0.006720 1.721820 -0.007100 
#    z -0.001920 -0.007100 1.734830 
# 
# From -- ./inp_files/508766.got.cif
#   From: 2010.06.25/outbox.cif.g09.slc.cpg/sg2_255_cif.got.tgz:508766.got - 2010.06.27 13:26:56.
