data_PCOD8041781
_publ_section_title
;
Structure prediction by ZEFSAII (Michael W. Deem and Ramdas Pophale) SiO2 
 PCOD8041781
Probable space group: P -1
;
_chemical_formula_sum "Si O2"
_cell_formula_units_Z 14
_cell_length_a 28.008932
_cell_length_b 8.048697
_cell_length_c 5.171242
_cell_angle_alpha 93.880780
_cell_angle_beta 68.252390
_cell_angle_gamma 135.058773
_cell_volume 730.462019
_symmetry_space_group_name_H-M "P -1"
_symmetry_group_IT_number 2
_symmetry_cell_setting 'triclinic'
loop_
_space_group_symop_operation_xyz
x,y,z
-x,-y,-z
loop_
_atom_site_type_symbol
_atom_site_label
_atom_site_fract_x
_atom_site_fract_y
_atom_site_fract_z
Si Si1 0.424001 0.421855 0.674541
Si Si2 0.299388 0.845843 0.861252
Si Si3 0.689316 0.341521 0.691274
Si Si4 0.845880 0.299685 0.769299
Si Si5 0.084356 0.634224 0.858910
Si Si6 0.783748 0.870759 0.557046
Si Si7 0.619650 0.502088 0.726321
O O1 0.500000 0.500000 0.500000
O O2 0.419463 0.550597 0.473271
O O3 0.352072 0.131231 0.760735
O O4 0.426672 0.518030 0.955529
O O5 0.298061 0.752457 0.579411
O O6 0.331280 0.804452 0.020793
O O7 0.213499 0.692183 0.085957
O O8 0.766590 0.634782 0.618991
O O9 0.619999 0.302659 0.756369
O O10 0.897479 0.448435 0.423876
O O11 0.801591 0.015469 0.801561
O O12 0.903138 0.435626 0.909367
O O13 0.144233 0.932437 0.758447
O O14 0.000000 0.500000 0.000000
O O15 0.707859 0.774435 0.574711
#
# Coordination Sequence:
#
# PCOD8041781 Si02
#       7
#     2   2   2   2   2   2   2
#     4  12  23  39  61  83 114 150 188 237 281 334
#     4  12  21  38  57  90 110 142 197 232 286 323
#     4  10  23  34  62  83 115 145 189 238 275 336
#     4  10  20  34  60  81 112 147 191 237 265 327
#     4  10  19  33  58  89 109 144 194 231 270 327
#     4   8  21  34  62  79 110 149 190 228 278 318
#     4  10  21  41  58  83 113 150 196 222 282 339
#
# _framework density 19.165952000000001
#
# number of rings (size 3 to 8) (size 9 to 14) (size 15 to 20)
#    1.714    0.000    1.429    4.286    2.000    0.000 
#    0.000    4.286    0.000    5.143    0.000    0.000 
#    0.000    0.000    0.000    0.000    0.000    0.000 
#
# Total GULP energy -173469.376964 kJ/mol
# GULP energy per Si atom -12390.669783 kJ/mol
# Density = 1.912233 g / cm^3
# Si number density = 19.165952 Si / 1000 Ang^3
#
#
#
# Elastic Constant Matrix: (Units=GPa)
#
#
# Indices 1 2 3 4 5 6 
#
# 1 103.4285 9.8634 21.7764 -5.0618 6.0701 13.3921
# 2 9.8634 16.6631 16.1793 12.6949 1.0150 -5.5239
# 3 21.7764 16.1793 84.4170 11.9647 2.1040 8.7102
# 4 -5.0618 12.6949 11.9647 20.4994 4.2313 -4.4724
# 5 6.0701 1.0150 2.1040 4.2313 47.0566 -1.0689
# 6 13.3921 -5.5239 8.7102 -4.4724 -1.0689 29.2135
#
#
#
# Elastic Compliance Matrix: (Units=1/GPa)
#
#
# Indices 1 2 3 4 5 6 
#
# 1 0.014097 -0.023218 -0.000698 0.017113 -0.003010 -0.008135
# 2 -0.023218 0.178270 -0.017798 -0.100189 0.009742 0.034677
# 3 -0.000698 -0.017798 0.016317 -0.000330 -0.000407 -0.007976
# 4 0.017113 -0.100189 -0.000330 0.115384 -0.010621 -0.009415
# 5 -0.003010 0.009742 -0.000407 -0.010621 0.022460 0.002539
# 6 -0.008135 0.034677 -0.007976 -0.009415 0.002539 0.045547
#
#
# Mechanical properties :
#
#
# Convention : Reuss Voigt Hill
#
# Bulk Modulus (GPa) = 7.98370 33.34964 20.66667
# Shear Modulus (GPa) = 9.66642 29.79986 19.73314
#
# Velocity S-wave (km/s) = 2.24822 3.94742 3.21221
# Velocity P-wave (km/s) = 3.30362 6.18178 4.95622
#
# Compressibility (1/GPa) = 0.12525516
#
# Stress axis : x y z
#
# Youngs Moduli (GPa) = 70.93633 5.60948 61.28581
#
# Poissons Ratio (x) = 0.13024 0.04276
# Poissons Ratio (y) = 1.64703 1.09077
# Poissons Ratio (z) = 0.04949 0.09984
#
# Static dielectric constant tensor:
#      x y z
#    x 3.387400 0.006040 -0.008730 
#    y 0.006040 3.225890 0.118390 
#    z -0.008730 0.118390 3.541340 
# 
# 
# High freq. dielectric constant tensor:
#      x y z
#    x 1.739920 0.004420 0.000970 
#    y 0.004420 1.713560 0.015260 
#    z 0.000970 0.015260 1.754220 
# 
# From -- ./inp_files/126135.got.cif
#   From: 2010.06.25/outbox.cif.g09.slc.cpg/sg2_64_cif.got.tgz:126135.got - 2010.06.27 13:26:56.
