data_PCOD8041555
_publ_section_title
;
Structure prediction by ZEFSAII (Michael W. Deem and Ramdas Pophale) SiO2 
 PCOD8041555
Probable space group: P -1
;
_chemical_formula_sum "Si O2"
_cell_formula_units_Z 16
_cell_length_a 12.194295
_cell_length_b 9.768887
_cell_length_c 12.362009
_cell_angle_alpha 41.877716
_cell_angle_beta 114.382045
_cell_angle_gamma 127.984053
_cell_volume 771.919959
_symmetry_space_group_name_H-M "P -1"
_symmetry_group_IT_number 2
_symmetry_cell_setting 'triclinic'
loop_
_space_group_symop_operation_xyz
x,y,z
-x,-y,-z
loop_
_atom_site_type_symbol
_atom_site_label
_atom_site_fract_x
_atom_site_fract_y
_atom_site_fract_z
Si Si1 0.147487 0.158374 0.109699
Si Si2 0.593173 0.780047 0.710400
Si Si3 0.593973 0.205464 0.773680
Si Si4 0.850747 0.896445 0.101033
Si Si5 0.170572 0.637388 0.894131
Si Si6 0.574305 0.032445 0.348273
Si Si7 0.870458 0.366195 0.877875
Si Si8 0.558608 0.728266 0.141494
O O1 0.260000 0.096723 0.239014
O O2 0.176475 0.226582 0.954648
O O3 0.159805 0.382763 0.045879
O O4 0.990908 0.924836 0.197787
O O5 0.477462 0.796737 0.724936
O O6 0.542415 0.505174 0.831308
O O7 0.619731 0.918730 0.527573
O O8 0.757733 0.403887 0.742307
O O9 0.500843 0.286375 0.754712
O O10 0.550764 0.183270 0.643641
O O11 0.567612 0.948076 0.950814
O O12 0.710814 0.750499 0.201486
O O13 0.887368 0.167538 0.938460
O O14 0.294771 0.822418 0.761801
O O15 0.022645 0.603564 0.809953
O O16 0.195594 0.734261 0.970223
#
# Coordination Sequence:
#
# PCOD8041555 Si02
#       8
#     2   2   2   2   2   2   2   2
#     4  10  19  33  54  77 102 134 174 219 263 306
#     4  11  23  36  51  76 111 145 176 211 255 312
#     4  10  19  34  57  81 103 133 175 221 265 307
#     4   9  18  31  53  80 102 128 171 222 265 304
#     4  10  19  34  56  79 103 134 174 218 263 307
#     4  11  23  36  51  76 110 145 177 211 256 312
#     4   9  18  32  55  82 104 127 169 224 266 304
#     4  10  19  34  57  81 103 133 176 222 263 305
#
# _framework density 20.727537000000002
#
# number of rings (size 3 to 8) (size 9 to 14) (size 15 to 20)
#    0.000    2.000    0.000    6.000    0.000    2.000 
#    0.000    1.250    0.000   24.000    0.000    0.000 
#    0.000    0.000    0.000    0.000    0.000    0.000 
#
# Total GULP energy -198348.875294 kJ/mol
# GULP energy per Si atom -12396.804706 kJ/mol
# Density = 2.068036 g / cm^3
# Si number density = 20.727537 Si / 1000 Ang^3
#
#
#
# Elastic Constant Matrix: (Units=GPa)
#
#
# Indices 1 2 3 4 5 6 
#
# 1 129.9457 38.6838 36.3534 14.4577 7.5142 18.6224
# 2 38.6838 91.7664 26.9289 22.7482 9.8391 6.5206
# 3 36.3534 26.9289 46.7362 20.0022 10.5357 16.0753
# 4 14.4577 22.7482 20.0022 23.6342 1.0102 10.8457
# 5 7.5142 9.8391 10.5357 1.0102 21.1088 8.3899
# 6 18.6224 6.5206 16.0753 10.8457 8.3899 43.2649
#
#
#
# Elastic Compliance Matrix: (Units=1/GPa)
#
#
# Indices 1 2 3 4 5 6 
#
# 1 0.010666 -0.003400 -0.007968 0.004664 0.002655 -0.002802
# 2 -0.003400 0.016728 -0.000126 -0.015591 -0.007508 0.004353
# 3 -0.007968 -0.000126 0.046313 -0.032441 -0.017804 -0.002174
# 4 0.004664 -0.015591 -0.032441 0.087354 0.023182 -0.013997
# 5 0.002655 -0.007508 -0.017804 0.023182 0.062182 -0.011266
# 6 -0.002802 0.004353 -0.002174 -0.013997 -0.011266 0.030165
#
#
# Mechanical properties :
#
#
# Convention : Reuss Voigt Hill
#
# Bulk Modulus (GPa) = 19.71664 52.48669 36.10167
# Shear Modulus (GPa) = 17.04725 28.70039 22.87382
#
# Velocity S-wave (km/s) = 2.87094 3.72513 3.32557
# Velocity P-wave (km/s) = 4.53020 6.62414 5.67459
#
# Compressibility (1/GPa) = 0.05071858
#
# Stress axis : x y z
#
# Youngs Moduli (GPa) = 93.75704 59.78004 21.59217
#
# Poissons Ratio (x) = 0.20322 0.17206
# Poissons Ratio (y) = 0.31873 0.00273
# Poissons Ratio (z) = 0.74709 0.00755
#
# Static dielectric constant tensor:
#      x y z
#    x 4.190000 0.099210 0.265000 
#    y 0.099210 3.981770 0.313590 
#    z 0.265000 0.313590 3.124050 
# 
# 
# High freq. dielectric constant tensor:
#      x y z
#    x 1.836620 -0.003910 0.018660 
#    y -0.003910 1.830090 0.028520 
#    z 0.018660 0.028520 1.736740 
# 
# From -- ./inp_files/416389.got.cif
#   From: 2010.06.25/outbox.cif.g09.slc.cpg/sg2_209_cif.got.tgz:416389.got - 2010.06.27 13:26:56.
