data_PCOD8041412
_publ_section_title
;
Structure prediction by ZEFSAII (Michael W. Deem and Ramdas Pophale) SiO2 
 PCOD8041412
Probable space group: P -1
;
_chemical_formula_sum "Si O2"
_cell_formula_units_Z 14
_cell_length_a 27.414797
_cell_length_b 8.511057
_cell_length_c 11.869789
_cell_angle_alpha 141.488775
_cell_angle_beta 149.751971
_cell_angle_gamma 30.005374
_cell_volume 691.150762
_symmetry_space_group_name_H-M "P -1"
_symmetry_group_IT_number 2
_symmetry_cell_setting 'triclinic'
loop_
_space_group_symop_operation_xyz
x,y,z
-x,-y,-z
loop_
_atom_site_type_symbol
_atom_site_label
_atom_site_fract_x
_atom_site_fract_y
_atom_site_fract_z
Si Si1 0.264614 0.044903 0.123277
Si Si2 0.727392 0.687750 0.949464
Si Si3 0.947978 0.310125 0.316239
Si Si4 0.863933 0.274351 0.351732
Si Si5 0.531473 0.695657 0.456913
Si Si6 0.181591 0.600453 0.423519
Si Si7 0.622107 0.308345 0.207051
O O1 0.260541 0.175458 0.064984
O O2 0.185045 0.335044 0.213321
O O3 0.403547 0.796078 0.306903
O O4 0.207461 0.861782 0.903176
O O5 0.630209 0.612075 0.702934
O O6 0.858005 0.368553 0.067682
O O7 0.689160 0.937869 0.113750
O O8 0.869072 0.452228 0.354447
O O9 0.000000 0.500000 0.500000
O O10 0.055442 0.937832 0.331440
O O11 0.804035 0.487608 0.464270
O O12 0.000000 0.000000 0.500000
O O13 0.590163 0.393355 0.322399
O O14 0.500000 0.000000 0.500000
O O15 0.295341 0.589511 0.608896
O O16 0.500000 0.500000 0.000000
#
# Coordination Sequence:
#
# PCOD8041412 Si02
#       7
#     2   2   2   2   2   2   2
#     4  11  20  38  62  90 116 148 201 244 284 347
#     4  11  20  35  58  89 122 148 194 245 286 343
#     4  11  23  40  59  85 120 155 194 244 297 352
#     4  10  22  40  59  82 117 157 198 239 288 350
#     4  10  19  32  56  94 114 147 195 244 283 334
#     4  11  21  37  61  89 115 156 196 235 296 344
#     4  12  17  32  61  89 113 153 195 240 281 336
#
# _framework density 20.256073000000001
#
# number of rings (size 3 to 8) (size 9 to 14) (size 15 to 20)
#    0.000    1.143    8.571    0.857    0.000    2.857 
#    0.000    3.571    0.000    6.000    0.000    0.000 
#    0.000    0.000    0.000    0.000    0.000    0.000 
#
# Total GULP energy -173547.091882 kJ/mol
# GULP energy per Si atom -12396.220849 kJ/mol
# Density = 2.020997 g / cm^3
# Si number density = 20.256073 Si / 1000 Ang^3
#
#
#
# Elastic Constant Matrix: (Units=GPa)
#
#
# Indices 1 2 3 4 5 6 
#
# 1 98.8056 50.5668 47.0543 6.4305 0.5722 -8.4532
# 2 50.5668 68.0666 46.0947 5.9109 -10.8137 -21.5199
# 3 47.0543 46.0947 147.7924 -10.8136 1.5291 -3.0208
# 4 6.4305 5.9109 -10.8136 45.1257 -12.7970 -12.2649
# 5 0.5722 -10.8137 1.5291 -12.7970 30.8857 3.7490
# 6 -8.4532 -21.5199 -3.0208 -12.2649 3.7490 27.9554
#
#
#
# Elastic Compliance Matrix: (Units=1/GPa)
#
#
# Indices 1 2 3 4 5 6 
#
# 1 0.018821 -0.016408 -0.001350 -0.005164 -0.007148 -0.008393
# 2 -0.016408 0.042185 -0.007013 0.006913 0.014913 0.027787
# 3 -0.001350 -0.007013 0.009463 0.001893 -0.001662 -0.003731
# 4 -0.005164 0.006913 0.001893 0.030390 0.013128 0.015538
# 5 -0.007148 0.014913 -0.001662 0.013128 0.042130 0.009249
# 6 -0.008393 0.027787 -0.003731 0.015538 0.009249 0.059797
#
#
# Mechanical properties :
#
#
# Convention : Reuss Voigt Hill
#
# Bulk Modulus (GPa) = 47.78984 66.89958 57.34471
# Shear Modulus (GPa) = 19.28235 32.18995 25.73615
#
# Velocity S-wave (km/s) = 3.08868 3.99074 3.56833
# Velocity P-wave (km/s) = 6.03026 7.37111 6.73414
#
# Compressibility (1/GPa) = 0.02092495
#
# Stress axis : x y z
#
# Youngs Moduli (GPa) = 53.13295 23.70529 105.67566
#
# Poissons Ratio (x) = 0.38896 0.14267
# Poissons Ratio (y) = 0.87182 0.74114
# Poissons Ratio (z) = 0.07173 0.16625
#
# Static dielectric constant tensor:
#      x y z
#    x 4.135050 -0.287160 -0.026580 
#    y -0.287160 3.653000 -0.118190 
#    z -0.026580 -0.118190 4.327840 
# 
# 
# High freq. dielectric constant tensor:
#      x y z
#    x 1.774920 -0.028490 0.000990 
#    y -0.028490 1.767770 -0.012330 
#    z 0.000990 -0.012330 1.815750 
# 
# From -- ./inp_files/254394.got.cif
#   From: 2010.06.25/outbox.cif.g09.slc.cpg/sg2_128_cif.got.tgz:254394.got - 2010.06.27 13:26:56.
