data_PCOD8041436
_publ_section_title
;
Structure prediction by ZEFSAII (Michael W. Deem and Ramdas Pophale) SiO2 
 PCOD8041436
Probable space group: P -1
;
_chemical_formula_sum "Si O2"
_cell_formula_units_Z 16
_cell_length_a 8.147095
_cell_length_b 21.813554
_cell_length_c 10.256002
_cell_angle_alpha 134.403782
_cell_angle_beta 69.954941
_cell_angle_gamma 76.628375
_cell_volume 871.279317
_symmetry_space_group_name_H-M "P -1"
_symmetry_group_IT_number 2
_symmetry_cell_setting 'triclinic'
loop_
_space_group_symop_operation_xyz
x,y,z
-x,-y,-z
loop_
_atom_site_type_symbol
_atom_site_label
_atom_site_fract_x
_atom_site_fract_y
_atom_site_fract_z
Si Si1 0.306029 0.428157 0.723299
Si Si2 0.205341 0.361790 0.389980
Si Si3 0.333261 0.406349 0.163375
Si Si4 0.211514 0.647299 0.128695
Si Si5 0.785403 0.273585 0.491108
Si Si6 0.425952 0.274742 0.690100
Si Si7 0.677035 0.869932 0.595383
Si Si8 0.318540 0.138021 0.115446
O O1 0.246709 0.404226 0.569065
O O2 0.597128 0.353842 0.542019
O O3 0.245597 0.384939 0.797378
O O4 0.156708 0.568265 0.985071
O O5 0.348950 0.356814 0.225800
O O6 0.315395 0.229236 0.178424
O O7 0.916535 0.453091 0.574093
O O8 0.560009 0.392951 0.071280
O O9 0.339216 0.329728 0.939575
O O10 0.250992 0.637274 0.259841
O O11 0.965676 0.785503 0.365564
O O12 0.705302 0.212406 0.495346
O O13 0.063562 0.174183 0.218193
O O14 0.423294 0.173638 0.528749
O O15 0.627139 0.863482 0.750012
O O16 0.532573 0.006056 0.798140
#
# Coordination Sequence:
#
# PCOD8041436 Si02
#       8
#     2   2   2   2   2   2   2   2
#     4  10  19  32  58  84 103 139 181 225 267 313
#     4  11  22  37  55  80 111 146 174 220 276 323
#     4  10  23  37  55  79 114 141 175 223 276 322
#     4  10  19  34  53  81 111 139 179 222 269 314
#     4   8  18  31  53  84 105 138 173 227 269 310
#     4   9  19  35  54  86 103 137 182 220 269 307
#     4  10  20  33  57  83 107 143 180 226 261 317
#     4  10  19  35  55  81 114 139 179 221 272 313
#
# _framework density 18.363800999999999
#
# number of rings (size 3 to 8) (size 9 to 14) (size 15 to 20)
#    0.750    1.500    1.250    1.875    3.500    2.000 
#    0.000    3.750    0.000    0.000    0.000    0.000 
#    0.000    0.000    0.000    0.000    0.000    0.000 
#
# Total GULP energy -198346.556183 kJ/mol
# GULP energy per Si atom -12396.659761 kJ/mol
# Density = 1.832200 g / cm^3
# Si number density = 18.363801 Si / 1000 Ang^3
#
#
#
# Elastic Constant Matrix: (Units=GPa)
#
#
# Indices 1 2 3 4 5 6 
#
# 1 74.7538 36.9429 43.1178 3.5614 6.5742 12.0792
# 2 36.9429 91.4986 46.1696 3.0108 5.9672 2.6728
# 3 43.1178 46.1696 97.5675 17.6493 0.7010 12.7389
# 4 3.5614 3.0108 17.6493 31.3449 0.8140 4.5368
# 5 6.5742 5.9672 0.7010 0.8140 32.9875 0.0303
# 6 12.0792 2.6728 12.7389 4.5368 0.0303 16.8864
#
#
#
# Elastic Compliance Matrix: (Units=1/GPa)
#
#
# Indices 1 2 3 4 5 6 
#
# 1 0.021294 -0.005061 -0.006179 0.003167 -0.003265 -0.010614
# 2 -0.005061 0.016113 -0.006427 0.001911 -0.001822 0.005408
# 3 -0.006179 -0.006427 0.018284 -0.008140 0.002212 -0.006173
# 4 0.003167 0.001911 -0.008140 0.036905 -0.001709 -0.006339
# 5 -0.003265 -0.001822 0.002212 -0.001709 0.031289 0.001358
# 6 -0.010614 0.005408 -0.006173 -0.006339 0.001358 0.072313
#
#
# Mechanical properties :
#
#
# Convention : Reuss Voigt Hill
#
# Bulk Modulus (GPa) = 49.12286 57.36451 53.24368
# Shear Modulus (GPa) = 20.98039 25.41640 23.19840
#
# Velocity S-wave (km/s) = 3.38374 3.72432 3.55810
# Velocity P-wave (km/s) = 6.48646 7.05689 6.77768
#
# Compressibility (1/GPa) = 0.02035712
#
# Stress axis : x y z
#
# Youngs Moduli (GPa) = 46.96220 62.05982 54.69280
#
# Poissons Ratio (x) = 0.31406 0.33795
# Poissons Ratio (y) = 0.23766 0.35152
# Poissons Ratio (z) = 0.29019 0.39887
#
# Static dielectric constant tensor:
#      x y z
#    x 3.445990 -0.043810 -0.062200 
#    y -0.043810 3.053330 0.050110 
#    z -0.062200 0.050110 3.290770 
# 
# 
# High freq. dielectric constant tensor:
#      x y z
#    x 1.725640 -0.000050 -0.002020 
#    y -0.000050 1.673110 0.004650 
#    z -0.002020 0.004650 1.700560 
# 
# From -- ./inp_files/406331.got.cif
#   From: 2010.06.25/outbox.cif.g09.slc.cpg/sg2_204_cif.got.tgz:406331.got - 2010.06.27 13:26:56.
