data_PCOD8041719
_publ_section_title
;
Structure prediction by ZEFSAII (Michael W. Deem and Ramdas Pophale) SiO2 
 PCOD8041719
Probable space group: P -1
;
_chemical_formula_sum "Si O2"
_cell_formula_units_Z 16
_cell_length_a 9.160727
_cell_length_b 8.905912
_cell_length_c 20.851831
_cell_angle_alpha 88.023215
_cell_angle_beta 29.616884
_cell_angle_gamma 88.055400
_cell_volume 840.197128
_symmetry_space_group_name_H-M "P -1"
_symmetry_group_IT_number 2
_symmetry_cell_setting 'triclinic'
loop_
_space_group_symop_operation_xyz
x,y,z
-x,-y,-z
loop_
_atom_site_type_symbol
_atom_site_label
_atom_site_fract_x
_atom_site_fract_y
_atom_site_fract_z
Si Si1 0.604450 0.129993 0.146055
Si Si2 0.787783 0.830342 0.146804
Si Si3 0.806152 0.323877 0.636157
Si Si4 0.681862 0.852848 0.877747
Si Si5 0.889850 0.155246 0.846989
Si Si6 0.787493 0.199950 0.393732
Si Si7 0.144704 0.156987 0.616678
Si Si8 0.909081 0.666843 0.608872
O O1 0.451839 0.076751 0.138683
O O2 0.399885 0.249764 0.259531
O O3 0.645768 0.989605 0.179248
O O4 0.922917 0.203752 0.006716
O O5 0.545349 0.701162 0.232725
O O6 0.862489 0.831808 0.193629
O O7 0.857279 0.490790 0.638867
O O8 0.941850 0.205440 0.635374
O O9 0.973436 0.291131 0.506478
O O10 0.959470 0.745262 0.754161
O O11 0.805484 0.980349 0.875472
O O12 0.419053 0.761576 0.015041
O O13 0.008795 0.220351 0.734151
O O14 0.466866 0.232605 0.486240
O O15 0.831436 0.286387 0.442177
O O16 0.832425 0.022041 0.389956
#
# Coordination Sequence:
#
# PCOD8041719 Si02
#       8
#     2   2   2   2   2   2   2   2
#     4   9  19  35  57  82 104 133 173 219 264 307
#     4  10  19  33  57  84 106 132 172 216 263 312
#     4  11  23  36  51  75 107 144 180 211 253 313
#     4   8  15  29  49  74 103 127 158 204 259 306
#     4   9  16  28  50  77 104 128 157 208 261 305
#     4   9  18  34  54  76 100 130 171 218 262 301
#     4  10  20  33  53  78 100 130 174 217 260 306
#     4  10  22  38  53  72 106 145 177 214 258 305
#
# _framework density 19.043150000000001
#
# number of rings (size 3 to 8) (size 9 to 14) (size 15 to 20)
#    0.000    2.500    0.000    3.000    0.000    7.000 
#    0.000    0.000    0.000    6.750    0.000    0.000 
#    0.000    0.000    0.000    0.000    0.000    0.000 
#
# Total GULP energy -198315.144909 kJ/mol
# GULP energy per Si atom -12394.696557 kJ/mol
# Density = 1.899981 g / cm^3
# Si number density = 19.043150 Si / 1000 Ang^3
#
#
#
# Elastic Constant Matrix: (Units=GPa)
#
#
# Indices 1 2 3 4 5 6 
#
# 1 95.3965 20.8850 46.7873 -7.8909 -9.5379 21.7145
# 2 20.8850 39.0875 28.2087 -0.2155 0.7117 13.7180
# 3 46.7873 28.2087 127.3817 -1.8679 -9.5914 14.1702
# 4 -7.8909 -0.2155 -1.8679 22.7386 3.9622 1.4845
# 5 -9.5379 0.7117 -9.5914 3.9622 33.0714 -1.3953
# 6 21.7145 13.7180 14.1702 1.4845 -1.3953 19.6022
#
#
#
# Elastic Compliance Matrix: (Units=1/GPa)
#
#
# Indices 1 2 3 4 5 6 
#
# 1 0.016922 -0.000609 -0.004072 0.006152 0.002314 -0.015676
# 2 -0.000609 0.038064 -0.006022 0.001769 -0.003882 -0.022020
# 3 -0.004072 -0.006022 0.010695 -0.001062 0.002236 0.001233
# 4 0.006152 0.001769 -0.001062 0.047603 -0.004749 -0.011228
# 5 0.002314 -0.003882 0.002236 -0.004749 0.032256 0.001193
# 6 -0.015676 -0.022020 0.001233 -0.011228 0.001193 0.083833
#
#
# Mechanical properties :
#
#
# Convention : Reuss Voigt Hill
#
# Bulk Modulus (GPa) = 22.58693 50.40306 36.49500
# Shear Modulus (GPa) = 18.82965 26.14808 22.48887
#
# Velocity S-wave (km/s) = 3.14791 3.70955 3.44021
# Velocity P-wave (km/s) = 5.00990 6.69873 5.91490
#
# Compressibility (1/GPa) = 0.04427338
#
# Stress axis : x y z
#
# Youngs Moduli (GPa) = 59.09612 26.27168 93.49861
#
# Poissons Ratio (x) = 0.01601 0.38073
# Poissons Ratio (y) = 0.03600 0.56308
# Poissons Ratio (z) = 0.24064 0.15822
#
# Static dielectric constant tensor:
#      x y z
#    x 3.507190 0.183450 -0.081400 
#    y 0.183450 2.977710 -0.015910 
#    z -0.081400 -0.015910 4.113570 
# 
# 
# High freq. dielectric constant tensor:
#      x y z
#    x 1.745610 0.020200 -0.005550 
#    y 0.020200 1.685450 -0.002890 
#    z -0.005550 -0.002890 1.769550 
# 
# From -- ./inp_files/239095.got.cif
#   From: 2010.06.25/outbox.cif.g09.slc.cpg/sg2_120_cif.got.tgz:239095.got - 2010.06.27 13:26:56.
