data_PCOD8041833
_publ_section_title
;
Structure prediction by ZEFSAII (Michael W. Deem and Ramdas Pophale) SiO2 
 PCOD8041833
Probable space group: P -1
;
_chemical_formula_sum "Si O2"
_cell_formula_units_Z 14
_cell_length_a 14.442873
_cell_length_b 5.648746
_cell_length_c 8.438415
_cell_angle_alpha 106.312311
_cell_angle_beta 105.418071
_cell_angle_gamma 66.175882
_cell_volume 595.250154
_symmetry_space_group_name_H-M "P -1"
_symmetry_group_IT_number 2
_symmetry_cell_setting 'triclinic'
loop_
_space_group_symop_operation_xyz
x,y,z
-x,-y,-z
loop_
_atom_site_type_symbol
_atom_site_label
_atom_site_fract_x
_atom_site_fract_y
_atom_site_fract_z
Si Si1 0.746729 0.462384 0.279430
Si Si2 0.769718 0.619233 0.987651
Si Si3 0.553028 0.893537 0.837505
Si Si4 0.918350 0.091032 0.838650
Si Si5 0.522824 0.544535 0.200792
Si Si6 0.112190 0.294881 0.475368
Si Si7 0.896682 0.907355 0.237079
O O1 0.718132 0.639101 0.141479
O O2 0.643051 0.424755 0.282502
O O3 0.798245 0.580023 0.464250
O O4 0.834235 0.200339 0.204429
O O5 0.865298 0.717682 0.066819
O O6 0.676663 0.809738 0.876503
O O7 0.814466 0.328523 0.877605
O O8 0.527852 0.623120 0.741163
O O9 0.516091 0.133008 0.734744
O O10 0.500000 0.000000 0.000000
O O11 0.980371 0.166013 0.736292
O O12 0.884738 0.850539 0.717504
O O13 0.000000 0.000000 0.000000
O O14 0.500000 0.500000 0.000000
O O15 0.137215 0.096343 0.597977
O O16 0.000000 0.500000 0.500000
#
# Coordination Sequence:
#
# PCOD8041833 Si02
#       7
#     2   2   2   2   2   2   2
#     4  11  21  37  64  91 121 166 212 260 316 386
#     4  11  22  35  60  95 122 163 210 270 321 372
#     4  10  19  34  58  91 129 159 212 271 319 372
#     4  12  23  41  61  90 129 164 209 270 318 382
#     4  10  19  33  60  93 123 159 216 272 311 371
#     4  11  24  42  61  88 128 170 216 252 315 396
#     4  11  22  40  62  88 127 169 210 255 322 391
#
# _framework density 23.519525000000002
#
# number of rings (size 3 to 8) (size 9 to 14) (size 15 to 20)
#    0.000    1.143    5.714    3.429    2.000    0.000 
#    0.000    0.000    0.000    1.714    0.000    0.000 
#    0.000    0.000    0.000    0.000    0.000    0.000 
#
# Total GULP energy -173486.859967 kJ/mol
# GULP energy per Si atom -12391.918569 kJ/mol
# Density = 2.346599 g / cm^3
# Si number density = 23.519525 Si / 1000 Ang^3
#
#
#
# Elastic Constant Matrix: (Units=GPa)
#
#
# Indices 1 2 3 4 5 6 
#
# 1 87.8468 37.6445 29.2046 2.0699 37.9214 -5.3763
# 2 37.6445 121.9523 28.1471 18.6534 11.5674 1.1967
# 3 29.2046 28.1471 91.4832 26.8228 27.1118 -4.7247
# 4 2.0699 18.6534 26.8228 27.8332 5.3728 2.9938
# 5 37.9214 11.5674 27.1118 5.3728 32.0022 1.6443
# 6 -5.3763 1.1967 -4.7247 2.9938 1.6443 48.3641
#
#
#
# Elastic Compliance Matrix: (Units=1/GPa)
#
#
# Indices 1 2 3 4 5 6 
#
# 1 0.028846 -0.007145 0.000975 0.007810 -0.033950 0.004149
# 2 -0.007145 0.011116 -0.001075 -0.007051 0.006592 -0.000962
# 3 0.000975 -0.001075 0.020667 -0.016643 -0.015672 0.003717
# 4 0.007810 -0.007051 -0.016643 0.056924 -0.001956 -0.004040
# 5 -0.033950 0.006592 -0.015672 -0.001956 0.083120 -0.008173
# 6 0.004149 -0.000962 0.003717 -0.004040 -0.008173 0.022053
#
#
# Mechanical properties :
#
#
# Convention : Reuss Voigt Hill
#
# Bulk Modulus (GPa) = 21.67338 54.58606 38.12972
# Shear Modulus (GPa) = 19.79456 35.39231 27.59343
#
# Velocity S-wave (km/s) = 2.90422 3.88339 3.42894
# Velocity P-wave (km/s) = 4.52560 6.58535 5.65013
#
# Compressibility (1/GPa) = 0.04613955
#
# Stress axis : x y z
#
# Youngs Moduli (GPa) = 34.66680 89.95877 48.38693
#
# Poissons Ratio (x) = 0.64271 -0.04718
# Poissons Ratio (y) = 0.24768 0.05203
# Poissons Ratio (z) = -0.03380 0.09673
#
# Static dielectric constant tensor:
#      x y z
#    x 4.371630 0.487120 0.301790 
#    y 0.487120 4.972210 -0.010250 
#    z 0.301790 -0.010250 3.943320 
# 
# 
# High freq. dielectric constant tensor:
#      x y z
#    x 1.924450 0.005860 0.030590 
#    y 0.005860 1.941230 -0.000240 
#    z 0.030590 -0.000240 1.887110 
# 
# From -- ./inp_files/35084.got.cif
#   From: 2010.06.25/outbox.cif.g09.slc.cpg/sg2_18_cif.got.tgz:35084.got - 2010.06.27 13:26:56.
