data_PCOD8041181
_publ_section_title
;
Structure prediction by ZEFSAII (Michael W. Deem and Ramdas Pophale) SiO2 
 PCOD8041181
Probable space group: P -1
;
_chemical_formula_sum "Si O2"
_cell_formula_units_Z 16
_cell_length_a 8.683314
_cell_length_b 11.925565
_cell_length_c 7.872748
_cell_angle_alpha 83.975183
_cell_angle_beta 109.135100
_cell_angle_gamma 72.083181
_cell_volume 713.390071
_symmetry_space_group_name_H-M "P -1"
_symmetry_group_IT_number 2
_symmetry_cell_setting 'triclinic'
loop_
_space_group_symop_operation_xyz
x,y,z
-x,-y,-z
loop_
_atom_site_type_symbol
_atom_site_label
_atom_site_fract_x
_atom_site_fract_y
_atom_site_fract_z
Si Si1 0.325430 0.214586 0.748258
Si Si2 0.385087 0.025358 0.211651
Si Si3 0.757022 0.354923 0.617675
Si Si4 0.372194 0.369353 0.443240
Si Si5 0.171215 0.799428 0.655205
Si Si6 0.942929 0.856317 0.153605
Si Si7 0.541938 0.748490 0.865367
Si Si8 0.866910 0.991623 0.633434
O O1 0.295868 0.293631 0.553927
O O2 0.162889 0.169735 0.717690
O O3 0.504567 0.097917 0.823898
O O4 0.342967 0.288126 0.914128
O O5 0.488218 0.115669 0.227192
O O6 0.329503 0.998448 0.384054
O O7 0.191771 0.092204 0.053508
O O8 0.568123 0.346510 0.582227
O O9 0.750454 0.490867 0.603728
O O10 0.829869 0.298177 0.469445
O O11 0.899634 0.271478 0.817499
O O12 0.366341 0.337401 0.247350
O O13 0.350899 0.742340 0.836938
O O14 0.988948 0.847424 0.685427
O O15 0.171234 0.927747 0.561893
O O16 0.034812 0.951348 0.208382
#
# Coordination Sequence:
#
# PCOD8041181 Si02
#       8
#     2   2   2   2   2   2   2   2
#     4  11  22  37  59  85 116 152 185 228 286 337
#     4  11  21  34  55  85 118 149 184 230 285 339
#     4   9  20  40  59  80 111 150 192 236 278 326
#     4  10  22  41  62  81 111 152 193 233 278 332
#     4   9  18  33  53  79 114 145 185 236 278 333
#     4  10  20  35  55  82 115 148 185 232 281 333
#     4  10  21  37  55  83 115 147 187 231 279 337
#     4  10  19  31  53  83 112 150 186 227 285 334
#
# _framework density 22.428122999999999
#
# number of rings (size 3 to 8) (size 9 to 14) (size 15 to 20)
#    0.000    2.000    0.000    5.625    0.000    6.500 
#    0.000    9.375    0.000    0.000    0.000    0.000 
#    0.000    0.000    0.000    0.000    0.000    0.000 
#
# Total GULP energy -198242.062762 kJ/mol
# GULP energy per Si atom -12390.128923 kJ/mol
# Density = 2.237708 g / cm^3
# Si number density = 22.428123 Si / 1000 Ang^3
#
#
#
# Elastic Constant Matrix: (Units=GPa)
#
#
# Indices 1 2 3 4 5 6 
#
# 1 63.8576 19.6107 -2.7678 10.3749 -12.7467 -12.6537
# 2 19.6107 136.0341 20.8340 8.6584 -3.0514 -23.1096
# 3 -2.7678 20.8340 25.8545 4.0195 -0.5157 -13.4894
# 4 10.3749 8.6584 4.0195 23.7668 -2.3627 2.0567
# 5 -12.7467 -3.0514 -0.5157 -2.3627 30.6222 -2.8781
# 6 -12.6537 -23.1096 -13.4894 2.0567 -2.8781 29.1625
#
#
#
# Elastic Compliance Matrix: (Units=1/GPa)
#
#
# Indices 1 2 3 4 5 6 
#
# 1 0.025241 -0.001768 0.016553 -0.013714 0.011365 0.019297
# 2 -0.001768 0.009270 -0.005003 -0.002109 0.000359 0.004449
# 3 0.016553 -0.005003 0.066513 -0.018848 0.009464 0.036247
# 4 -0.013714 -0.002109 -0.018848 0.053390 -0.004044 -0.020504
# 5 0.011365 0.000359 0.009464 -0.004044 0.038556 0.013684
# 6 0.019297 0.004449 0.036247 -0.020504 0.013684 0.065752
#
#
# Mechanical properties :
#
#
# Convention : Reuss Voigt Hill
#
# Bulk Modulus (GPa) = 8.29274 33.45556 20.87415
# Shear Modulus (GPa) = 17.89850 29.24826 23.57338
#
# Velocity S-wave (km/s) = 2.82802 3.61513 3.24553
# Velocity P-wave (km/s) = 3.79066 5.68988 4.83445
#
# Compressibility (1/GPa) = 0.12058748
#
# Stress axis : x y z
#
# Youngs Moduli (GPa) = 39.61885 107.87185 15.03477
#
# Poissons Ratio (x) = 0.19071 -0.24887
# Poissons Ratio (y) = 0.07004 0.07522
# Poissons Ratio (z) = -0.65582 0.53971
#
# Static dielectric constant tensor:
#      x y z
#    x 4.342980 -0.204460 0.075400 
#    y -0.204460 3.975430 0.006570 
#    z 0.075400 0.006570 3.753920 
# 
# 
# High freq. dielectric constant tensor:
#      x y z
#    x 1.891390 -0.013190 0.011820 
#    y -0.013190 1.862220 0.008490 
#    z 0.011820 0.008490 1.865620 
# 
# From -- ./inp_files/181868.got.cif
#   From: 2010.06.25/outbox.cif.g09.slc.cpg/sg2_91_cif.got.tgz:181868.got - 2010.06.27 13:26:56.
