data_PCOD8041156
_publ_section_title
;
Structure prediction by ZEFSAII (Michael W. Deem and Ramdas Pophale) SiO2 
 PCOD8041156
Probable space group: P -1
;
_chemical_formula_sum "Si O2"
_cell_formula_units_Z 14
_cell_length_a 10.854639
_cell_length_b 13.939397
_cell_length_c 14.529082
_cell_angle_alpha 150.372067
_cell_angle_beta 39.319512
_cell_angle_gamma 132.469124
_cell_volume 688.612860
_symmetry_space_group_name_H-M "P -1"
_symmetry_group_IT_number 2
_symmetry_cell_setting 'triclinic'
loop_
_space_group_symop_operation_xyz
x,y,z
-x,-y,-z
loop_
_atom_site_type_symbol
_atom_site_label
_atom_site_fract_x
_atom_site_fract_y
_atom_site_fract_z
Si Si1 0.004826 0.233060 0.676526
Si Si2 0.711077 0.479257 0.152295
Si Si3 0.834922 0.776833 0.621345
Si Si4 0.269520 0.526384 0.413984
Si Si5 0.107005 0.923643 0.019525
Si Si6 0.427556 0.705864 0.747428
Si Si7 0.086722 0.246901 0.160285
O O1 0.165284 0.329190 0.731984
O O2 0.046678 0.282576 0.586965
O O3 0.000000 0.000000 0.500000
O O4 0.804674 0.347208 0.907740
O O5 0.499701 0.559294 0.313151
O O6 0.700689 0.326934 0.115075
O O7 0.814622 0.602518 0.560219
O O8 0.616633 0.841509 0.771431
O O9 0.940655 0.961119 0.762794
O O10 0.221960 0.429042 0.260531
O O11 0.142608 0.720872 0.652449
O O12 0.167077 0.067023 0.021566
O O13 0.296303 0.792434 0.815117
O O14 0.921027 0.798312 0.983720
O O15 0.500000 0.500000 0.500000
#
# Coordination Sequence:
#
# PCOD8041156 Si02
#       7
#     2   2   2   2   2   2   2
#     4  11  23  38  54  90 122 156 189 230 305 358
#     4  10  22  39  60  86 120 154 187 241 301 345
#     4  10  20  34  58  86 115 147 188 241 293 346
#     4   9  19  39  60  86 112 148 196 239 289 338
#     4  10  19  31  51  88 120 143 183 237 290 343
#     4  11  19  34  58  89 114 146 187 239 299 347
#     4   9  19  33  56  86 117 149 187 240 287 337
#
# _framework density 20.330725000000001
#
# number of rings (size 3 to 8) (size 9 to 14) (size 15 to 20)
#    0.000    2.000    1.429    3.000    0.000    2.286 
#    2.571    0.000    0.000    8.571    0.000    0.000 
#    0.000    0.000    0.000    0.000    0.000    0.000 
#
# Total GULP energy -173443.908865 kJ/mol
# GULP energy per Si atom -12388.850633 kJ/mol
# Density = 2.028445 g / cm^3
# Si number density = 20.330725 Si / 1000 Ang^3
#
#
#
# Elastic Constant Matrix: (Units=GPa)
#
#
# Indices 1 2 3 4 5 6 
#
# 1 127.3628 27.4987 46.4025 4.0965 3.6214 3.1749
# 2 27.4987 60.1375 39.2514 -6.3318 2.6723 6.7405
# 3 46.4025 39.2514 117.7019 -0.1916 8.2941 0.4542
# 4 4.0965 -6.3318 -0.1916 29.4815 -0.8720 1.3897
# 5 3.6214 2.6723 8.2941 -0.8720 47.7317 4.6402
# 6 3.1749 6.7405 0.4542 1.3897 4.6402 24.5628
#
#
#
# Elastic Compliance Matrix: (Units=1/GPa)
#
#
# Indices 1 2 3 4 5 6 
#
# 1 0.009542 -0.002645 -0.002876 -0.001899 -0.000079 -0.000332
# 2 -0.002645 0.023603 -0.006851 0.005722 0.000805 -0.006484
# 3 -0.002876 -0.006851 0.012026 -0.001159 -0.001745 0.002425
# 4 -0.001899 0.005722 -0.001159 0.035600 0.001017 -0.003510
# 5 -0.000079 0.000805 -0.001745 0.001017 0.021654 -0.004327
# 6 -0.000332 -0.006484 0.002425 -0.003510 -0.004327 0.043505
#
#
# Mechanical properties :
#
#
# Convention : Reuss Voigt Hill
#
# Bulk Modulus (GPa) = 48.95403 59.05636 54.00520
# Shear Modulus (GPa) = 28.17155 33.15849 30.66502
#
# Velocity S-wave (km/s) = 3.72649 4.04289 3.88791
# Velocity P-wave (km/s) = 6.53045 7.13472 6.83926
#
# Compressibility (1/GPa) = 0.02042733
#
# Stress axis : x y z
#
# Youngs Moduli (GPa) = 104.79798 42.36737 83.15240
#
# Poissons Ratio (x) = 0.11208 0.23914
# Poissons Ratio (y) = 0.27724 0.56964
# Poissons Ratio (z) = 0.30139 0.29024
#
# Static dielectric constant tensor:
#      x y z
#    x 4.354470 0.126810 0.341950 
#    y 0.126810 3.449100 0.172740 
#    z 0.341950 0.172740 3.883360 
# 
# 
# High freq. dielectric constant tensor:
#      x y z
#    x 1.813130 0.002920 0.016450 
#    y 0.002920 1.739600 0.028390 
#    z 0.016450 0.028390 1.805880 
# 
# From -- ./inp_files/521857.got.cif
#   From: 2010.06.25/outbox.cif.g09.slc.cpg/sg2_261_cif.got.tgz:521857.got - 2010.06.27 13:26:56.
