data_PCOD8041024
_publ_section_title
;
Structure prediction by ZEFSAII (Michael W. Deem and Ramdas Pophale) SiO2 
 PCOD8041024
Probable space group: P -1
;
_chemical_formula_sum "Si O2"
_cell_formula_units_Z 14
_cell_length_a 11.103460
_cell_length_b 11.980693
_cell_length_c 20.795783
_cell_angle_alpha 156.513000
_cell_angle_beta 39.635801
_cell_angle_gamma 127.348547
_cell_volume 647.029156
_symmetry_space_group_name_H-M "P -1"
_symmetry_group_IT_number 2
_symmetry_cell_setting 'triclinic'
loop_
_space_group_symop_operation_xyz
x,y,z
-x,-y,-z
loop_
_atom_site_type_symbol
_atom_site_label
_atom_site_fract_x
_atom_site_fract_y
_atom_site_fract_z
Si Si1 0.451697 0.230535 0.449932
Si Si2 0.266926 0.661391 0.041751
Si Si3 0.761390 0.098065 0.142817
Si Si4 0.719646 0.225387 0.763907
Si Si5 0.043600 0.747200 0.570889
Si Si6 0.737452 0.517321 0.787808
Si Si7 0.644216 0.973984 0.366993
O O1 0.664369 0.137557 0.274581
O O2 0.333747 0.590726 0.693132
O O3 0.305052 0.093429 0.401753
O O4 0.495878 0.103562 0.436082
O O5 0.175049 0.762256 0.204784
O O6 0.512866 0.537492 0.872102
O O7 0.210680 0.380685 0.893020
O O8 0.163371 0.948500 0.189003
O O9 0.711073 0.855980 0.994211
O O10 0.000000 0.000000 0.000000
O O11 0.837407 0.289155 0.687296
O O12 0.500000 0.500000 0.000000
O O13 0.109492 0.607741 0.399883
O O14 0.000000 0.500000 0.500000
O O15 0.218658 0.831339 0.576539
O O16 0.500000 0.000000 0.500000
#
# Coordination Sequence:
#
# PCOD8041024 Si02
#       7
#     2   2   2   2   2   2   2
#     4  11  23  44  69  96 137 170 215 284 338 390
#     4  11  23  46  73  96 135 175 230 285 336 392
#     4  11  26  41  67 104 136 172 216 278 351 403
#     4  10  18  43  73  97 123 167 219 285 335 387
#     4  12  30  43  68 100 138 186 229 273 327 412
#     4  11  23  47  65 101 133 171 228 279 343 394
#     4  12  24  49  69  97 138 184 231 271 335 401
#
# _framework density 21.637354999999999
#
# number of rings (size 3 to 8) (size 9 to 14) (size 15 to 20)
#    0.000    0.857    7.143    0.429    6.000    2.286 
#    7.714    0.000    0.000    0.000    0.000    0.000 
#    0.000    0.000    0.000    0.000    0.000    0.000 
#
# Total GULP energy -173646.494070 kJ/mol
# GULP energy per Si atom -12403.321005 kJ/mol
# Density = 2.158811 g / cm^3
# Si number density = 21.637355 Si / 1000 Ang^3
#
#
#
# Elastic Constant Matrix: (Units=GPa)
#
#
# Indices 1 2 3 4 5 6 
#
# 1 78.3120 47.6858 41.1826 6.0389 10.6244 -10.1117
# 2 47.6858 148.5033 71.1180 13.1962 8.6398 -13.8355
# 3 41.1826 71.1180 114.2321 25.1632 13.8673 -9.3474
# 4 6.0389 13.1962 25.1632 46.9416 4.4931 4.3658
# 5 10.6244 8.6398 13.8673 4.4931 31.1020 3.6826
# 6 -10.1117 -13.8355 -9.3474 4.3658 3.6826 41.7004
#
#
#
# Elastic Compliance Matrix: (Units=1/GPa)
#
#
# Indices 1 2 3 4 5 6 
#
# 1 0.017625 -0.003513 -0.003676 0.000821 -0.003825 0.002536
# 2 -0.003513 0.010448 -0.005206 0.000134 0.000435 0.001395
# 3 -0.003676 -0.005206 0.015208 -0.006050 -0.003409 0.001725
# 4 0.000821 0.000134 -0.006050 0.024816 -0.000774 -0.003642
# 5 -0.003825 0.000435 -0.003409 -0.000774 0.035515 -0.004603
# 6 0.002536 0.001395 0.001725 -0.003642 -0.004603 0.026233
#
#
# Mechanical properties :
#
#
# Convention : Reuss Voigt Hill
#
# Bulk Modulus (GPa) = 54.08196 73.44668 63.76432
# Shear Modulus (GPa) = 31.09477 36.01952 33.55714
#
# Velocity S-wave (km/s) = 3.79501 4.08449 3.94241
# Velocity P-wave (km/s) = 6.65220 7.50081 7.08921
#
# Compressibility (1/GPa) = 0.01849046
#
# Stress axis : x y z
#
# Youngs Moduli (GPa) = 56.73827 95.71162 65.75356
#
# Poissons Ratio (x) = 0.33627 0.24169
# Poissons Ratio (y) = 0.19934 0.34233
# Poissons Ratio (z) = 0.20856 0.49830
#
# Static dielectric constant tensor:
#      x y z
#    x 3.566610 -0.693690 -0.421870 
#    y -0.693690 3.676940 -0.319350 
#    z -0.421870 -0.319350 3.708630 
# 
# 
# High freq. dielectric constant tensor:
#      x y z
#    x 1.844310 -0.004100 0.011720 
#    y -0.004100 1.851300 0.010770 
#    z 0.011720 0.010770 1.867360 
# 
# From -- ./inp_files/438696.got.cif
#   From: 2010.06.25/outbox.cif.g09.slc.cpg/sg2_220_cif.got.tgz:438696.got - 2010.06.27 13:26:56.
