data_PCOD8041949
_publ_section_title
;
Structure prediction by ZEFSAII (Michael W. Deem and Ramdas Pophale) SiO2 
 PCOD8041949
Probable space group: P -1
;
_chemical_formula_sum "Si O2"
_cell_formula_units_Z 16
_cell_length_a 11.592595
_cell_length_b 20.360374
_cell_length_c 11.592566
_cell_angle_alpha 53.714841
_cell_angle_beta 105.842938
_cell_angle_gamma 149.070799
_cell_volume 934.282456
_symmetry_space_group_name_H-M "P -1"
_symmetry_group_IT_number 2
_symmetry_cell_setting 'triclinic'
loop_
_space_group_symop_operation_xyz
x,y,z
-x,-y,-z
loop_
_atom_site_type_symbol
_atom_site_label
_atom_site_fract_x
_atom_site_fract_y
_atom_site_fract_z
Si Si1 0.717785 0.000002 0.282218
Si Si2 0.277410 0.500001 0.722590
Si Si3 0.447372 0.744709 0.660047
Si Si4 0.670864 0.632081 0.018101
Si Si5 0.717743 0.367923 0.593295
Si Si6 0.827528 0.415746 0.828859
Si Si7 0.149453 0.744701 0.957963
Si Si8 0.339662 0.584263 0.003958
O O1 0.675977 0.943256 0.462096
O O2 0.517145 0.831882 0.315622
O O3 0.651405 0.056752 0.210526
O O4 0.020616 0.168118 0.146623
O O5 0.477041 0.676175 0.673889
O O6 0.291248 0.545124 0.550243
O O7 0.359501 0.454871 0.799004
O O8 0.973765 0.323828 0.875303
O O9 0.150701 0.603270 0.702339
O O10 0.482288 0.746484 0.803791
O O11 0.500000 0.500000 0.000000
O O12 0.559673 0.648455 0.022644
O O13 0.680458 0.351553 0.737231
O O14 0.000000 0.500000 0.500000
O O15 0.770687 0.451245 0.868199
O O16 0.703257 0.253526 0.010673
O O17 0.908860 0.603259 0.944174
#
# Coordination Sequence:
#
# PCOD8041949 Si02
#       8
#     2   2   2   2   2   2   2   2
#     4  10  20  30  56  88  98 132 182 228 254 292
#     4   8  16  30  52  78 100 130 176 220 250 298
#     4   9  16  32  53  82 105 126 180 227 258 307
#     4  11  18  36  55  78 108 136 177 219 261 312
#     4  11  18  36  55  78 108 136 177 219 261 312
#     4  10  19  34  55  75 109 150 167 207 277 321
#     4   9  16  32  53  82 105 126 180 227 258 307
#     4  10  19  34  55  75 109 150 167 207 277 321
#
# _framework density 17.125442
#
# number of rings (size 3 to 8) (size 9 to 14) (size 15 to 20)
#    0.000    2.500    7.500    1.500    0.000    1.000 
#    0.000    3.750    0.000    0.000    0.000    0.000 
#    0.000    0.000    0.000    0.000    0.000    0.000 
#
# Total GULP energy -198228.475573 kJ/mol
# GULP energy per Si atom -12389.279723 kJ/mol
# Density = 1.708646 g / cm^3
# Si number density = 17.125442 Si / 1000 Ang^3
#
#
#
# Elastic Constant Matrix: (Units=GPa)
#
#
# Indices 1 2 3 4 5 6 
#
# 1 95.0133 38.4760 52.6765 7.8121 10.9624 3.2655
# 2 38.4760 72.5167 48.8957 7.2910 1.3014 4.0377
# 3 52.6765 48.8957 125.0571 4.3560 25.6360 -1.7335
# 4 7.8121 7.2910 4.3560 27.0741 0.9338 -0.2442
# 5 10.9624 1.3014 25.6360 0.9338 23.7817 4.5065
# 6 3.2655 4.0377 -1.7335 -0.2442 4.5065 16.8922
#
#
#
# Elastic Compliance Matrix: (Units=1/GPa)
#
#
# Indices 1 2 3 4 5 6 
#
# 1 0.015261 -0.005062 -0.003962 -0.002345 -0.002087 -0.001624
# 2 -0.005062 0.023930 -0.010051 -0.003929 0.013816 -0.009516
# 3 -0.003962 -0.010051 0.017434 0.001767 -0.018359 0.009881
# 4 -0.002345 -0.003929 0.001767 0.038503 -0.002659 0.002840
# 5 -0.002087 0.013816 -0.018359 -0.002659 0.066421 -0.022541
# 6 -0.001624 -0.009516 0.009881 0.002840 -0.022541 0.068856
#
#
# Mechanical properties :
#
#
# Convention : Reuss Voigt Hill
#
# Bulk Modulus (GPa) = 54.13018 63.63149 58.88083
# Shear Modulus (GPa) = 18.20076 23.71886 20.95981
#
# Velocity S-wave (km/s) = 3.26358 3.72561 3.50222
# Velocity P-wave (km/s) = 6.77333 7.46617 7.12817
#
# Compressibility (1/GPa) = 0.01847398
#
# Stress axis : x y z
#
# Youngs Moduli (GPa) = 65.52785 41.78863 57.35898
#
# Poissons Ratio (x) = 0.21153 0.22726
# Poissons Ratio (y) = 0.33169 0.57654
# Poissons Ratio (z) = 0.25962 0.42004
#
# Static dielectric constant tensor:
#      x y z
#    x 3.146070 0.008820 0.377010 
#    y 0.008820 2.558770 0.504630 
#    z 0.377010 0.504630 3.206810 
# 
# 
# High freq. dielectric constant tensor:
#      x y z
#    x 1.640950 0.004800 0.022680 
#    y 0.004800 1.627000 0.011860 
#    z 0.022680 0.011860 1.664130 
# 
# From -- ./inp_files/254470.got.cif
#   From: 2010.06.25/outbox.cif.g09.slc.cpg/sg2_128_cif.got.tgz:254470.got - 2010.06.27 13:26:56.
