data_PCOD8041708
_publ_section_title
;
Structure prediction by ZEFSAII (Michael W. Deem and Ramdas Pophale) SiO2 
 PCOD8041708
Probable space group: P -1
;
_chemical_formula_sum "Si O2"
_cell_formula_units_Z 14
_cell_length_a 10.012825
_cell_length_b 10.094905
_cell_length_c 8.269635
_cell_angle_alpha 103.908739
_cell_angle_beta 120.942285
_cell_angle_gamma 67.004098
_cell_volume 659.125722
_symmetry_space_group_name_H-M "P -1"
_symmetry_group_IT_number 2
_symmetry_cell_setting 'triclinic'
loop_
_space_group_symop_operation_xyz
x,y,z
-x,-y,-z
loop_
_atom_site_type_symbol
_atom_site_label
_atom_site_fract_x
_atom_site_fract_y
_atom_site_fract_z
Si Si1 0.172890 0.093145 0.117465
Si Si2 0.846279 0.147333 0.762233
Si Si3 0.732910 0.229689 0.378815
Si Si4 0.118299 0.399853 0.748742
Si Si5 0.370701 0.266148 0.132509
Si Si6 0.022249 0.709008 0.663371
Si Si7 0.222827 0.558192 0.300058
O O1 0.320262 0.136169 0.141864
O O2 0.084146 0.208972 0.231008
O O3 0.244224 0.935869 0.201047
O O4 0.042310 0.086901 0.896896
O O5 0.780294 0.321007 0.804785
O O6 0.812362 0.119525 0.544042
O O7 0.565483 0.207485 0.207614
O O8 0.857232 0.203738 0.297132
O O9 0.705260 0.394036 0.476044
O O10 0.133541 0.549161 0.737411
O O11 0.100366 0.300082 0.560148
O O12 0.964926 0.435192 0.786597
O O13 0.282707 0.314059 0.921327
O O14 0.331768 0.399967 0.271208
#
# Coordination Sequence:
#
# PCOD8041708 Si02
#       7
#     2   2   2   2   2   2   2
#     4  11  20  35  64  81  99 149 189 223 257 324
#     4   9  21  38  54  84 110 137 188 225 265 317
#     4   9  22  36  51  81 122 138 169 228 280 324
#     4  10  19  33  57  82 109 137 188 227 253 328
#     4  12  19  34  62  81 107 146 182 216 281 314
#     4  10  20  36  54  82 112 139 179 228 272 309
#     4   9  17  36  53  82 104 142 175 231 250 322
#
# _framework density 21.240255000000001
#
# number of rings (size 3 to 8) (size 9 to 14) (size 15 to 20)
#    0.857    1.143    2.857    1.714    0.000    1.714 
#    0.000    1.429    0.000    4.286    0.000    0.000 
#    0.000    0.000    0.000    0.000    0.000    0.000 
#
# Total GULP energy -173511.915047 kJ/mol
# GULP energy per Si atom -12393.708218 kJ/mol
# Density = 2.119191 g / cm^3
# Si number density = 21.240255 Si / 1000 Ang^3
#
#
#
# Elastic Constant Matrix: (Units=GPa)
#
#
# Indices 1 2 3 4 5 6 
#
# 1 93.1690 21.8411 62.1085 -20.3212 14.5233 23.2037
# 2 21.8411 44.1794 14.0527 -9.9400 -1.2887 26.6015
# 3 62.1085 14.0527 111.7462 -21.7891 7.9277 0.4639
# 4 -20.3212 -9.9400 -21.7891 23.5139 1.5801 -7.2274
# 5 14.5233 -1.2887 7.9277 1.5801 27.3157 -1.9304
# 6 23.2037 26.6015 0.4639 -7.2274 -1.9304 34.5370
#
#
#
# Elastic Compliance Matrix: (Units=1/GPa)
#
#
# Indices 1 2 3 4 5 6 
#
# 1 0.027284 0.004629 -0.013292 0.007653 -0.012343 -0.020806
# 2 0.004629 0.046581 -0.007102 0.005575 -0.001196 -0.037793
# 3 -0.013292 -0.007102 0.018444 0.007319 0.002072 0.015800
# 4 0.007653 0.005575 0.007319 0.059648 -0.009209 0.002434
# 5 -0.012343 -0.001196 0.002072 -0.009209 0.043732 0.009703
# 6 -0.020806 -0.037793 0.015800 0.002434 0.009703 0.072882
#
#
# Mechanical properties :
#
#
# Convention : Reuss Voigt Hill
#
# Bulk Modulus (GPa) = 16.45296 49.45547 32.95421
# Shear Modulus (GPa) = 15.60737 27.14615 21.37676
#
# Velocity S-wave (km/s) = 2.71366 3.57886 3.17586
# Velocity P-wave (km/s) = 4.19304 6.35705 5.38487
#
# Compressibility (1/GPa) = 0.06077934
#
# Stress axis : x y z
#
# Youngs Moduli (GPa) = 36.65136 21.46799 54.21718
#
# Poissons Ratio (x) = -0.09939 0.72067
# Poissons Ratio (y) = -0.16968 0.38506
# Poissons Ratio (z) = 0.48718 0.15247
#
# Static dielectric constant tensor:
#      x y z
#    x 3.719310 0.483830 -0.032500 
#    y 0.483830 3.579670 -0.008970 
#    z -0.032500 -0.008970 3.782270 
# 
# 
# High freq. dielectric constant tensor:
#      x y z
#    x 1.814330 0.037760 -0.003770 
#    y 0.037760 1.806710 0.000710 
#    z -0.003770 0.000710 1.832750 
# 
# From -- ./inp_files/181917.got.cif
#   From: 2010.06.25/outbox.cif.g09.slc.cpg/sg2_91_cif.got.tgz:181917.got - 2010.06.27 13:26:56.
