data_PCOD8041687
_publ_section_title
;
Structure prediction by ZEFSAII (Michael W. Deem and Ramdas Pophale) SiO2 
 PCOD8041687
Probable space group: P -1
;
_chemical_formula_sum "Si O2"
_cell_formula_units_Z 14
_cell_length_a 5.460534
_cell_length_b 14.536992
_cell_length_c 11.204313
_cell_angle_alpha 121.605821
_cell_angle_beta 54.490860
_cell_angle_gamma 110.964903
_cell_volume 614.770081
_symmetry_space_group_name_H-M "P -1"
_symmetry_group_IT_number 2
_symmetry_cell_setting 'triclinic'
loop_
_space_group_symop_operation_xyz
x,y,z
-x,-y,-z
loop_
_atom_site_type_symbol
_atom_site_label
_atom_site_fract_x
_atom_site_fract_y
_atom_site_fract_z
Si Si1 0.284651 0.568100 0.526733
Si Si2 0.322241 0.369824 0.761207
Si Si3 0.227119 0.990216 0.817968
Si Si4 0.655039 0.912117 0.816218
Si Si5 0.714411 0.781304 0.129010
Si Si6 0.655669 0.404046 0.018589
Si Si7 0.704463 0.292744 0.165757
O O1 0.500000 0.500000 0.500000
O O2 0.488879 0.631983 0.413431
O O3 0.171159 0.658324 0.709893
O O4 0.000000 0.500000 0.500000
O O5 0.366389 0.255860 0.737907
O O6 0.436151 0.471736 0.885578
O O7 0.967967 0.384597 0.848946
O O8 0.393739 0.103012 0.798348
O O9 0.507089 0.921898 0.732202
O O10 0.020228 0.935411 0.732235
O O11 0.000000 0.000000 0.000000
O O12 0.598696 0.786845 0.788149
O O13 0.500000 0.000000 0.000000
O O14 0.595542 0.684833 0.011262
O O15 0.071770 0.789406 0.011189
O O16 0.672306 0.391280 0.149881
#
# Coordination Sequence:
#
# PCOD8041687 Si02
#       7
#     2   2   2   2   2   2   2
#     4  12  27  45  63  88 129 171 209 248 303 376
#     4  10  23  38  57  88 126 161 208 254 307 367
#     4  10  19  33  56  88 125 147 197 257 308 353
#     4  10  19  34  56  92 122 148 201 260 307 350
#     4  11  21  34  63  92 121 163 203 260 316 361
#     4  10  20  37  60  89 122 157 212 252 313 363
#     4  11  22  36  65  92 121 167 206 256 312 365
#
# _framework density 22.772741
#
# number of rings (size 3 to 8) (size 9 to 14) (size 15 to 20)
#    0.000    1.429    4.286    3.000    4.000    0.000 
#    0.000    0.000    0.000    1.714    0.000    0.000 
#    0.000    0.000    0.000    0.000    0.000    0.000 
#
# Total GULP energy -173468.423840 kJ/mol
# GULP energy per Si atom -12390.601703 kJ/mol
# Density = 2.272091 g / cm^3
# Si number density = 22.772741 Si / 1000 Ang^3
#
#
#
# Elastic Constant Matrix: (Units=GPa)
#
#
# Indices 1 2 3 4 5 6 
#
# 1 120.8214 30.1838 11.1979 -12.3313 3.1381 9.4718
# 2 30.1838 136.2184 22.0026 -24.7902 2.1230 1.7477
# 3 11.1979 22.0026 66.8264 -28.1628 14.4268 -7.9358
# 4 -12.3313 -24.7902 -28.1628 28.4152 -1.9583 12.4199
# 5 3.1381 2.1230 14.4268 -1.9583 16.6947 5.1746
# 6 9.4718 1.7477 -7.9358 12.4199 5.1746 33.8271
#
#
#
# Elastic Compliance Matrix: (Units=1/GPa)
#
#
# Indices 1 2 3 4 5 6 
#
# 1 0.009436 -0.001085 0.000747 0.005857 -0.000189 -0.004533
# 2 -0.001085 0.009348 0.000789 0.010200 0.000723 -0.003850
# 3 0.000747 0.000789 0.034042 0.033229 -0.025591 -0.000549
# 4 0.005857 0.010200 0.033229 0.089791 -0.012709 -0.025395
# 5 -0.000189 0.000723 -0.025591 -0.012709 0.084902 -0.014309
# 6 -0.004533 -0.003850 -0.000549 -0.025395 -0.014309 0.042414
#
#
# Mechanical properties :
#
#
# Convention : Reuss Voigt Hill
#
# Bulk Modulus (GPa) = 18.61155 50.07052 34.34103
# Shear Modulus (GPa) = 17.42522 33.15285 25.28903
#
# Velocity S-wave (km/s) = 2.76919 3.81965 3.33603
# Velocity P-wave (km/s) = 4.29127 6.44110 5.47279
#
# Compressibility (1/GPa) = 0.05373008
#
# Stress axis : x y z
#
# Youngs Moduli (GPa) = 105.97188 106.97068 29.37512
#
# Poissons Ratio (x) = 0.11601 -0.02194
# Poissons Ratio (y) = 0.11493 -0.02318
# Poissons Ratio (z) = -0.07916 -0.08440
#
# Static dielectric constant tensor:
#      x y z
#    x 5.557400 0.062830 0.248270 
#    y 0.062830 4.299210 -0.136460 
#    z 0.248270 -0.136460 3.633590 
# 
# 
# High freq. dielectric constant tensor:
#      x y z
#    x 1.905100 0.001780 0.011480 
#    y 0.001780 1.916510 -0.015680 
#    z 0.011480 -0.015680 1.833140 
# 
# From -- ./inp_files/34681.got.cif
#   From: 2010.06.25/outbox.cif.g09.slc.cpg/sg2_18_cif.got.tgz:34681.got - 2010.06.27 13:26:56.
