data_PCOD8041185
_publ_section_title
;
Structure prediction by ZEFSAII (Michael W. Deem and Ramdas Pophale) SiO2 
 PCOD8041185
Probable space group: P -1
;
_chemical_formula_sum "Si O2"
_cell_formula_units_Z 14
_cell_length_a 11.794055
_cell_length_b 9.163901
_cell_length_c 22.434499
_cell_angle_alpha 38.399940
_cell_angle_beta 150.406063
_cell_angle_gamma 142.193578
_cell_volume 695.590773
_symmetry_space_group_name_H-M "P -1"
_symmetry_group_IT_number 2
_symmetry_cell_setting 'triclinic'
loop_
_space_group_symop_operation_xyz
x,y,z
-x,-y,-z
loop_
_atom_site_type_symbol
_atom_site_label
_atom_site_fract_x
_atom_site_fract_y
_atom_site_fract_z
Si Si1 0.185210 0.753099 0.271730
Si Si2 0.203543 0.260904 0.156393
Si Si3 0.906784 0.657104 0.729969
Si Si4 0.740515 0.895328 0.474511
Si Si5 0.492344 0.723059 0.598653
Si Si6 0.755305 0.230865 0.044208
Si Si7 0.921586 0.601925 0.560841
O O1 0.111041 0.611932 0.219908
O O2 0.463104 0.780794 0.406763
O O3 0.030299 0.592415 0.308103
O O4 0.155155 0.021723 0.167424
O O5 0.436473 0.292569 0.295174
O O6 0.952021 0.198236 0.098323
O O7 0.277755 0.507767 0.070734
O O8 0.921559 0.849117 0.621565
O O9 0.673436 0.630713 0.671829
O O10 0.151430 0.758821 0.848703
O O11 0.764899 0.756634 0.469320
O O12 0.816366 0.194870 0.403726
O O13 0.217266 0.537636 0.517344
O O14 0.500000 0.000000 0.500000
O O15 0.500000 0.000000 0.000000
#
# Coordination Sequence:
#
# PCOD8041185 Si02
#       7
#     2   2   2   2   2   2   2
#     4  11  19  39  58  86 117 142 184 238 280 339
#     4  10  23  39  60  80 112 150 188 232 286 326
#     4  10  20  37  61  79 114 154 187 229 280 325
#     4  10  19  33  56  90 116 147 179 228 283 335
#     4  11  18  35  58  86 117 153 177 228 285 340
#     4  10  24  44  57  80 111 150 193 236 272 333
#     4  10  19  31  53  87 122 146 179 216 284 339
#
# _framework density 20.126774999999999
#
# number of rings (size 3 to 8) (size 9 to 14) (size 15 to 20)
#    0.000    1.714    4.286    0.857    2.000    1.714 
#    0.000    2.143    0.000    0.000    0.000    0.000 
#    0.000    0.000    0.000    0.000    0.000    0.000 
#
# Total GULP energy -173570.915039 kJ/mol
# GULP energy per Si atom -12397.922503 kJ/mol
# Density = 2.008097 g / cm^3
# Si number density = 20.126775 Si / 1000 Ang^3
#
#
#
# Elastic Constant Matrix: (Units=GPa)
#
#
# Indices 1 2 3 4 5 6 
#
# 1 47.1010 37.2809 19.9950 0.6118 -10.7276 -9.3536
# 2 37.2809 153.4684 53.1578 -2.6168 -7.5070 -7.7344
# 3 19.9950 53.1578 94.2093 2.2250 -13.8508 -6.0475
# 4 0.6118 -2.6168 2.2250 38.3051 -5.3689 -0.2688
# 5 -10.7276 -7.5070 -13.8508 -5.3689 18.7050 -5.3381
# 6 -9.3536 -7.7344 -6.0475 -0.2688 -5.3381 36.3859
#
#
#
# Elastic Compliance Matrix: (Units=1/GPa)
#
#
# Indices 1 2 3 4 5 6 
#
# 1 0.032753 -0.006539 0.000232 0.001849 0.019709 0.009974
# 2 -0.006539 0.009469 -0.004528 0.000530 -0.003413 -0.000918
# 3 0.000232 -0.004528 0.014816 0.000284 0.010243 0.003065
# 4 0.001849 0.000530 0.000284 0.027520 0.010042 0.002312
# 5 0.019709 -0.003413 0.010243 0.010042 0.078913 0.017695
# 6 0.009974 -0.000918 0.003065 0.002312 0.017695 0.032974
#
#
# Mechanical properties :
#
#
# Convention : Reuss Voigt Hill
#
# Bulk Modulus (GPa) = 28.27316 57.29401 42.78358
# Shear Modulus (GPa) = 21.74811 30.96886 26.35849
#
# Velocity S-wave (km/s) = 3.29075 3.92687 3.62280
# Velocity P-wave (km/s) = 5.34011 7.00634 6.22918
#
# Compressibility (1/GPa) = 0.03536923
#
# Stress axis : x y z
#
# Youngs Moduli (GPa) = 30.53113 105.61141 67.49281
#
# Poissons Ratio (x) = 0.69056 -0.01567
# Poissons Ratio (y) = 0.19963 0.30562
# Poissons Ratio (z) = -0.00709 0.47822
#
# Static dielectric constant tensor:
#      x y z
#    x 3.557270 -0.236240 -0.134140 
#    y -0.236240 3.934670 0.069850 
#    z -0.134140 0.069850 3.580970 
# 
# 
# High freq. dielectric constant tensor:
#      x y z
#    x 1.772140 -0.013930 -0.008670 
#    y -0.013930 1.799340 -0.004980 
#    z -0.008670 -0.004980 1.763110 
# 
# From -- ./inp_files/186329.got.cif
#   From: 2010.06.25/outbox.cif.g09.slc.cpg/sg2_94_cif.got.tgz:186329.got - 2010.06.27 13:26:56.
