data_PCOD8041937
_publ_section_title
;
Structure prediction by ZEFSAII (Michael W. Deem and Ramdas Pophale) SiO2 
 PCOD8041937
Probable space group: P -1
;
_chemical_formula_sum "Si O2"
_cell_formula_units_Z 16
_cell_length_a 11.112823
_cell_length_b 8.967277
_cell_length_c 13.679615
_cell_angle_alpha 123.408008
_cell_angle_beta 131.568973
_cell_angle_gamma 58.449307
_cell_volume 823.705108
_symmetry_space_group_name_H-M "P -1"
_symmetry_group_IT_number 2
_symmetry_cell_setting 'triclinic'
loop_
_space_group_symop_operation_xyz
x,y,z
-x,-y,-z
loop_
_atom_site_type_symbol
_atom_site_label
_atom_site_fract_x
_atom_site_fract_y
_atom_site_fract_z
Si Si1 0.690129 0.780133 0.172870
Si Si2 0.218680 0.526804 0.045915
Si Si3 0.324170 0.445641 0.575789
Si Si4 0.475375 0.758831 0.224789
Si Si5 0.687287 0.169095 0.347332
Si Si6 0.578220 0.829702 0.641702
Si Si7 0.045487 0.666999 0.396332
Si Si8 0.851156 0.569875 0.815526
O O1 0.529383 0.761276 0.140992
O O2 0.847399 0.715588 0.308233
O O3 0.675907 0.993574 0.211383
O O4 0.710019 0.663660 0.043063
O O5 0.320373 0.670598 0.119307
O O6 0.237441 0.484229 0.155504
O O7 0.025564 0.617721 0.951034
O O8 0.362683 0.359403 0.672341
O O9 0.392280 0.632765 0.676107
O O10 0.423082 0.295168 0.498409
O O11 0.127120 0.502328 0.459817
O O12 0.414973 0.964390 0.310341
O O13 0.595727 0.157838 0.395349
O O14 0.880832 0.158233 0.473580
O O15 0.731102 0.750359 0.768676
O O16 0.116013 0.601132 0.302902
#
# Coordination Sequence:
#
# PCOD8041937 Si02
#       8
#     2   2   2   2   2   2   2   2
#     4  10  20  37  51  80 111 142 177 207 260 320
#     4  10  21  37  56  77 108 140 179 216 258 311
#     4   9  19  33  53  81 106 138 172 224 261 309
#     4  11  22  33  53  77 112 147 170 210 265 320
#     4   9  18  31  58  81 103 138 171 222 264 306
#     4  10  19  34  54  83 107 133 177 222 269 308
#     4   8  18  33  60  78 105 132 175 224 266 299
#     4   9  19  37  60  79  99 136 182 228 257 302
#
# _framework density 19.424427000000001
#
# number of rings (size 3 to 8) (size 9 to 14) (size 15 to 20)
#    0.750    1.750    0.000    2.250    1.750    1.000 
#    0.000    6.875    0.000    0.000    0.000    0.000 
#    0.000    0.000    0.000    0.000    0.000    0.000 
#
# Total GULP energy -198254.814703 kJ/mol
# GULP energy per Si atom -12390.925919 kJ/mol
# Density = 1.938022 g / cm^3
# Si number density = 19.424427 Si / 1000 Ang^3
#
#
#
# Elastic Constant Matrix: (Units=GPa)
#
#
# Indices 1 2 3 4 5 6 
#
# 1 73.3145 26.3384 26.3171 12.4348 7.8510 5.8136
# 2 26.3384 100.4029 39.5102 22.7845 3.3027 9.1240
# 3 26.3171 39.5102 59.7528 11.2987 3.0680 13.9538
# 4 12.4348 22.7845 11.2987 34.2480 0.2709 1.4309
# 5 7.8510 3.3027 3.0680 0.2709 24.8119 -0.2491
# 6 5.8136 9.1240 13.9538 1.4309 -0.2491 22.8432
#
#
#
# Elastic Compliance Matrix: (Units=1/GPa)
#
#
# Indices 1 2 3 4 5 6 
#
# 1 0.017282 -0.001291 -0.005838 -0.003448 -0.004539 -0.000150
# 2 -0.001291 0.015049 -0.007958 -0.006897 -0.000539 -0.000395
# 3 -0.005838 -0.007958 0.027670 -0.001201 -0.000624 -0.012169
# 4 -0.003448 -0.006897 -0.001201 0.035330 0.001794 0.002172
# 5 -0.004539 -0.000539 -0.000624 0.001794 0.041890 0.002096
# 6 -0.000150 -0.000395 -0.012169 0.002172 0.002096 0.051293
#
#
# Mechanical properties :
#
#
# Convention : Reuss Voigt Hill
#
# Bulk Modulus (GPa) = 33.52681 46.42240 39.97461
# Shear Modulus (GPa) = 21.86937 25.80090 23.83514
#
# Velocity S-wave (km/s) = 3.35904 3.64850 3.50676
# Velocity P-wave (km/s) = 5.68698 6.45752 6.08446
#
# Compressibility (1/GPa) = 0.02982688
#
# Stress axis : x y z
#
# Youngs Moduli (GPa) = 57.86396 66.45010 36.14015
#
# Poissons Ratio (x) = 0.08578 0.21098
# Poissons Ratio (y) = 0.07469 0.28761
# Poissons Ratio (z) = 0.33781 0.52882
#
# Static dielectric constant tensor:
#      x y z
#    x 3.308840 -0.129100 0.024840 
#    y -0.129100 3.571000 0.056910 
#    z 0.024840 0.056910 3.497780 
# 
# 
# High freq. dielectric constant tensor:
#      x y z
#    x 1.743030 -0.011780 0.002540 
#    y -0.011780 1.752770 0.003700 
#    z 0.002540 0.003700 1.749570 
# 
# From -- ./inp_files/513735.got.cif
#   From: 2010.06.25/outbox.cif.g09.slc.cpg/sg2_257_cif.got.tgz:513735.got - 2010.06.27 13:26:56.
