data_PCOD8041047
_publ_section_title
;
Structure prediction by ZEFSAII (Michael W. Deem and Ramdas Pophale) SiO2 
 PCOD8041047
Probable space group: P -1
;
_chemical_formula_sum "Si O2"
_cell_formula_units_Z 16
_cell_length_a 12.223033
_cell_length_b 31.465275
_cell_length_c 28.892841
_cell_angle_alpha 171.450294
_cell_angle_beta 149.629215
_cell_angle_gamma 29.980969
_cell_volume 822.651423
_symmetry_space_group_name_H-M "P -1"
_symmetry_group_IT_number 2
_symmetry_cell_setting 'triclinic'
loop_
_space_group_symop_operation_xyz
x,y,z
-x,-y,-z
loop_
_atom_site_type_symbol
_atom_site_label
_atom_site_fract_x
_atom_site_fract_y
_atom_site_fract_z
Si Si1 0.980347 0.204609 0.781125
Si Si2 0.641014 0.068267 0.443758
Si Si3 0.956172 0.735221 0.638013
Si Si4 0.461507 0.769108 0.639518
Si Si5 0.464147 0.499402 0.769804
Si Si6 0.401235 0.613340 0.634284
Si Si7 0.844769 0.227183 0.545948
Si Si8 0.813392 0.321904 0.248617
O O1 0.741365 0.165218 0.632709
O O2 0.163111 0.049603 0.646064
O O3 0.019988 0.063163 0.694176
O O4 0.991529 0.543475 0.151864
O O5 0.490649 0.343729 0.661823
O O6 0.490121 0.830060 0.143165
O O7 0.790156 0.513752 0.352339
O O8 0.134595 0.613791 0.532826
O O9 0.136410 0.793199 0.804813
O O10 0.805737 0.057573 0.924633
O O11 0.471366 0.608236 0.519370
O O12 0.224490 0.847284 0.612033
O O13 0.582704 0.537796 0.396647
O O14 0.566107 0.056746 0.990985
O O15 0.635703 0.340743 0.624512
O O16 0.500000 0.500000 0.500000
O O17 0.000000 0.500000 0.500000
#
# Coordination Sequence:
#
# PCOD8041047 Si02
#       8
#     2   2   2   2   2   2   2   2
#     4   9  17  30  45  66 105 143 171 193 252 307
#     4   9  18  30  43  67 103 148 168 198 240 317
#     4  10  22  32  50  77 102 140 173 217 257 308
#     4  11  22  35  56  78 103 135 180 220 257 304
#     4  10  20  28  47  72 106 133 178 206 250 303
#     4  11  24  41  55  72 105 144 178 217 262 310
#     4  10  19  29  49  75 102 133 172 215 248 305
#     4  10  19  32  50  74 108 133 168 213 267 304
#
# _framework density 19.449307999999998
#
# number of rings (size 3 to 8) (size 9 to 14) (size 15 to 20)
#    0.000    2.000    1.250    2.625   10.500    3.000 
#    0.000    0.000    0.000    0.000    0.000    0.000 
#    0.000   20.000    0.000    0.000    0.000    0.000 
#
# Total GULP energy -198219.318345 kJ/mol
# GULP energy per Si atom -12388.707397 kJ/mol
# Density = 1.940504 g / cm^3
# Si number density = 19.449308 Si / 1000 Ang^3
#
#
#
# Elastic Constant Matrix: (Units=GPa)
#
#
# Indices 1 2 3 4 5 6 
#
# 1 63.2593 29.9143 42.3681 3.1143 13.5238 9.7397
# 2 29.9143 95.2513 46.7553 -11.4964 12.4814 24.5328
# 3 42.3681 46.7553 109.3251 -5.6310 33.6651 4.2907
# 4 3.1143 -11.4964 -5.6310 30.0706 2.4230 9.0439
# 5 13.5238 12.4814 33.6651 2.4230 27.6157 7.4319
# 6 9.7397 24.5328 4.2907 9.0439 7.4319 28.9131
#
#
#
# Elastic Compliance Matrix: (Units=1/GPa)
#
#
# Indices 1 2 3 4 5 6 
#
# 1 0.023140 -0.003344 -0.007970 -0.004454 0.000996 -0.002638
# 2 -0.003344 0.022491 -0.009012 0.013502 0.007394 -0.022744
# 3 -0.007970 -0.009012 0.022685 -0.000431 -0.023153 0.013051
# 4 -0.004454 0.013502 -0.000431 0.046114 -0.000964 -0.024068
# 5 0.000996 0.007394 -0.023153 -0.000964 0.066031 -0.019845
# 6 -0.002638 -0.022744 0.013051 -0.024068 -0.019845 0.065466
#
#
# Mechanical properties :
#
#
# Convention : Reuss Voigt Hill
#
# Bulk Modulus (GPa) = 36.14817 56.21234 46.18026
# Shear Modulus (GPa) = 16.90341 27.23976 22.07158
#
# Velocity S-wave (km/s) = 2.95125 3.74645 3.37237
# Velocity P-wave (km/s) = 5.49903 6.90502 6.24174
#
# Compressibility (1/GPa) = 0.02766391
#
# Stress axis : x y z
#
# Youngs Moduli (GPa) = 43.21585 44.46300 44.08195
#
# Poissons Ratio (x) = 0.14867 0.35135
# Poissons Ratio (y) = 0.14450 0.39726
# Poissons Ratio (z) = 0.34445 0.40069
#
# Static dielectric constant tensor:
#      x y z
#    x 5.220380 3.562110 -1.097840 
#    y 3.562110 9.391920 -2.191710 
#    z -1.097840 -2.191710 4.486130 
# 
# 
# High freq. dielectric constant tensor:
#      x y z
#    x 1.703220 0.030780 0.041280 
#    y 0.030780 1.761010 -0.003120 
#    z 0.041280 -0.003120 1.755470 
# 
# From -- ./inp_files/113370.got.cif
#   From: 2010.06.25/outbox.cif.g09.slc.cpg/sg2_57_cif.got.tgz:113370.got - 2010.06.27 13:26:56.
