data_PCOD8041239
_publ_section_title
;
Structure prediction by ZEFSAII (Michael W. Deem and Ramdas Pophale) SiO2 
 PCOD8041239
Probable space group: P -1
;
_chemical_formula_sum "Si O2"
_cell_formula_units_Z 16
_cell_length_a 25.102580
_cell_length_b 9.021482
_cell_length_c 10.992687
_cell_angle_alpha 125.265149
_cell_angle_beta 157.749286
_cell_angle_gamma 54.494900
_cell_volume 760.942162
_symmetry_space_group_name_H-M "P -1"
_symmetry_group_IT_number 2
_symmetry_cell_setting 'triclinic'
loop_
_space_group_symop_operation_xyz
x,y,z
-x,-y,-z
loop_
_atom_site_type_symbol
_atom_site_label
_atom_site_fract_x
_atom_site_fract_y
_atom_site_fract_z
Si Si1 0.339735 0.017388 0.799535
Si Si2 0.295504 0.147152 0.260712
Si Si3 0.349782 0.930164 0.508982
Si Si4 0.124139 0.310461 0.603847
Si Si5 0.026454 0.343835 0.671271
Si Si6 0.437312 0.692915 0.018212
Si Si7 0.662221 0.429573 0.800051
Si Si8 0.241244 0.776843 0.858279
O O1 0.301114 0.014157 0.575033
O O2 0.198374 0.121586 0.613153
O O3 0.478165 0.115630 0.160698
O O4 0.380018 0.813546 0.838767
O O5 0.276611 0.075754 0.323904
O O6 0.446173 0.223056 0.612978
O O7 0.175227 0.314963 0.045341
O O8 0.285586 0.979779 0.065995
O O9 0.296299 0.735542 0.286106
O O10 0.033736 0.264766 0.509390
O O11 0.033102 0.437913 0.369144
O O12 0.246574 0.413973 0.970177
O O13 0.928055 0.227447 0.488990
O O14 0.500000 0.500000 0.000000
O O15 0.301482 0.689209 0.816392
O O16 0.500000 0.500000 0.500000
O O17 0.693519 0.364690 0.971134
#
# Coordination Sequence:
#
# PCOD8041239 Si02
#       8
#     2   2   2   2   2   2   2   2
#     4  10  20  37  57  82 125 155 191 245 300 362
#     4  10  21  39  63  90 119 157 203 249 295 356
#     4   9  20  35  57  90 118 156 191 243 305 349
#     4  10  21  37  60  90 117 161 198 244 304 346
#     4  10  22  38  63  88 124 157 205 251 290 358
#     4  11  25  39  61  93 121 155 197 253 311 354
#     4  10  19  31  60  91 117 147 198 248 288 347
#     4  10  22  39  61  89 119 159 201 244 302 353
#
# _framework density 21.026565000000002
#
# number of rings (size 3 to 8) (size 9 to 14) (size 15 to 20)
#    0.000    2.000    1.250    1.500    3.500    3.000 
#    0.000    2.500    0.000   15.000    0.000    0.000 
#    0.000    0.000    0.000    0.000    0.000    0.000 
#
# Total GULP energy -198299.195524 kJ/mol
# GULP energy per Si atom -12393.699720 kJ/mol
# Density = 2.097871 g / cm^3
# Si number density = 21.026565 Si / 1000 Ang^3
#
#
#
# Elastic Constant Matrix: (Units=GPa)
#
#
# Indices 1 2 3 4 5 6 
#
# 1 110.1456 46.8536 30.1211 -0.4161 7.5035 -13.8246
# 2 46.8536 105.2333 25.3981 -13.5077 -0.8391 -12.5923
# 3 30.1211 25.3981 59.5595 -17.7158 -1.3540 4.6780
# 4 -0.4161 -13.5077 -17.7158 36.4131 6.0466 2.6817
# 5 7.5035 -0.8391 -1.3540 6.0466 33.5833 -3.4297
# 6 -13.8246 -12.5923 4.6780 2.6817 -3.4297 22.5841
#
#
#
# Elastic Compliance Matrix: (Units=1/GPa)
#
#
# Indices 1 2 3 4 5 6 
#
# 1 0.014066 -0.004136 -0.007650 -0.005416 -0.001735 0.008268
# 2 -0.004136 0.013068 -0.003052 0.002735 0.001170 0.005240
# 3 -0.007650 -0.003052 0.026888 0.013038 -0.001025 -0.013658
# 4 -0.005416 0.002735 0.013038 0.036426 -0.005744 -0.009689
# 5 -0.001735 0.001170 -0.001025 -0.005744 0.031728 0.005303
# 6 0.008268 0.005240 -0.013658 -0.009689 0.005303 0.057047
#
#
# Mechanical properties :
#
#
# Convention : Reuss Voigt Hill
#
# Bulk Modulus (GPa) = 41.07498 53.29820 47.18659
# Shear Modulus (GPa) = 23.04006 30.02049 26.53028
#
# Velocity S-wave (km/s) = 3.31382 3.78265 3.55597
# Velocity P-wave (km/s) = 5.84971 6.66940 6.27296
#
# Compressibility (1/GPa) = 0.02434572
#
# Stress axis : x y z
#
# Youngs Moduli (GPa) = 71.09542 76.52100 37.19174
#
# Poissons Ratio (x) = 0.31649 0.28450
# Poissons Ratio (y) = 0.29405 0.11353
# Poissons Ratio (z) = 0.54385 0.23358
#
# Static dielectric constant tensor:
#      x y z
#    x 3.780070 0.150960 0.142820 
#    y 0.150960 3.786670 -0.074530 
#    z 0.142820 -0.074530 3.751130 
# 
# 
# High freq. dielectric constant tensor:
#      x y z
#    x 1.818140 0.011160 0.005680 
#    y 0.011160 1.820760 -0.016590 
#    z 0.005680 -0.016590 1.812110 
# 
# From -- ./inp_files/476397.got.cif
#   From: 2010.06.25/outbox.cif.g09.slc.cpg/sg2_239_cif.got.tgz:476397.got - 2010.06.27 13:26:56.
