data_PCOD8041880
_publ_section_title
;
Structure prediction by ZEFSAII (Michael W. Deem and Ramdas Pophale) SiO2 
 PCOD8041880
Probable space group: P -1
;
_chemical_formula_sum "Si O2"
_cell_formula_units_Z 16
_cell_length_a 5.069360
_cell_length_b 15.842408
_cell_length_c 19.411733
_cell_angle_alpha 35.714328
_cell_angle_beta 100.093708
_cell_angle_gamma 97.773589
_cell_volume 895.889190
_symmetry_space_group_name_H-M "P -1"
_symmetry_group_IT_number 2
_symmetry_cell_setting 'triclinic'
loop_
_space_group_symop_operation_xyz
x,y,z
-x,-y,-z
loop_
_atom_site_type_symbol
_atom_site_label
_atom_site_fract_x
_atom_site_fract_y
_atom_site_fract_z
Si Si1 0.124265 0.035021 0.660085
Si Si2 0.240573 0.003954 0.841803
Si Si3 0.049696 0.637708 0.225463
Si Si4 0.242657 0.134946 0.010929
Si Si5 0.052002 0.325267 0.379472
Si Si6 0.505348 0.231029 0.368894
Si Si7 0.422384 0.059857 0.350018
Si Si8 0.613901 0.789786 0.174258
O O1 0.155470 0.057396 0.727624
O O2 0.372340 0.944964 0.700410
O O3 0.871499 0.935265 0.699002
O O4 0.094826 0.192925 0.521166
O O5 0.384368 0.135786 0.800406
O O6 0.468339 0.875913 0.929762
O O7 0.973113 0.967515 0.895730
O O8 0.105383 0.468912 0.330119
O O9 0.326999 0.719067 0.195713
O O10 0.892673 0.703858 0.106401
O O11 0.849616 0.665250 0.263274
O O12 0.315419 0.093493 0.961298
O O13 0.250131 0.316628 0.329583
O O14 0.759358 0.329813 0.329541
O O15 0.468300 0.201843 0.304991
O O16 0.540198 0.079406 0.508761
#
# Coordination Sequence:
#
# PCOD8041880 Si02
#       8
#     2   2   2   2   2   2   2   2
#     4  10  21  32  50  75 112 131 155 202 248 316
#     4  12  20  33  52  77  99 135 165 201 267 289
#     4  10  20  33  51  74 101 130 166 221 238 275
#     4  10  20  33  53  73  97 128 170 224 242 283
#     4  10  19  34  50  78 104 132 164 198 247 299
#     4   9  17  29  56  72  99 132 163 207 241 292
#     4   9  17  33  47  78 102 128 164 200 253 288
#     4  10  20  33  51  76  98 128 172 219 244 277
#
# _framework density 17.859351
#
# number of rings (size 3 to 8) (size 9 to 14) (size 15 to 20)
#    0.750    1.250    1.250    3.750    0.000    3.000 
#    0.000    1.250    0.000    0.000    0.000   17.500 
#    0.000    0.000    0.000    0.000    0.000    0.000 
#
# Total GULP energy -198249.385562 kJ/mol
# GULP energy per Si atom -12390.586598 kJ/mol
# Density = 1.781870 g / cm^3
# Si number density = 17.859351 Si / 1000 Ang^3
#
#
#
# Elastic Constant Matrix: (Units=GPa)
#
#
# Indices 1 2 3 4 5 6 
#
# 1 140.6767 48.5537 32.2522 8.5869 -12.2323 11.5425
# 2 48.5537 112.9749 53.5783 24.5852 -6.5462 11.8616
# 3 32.2522 53.5783 50.3463 12.9859 0.2103 5.4608
# 4 8.5869 24.5852 12.9859 14.3540 -1.5998 1.0915
# 5 -12.2323 -6.5462 0.2103 -1.5998 11.5648 0.4917
# 6 11.5425 11.8616 5.4608 1.0915 0.4917 28.6306
#
#
#
# Elastic Compliance Matrix: (Units=1/GPa)
#
#
# Indices 1 2 3 4 5 6 
#
# 1 0.009707 -0.001487 -0.005078 0.002646 0.009994 -0.002601
# 2 -0.001487 0.024297 -0.018590 -0.022436 0.009637 -0.005231
# 3 -0.005078 -0.018590 0.044779 -0.007761 -0.017858 0.001811
# 4 0.002646 -0.022436 -0.007761 0.113773 0.005754 0.005272
# 5 0.009994 0.009637 -0.017858 0.005754 0.103897 -0.006619
# 6 -0.002601 -0.005231 0.001811 0.005272 -0.006619 0.037711
#
#
# Mechanical properties :
#
#
# Convention : Reuss Voigt Hill
#
# Bulk Modulus (GPa) = 35.12141 63.64068 49.38105
# Shear Modulus (GPa) = 12.69151 22.21747 17.45449
#
# Velocity S-wave (km/s) = 2.66867 3.53090 3.12962
# Velocity P-wave (km/s) = 5.40407 7.23428 6.38509
#
# Compressibility (1/GPa) = 0.02847266
#
# Stress axis : x y z
#
# Youngs Moduli (GPa) = 103.01965 41.15733 22.33213
#
# Poissons Ratio (x) = 0.06121 0.11339
# Poissons Ratio (y) = 0.15322 0.41515
# Poissons Ratio (z) = 0.52309 0.76512
#
# Static dielectric constant tensor:
#      x y z
#    x 3.699040 -0.035410 0.128660 
#    y -0.035410 3.169190 0.068590 
#    z 0.128660 0.068590 2.974150 
# 
# 
# High freq. dielectric constant tensor:
#      x y z
#    x 1.723420 -0.000540 0.004100 
#    y -0.000540 1.674550 0.005970 
#    z 0.004100 0.005970 1.640030 
# 
# From -- ./inp_files/549941.got.cif
#   From: 2010.06.25/outbox.cif.g09.slc.cpg/sg2_275_cif.got.tgz:549941.got - 2010.06.27 13:26:56.
