data_PCOD8041895
_publ_section_title
;
Structure prediction by ZEFSAII (Michael W. Deem and Ramdas Pophale) SiO2 
 PCOD8041895
Probable space group: P -1
;
_chemical_formula_sum "Si O2"
_cell_formula_units_Z 16
_cell_length_a 20.988940
_cell_length_b 9.337116
_cell_length_c 11.303809
_cell_angle_alpha 124.910464
_cell_angle_beta 52.246652
_cell_angle_gamma 150.987750
_cell_volume 845.546043
_symmetry_space_group_name_H-M "P -1"
_symmetry_group_IT_number 2
_symmetry_cell_setting 'triclinic'
loop_
_space_group_symop_operation_xyz
x,y,z
-x,-y,-z
loop_
_atom_site_type_symbol
_atom_site_label
_atom_site_fract_x
_atom_site_fract_y
_atom_site_fract_z
Si Si1 0.861177 0.705653 0.082176
Si Si2 0.307394 0.259467 0.657910
Si Si3 0.764796 0.777937 0.870955
Si Si4 0.446586 0.479037 0.175098
Si Si5 0.602145 0.815324 0.682221
Si Si6 0.050732 0.394480 0.864231
Si Si7 0.282385 0.990693 0.783826
Si Si8 0.656493 0.270076 0.906549
O O1 0.800952 0.773636 0.245135
O O2 0.889211 0.596789 0.086676
O O3 0.751973 0.436931 0.990018
O O4 0.000000 0.000000 0.000000
O O5 0.453913 0.590724 0.687226
O O6 0.314619 0.183807 0.485090
O O7 0.262043 0.033751 0.697216
O O8 0.690354 0.655873 0.769571
O O9 0.700612 0.503051 0.881637
O O10 0.928547 0.058805 0.791935
O O11 0.745048 0.909383 0.040032
O O12 0.409292 0.257535 0.201707
O O13 0.561075 0.797391 0.264586
O O14 0.500000 0.500000 0.000000
O O15 0.682485 0.138785 0.740918
O O16 0.178355 0.644634 0.747348
O O17 0.000000 0.500000 0.000000
O O18 0.500000 0.000000 0.000000
#
# Coordination Sequence:
#
# PCOD8041895 Si02
#       8
#     2   2   2   2   2   2   2   2
#     4  12  22  38  62  87 125 158 206 252 293 362
#     4  10  20  42  60  88 126 158 198 251 305 364
#     4  10  19  34  52  85 120 143 196 254 292 339
#     4   9  18  32  56  86 113 146 192 250 289 349
#     4  10  22  37  63  92 123 158 197 251 310 355
#     4  10  21  34  54  86 113 156 195 248 296 348
#     4   9  17  34  56  83 109 155 194 237 298 355
#     4  12  21  35  60  95 116 153 205 253 300 349
#
# _framework density 18.922684
#
# number of rings (size 3 to 8) (size 9 to 14) (size 15 to 20)
#    0.000    1.750    3.750    2.250    7.000    0.000 
#    0.000    1.875    0.000    6.000    0.000    0.000 
#    0.000    0.000    0.000    0.000    0.000    0.000 
#
# Total GULP energy -198268.711403 kJ/mol
# GULP energy per Si atom -12391.794463 kJ/mol
# Density = 1.887962 g / cm^3
# Si number density = 18.922684 Si / 1000 Ang^3
#
#
#
# Elastic Constant Matrix: (Units=GPa)
#
#
# Indices 1 2 3 4 5 6 
#
# 1 133.8533 57.2088 37.5257 6.3012 0.0603 2.8736
# 2 57.2088 157.8409 29.6983 9.0784 -4.0224 -0.9137
# 3 37.5257 29.6983 78.1330 2.4675 -5.9013 -1.7267
# 4 6.3012 9.0784 2.4675 17.3231 0.3811 -0.1728
# 5 0.0603 -4.0224 -5.9013 0.3811 22.5422 -3.3082
# 6 2.8736 -0.9137 -1.7267 -0.1728 -3.3082 32.6197
#
#
#
# Elastic Compliance Matrix: (Units=1/GPa)
#
#
# Indices 1 2 3 4 5 6 
#
# 1 0.009830 -0.002818 -0.003758 -0.001540 -0.001681 -0.001322
# 2 -0.002818 0.007825 -0.001432 -0.002892 0.001150 0.000493
# 3 -0.003758 -0.001432 0.015491 -0.000163 0.004036 0.001519
# 4 -0.001540 -0.002892 -0.000163 0.059861 -0.001536 0.000207
# 5 -0.001681 0.001150 0.004036 -0.001536 0.046401 0.005092
# 6 -0.001322 0.000493 0.001519 0.000207 0.005092 0.031384
#
#
# Mechanical properties :
#
#
# Convention : Reuss Voigt Hill
#
# Bulk Modulus (GPa) = 58.37186 68.74365 63.55775
# Shear Modulus (GPa) = 25.97162 30.85664 28.41413
#
# Velocity S-wave (km/s) = 3.70876 4.04254 3.87924
# Velocity P-wave (km/s) = 7.01815 7.62870 7.32978
#
# Compressibility (1/GPa) = 0.01713154
#
# Stress axis : x y z
#
# Youngs Moduli (GPa) = 101.72576 127.80049 64.55273
#
# Poissons Ratio (x) = 0.36012 0.24258
# Poissons Ratio (y) = 0.28665 0.09242
# Poissons Ratio (z) = 0.38227 0.18297
#
# Static dielectric constant tensor:
#      x y z
#    x 3.874680 0.450280 -0.006030 
#    y 0.450280 4.441030 -0.105010 
#    z -0.006030 -0.105010 3.180480 
# 
# 
# High freq. dielectric constant tensor:
#      x y z
#    x 1.743940 0.001900 0.006770 
#    y 0.001900 1.751770 -0.003760 
#    z 0.006770 -0.003760 1.684660 
# 
# From -- ./inp_files/170478.got.cif
#   From: 2010.06.25/outbox.cif.g09.slc.cpg/sg2_86_cif.got.tgz:170478.got - 2010.06.27 13:26:56.
