data_PCOD8041467
_publ_section_title
;
Structure prediction by ZEFSAII (Michael W. Deem and Ramdas Pophale) SiO2 
 PCOD8041467
Probable space group: P -1
;
_chemical_formula_sum "Si O2"
_cell_formula_units_Z 16
_cell_length_a 20.056930
_cell_length_b 9.370839
_cell_length_c 11.444585
_cell_angle_alpha 68.647850
_cell_angle_beta 138.868335
_cell_angle_gamma 79.894265
_cell_volume 894.921088
_symmetry_space_group_name_H-M "P -1"
_symmetry_group_IT_number 2
_symmetry_cell_setting 'triclinic'
loop_
_space_group_symop_operation_xyz
x,y,z
-x,-y,-z
loop_
_atom_site_type_symbol
_atom_site_label
_atom_site_fract_x
_atom_site_fract_y
_atom_site_fract_z
Si Si1 0.169784 0.858344 0.254729
Si Si2 0.646599 0.899093 0.474537
Si Si3 0.684988 0.606459 0.428481
Si Si4 0.344015 0.072410 0.076664
Si Si5 0.356981 0.764747 0.736469
Si Si6 0.813135 0.839196 0.926489
Si Si7 0.651202 0.068715 0.106197
Si Si8 0.151568 0.413347 0.536123
O O1 0.270673 0.612681 0.402876
O O2 0.225742 0.838686 0.464657
O O3 0.187035 0.981078 0.153677
O O4 0.000000 0.000000 0.000000
O O5 0.722989 0.691735 0.550483
O O6 0.498412 0.992577 0.308452
O O7 0.606088 0.103242 0.296227
O O8 0.766286 0.793659 0.765922
O O9 0.788080 0.505757 0.477950
O O10 0.511736 0.810672 0.103606
O O11 0.304622 0.058245 0.156514
O O12 0.217489 0.328485 0.780426
O O13 0.355109 0.910901 0.050620
O O14 0.310094 0.825347 0.795268
O O15 0.500000 0.500000 0.000000
O O16 0.974310 0.603401 0.251241
O O17 0.778334 0.803113 0.384415
#
# Coordination Sequence:
#
# PCOD8041467 Si02
#       8
#     2   2   2   2   2   2   2   2
#     4  11  24  35  55  84 120 147 173 239 291 327
#     4  10  21  35  59  85 113 147 187 236 278 331
#     4  11  18  37  57  85 112 145 189 229 290 328
#     4   9  20  37  60  80 113 152 194 219 274 337
#     4  11  20  34  59  87 112 139 192 235 278 327
#     4  11  22  37  55  88 115 149 188 227 279 337
#     4   9  19  33  58  86 103 147 187 237 267 322
#     4  10  19  32  62  78 109 145 188 231 268 328
#
# _framework density 17.87867
#
# number of rings (size 3 to 8) (size 9 to 14) (size 15 to 20)
#    0.750    1.000    3.750    1.875    0.000    1.500 
#    0.000    2.500    2.750    0.750    0.000    0.000 
#    0.000    0.000    0.000    0.000    0.000    0.000 
#
# Total GULP energy -198220.195813 kJ/mol
# GULP energy per Si atom -12388.762238 kJ/mol
# Density = 1.783798 g / cm^3
# Si number density = 17.878670 Si / 1000 Ang^3
#
#
#
# Elastic Constant Matrix: (Units=GPa)
#
#
# Indices 1 2 3 4 5 6 
#
# 1 78.1012 31.5472 17.7163 6.3654 -0.3074 1.5714
# 2 31.5472 107.0425 26.8749 -3.1965 -6.2203 3.5582
# 3 17.7163 26.8749 68.7965 0.6897 1.9146 8.6265
# 4 6.3654 -3.1965 0.6897 28.4445 -3.0883 -2.6897
# 5 -0.3074 -6.2203 1.9146 -3.0883 22.6944 1.6691
# 6 1.5714 3.5582 8.6265 -2.6897 1.6691 19.6660
#
#
#
# Elastic Compliance Matrix: (Units=1/GPa)
#
#
# Indices 1 2 3 4 5 6 
#
# 1 0.015305 -0.004139 -0.002259 -0.003967 -0.001282 0.000083
# 2 -0.004139 0.011792 -0.003657 0.002746 0.003869 -0.000152
# 3 -0.002259 -0.003657 0.017471 -0.001208 -0.002171 -0.006803
# 4 -0.003967 0.002746 -0.001208 0.037455 0.005530 0.005003
# 5 -0.001282 0.003869 -0.002171 0.005530 0.046250 -0.002814
# 6 0.000083 -0.000152 -0.006803 0.005003 -0.002814 0.054777
#
#
# Mechanical properties :
#
#
# Convention : Reuss Voigt Hill
#
# Bulk Modulus (GPa) = 40.88669 45.13523 43.01096
# Shear Modulus (GPa) = 23.66155 26.01442 24.83799
#
# Velocity S-wave (km/s) = 3.64187 3.81865 3.73131
# Velocity P-wave (km/s) = 6.37204 6.68902 6.53245
#
# Compressibility (1/GPa) = 0.02445784
#
# Stress axis : x y z
#
# Youngs Moduli (GPa) = 65.33864 84.80386 57.23627
#
# Poissons Ratio (x) = 0.35101 0.12932
# Poissons Ratio (y) = 0.27044 0.20930
# Poissons Ratio (z) = 0.14762 0.31011
#
# Static dielectric constant tensor:
#      x y z
#    x 3.101360 -0.073330 -0.079990 
#    y -0.073330 3.486280 0.076870 
#    z -0.079990 0.076870 3.318110 
# 
# 
# High freq. dielectric constant tensor:
#      x y z
#    x 1.664890 -0.007100 -0.001960 
#    y -0.007100 1.688330 0.003380 
#    z -0.001960 0.003380 1.699860 
# 
# From -- ./inp_files/307818.got.cif
#   From: 2010.06.25/outbox.cif.g09.slc.cpg/sg2_154_cif.got.tgz:307818.got - 2010.06.27 13:26:56.
