data_PCOD8041380
_publ_section_title
;
Structure prediction by ZEFSAII (Michael W. Deem and Ramdas Pophale) SiO2 
 PCOD8041380
Probable space group: P -1
;
_chemical_formula_sum "Si O2"
_cell_formula_units_Z 16
_cell_length_a 14.455906
_cell_length_b 9.168717
_cell_length_c 14.313672
_cell_angle_alpha 119.249555
_cell_angle_beta 150.492429
_cell_angle_gamma 72.727927
_cell_volume 778.088228
_symmetry_space_group_name_H-M "P -1"
_symmetry_group_IT_number 2
_symmetry_cell_setting 'triclinic'
loop_
_space_group_symop_operation_xyz
x,y,z
-x,-y,-z
loop_
_atom_site_type_symbol
_atom_site_label
_atom_site_fract_x
_atom_site_fract_y
_atom_site_fract_z
Si Si1 0.944814 0.874848 0.171723
Si Si2 0.833179 0.587349 0.846844
Si Si3 0.012477 0.411723 0.630234
Si Si4 0.485305 0.863639 0.026502
Si Si5 0.556339 0.467874 0.412282
Si Si6 0.284577 0.825685 0.566262
Si Si7 0.649864 0.633202 0.975477
Si Si8 0.043770 0.746730 0.659655
O O1 0.768202 0.797257 0.065613
O O2 0.131712 0.814838 0.346308
O O3 0.000143 0.083776 0.282817
O O4 0.892026 0.789219 0.995720
O O5 0.774753 0.576176 0.680627
O O6 0.622064 0.486409 0.676910
O O7 0.000000 0.500000 0.000000
O O8 0.198158 0.461545 0.879439
O O9 0.966305 0.589476 0.616039
O O10 0.818480 0.285027 0.468153
O O11 0.061741 0.309419 0.550857
O O12 0.556698 0.703538 0.003024
O O13 0.623430 0.970688 0.263834
O O14 0.273794 0.779467 0.857633
O O15 0.500000 0.000000 0.000000
O O16 0.550817 0.262481 0.351863
O O17 0.518642 0.500485 0.278935
#
# Coordination Sequence:
#
# PCOD8041380 Si02
#       8
#     2   2   2   2   2   2   2   2
#     4  10  19  33  56  79 109 145 191 233 283 330
#     4  10  19  33  54  90 116 138 182 247 293 322
#     4  10  22  35  54  79 117 155 191 221 282 345
#     4  12  18  30  54  82 113 144 187 234 275 329
#     4  10  19  32  55  84 114 142 183 235 282 338
#     4  11  19  34  56  82 109 151 186 228 279 342
#     4  10  19  33  52  81 110 153 187 227 279 342
#     4  11  21  36  52  82 116 152 186 238 279 327
#
# _framework density 20.563220000000001
#
# number of rings (size 3 to 8) (size 9 to 14) (size 15 to 20)
#    0.000    1.500    5.000    1.500    0.000    2.500 
#    0.000    1.250    0.000    1.500    0.000    0.000 
#    0.000    0.000    0.000    0.000    0.000    0.000 
#
# Total GULP energy -198236.937874 kJ/mol
# GULP energy per Si atom -12389.808617 kJ/mol
# Density = 2.051642 g / cm^3
# Si number density = 20.563220 Si / 1000 Ang^3
#
#
#
# Elastic Constant Matrix: (Units=GPa)
#
#
# Indices 1 2 3 4 5 6 
#
# 1 46.8458 29.3672 36.4038 -2.2246 -11.5189 -15.2534
# 2 29.3672 83.3707 36.6433 0.6944 -11.9381 -11.2450
# 3 36.4038 36.6433 138.7003 -11.9313 -31.8439 -2.8737
# 4 -2.2246 0.6944 -11.9313 30.4305 -10.4794 3.6554
# 5 -11.5189 -11.9381 -31.8439 -10.4794 40.5560 0.3694
# 6 -15.2534 -11.2450 -2.8737 3.6554 0.3694 27.6261
#
#
#
# Elastic Compliance Matrix: (Units=1/GPa)
#
#
# Indices 1 2 3 4 5 6 
#
# 1 0.037678 -0.007487 -0.007065 -0.001031 0.002528 0.017124
# 2 -0.007487 0.016038 -0.002356 -0.002062 0.000190 0.002420
# 3 -0.007065 -0.002356 0.012393 0.008129 0.009175 -0.004769
# 4 -0.001031 -0.002062 0.008129 0.042478 0.016517 -0.006405
# 5 0.002528 0.000190 0.009175 0.016517 0.036905 -0.000251
# 6 0.017124 0.002420 -0.004769 -0.006405 -0.000251 0.046992
#
#
# Mechanical properties :
#
#
# Convention : Reuss Voigt Hill
#
# Bulk Modulus (GPa) = 30.96426 52.63837 41.80132
# Shear Modulus (GPa) = 21.09130 30.82270 25.95700
#
# Velocity S-wave (km/s) = 3.20610 3.87579 3.55674
# Velocity P-wave (km/s) = 5.36621 6.75891 6.10242
#
# Compressibility (1/GPa) = 0.03229530
#
# Stress axis : x y z
#
# Youngs Moduli (GPa) = 26.54042 62.35213 80.68884
#
# Poissons Ratio (x) = 0.46681 0.57004
# Poissons Ratio (y) = 0.19870 0.19008
# Poissons Ratio (z) = 0.18750 0.14688
#
# Static dielectric constant tensor:
#      x y z
#    x 3.625550 -0.293140 -0.336520 
#    y -0.293140 3.458970 -0.034060 
#    z -0.336520 -0.034060 4.201540 
# 
# 
# High freq. dielectric constant tensor:
#      x y z
#    x 1.773150 -0.035910 -0.018710 
#    y -0.035910 1.768820 -0.019650 
#    z -0.018710 -0.019650 1.828810 
# 
# From -- ./inp_files/241017.got.cif
#   From: 2010.06.25/outbox.cif.g09.slc.cpg/sg2_121_cif.got.tgz:241017.got - 2010.06.27 13:26:56.
