data_PCOD8041475
_publ_section_title
;
Structure prediction by ZEFSAII (Michael W. Deem and Ramdas Pophale) SiO2 
 PCOD8041475
Probable space group: P -1
;
_chemical_formula_sum "Si O2"
_cell_formula_units_Z 16
_cell_length_a 14.036057
_cell_length_b 11.709270
_cell_length_c 8.970305
_cell_angle_alpha 141.314904
_cell_angle_beta 125.855602
_cell_angle_gamma 56.062517
_cell_volume 731.850164
_symmetry_space_group_name_H-M "P -1"
_symmetry_group_IT_number 2
_symmetry_cell_setting 'triclinic'
loop_
_space_group_symop_operation_xyz
x,y,z
-x,-y,-z
loop_
_atom_site_type_symbol
_atom_site_label
_atom_site_fract_x
_atom_site_fract_y
_atom_site_fract_z
Si Si1 0.876660 0.565155 0.866519
Si Si2 0.320515 0.063479 0.522379
Si Si3 0.690682 0.578704 0.954111
Si Si4 0.563458 0.384726 0.151861
Si Si5 0.956795 0.915303 0.223955
Si Si6 0.822605 0.250170 0.932047
Si Si7 0.536460 0.768627 0.391699
Si Si8 0.169902 0.725688 0.695313
O O1 0.762795 0.524210 0.813384
O O2 0.880153 0.441906 0.596675
O O3 0.860687 0.785454 0.040439
O O4 0.000000 0.500000 0.000000
O O5 0.349248 0.150419 0.477905
O O6 0.216926 0.947861 0.295318
O O7 0.444010 0.930465 0.558595
O O8 0.272988 0.231023 0.762839
O O9 0.546427 0.615393 0.833992
O O10 0.720342 0.415143 0.939200
O O11 0.582774 0.596112 0.365368
O O12 0.690678 0.274441 0.216566
O O13 0.535963 0.292867 0.877841
O O14 0.064627 0.773985 0.098437
O O15 0.902566 0.076924 0.225503
O O16 0.000000 0.000000 0.500000
O O17 0.852809 0.304137 0.181352
#
# Coordination Sequence:
#
# PCOD8041475 Si02
#       8
#     2   2   2   2   2   2   2   2
#     4  12  26  50  67  91 132 186 233 272 336 400
#     4  10  19  32  65  99 132 172 214 259 325 405
#     4  11  23  42  73  98 136 182 217 268 335 413
#     4  10  19  40  64 100 141 169 213 272 344 389
#     4  12  26  48  71  91 134 187 228 270 332 402
#     4  12  23  42  70 107 134 171 228 277 336 389
#     4   9  17  35  61 100 144 173 199 267 341 411
#     4  12  26  43  69 101 137 169 224 293 328 394
#
# _framework density 21.862400000000001
#
# number of rings (size 3 to 8) (size 9 to 14) (size 15 to 20)
#    0.000    1.000    5.000    2.625    0.000    3.000 
#    0.000    0.625    0.000    0.000    0.000    0.000 
#    0.000    0.000    0.000    0.000    0.000    0.000 
#
# Total GULP energy -198411.171448 kJ/mol
# GULP energy per Si atom -12400.698215 kJ/mol
# Density = 2.181264 g / cm^3
# Si number density = 21.862400 Si / 1000 Ang^3
#
#
#
# Elastic Constant Matrix: (Units=GPa)
#
#
# Indices 1 2 3 4 5 6 
#
# 1 107.7598 17.1089 28.7696 -5.6095 -6.2221 -0.3060
# 2 17.1089 62.3664 30.2464 12.2253 -3.4357 0.6632
# 3 28.7696 30.2464 110.7741 11.2759 -0.9050 11.4243
# 4 -5.6095 12.2253 11.2759 35.9527 4.6061 5.6369
# 5 -6.2221 -3.4357 -0.9050 4.6061 33.7901 7.0130
# 6 -0.3060 0.6632 11.4243 5.6369 7.0130 37.1975
#
#
#
# Elastic Compliance Matrix: (Units=1/GPa)
#
#
# Indices 1 2 3 4 5 6 
#
# 1 0.010507 -0.002220 -0.002436 0.002974 0.001197 0.000198
# 2 -0.002220 0.020119 -0.004418 -0.006309 0.002057 0.001548
# 3 -0.002436 -0.004418 0.011403 -0.001996 0.000345 -0.003206
# 4 0.002974 -0.006309 -0.001996 0.032070 -0.003815 -0.003391
# 5 0.001197 0.002057 0.000345 -0.003815 0.031701 -0.005531
# 6 0.000198 0.001548 -0.003206 -0.003391 -0.005531 0.029399
#
#
# Mechanical properties :
#
#
# Convention : Reuss Voigt Hill
#
# Bulk Modulus (GPa) = 41.87262 48.12779 45.00021
# Shear Modulus (GPa) = 30.99668 35.03974 33.01821
#
# Velocity S-wave (km/s) = 3.76946 4.00777 3.89044
# Velocity P-wave (km/s) = 6.17572 6.59379 6.38817
#
# Compressibility (1/GPa) = 0.02388195
#
# Stress axis : x y z
#
# Youngs Moduli (GPa) = 95.17237 49.70364 87.69727
#
# Poissons Ratio (x) = 0.11035 0.21363
# Poissons Ratio (y) = 0.21129 0.38741
# Poissons Ratio (z) = 0.23184 0.21957
#
# Static dielectric constant tensor:
#      x y z
#    x 4.069290 -0.008740 0.031710 
#    y -0.008740 3.900390 0.381980 
#    z 0.031710 0.381980 3.940560 
# 
# 
# High freq. dielectric constant tensor:
#      x y z
#    x 1.866170 -0.003980 0.001130 
#    y -0.003980 1.846790 0.033280 
#    z 0.001130 0.033280 1.853100 
# 
# From -- ./inp_files/308841.got.cif
#   From: 2010.06.25/outbox.cif.g09.slc.cpg/sg2_155_cif.got.tgz:308841.got - 2010.06.27 13:26:56.
