data_PCOD8041001
_publ_section_title
;
Structure prediction by ZEFSAII (Michael W. Deem and Ramdas Pophale) SiO2 
 PCOD8041001
Probable space group: P -1
;
_chemical_formula_sum "Si O2"
_cell_formula_units_Z 14
_cell_length_a 7.799992
_cell_length_b 20.412160
_cell_length_c 9.642265
_cell_angle_alpha 37.406851
_cell_angle_beta 101.998381
_cell_angle_gamma 128.299422
_cell_volume 587.349552
_symmetry_space_group_name_H-M "P -1"
_symmetry_group_IT_number 2
_symmetry_cell_setting 'triclinic'
loop_
_space_group_symop_operation_xyz
x,y,z
-x,-y,-z
loop_
_atom_site_type_symbol
_atom_site_label
_atom_site_fract_x
_atom_site_fract_y
_atom_site_fract_z
Si Si1 0.069300 0.637400 0.688467
Si Si2 0.613956 0.476162 0.443066
Si Si3 0.862674 0.293225 0.710024
Si Si4 0.035799 0.143643 0.881888
Si Si5 0.062357 0.070441 0.544282
Si Si6 0.721804 0.040887 0.733384
Si Si7 0.488326 0.434538 0.965990
O O1 0.183806 0.656032 0.523502
O O2 0.262494 0.820190 0.485068
O O3 0.787001 0.566429 0.729906
O O4 0.000000 0.500000 0.000000
O O5 0.500000 0.500000 0.500000
O O6 0.364176 0.277305 0.699370
O O7 0.888976 0.543328 0.426275
O O8 0.696806 0.585571 0.138947
O O9 0.959197 0.225633 0.780235
O O10 0.588101 0.147266 0.996372
O O11 0.893477 0.058039 0.852795
O O12 0.915401 0.012461 0.201232
O O13 0.847776 0.061957 0.572032
O O14 0.365775 0.259779 0.266736
O O15 0.000000 0.000000 0.500000
O O16 0.500000 0.500000 0.000000
#
# Coordination Sequence:
#
# PCOD8041001 Si02
#       7
#     2   2   2   2   2   2   2
#     4  11  23  42  71 105 139 179 231 288 350 407
#     4  10  18  41  67  95 133 182 227 279 337 412
#     4  10  22  41  71 101 139 178 228 290 351 404
#     4  10  20  41  70  97 132 182 236 272 339 421
#     4  12  26  41  68 105 140 178 232 291 344 404
#     4  11  23  46  66 104 137 184 230 282 344 419
#     4  12  23  44  71 101 136 183 238 283 338 409
#
# _framework density 23.835889000000002
#
# number of rings (size 3 to 8) (size 9 to 14) (size 15 to 20)
#    0.000    1.143    5.714    3.857    4.000    0.000 
#    0.000    5.000    0.000    0.000    0.000    0.000 
#    0.000    0.000    0.000    0.000    0.000    0.000 
#
# Total GULP energy -173520.608814 kJ/mol
# GULP energy per Si atom -12394.329201 kJ/mol
# Density = 2.378164 g / cm^3
# Si number density = 23.835889 Si / 1000 Ang^3
#
#
#
# Elastic Constant Matrix: (Units=GPa)
#
#
# Indices 1 2 3 4 5 6 
#
# 1 47.9097 26.0150 17.0543 3.6245 -11.2282 7.0120
# 2 26.0150 130.6528 42.1897 3.6212 -5.5356 5.6245
# 3 17.0543 42.1897 142.3780 5.2968 2.6243 6.7762
# 4 3.6245 3.6212 5.2968 46.8140 16.4152 -15.5895
# 5 -11.2282 -5.5356 2.6243 16.4152 45.2406 0.9245
# 6 7.0120 5.6245 6.7762 -15.5895 0.9245 22.4341
#
#
#
# Elastic Compliance Matrix: (Units=1/GPa)
#
#
# Indices 1 2 3 4 5 6 
#
# 1 0.029269 -0.003918 -0.001387 -0.011008 0.011183 -0.015858
# 2 -0.003918 0.009226 -0.002208 -0.000646 0.000537 -0.000893
# 3 -0.001387 -0.002208 0.008002 -0.001142 -0.000619 -0.002198
# 4 -0.011008 -0.000646 -0.001142 0.039198 -0.017620 0.031913
# 5 0.011183 0.000537 -0.000619 -0.017620 0.031722 -0.016995
# 6 -0.015858 -0.000893 -0.002198 0.031913 -0.016995 0.073296
#
#
# Mechanical properties :
#
#
# Convention : Reuss Voigt Hill
#
# Bulk Modulus (GPa) = 31.77514 54.60649 43.19082
# Shear Modulus (GPa) = 23.12354 38.60984 30.86669
#
# Velocity S-wave (km/s) = 3.11804 4.02906 3.60247
# Velocity P-wave (km/s) = 5.13056 6.67859 5.95509
#
# Compressibility (1/GPa) = 0.03147114
#
# Stress axis : x y z
#
# Youngs Moduli (GPa) = 34.16632 108.38738 124.96178
#
# Poissons Ratio (x) = 0.42471 0.17327
# Poissons Ratio (y) = 0.13388 0.27591
# Poissons Ratio (z) = 0.04738 0.23931
#
# Static dielectric constant tensor:
#      x y z
#    x 4.282390 0.396370 -0.270980 
#    y 0.396370 5.085900 -0.296870 
#    z -0.270980 -0.296870 4.622920 
# 
# 
# High freq. dielectric constant tensor:
#      x y z
#    x 1.923950 -0.004430 -0.006710 
#    y -0.004430 1.943230 -0.002320 
#    z -0.006710 -0.002320 1.968580 
# 
# From -- ./inp_files/218682.got.cif
#   From: 2010.06.25/outbox.cif.g09.slc.cpg/sg2_110_cif.got.tgz:218682.got - 2010.06.27 13:26:56.
