data_PCOD8041964
_publ_section_title
;
Structure prediction by ZEFSAII (Michael W. Deem and Ramdas Pophale) SiO2 
 PCOD8041964
Probable space group: P -1
;
_chemical_formula_sum "Si O2"
_cell_formula_units_Z 16
_cell_length_a 11.471878
_cell_length_b 17.723561
_cell_length_c 9.095801
_cell_angle_alpha 122.620340
_cell_angle_beta 94.157723
_cell_angle_gamma 133.227019
_cell_volume 787.965541
_symmetry_space_group_name_H-M "P -1"
_symmetry_group_IT_number 2
_symmetry_cell_setting 'triclinic'
loop_
_space_group_symop_operation_xyz
x,y,z
-x,-y,-z
loop_
_atom_site_type_symbol
_atom_site_label
_atom_site_fract_x
_atom_site_fract_y
_atom_site_fract_z
Si Si1 0.526151 0.942855 0.068175
Si Si2 0.715488 0.181577 0.794721
Si Si3 0.989333 0.320900 0.579365
Si Si4 0.263454 0.688902 0.339369
Si Si5 0.334245 0.083038 0.192204
Si Si6 0.466165 0.374803 0.536308
Si Si7 0.154937 0.318827 0.338928
Si Si8 0.826132 0.572208 0.987391
O O1 0.321963 0.811185 0.032353
O O2 0.550538 0.864771 0.901655
O O3 0.756694 0.109727 0.360257
O O4 0.500000 0.000000 0.000000
O O5 0.779409 0.309618 0.831957
O O6 0.500000 0.000000 0.500000
O O7 0.921538 0.243405 0.868732
O O8 0.095341 0.366471 0.480483
O O9 0.915918 0.376474 0.639989
O O10 0.169152 0.414089 0.822409
O O11 0.525168 0.876584 0.622735
O O12 0.220083 0.556930 0.214235
O O13 0.346346 0.198318 0.330063
O O14 0.072132 0.873450 0.959865
O O15 0.262525 0.312182 0.444100
O O16 0.656904 0.517831 0.580722
O O17 0.610808 0.487424 0.818659
#
# Coordination Sequence:
#
# PCOD8041964 Si02
#       8
#     2   2   2   2   2   2   2   2
#     4  11  20  32  53  87 117 145 184 221 281 345
#     4  11  19  31  54  80 115 146 176 218 275 346
#     4  10  19  34  55  80 114 145 179 230 282 327
#     4  10  20  36  53  85 118 144 182 224 287 343
#     4  10  21  37  61  81 118 146 185 239 280 340
#     4  10  23  40  56  86 105 153 202 227 286 330
#     4  10  23  38  61  78 114 150 192 245 275 328
#     4  10  22  35  56  81 115 148 185 231 276 342
#
# _framework density 20.305456
#
# number of rings (size 3 to 8) (size 9 to 14) (size 15 to 20)
#    0.000    1.750    3.750    1.875    5.250    2.500 
#    0.000    2.500    0.000    0.000    0.000   13.125 
#    0.000    0.000    0.000    0.000    0.000    0.000 
#
# Total GULP energy -198217.724374 kJ/mol
# GULP energy per Si atom -12388.607773 kJ/mol
# Density = 2.025924 g / cm^3
# Si number density = 20.305456 Si / 1000 Ang^3
#
#
#
# Elastic Constant Matrix: (Units=GPa)
#
#
# Indices 1 2 3 4 5 6 
#
# 1 56.4706 13.3191 24.2289 -7.1057 12.5494 -2.2093
# 2 13.3191 54.3316 6.9247 -3.5185 -0.5103 7.5005
# 3 24.2289 6.9247 107.3763 -10.1288 21.6614 0.3772
# 4 -7.1057 -3.5185 -10.1288 24.0671 -2.2456 6.6695
# 5 12.5494 -0.5103 21.6614 -2.2456 34.6966 -3.2277
# 6 -2.2093 7.5005 0.3772 6.6695 -3.2277 22.0487
#
#
#
# Elastic Compliance Matrix: (Units=1/GPa)
#
#
# Indices 1 2 3 4 5 6 
#
# 1 0.022046 -0.005140 -0.003206 0.003274 -0.005631 0.002198
# 2 -0.005140 0.021165 -0.000133 0.004091 0.001709 -0.008700
# 3 -0.003206 -0.000133 0.011673 0.004100 -0.006107 -0.002610
# 4 0.003274 0.004091 0.004100 0.049170 -0.002018 -0.016302
# 5 -0.005631 0.001709 -0.006107 -0.002018 0.035002 0.004693
# 6 0.002198 -0.008700 -0.002610 -0.016302 0.004693 0.054197
#
#
# Mechanical properties :
#
#
# Convention : Reuss Voigt Hill
#
# Bulk Modulus (GPa) = 26.36813 34.12485 30.24649
# Shear Modulus (GPa) = 22.43640 27.74286 25.08963
#
# Velocity S-wave (km/s) = 3.32768 3.70033 3.51894
# Velocity P-wave (km/s) = 5.27053 5.92442 5.60702
#
# Compressibility (1/GPa) = 0.03792456
#
# Stress axis : x y z
#
# Youngs Moduli (GPa) = 45.36070 47.24893 85.66756
#
# Poissons Ratio (x) = 0.24286 0.27463
# Poissons Ratio (y) = 0.23315 0.01143
# Poissons Ratio (z) = 0.14542 0.00630
#
# Static dielectric constant tensor:
#      x y z
#    x 3.712500 0.044490 0.277020 
#    y 0.044490 3.850330 -0.042760 
#    z 0.277020 -0.042760 4.213640 
# 
# 
# High freq. dielectric constant tensor:
#      x y z
#    x 1.774160 0.002280 0.012340 
#    y 0.002280 1.767420 -0.002660 
#    z 0.012340 -0.002660 1.820920 
# 
# From -- ./inp_files/203117.got.cif
#   From: 2010.06.25/outbox.cif.g09.slc.cpg/sg2_102_cif.got.tgz:203117.got - 2010.06.27 13:26:56.
