data_PCOD8041055
_publ_section_title
;
Structure prediction by ZEFSAII (Michael W. Deem and Ramdas Pophale) SiO2 
 PCOD8041055
Probable space group: P -1
;
_chemical_formula_sum "Si O2"
_cell_formula_units_Z 16
_cell_length_a 19.243185
_cell_length_b 14.092271
_cell_length_c 10.816262
_cell_angle_alpha 133.691113
_cell_angle_beta 147.951884
_cell_angle_gamma 33.566273
_cell_volume 859.348152
_symmetry_space_group_name_H-M "P -1"
_symmetry_group_IT_number 2
_symmetry_cell_setting 'triclinic'
loop_
_space_group_symop_operation_xyz
x,y,z
-x,-y,-z
loop_
_atom_site_type_symbol
_atom_site_label
_atom_site_fract_x
_atom_site_fract_y
_atom_site_fract_z
Si Si1 0.585280 0.504800 0.013480
Si Si2 0.750690 0.248574 0.399407
Si Si3 0.927652 0.389045 0.420833
Si Si4 0.002950 0.904852 0.588557
Si Si5 0.282069 0.789826 0.239593
Si Si6 0.912107 0.443624 0.154936
Si Si7 0.035902 0.103300 0.998765
Si Si8 0.613419 0.534295 0.635403
O O1 0.441480 0.663127 0.853155
O O2 0.691378 0.325204 0.938849
O O3 0.500000 0.500000 0.000000
O O4 0.728382 0.519169 0.281437
O O5 0.866548 0.222481 0.436299
O O6 0.745818 0.375496 0.599656
O O7 0.821445 0.068261 0.404238
O O8 0.023437 0.196737 0.445327
O O9 0.925912 0.395252 0.275806
O O10 0.022645 0.452605 0.679425
O O11 0.080776 0.984914 0.842377
O O12 0.161651 0.797033 0.166440
O O13 0.468439 0.713643 0.505092
O O14 0.177248 0.984979 0.211416
O O15 0.036971 0.257644 0.106906
O O16 0.718638 0.557380 0.910576
O O17 0.500000 0.500000 0.500000
#
# Coordination Sequence:
#
# PCOD8041055 Si02
#       8
#     2   2   2   2   2   2   2   2
#     4  11  18  35  58  86 111 151 191 236 275 338
#     4  10  21  33  61  88 113 142 200 238 281 325
#     4  11  22  37  56  86 119 152 187 233 291 343
#     4  11  20  36  58  88 113 150 191 238 281 338
#     4  10  19  29  58  85 108 138 203 234 276 321
#     4  11  22  36  57  85 120 152 185 235 292 338
#     4  11  17  34  56  85 109 148 190 237 273 337
#     4  11  19  35  56  88 113 147 191 242 277 336
#
# _framework density 18.618763000000001
#
# number of rings (size 3 to 8) (size 9 to 14) (size 15 to 20)
#    0.000    1.250    6.250    1.500    0.000    0.000 
#    0.000    1.875    0.000    9.000    0.000    0.000 
#    0.000    0.000    0.000    0.000    0.000    0.000 
#
# Total GULP energy -198292.120650 kJ/mol
# GULP energy per Si atom -12393.257541 kJ/mol
# Density = 1.857639 g / cm^3
# Si number density = 18.618763 Si / 1000 Ang^3
#
#
#
# Elastic Constant Matrix: (Units=GPa)
#
#
# Indices 1 2 3 4 5 6 
#
# 1 74.2106 28.3820 36.8214 2.2492 -5.9944 -2.4396
# 2 28.3820 108.3885 56.0438 -13.9851 2.5121 7.7061
# 3 36.8214 56.0438 137.9761 -6.9884 5.4281 11.5604
# 4 2.2492 -13.9851 -6.9884 29.6956 -2.4212 -0.9837
# 5 -5.9944 2.5121 5.4281 -2.4212 21.9339 3.9035
# 6 -2.4396 7.7061 11.5604 -0.9837 3.9035 30.0411
#
#
#
# Elastic Compliance Matrix: (Units=1/GPa)
#
#
# Indices 1 2 3 4 5 6 
#
# 1 0.017269 -0.003252 -0.003903 -0.003238 0.005174 0.002960
# 2 -0.003252 0.012947 -0.003950 0.005314 -0.000482 -0.001829
# 3 -0.003903 -0.003950 0.010266 0.000545 -0.002578 -0.002901
# 4 -0.003238 0.005314 0.000545 0.036731 0.002599 -0.000971
# 5 0.005174 -0.000482 -0.002578 0.002599 0.048826 -0.004723
# 6 0.002960 -0.001829 -0.002901 -0.000971 -0.004723 0.035696
#
#
# Mechanical properties :
#
#
# Convention : Reuss Voigt Hill
#
# Bulk Modulus (GPa) = 54.72903 62.56326 58.64615
# Shear Modulus (GPa) = 26.31109 29.62267 27.96688
#
# Velocity S-wave (km/s) = 3.76327 3.99308 3.87987
# Velocity P-wave (km/s) = 6.95279 7.41180 7.18596
#
# Compressibility (1/GPa) = 0.01827184
#
# Stress axis : x y z
#
# Youngs Moduli (GPa) = 57.90759 77.24025 97.41215
#
# Poissons Ratio (x) = 0.25118 0.38022
# Poissons Ratio (y) = 0.18831 0.38473
# Poissons Ratio (z) = 0.22603 0.30506
#
# Static dielectric constant tensor:
#      x y z
#    x 3.379770 0.008660 -0.289640 
#    y 0.008660 3.788590 -0.350190 
#    z -0.289640 -0.350190 3.568210 
# 
# 
# High freq. dielectric constant tensor:
#      x y z
#    x 1.704920 -0.004440 -0.034760 
#    y -0.004440 1.730030 -0.030330 
#    z -0.034760 -0.030330 1.703620 
# 
# From -- ./inp_files/471596.got.cif
#   From: 2010.06.25/outbox.cif.g09.slc.cpg/sg2_236_cif.got.tgz:471596.got - 2010.06.27 13:26:56.
