data_PCOD8041494
_publ_section_title
;
Structure prediction by ZEFSAII (Michael W. Deem and Ramdas Pophale) SiO2 
 PCOD8041494
Probable space group: P -1
;
_chemical_formula_sum "Si O2"
_cell_formula_units_Z 14
_cell_length_a 6.360946
_cell_length_b 12.136940
_cell_length_c 15.075797
_cell_angle_alpha 55.045530
_cell_angle_beta 58.950546
_cell_angle_gamma 74.997951
_cell_volume 816.140564
_symmetry_space_group_name_H-M "P -1"
_symmetry_group_IT_number 2
_symmetry_cell_setting 'triclinic'
loop_
_space_group_symop_operation_xyz
x,y,z
-x,-y,-z
loop_
_atom_site_type_symbol
_atom_site_label
_atom_site_fract_x
_atom_site_fract_y
_atom_site_fract_z
Si Si1 0.816600 0.059189 0.818543
Si Si2 0.726564 0.100771 0.432490
Si Si3 0.771086 0.036457 0.644665
Si Si4 0.160218 0.678693 0.827156
Si Si5 0.638588 0.570701 0.017709
Si Si6 0.585950 0.174837 0.976415
Si Si7 0.741387 0.098506 0.158891
O O1 0.774048 0.115665 0.701779
O O2 0.732906 0.172511 0.852555
O O3 0.100554 0.026476 0.787706
O O4 0.663492 0.918309 0.933484
O O5 0.740045 0.130743 0.521590
O O6 0.709481 0.241906 0.320156
O O7 0.500000 0.000000 0.500000
O O8 0.977788 0.038628 0.376865
O O9 0.543554 0.927956 0.741644
O O10 0.290307 0.538925 0.874531
O O11 0.176065 0.763707 0.874773
O O12 0.872554 0.648921 0.885779
O O13 0.472444 0.672883 0.059011
O O14 0.500000 0.500000 0.000000
O O15 0.764926 0.118761 0.038767
#
# Coordination Sequence:
#
# PCOD8041494 Si02
#       7
#     2   2   2   2   2   2   2
#     4  10  19  33  51  76 110 136 178 225 259 316
#     4  11  20  34  54  79 109 138 175 225 271 312
#     4  10  20  30  53  80 105 137 168 220 274 310
#     4  11  21  33  53  78 112 138 174 217 263 319
#     4  11  22  35  52  76 113 146 173 212 258 323
#     4  10  20  32  51  76 105 147 178 211 268 311
#     4  11  17  33  51  79 110 135 171 218 267 315
#
# _framework density 17.153908000000001
#
# number of rings (size 3 to 8) (size 9 to 14) (size 15 to 20)
#    0.000    1.429    5.714    1.286    0.000    0.000 
#    0.000    0.000    0.000    0.857    0.000    5.000 
#    0.000    0.000    0.000    0.000    0.000    0.000 
#
# Total GULP energy -173558.715509 kJ/mol
# GULP energy per Si atom -12397.051108 kJ/mol
# Density = 1.711486 g / cm^3
# Si number density = 17.153908 Si / 1000 Ang^3
#
#
#
# Elastic Constant Matrix: (Units=GPa)
#
#
# Indices 1 2 3 4 5 6 
#
# 1 107.8953 42.6525 47.2221 7.5756 -2.7658 7.0491
# 2 42.6525 105.4429 42.7100 14.4452 5.7033 3.3639
# 3 47.2221 42.7100 108.0504 8.9955 17.0886 8.1593
# 4 7.5756 14.4452 8.9955 28.9771 7.0938 4.8511
# 5 -2.7658 5.7033 17.0886 7.0938 36.9275 2.0322
# 6 7.0491 3.3639 8.1593 4.8511 2.0322 24.5022
#
#
#
# Elastic Compliance Matrix: (Units=1/GPa)
#
#
# Indices 1 2 3 4 5 6 
#
# 1 0.012956 -0.003348 -0.004752 -0.000906 0.003961 -0.001835
# 2 -0.003348 0.012777 -0.003311 -0.004708 0.000145 0.001232
# 3 -0.004752 -0.003311 0.013751 0.000531 -0.006181 -0.002350
# 4 -0.000906 -0.004708 0.000531 0.039705 -0.006853 -0.006562
# 5 0.003961 0.000145 -0.006181 -0.006853 0.031551 -0.000361
# 6 -0.001835 0.001232 -0.002350 -0.006562 -0.000361 0.043283
#
#
# Mechanical properties :
#
#
# Convention : Reuss Voigt Hill
#
# Bulk Modulus (GPa) = 60.01307 65.17309 62.59308
# Shear Modulus (GPa) = 27.41229 30.66831 29.04030
#
# Velocity S-wave (km/s) = 4.00186 4.23286 4.11898
# Velocity P-wave (km/s) = 7.51094 7.87179 7.69348
#
# Compressibility (1/GPa) = 0.01666304
#
# Stress axis : x y z
#
# Youngs Moduli (GPa) = 77.18222 78.26451 72.72077
#
# Poissons Ratio (x) = 0.26202 0.34554
# Poissons Ratio (y) = 0.25840 0.24080
# Poissons Ratio (z) = 0.36674 0.25916
#
# Static dielectric constant tensor:
#      x y z
#    x 3.538560 0.087500 0.099730 
#    y 0.087500 3.024060 0.165240 
#    z 0.099730 0.165240 3.275720 
# 
# 
# High freq. dielectric constant tensor:
#      x y z
#    x 1.689180 0.007130 0.004590 
#    y 0.007130 1.628330 0.016930 
#    z 0.004590 0.016930 1.645920 
# 
# From -- ./inp_files/61983.got.cif
#   From: 2010.06.25/outbox.cif.g09.slc.cpg/sg2_31_cif.got.tgz:61983.got - 2010.06.27 13:26:56.
