data_PCOD8041837
_publ_section_title
;
Structure prediction by ZEFSAII (Michael W. Deem and Ramdas Pophale) SiO2 
 PCOD8041837
Probable space group: P -1
;
_chemical_formula_sum "Si O2"
_cell_formula_units_Z 14
_cell_length_a 15.566232
_cell_length_b 7.425700
_cell_length_c 11.701818
_cell_angle_alpha 101.029017
_cell_angle_beta 137.588351
_cell_angle_gamma 110.885368
_cell_volume 590.349428
_symmetry_space_group_name_H-M "P -1"
_symmetry_group_IT_number 2
_symmetry_cell_setting 'triclinic'
loop_
_space_group_symop_operation_xyz
x,y,z
-x,-y,-z
loop_
_atom_site_type_symbol
_atom_site_label
_atom_site_fract_x
_atom_site_fract_y
_atom_site_fract_z
Si Si1 0.774640 0.387490 0.045951
Si Si2 0.564850 0.911675 0.467108
Si Si3 0.176506 0.320858 0.464566
Si Si4 0.030264 0.746739 0.535362
Si Si5 0.426368 0.077837 0.021512
Si Si6 0.887247 0.025288 0.818514
Si Si7 0.072824 0.509428 0.201572
O O1 0.914296 0.665796 0.295160
O O2 0.897388 0.433093 0.071377
O O3 0.615388 0.342282 0.820323
O O4 0.664261 0.110067 0.976288
O O5 0.730701 0.164553 0.574989
O O6 0.500000 0.000000 0.500000
O O7 0.665170 0.840415 0.617636
O O8 0.403665 0.596816 0.742592
O O9 0.130516 0.066059 0.340404
O O10 0.107800 0.384397 0.308475
O O11 0.056654 0.216004 0.449332
O O12 0.000000 0.500000 0.500000
O O13 0.261869 0.022249 0.788581
O O14 0.500000 0.000000 0.000000
O O15 0.000000 0.000000 0.000000
O O16 0.008350 0.347910 0.994339
#
# Coordination Sequence:
#
# PCOD8041837 Si02
#       7
#     2   2   2   2   2   2   2
#     4  11  21  35  66  97 122 160 225 255 304 366
#     4  12  25  43  68  94 122 172 223 256 312 390
#     4  11  20  39  62  96 132 163 207 267 311 374
#     4  10  19  33  60  95 128 161 212 256 309 368
#     4  11  18  34  63 100 124 167 215 257 301 379
#     4  10  25  44  63  92 134 168 203 272 331 366
#     4  11  21  42  65  93 129 167 213 264 308 383
#
# _framework density 23.714770000000001
#
# number of rings (size 3 to 8) (size 9 to 14) (size 15 to 20)
#    0.000    1.143    8.571    0.429    0.000    0.000 
#    2.571    2.857    0.000    1.714    0.000    0.000 
#    0.000    0.000    0.000    0.000    0.000    0.000 
#
# Total GULP energy -173452.086787 kJ/mol
# GULP energy per Si atom -12389.434771 kJ/mol
# Density = 2.366079 g / cm^3
# Si number density = 23.714770 Si / 1000 Ang^3
#
#
#
# Elastic Constant Matrix: (Units=GPa)
#
#
# Indices 1 2 3 4 5 6 
#
# 1 190.6494 44.4703 99.9506 -1.3458 0.2291 -6.9435
# 2 44.4703 43.2459 33.6307 -4.5104 2.7510 -6.8328
# 3 99.9506 33.6307 237.9022 -24.8344 7.0675 -16.0582
# 4 -1.3458 -4.5104 -24.8344 37.8842 -8.9854 5.2156
# 5 0.2291 2.7510 7.0675 -8.9854 52.6640 1.6146
# 6 -6.9435 -6.8328 -16.0582 5.2156 1.6146 36.9037
#
#
#
# Elastic Compliance Matrix: (Units=1/GPa)
#
#
# Indices 1 2 3 4 5 6 
#
# 1 0.008215 -0.006619 -0.002793 -0.002164 0.000334 -0.000604
# 2 -0.006619 0.031766 -0.001209 0.001919 -0.001260 0.003894
# 3 -0.002793 -0.001209 0.006008 0.003461 -0.000183 0.001384
# 4 -0.002164 0.001919 0.003461 0.030354 0.004717 -0.003042
# 5 0.000334 -0.001260 -0.000183 0.004717 0.019937 -0.001789
# 6 -0.000604 0.003894 0.001384 -0.003042 -0.001789 0.028815
#
#
# Mechanical properties :
#
#
# Convention : Reuss Voigt Hill
#
# Bulk Modulus (GPa) = 40.40742 91.98896 66.19819
# Shear Modulus (GPa) = 32.34456 45.07344 38.70900
#
# Velocity S-wave (km/s) = 3.69711 4.36437 4.04452
# Velocity P-wave (km/s) = 5.94144 8.01692 7.05591
#
# Compressibility (1/GPa) = 0.02474793
#
# Stress axis : x y z
#
# Youngs Moduli (GPa) = 121.72150 31.48059 166.45243
#
# Poissons Ratio (x) = 0.20836 0.46483
# Poissons Ratio (y) = 0.80565 0.20126
# Poissons Ratio (z) = 0.33991 0.03806
#
# Static dielectric constant tensor:
#      x y z
#    x 4.759560 -0.296750 0.167960 
#    y -0.296750 4.085740 -0.234110 
#    z 0.167960 -0.234110 7.206680 
# 
# 
# High freq. dielectric constant tensor:
#      x y z
#    x 1.948280 -0.004640 0.001200 
#    y -0.004640 1.897460 -0.019290 
#    z 0.001200 -0.019290 1.976000 
# 
# From -- ./inp_files/446227.got.cif
#   From: 2010.06.25/outbox.cif.g09.slc.cpg/sg2_224_cif.got.tgz:446227.got - 2010.06.27 13:26:56.
