data_PCOD8041064
_publ_section_title
;
Structure prediction by ZEFSAII (Michael W. Deem and Ramdas Pophale) SiO2 
 PCOD8041064
Probable space group: P -1
;
_chemical_formula_sum "Si O2"
_cell_formula_units_Z 16
_cell_length_a 15.672466
_cell_length_b 16.172543
_cell_length_c 16.320213
_cell_angle_alpha 162.545017
_cell_angle_beta 136.176182
_cell_angle_gamma 40.153730
_cell_volume 799.488186
_symmetry_space_group_name_H-M "P -1"
_symmetry_group_IT_number 2
_symmetry_cell_setting 'triclinic'
loop_
_space_group_symop_operation_xyz
x,y,z
-x,-y,-z
loop_
_atom_site_type_symbol
_atom_site_label
_atom_site_fract_x
_atom_site_fract_y
_atom_site_fract_z
Si Si1 0.885841 0.867591 0.796445
Si Si2 0.967848 0.573802 0.856952
Si Si3 0.249223 0.085097 0.090618
Si Si4 0.961006 0.051610 0.615261
Si Si5 0.605176 0.589453 0.416176
Si Si6 0.246547 0.433371 0.848612
Si Si7 0.753509 0.509835 0.282566
Si Si8 0.316071 0.811220 0.379103
O O1 0.861408 0.781966 0.790111
O O2 0.885921 0.592665 0.476910
O O3 0.767365 0.166878 0.967166
O O4 0.000000 0.000000 0.000000
O O5 0.824997 0.774546 0.911796
O O6 0.086535 0.564750 0.869070
O O7 0.973339 0.243626 0.564179
O O8 0.984809 0.707895 0.083081
O O9 0.372735 0.185146 0.289610
O O10 0.301627 0.731974 0.791143
O O11 0.801746 0.177372 0.630494
O O12 0.000000 0.000000 0.500000
O O13 0.645110 0.667523 0.426515
O O14 0.452440 0.626244 0.344547
O O15 0.291256 0.367132 0.722721
O O16 0.311634 0.138662 0.668075
O O17 0.303391 0.667613 0.147530
#
# Coordination Sequence:
#
# PCOD8041064 Si02
#       8
#     2   2   2   2   2   2   2   2
#     4  10  19  30  46  69 102 143 182 218 255 293
#     4  10  20  35  57  83 107 133 170 216 267 309
#     4  10  20  34  53  76 107 143 177 214 253 311
#     4  10  21  38  61  84 104 129 166 218 272 319
#     4  10  21  35  51  75 108 149 182 206 253 308
#     4  10  20  33  52  78 105 137 181 226 261 296
#     4  10  20  31  46  72 104 141 182 218 254 296
#     4  10  21  36  55  77 104 140 176 216 265 315
#
# _framework density 20.012803999999999
#
# number of rings (size 3 to 8) (size 9 to 14) (size 15 to 20)
#    0.000    2.000    0.000    3.750    0.000    5.000 
#    0.000    0.000    0.000    4.500    0.000    0.000 
#    0.000    0.000    0.000    0.000    0.000    0.000 
#
# Total GULP energy -198354.620308 kJ/mol
# GULP energy per Si atom -12397.163769 kJ/mol
# Density = 1.996725 g / cm^3
# Si number density = 20.012804 Si / 1000 Ang^3
#
#
#
# Elastic Constant Matrix: (Units=GPa)
#
#
# Indices 1 2 3 4 5 6 
#
# 1 62.9805 36.8148 17.2280 -18.1714 -6.2825 -0.6438
# 2 36.8148 89.3381 7.0960 -13.3923 2.0015 -7.0658
# 3 17.2280 7.0960 92.4464 -6.2860 2.2298 2.3780
# 4 -18.1714 -13.3923 -6.2860 22.1083 -0.7414 5.4056
# 5 -6.2825 2.0015 2.2298 -0.7414 22.5988 -3.7493
# 6 -0.6438 -7.0658 2.3780 5.4056 -3.7493 14.2809
#
#
#
# Elastic Compliance Matrix: (Units=1/GPa)
#
#
# Indices 1 2 3 4 5 6 
#
# 1 0.028555 -0.009465 -0.003306 0.018992 0.008428 -0.007821
# 2 -0.009465 0.015654 0.000483 0.000179 -0.003001 0.006383
# 3 -0.003306 0.000483 0.011645 0.001562 -0.002577 -0.003117
# 4 0.018992 0.000179 0.001562 0.067358 0.003349 -0.023933
# 5 0.008428 -0.003001 -0.002577 0.003349 0.049037 0.010931
# 6 -0.007821 0.006383 -0.003117 -0.023933 0.010931 0.085277
#
#
# Mechanical properties :
#
#
# Convention : Reuss Voigt Hill
#
# Bulk Modulus (GPa) = 31.97119 40.78252 36.37686
# Shear Modulus (GPa) = 17.09235 24.03936 20.56585
#
# Velocity S-wave (km/s) = 2.92562 3.46959 3.20915
# Velocity P-wave (km/s) = 5.23664 6.03931 5.65224
#
# Compressibility (1/GPa) = 0.03127816
#
# Stress axis : x y z
#
# Youngs Moduli (GPa) = 35.01960 63.87977 85.87679
#
# Poissons Ratio (x) = 0.60463 0.28388
# Poissons Ratio (y) = 0.33146 -0.04145
# Poissons Ratio (z) = 0.11576 -0.03083
#
# Static dielectric constant tensor:
#      x y z
#    x 3.289180 -0.149980 -0.087120 
#    y -0.149980 3.558190 0.565840 
#    z -0.087120 0.565840 5.350810 
# 
# 
# High freq. dielectric constant tensor:
#      x y z
#    x 1.735930 -0.004100 0.004820 
#    y -0.004100 1.768180 0.003560 
#    z 0.004820 0.003560 1.806330 
# 
# From -- ./inp_files/81512.got.cif
#   From: 2010.06.25/outbox.cif.g09.slc.cpg/sg2_41_cif.got.tgz:81512.got - 2010.06.27 13:26:56.
