data_PCOD8041533
_publ_section_title
;
Structure prediction by ZEFSAII (Michael W. Deem and Ramdas Pophale) SiO2 
 PCOD8041533
Probable space group: P -1
;
_chemical_formula_sum "Si O2"
_cell_formula_units_Z 14
_cell_length_a 11.426937
_cell_length_b 23.458806
_cell_length_c 25.718368
_cell_angle_alpha 169.174710
_cell_angle_beta 34.656356
_cell_angle_gamma 145.256992
_cell_volume 730.150943
_symmetry_space_group_name_H-M "P -1"
_symmetry_group_IT_number 2
_symmetry_cell_setting 'triclinic'
loop_
_space_group_symop_operation_xyz
x,y,z
-x,-y,-z
loop_
_atom_site_type_symbol
_atom_site_label
_atom_site_fract_x
_atom_site_fract_y
_atom_site_fract_z
Si Si1 0.554266 0.830093 0.960869
Si Si2 0.613731 0.837577 0.768284
Si Si3 0.461490 0.095788 0.748794
Si Si4 0.553692 0.222406 0.631992
Si Si5 0.006510 0.051187 0.983137
Si Si6 0.577407 0.138673 0.340269
Si Si7 0.925551 0.266001 0.470471
O O1 0.507781 0.466150 0.648351
O O2 0.385169 0.976114 0.119305
O O3 0.773918 0.932912 0.942828
O O4 0.538119 0.930992 0.117066
O O5 0.500000 0.500000 0.500000
O O6 0.850028 0.832717 0.693527
O O7 0.500000 0.000000 0.000000
O O8 0.558153 0.919542 0.507565
O O9 0.550118 0.009943 0.696018
O O10 0.524156 0.455339 0.038528
O O11 0.209668 0.993023 0.747606
O O12 0.803861 0.274716 0.578002
O O13 0.500000 0.000000 0.500000
O O14 0.070716 0.404995 0.263105
O O15 0.000000 0.000000 0.000000
O O16 0.180657 0.843896 0.715059
#
# Coordination Sequence:
#
# PCOD8041533 Si02
#       7
#     2   2   2   2   2   2   2
#     4  11  23  34  52  76 113 157 201 219 272 330
#     4  12  26  39  54  77 121 166 204 225 264 341
#     4  10  20  35  60  85 116 137 182 239 307 330
#     4  10  21  37  60  89 115 139 185 239 307 354
#     4  10  19  33  53  80 114 148 189 232 280 327
#     4  11  20  37  52  82 110 149 186 246 276 337
#     4  10  23  37  59  84 120 155 190 235 288 334
#
# _framework density 19.174116000000001
#
# number of rings (size 3 to 8) (size 9 to 14) (size 15 to 20)
#    0.857    0.571    2.857    4.286    6.000    0.000 
#    0.000    0.000    0.000    0.000    0.000    6.000 
#    0.000    0.000    0.000    0.000    0.000    0.000 
#
# Total GULP energy -173452.751543 kJ/mol
# GULP energy per Si atom -12389.482253 kJ/mol
# Density = 1.913048 g / cm^3
# Si number density = 19.174116 Si / 1000 Ang^3
#
#
#
# Elastic Constant Matrix: (Units=GPa)
#
#
# Indices 1 2 3 4 5 6 
#
# 1 72.0740 25.2580 34.0487 1.3809 -11.5488 -21.6713
# 2 25.2580 71.5968 29.8438 14.8707 -9.8707 -25.5527
# 3 34.0487 29.8438 142.0339 16.1722 -8.1962 -13.1902
# 4 1.3809 14.8707 16.1722 32.3828 -11.3611 -5.0782
# 5 -11.5488 -9.8707 -8.1962 -11.3611 35.4996 0.6819
# 6 -21.6713 -25.5527 -13.1902 -5.0782 0.6819 28.3852
#
#
#
# Elastic Compliance Matrix: (Units=1/GPa)
#
#
# Indices 1 2 3 4 5 6 
#
# 1 0.021604 -0.001038 -0.003891 0.006487 0.007635 0.014729
# 2 -0.001038 0.023336 -0.002136 -0.005515 0.003544 0.018150
# 3 -0.003891 -0.002136 0.008651 -0.003778 -0.001042 -0.001525
# 4 0.006487 -0.005515 -0.003778 0.040203 0.012472 0.005125
# 5 0.007635 0.003544 -0.001042 0.012472 0.035199 0.009920
# 6 0.014729 0.018150 -0.001525 0.005125 0.009920 0.062784
#
#
# Mechanical properties :
#
#
# Convention : Reuss Voigt Hill
#
# Bulk Modulus (GPa) = 25.34205 51.55620 38.44912
# Shear Modulus (GPa) = 22.82479 32.35712 27.59096
#
# Velocity S-wave (km/s) = 3.45395 4.11243 3.79749
# Velocity P-wave (km/s) = 5.39925 7.03535 6.27089
#
# Compressibility (1/GPa) = 0.03946011
#
# Stress axis : x y z
#
# Youngs Moduli (GPa) = 46.28699 42.85298 115.59791
#
# Poissons Ratio (x) = 0.04446 0.44982
# Poissons Ratio (y) = 0.04803 0.24697
# Poissons Ratio (z) = 0.18011 0.09155
#
# Static dielectric constant tensor:
#      x y z
#    x 3.406470 0.082080 -0.070760 
#    y 0.082080 4.063310 -0.020520 
#    z -0.070760 -0.020520 3.569040 
# 
# 
# High freq. dielectric constant tensor:
#      x y z
#    x 1.730510 -0.042000 0.001900 
#    y -0.042000 1.712970 0.003840 
#    z 0.001900 0.003840 1.761380 
# 
# From -- ./inp_files/92073.got.cif
#   From: 2010.06.25/outbox.cif.g09.slc.cpg/sg2_47_cif.got.tgz:92073.got - 2010.06.27 13:26:56.
