data_PCOD8041542
_publ_section_title
;
Structure prediction by ZEFSAII (Michael W. Deem and Ramdas Pophale) SiO2 
 PCOD8041542
Probable space group: P -1
;
_chemical_formula_sum "Si O2"
_cell_formula_units_Z 16
_cell_length_a 12.624219
_cell_length_b 10.741291
_cell_length_c 12.133129
_cell_angle_alpha 48.414038
_cell_angle_beta 138.972054
_cell_angle_gamma 117.019943
_cell_volume 804.172686
_symmetry_space_group_name_H-M "P -1"
_symmetry_group_IT_number 2
_symmetry_cell_setting 'triclinic'
loop_
_space_group_symop_operation_xyz
x,y,z
-x,-y,-z
loop_
_atom_site_type_symbol
_atom_site_label
_atom_site_fract_x
_atom_site_fract_y
_atom_site_fract_z
Si Si1 0.976715 0.873998 0.456856
Si Si2 0.831177 0.103391 0.826352
Si Si3 0.775074 0.066435 0.572096
Si Si4 0.614112 0.847038 0.136740
Si Si5 0.015086 0.260144 0.054150
Si Si6 0.027516 0.373298 0.224820
Si Si7 0.405169 0.344053 0.556382
Si Si8 0.466039 0.016982 0.227557
O O1 0.796375 0.899205 0.253805
O O2 0.010531 0.692152 0.646002
O O3 0.000000 0.000000 0.500000
O O4 0.099844 0.877053 0.451945
O O5 0.860953 0.238823 0.865341
O O6 0.699779 0.984992 0.834925
O O7 0.774307 0.180078 0.616478
O O8 0.000000 0.000000 0.000000
O O9 0.596894 0.080713 0.375196
O O10 0.833463 0.876534 0.767768
O O11 0.589535 0.683164 0.289091
O O12 0.500000 0.000000 0.000000
O O13 0.563998 0.837301 0.974707
O O14 0.069516 0.444402 0.967491
O O15 0.964103 0.253798 0.147961
O O16 0.219886 0.379479 0.352064
O O17 0.500000 0.500000 0.500000
O O18 0.477846 0.169443 0.662303
#
# Coordination Sequence:
#
# PCOD8041542 Si02
#       8
#     2   2   2   2   2   2   2   2
#     4  11  19  34  57  82 115 145 186 234 282 338
#     4  10  22  36  60  81 107 153 196 233 277 337
#     4  11  21  38  56  85 112 151 194 233 280 333
#     4   9  19  32  50  80 112 147 180 229 281 328
#     4  10  19  37  55  84 113 144 193 226 283 332
#     4  10  20  34  57  86 116 146 181 234 287 333
#     4  10  19  33  53  85 117 148 177 228 289 341
#     4  11  20  37  53  82 116 143 189 236 278 334
#
# _framework density 19.896222999999999
#
# number of rings (size 3 to 8) (size 9 to 14) (size 15 to 20)
#    0.000    1.750    2.500    4.125    0.000    1.000 
#    4.500    0.625    0.000    3.000    0.000    7.875 
#    0.000    0.000    0.000    0.000    0.000    0.000 
#
# Total GULP energy -198226.558243 kJ/mol
# GULP energy per Si atom -12389.159890 kJ/mol
# Density = 1.985094 g / cm^3
# Si number density = 19.896223 Si / 1000 Ang^3
#
#
#
# Elastic Constant Matrix: (Units=GPa)
#
#
# Indices 1 2 3 4 5 6 
#
# 1 121.8916 37.9887 54.2201 17.0264 -20.2103 18.4485
# 2 37.9887 66.3133 48.7729 22.5038 -13.5859 6.6467
# 3 54.2201 48.7729 128.6007 25.6147 -26.1233 1.8510
# 4 17.0264 22.5038 25.6147 38.6258 -7.0043 -4.4578
# 5 -20.2103 -13.5859 -26.1233 -7.0043 38.4284 6.4666
# 6 18.4485 6.6467 1.8510 -4.4578 6.4666 25.6517
#
#
#
# Elastic Compliance Matrix: (Units=1/GPa)
#
#
# Indices 1 2 3 4 5 6 
#
# 1 0.013029 -0.002308 -0.002832 -0.002748 0.005360 -0.010397
# 2 -0.002308 0.025604 -0.005972 -0.010194 0.003115 -0.007100
# 3 -0.002832 -0.005972 0.012640 -0.002746 0.004305 0.001110
# 4 -0.002748 -0.010194 -0.002746 0.035776 -0.002352 0.011626
# 5 0.005360 0.003115 0.004305 -0.002352 0.034823 -0.014160
# 6 -0.010397 -0.007100 0.001110 0.011626 -0.014160 0.053811
#
#
# Mechanical properties :
#
#
# Convention : Reuss Voigt Hill
#
# Bulk Modulus (GPa) = 34.42458 66.52989 50.47724
# Shear Modulus (GPa) = 24.08582 32.26277 28.17429
#
# Velocity S-wave (km/s) = 3.48310 4.03122 3.76714
# Velocity P-wave (km/s) = 5.78927 7.42824 6.65937
#
# Compressibility (1/GPa) = 0.02904901
#
# Stress axis : x y z
#
# Youngs Moduli (GPa) = 76.74967 39.05694 79.11128
#
# Poissons Ratio (x) = 0.09015 0.22406
# Poissons Ratio (y) = 0.17715 0.47244
# Poissons Ratio (z) = 0.21737 0.23324
#
# Static dielectric constant tensor:
#      x y z
#    x 3.885730 -0.056170 -0.570200 
#    y -0.056170 3.617040 0.272090 
#    z -0.570200 0.272090 4.231500 
# 
# 
# High freq. dielectric constant tensor:
#      x y z
#    x 1.770730 0.009240 -0.018360 
#    y 0.009240 1.739840 0.017720 
#    z -0.018360 0.017720 1.797050 
# 
# From -- ./inp_files/181469.got.cif
#   From: 2010.06.25/outbox.cif.g09.slc.cpg/sg2_91_cif.got.tgz:181469.got - 2010.06.27 13:26:56.
