data_PCOD8041793
_publ_section_title
;
Structure prediction by ZEFSAII (Michael W. Deem and Ramdas Pophale) SiO2 
 PCOD8041793
Probable space group: P -1
;
_chemical_formula_sum "Si O2"
_cell_formula_units_Z 14
_cell_length_a 7.617440
_cell_length_b 13.073473
_cell_length_c 11.421566
_cell_angle_alpha 135.922119
_cell_angle_beta 116.753763
_cell_angle_gamma 84.068918
_cell_volume 660.713344
_symmetry_space_group_name_H-M "P -1"
_symmetry_group_IT_number 2
_symmetry_cell_setting 'triclinic'
loop_
_space_group_symop_operation_xyz
x,y,z
-x,-y,-z
loop_
_atom_site_type_symbol
_atom_site_label
_atom_site_fract_x
_atom_site_fract_y
_atom_site_fract_z
Si Si1 0.375848 0.208630 0.617008
Si Si2 0.707621 0.616774 0.939530
Si Si3 0.162922 0.436281 0.819151
Si Si4 0.683848 0.312652 0.588171
Si Si5 0.550841 0.023104 0.169166
Si Si6 0.389746 0.744637 0.038218
Si Si7 0.962238 0.959267 0.318463
O O1 0.289742 0.353632 0.709426
O O2 0.563596 0.230592 0.601597
O O3 0.449272 0.183418 0.748131
O O4 0.179551 0.052808 0.393915
O O5 0.725147 0.524425 0.988328
O O6 0.501697 0.662323 0.913516
O O7 0.913839 0.775134 0.124672
O O8 0.687816 0.492037 0.725929
O O9 0.924346 0.321228 0.668775
O O10 0.179526 0.604812 0.904678
O O11 0.564093 0.199712 0.352630
O O12 0.364233 0.890598 0.078870
O O13 0.772987 0.007621 0.252202
O O14 0.500000 0.000000 0.000000
O O15 0.000000 0.000000 0.500000
#
# Coordination Sequence:
#
# PCOD8041793 Si02
#       7
#     2   2   2   2   2   2   2
#     4  11  20  36  64  98 127 159 209 258 317 373
#     4  10  19  33  58  94 125 158 206 252 315 372
#     4  11  19  36  59  98 136 154 196 271 322 360
#     4  12  23  36  63  94 126 165 209 262 315 372
#     4  11  25  44  62  91 130 168 213 262 313 377
#     4  10  20  38  62  89 133 167 198 257 324 368
#     4  11  19  40  67  91 129 172 201 257 324 367
#
# _framework density 21.189219000000001
#
# number of rings (size 3 to 8) (size 9 to 14) (size 15 to 20)
#    0.000    1.143    8.571    1.286    0.000    1.714 
#    0.000    4.286    0.000    0.000    0.000    0.000 
#    0.000    0.000    0.000    0.000    0.000    0.000 
#
# Total GULP energy -173473.109962 kJ/mol
# GULP energy per Si atom -12390.936426 kJ/mol
# Density = 2.114099 g / cm^3
# Si number density = 21.189219 Si / 1000 Ang^3
#
#
#
# Elastic Constant Matrix: (Units=GPa)
#
#
# Indices 1 2 3 4 5 6 
#
# 1 87.9460 24.8375 42.1977 1.3102 11.9162 19.3191
# 2 24.8375 78.5753 71.6784 17.6316 6.6138 17.2616
# 3 42.1977 71.6784 160.3109 29.8065 -15.8321 10.0606
# 4 1.3102 17.6316 29.8065 38.7725 3.7154 12.0941
# 5 11.9162 6.6138 -15.8321 3.7154 31.3689 13.0361
# 6 19.3191 17.2616 10.0606 12.0941 13.0361 22.7510
#
#
#
# Elastic Compliance Matrix: (Units=1/GPa)
#
#
# Indices 1 2 3 4 5 6 
#
# 1 0.018275 0.002893 -0.007384 0.009326 -0.005669 -0.016158
# 2 0.002893 0.027076 -0.013336 0.003009 -0.008037 -0.014097
# 3 -0.007384 -0.013336 0.016756 -0.010015 0.012228 0.007296
# 4 0.009326 0.003009 -0.010015 0.039931 -0.003597 -0.024940
# 5 -0.005669 -0.008037 0.012228 -0.003597 0.051507 -0.022097
# 6 -0.016158 -0.014097 0.007296 -0.024940 -0.022097 0.091063
#
#
# Mechanical properties :
#
#
# Convention : Reuss Voigt Hill
#
# Bulk Modulus (GPa) = 37.80293 67.13994 52.47144
# Shear Modulus (GPa) = 17.29628 31.11971 24.20800
#
# Velocity S-wave (km/s) = 2.86016 3.83646 3.38371
# Velocity P-wave (km/s) = 5.36532 7.16794 6.33111
#
# Compressibility (1/GPa) = 0.02645298
#
# Stress axis : x y z
#
# Youngs Moduli (GPa) = 54.71972 36.93319 59.67970
#
# Poissons Ratio (x) = -0.10685 0.44066
# Poissons Ratio (y) = -0.15830 0.79590
# Poissons Ratio (z) = 0.40404 0.49255
#
# Static dielectric constant tensor:
#      x y z
#    x 3.833230 0.164600 0.130320 
#    y 0.164600 3.680580 0.636320 
#    z 0.130320 0.636320 4.016770 
# 
# 
# High freq. dielectric constant tensor:
#      x y z
#    x 1.824280 0.015990 0.007730 
#    y 0.015990 1.789000 0.058250 
#    z 0.007730 0.058250 1.824160 
# 
# From -- ./inp_files/396650.got.cif
#   From: 2010.06.25/outbox.cif.g09.slc.cpg/sg2_199_cif.got.tgz:396650.got - 2010.06.27 13:26:56.
