data_PCOD8041655
_publ_section_title
;
Structure prediction by ZEFSAII (Michael W. Deem and Ramdas Pophale) SiO2 
 PCOD8041655
Probable space group: P -1
;
_chemical_formula_sum "Si O2"
_cell_formula_units_Z 14
_cell_length_a 11.012268
_cell_length_b 13.023769
_cell_length_c 12.521157
_cell_angle_alpha 149.795857
_cell_angle_beta 72.044033
_cell_angle_gamma 120.835059
_cell_volume 737.055410
_symmetry_space_group_name_H-M "P -1"
_symmetry_group_IT_number 2
_symmetry_cell_setting 'triclinic'
loop_
_space_group_symop_operation_xyz
x,y,z
-x,-y,-z
loop_
_atom_site_type_symbol
_atom_site_label
_atom_site_fract_x
_atom_site_fract_y
_atom_site_fract_z
Si Si1 0.239812 0.551378 0.982437
Si Si2 0.435606 0.156560 0.884405
Si Si3 0.265487 0.172982 0.755706
Si Si4 0.600560 0.930260 0.562128
Si Si5 0.679955 0.717417 0.542763
Si Si6 0.447110 0.174680 0.134219
Si Si7 0.034071 0.178178 0.554346
O O1 0.217223 0.367620 0.918945
O O2 0.110747 0.437077 0.823984
O O3 0.397742 0.613027 0.941502
O O4 0.253413 0.797756 0.237909
O O5 0.328165 0.212080 0.893555
O O6 0.452015 0.948472 0.632468
O O7 0.370658 0.091051 0.962685
O O8 0.395694 0.198480 0.663199
O O9 0.119676 0.907676 0.543986
O O10 0.602782 0.785882 0.532902
O O11 0.592100 0.436057 0.330248
O O12 0.676961 0.841919 0.765948
O O13 0.851370 0.821607 0.561439
O O14 0.500000 0.000000 0.000000
O O15 0.000000 0.000000 0.500000
#
# Coordination Sequence:
#
# PCOD8041655 Si02
#       7
#     2   2   2   2   2   2   2
#     4   9  19  32  54  81 110 147 183 216 271 326
#     4  10  20  35  54  83 108 144 188 228 274 316
#     4  11  20  35  52  80 123 142 174 228 280 328
#     4  10  19  33  56  83 109 141 184 225 275 322
#     4  11  20  36  58  87 107 140 192 235 260 322
#     4  11  21  37  60  82 105 146 193 235 263 313
#     4  10  19  36  55  81 116 149 173 222 280 330
#
# _framework density 18.994502000000001
#
# number of rings (size 3 to 8) (size 9 to 14) (size 15 to 20)
#    0.857    0.857    5.714    0.857    0.000    0.571 
#    0.000    0.714    0.000    0.857    0.000    0.000 
#    0.000    0.000    0.000    0.000    0.000    0.000 
#
# Total GULP energy -173437.922505 kJ/mol
# GULP energy per Si atom -12388.423036 kJ/mol
# Density = 1.895127 g / cm^3
# Si number density = 18.994502 Si / 1000 Ang^3
#
#
#
# Elastic Constant Matrix: (Units=GPa)
#
#
# Indices 1 2 3 4 5 6 
#
# 1 37.3235 27.6790 1.4032 4.5228 9.3475 -8.1433
# 2 27.6790 108.8577 33.8667 -16.6076 -4.1407 -9.9172
# 3 1.4032 33.8667 65.2799 6.2151 -9.3582 -9.7970
# 4 4.5228 -16.6076 6.2151 34.6701 -1.5225 -3.9462
# 5 9.3475 -4.1407 -9.3582 -1.5225 27.4693 -4.1952
# 6 -8.1433 -9.9172 -9.7970 -3.9462 -4.1952 33.0453
#
#
#
# Elastic Compliance Matrix: (Units=1/GPa)
#
#
# Indices 1 2 3 4 5 6 
#
# 1 0.045377 -0.016333 0.007431 -0.015222 -0.015498 0.004698
# 2 -0.016333 0.018645 -0.009553 0.013161 0.006008 0.001073
# 3 0.007431 -0.009553 0.022262 -0.008795 0.003893 0.005008
# 4 -0.015222 0.013161 -0.008795 0.039369 0.006832 0.003160
# 5 -0.015498 0.006008 0.003893 0.006832 0.045157 0.005687
# 6 0.004698 0.001073 0.005008 0.003160 0.005687 0.034325
#
#
# Mechanical properties :
#
#
# Convention : Reuss Voigt Hill
#
# Bulk Modulus (GPa) = 20.25371 37.48433 28.86902
# Shear Modulus (GPa) = 19.34200 28.93775 24.13988
#
# Velocity S-wave (km/s) = 3.19454 3.90741 3.56882
# Velocity P-wave (km/s) = 4.92877 6.33517 5.67570
#
# Compressibility (1/GPa) = 0.04937367
#
# Stress axis : x y z
#
# Youngs Moduli (GPa) = 22.03751 53.63260 44.91990
#
# Poissons Ratio (x) = 0.87601 -0.33379
# Poissons Ratio (y) = 0.35995 0.42911
# Poissons Ratio (z) = -0.16376 0.51234
#
# Static dielectric constant tensor:
#      x y z
#    x 1.894020 -0.663200 -2.739600 
#    y -0.663200 3.152150 -1.455510 
#    z -2.739600 -1.455510 -1.884280 
# 
# 
# High freq. dielectric constant tensor:
#      x y z
#    x 1.702360 -0.006050 -0.009280 
#    y -0.006050 1.726800 -0.000810 
#    z -0.009280 -0.000810 1.741860 
# 
# From -- ./inp_files/429220.got.cif
#   From: 2010.06.25/outbox.cif.g09.slc.cpg/sg2_215_cif.got.tgz:429220.got - 2010.06.27 13:26:56.
