data_PCOD8041369
_publ_section_title
;
Structure prediction by ZEFSAII (Michael W. Deem and Ramdas Pophale) SiO2 
 PCOD8041369
Probable space group: P -1
;
_chemical_formula_sum "Si O2"
_cell_formula_units_Z 16
_cell_length_a 16.523250
_cell_length_b 11.806209
_cell_length_c 10.905783
_cell_angle_alpha 120.404306
_cell_angle_beta 31.314128
_cell_angle_gamma 131.838210
_cell_volume 812.540376
_symmetry_space_group_name_H-M "P -1"
_symmetry_group_IT_number 2
_symmetry_cell_setting 'triclinic'
loop_
_space_group_symop_operation_xyz
x,y,z
-x,-y,-z
loop_
_atom_site_type_symbol
_atom_site_label
_atom_site_fract_x
_atom_site_fract_y
_atom_site_fract_z
Si Si1 0.118903 0.186760 0.047911
Si Si2 0.996018 0.542040 0.236024
Si Si3 0.488979 0.724180 0.389851
Si Si4 0.172980 0.737399 0.886064
Si Si5 0.044312 0.134031 0.841893
Si Si6 0.364173 0.563431 0.231696
Si Si7 0.586469 0.575276 0.557023
Si Si8 0.248578 0.525921 0.100647
O O1 0.303580 0.184022 0.784372
O O2 0.037328 0.177583 0.015493
O O3 0.163351 0.343947 0.140642
O O4 0.983164 0.036455 0.223560
O O5 0.108512 0.549935 0.216667
O O6 0.939608 0.392258 0.143494
O O7 0.822527 0.550108 0.512544
O O8 0.123187 0.684877 0.062358
O O9 0.388390 0.805329 0.623939
O O10 0.476549 0.717885 0.253668
O O11 0.379730 0.544147 0.477621
O O12 0.128992 0.871436 0.999250
O O13 0.227882 0.260727 0.606029
O O14 0.298743 0.605080 0.213271
O O15 0.500000 0.500000 0.000000
O O16 0.500000 0.500000 0.500000
O O17 0.440944 0.604043 0.826151
#
# Coordination Sequence:
#
# PCOD8041369 Si02
#       8
#     2   2   2   2   2   2   2   2
#     4  10  21  33  52  78 116 143 173 211 276 327
#     4  10  20  33  53  85 109 138 174 227 273 311
#     4  10  20  35  55  81 109 142 178 225 266 316
#     4  10  19  32  55  80 113 135 175 225 273 313
#     4  11  20  33  51  83 111 144 172 215 273 329
#     4  11  20  33  54  82 109 141 182 222 265 312
#     4  11  17  30  55  78 105 139 178 218 266 310
#     4  11  20  35  56  78 110 144 181 221 262 317
#
# _framework density 19.691327999999999
#
# number of rings (size 3 to 8) (size 9 to 14) (size 15 to 20)
#    0.000    1.500    6.250    3.375    0.000    0.500 
#    0.000    0.000    0.000    6.750    0.000    2.625 
#    0.000    0.000    0.000    0.000    0.000    0.000 
#
# Total GULP energy -198261.798474 kJ/mol
# GULP energy per Si atom -12391.362405 kJ/mol
# Density = 1.964651 g / cm^3
# Si number density = 19.691328 Si / 1000 Ang^3
#
#
#
# Elastic Constant Matrix: (Units=GPa)
#
#
# Indices 1 2 3 4 5 6 
#
# 1 123.9245 9.9575 27.3629 3.7503 0.2775 -8.3622
# 2 9.9575 58.4562 17.8148 -16.2771 -1.5293 -11.6990
# 3 27.3629 17.8148 106.5072 2.9702 -4.6601 -2.3046
# 4 3.7503 -16.2771 2.9702 21.4637 -1.3247 0.5661
# 5 0.2775 -1.5293 -4.6601 -1.3247 34.5036 3.4705
# 6 -8.3622 -11.6990 -2.3046 0.5661 3.4705 11.7731
#
#
#
# Elastic Compliance Matrix: (Units=1/GPa)
#
#
# Indices 1 2 3 4 5 6 
#
# 1 0.009031 -0.000081 -0.002173 -0.001570 -0.001063 0.006298
# 2 -0.000081 0.031006 -0.005250 0.023406 -0.001352 0.028999
# 3 -0.002173 -0.005250 0.010925 -0.004889 0.001560 -0.004846
# 4 -0.001570 0.023406 -0.004889 0.064891 0.001096 0.017743
# 5 -0.001063 -0.001352 0.001560 0.001096 0.030267 -0.010769
# 6 0.006298 0.028999 -0.004846 0.017743 -0.010769 0.119602
#
#
# Mechanical properties :
#
#
# Convention : Reuss Voigt Hill
#
# Bulk Modulus (GPa) = 27.81273 44.35092 36.08182
# Shear Modulus (GPa) = 17.08152 29.13159 23.10655
#
# Velocity S-wave (km/s) = 2.94847 3.85049 3.42926
# Velocity P-wave (km/s) = 5.07408 6.50694 5.83466
#
# Compressibility (1/GPa) = 0.03595476
#
# Stress axis : x y z
#
# Youngs Moduli (GPa) = 110.73487 32.25157 91.53173
#
# Poissons Ratio (x) = 0.00260 0.19890
# Poissons Ratio (y) = 0.00893 0.48053
# Poissons Ratio (z) = 0.24063 0.16932
#
# Static dielectric constant tensor:
#      x y z
#    x 3.890520 -0.121020 -0.079510 
#    y -0.121020 3.165190 -0.076080 
#    z -0.079510 -0.076080 3.537920 
# 
# 
# High freq. dielectric constant tensor:
#      x y z
#    x 1.787970 -0.012640 -0.012070 
#    y -0.012640 1.706250 -0.010330 
#    z -0.012070 -0.010330 1.768650 
# 
# From -- ./inp_files/253025.got.cif
#   From: 2010.06.25/outbox.cif.g09.slc.cpg/sg2_127_cif.got.tgz:253025.got - 2010.06.27 13:26:56.
