data_PCOD8041629
_publ_section_title
;
Structure prediction by ZEFSAII (Michael W. Deem and Ramdas Pophale) SiO2 
 PCOD8041629
Probable space group: P -1
;
_chemical_formula_sum "Si O2"
_cell_formula_units_Z 10
_cell_length_a 9.313761
_cell_length_b 5.090157
_cell_length_c 11.495699
_cell_angle_alpha 76.809128
_cell_angle_beta 58.316326
_cell_angle_gamma 82.027551
_cell_volume 451.415272
_symmetry_space_group_name_H-M "P -1"
_symmetry_group_IT_number 2
_symmetry_cell_setting 'triclinic'
loop_
_space_group_symop_operation_xyz
x,y,z
-x,-y,-z
loop_
_atom_site_type_symbol
_atom_site_label
_atom_site_fract_x
_atom_site_fract_y
_atom_site_fract_z
Si Si1 0.659225 0.282955 0.168910
Si Si2 0.003989 0.528693 0.358647
Si Si3 0.639957 0.649449 0.851440
Si Si4 0.786120 0.850499 0.984321
Si Si5 0.882883 0.107244 0.281292
O O1 0.457349 0.246905 0.234418
O O2 0.711164 0.595018 0.109252
O O3 0.701305 0.166232 0.291226
O O4 0.757432 0.120293 0.042176
O O5 0.198374 0.536879 0.232907
O O6 0.000000 0.500000 0.500000
O O7 0.905147 0.278260 0.371703
O O8 0.903930 0.795042 0.334184
O O9 0.500000 0.500000 0.000000
O O10 0.703492 0.887508 0.885730
O O11 0.985566 0.804936 0.883792
#
# Coordination Sequence:
#
# PCOD8041629 Si02
#       5
#     2   2   2   2   2
#     4  11  20  33  56  89 117 143 184 239 281 324
#     4  11  24  42  59  79 113 156 192 227 280 344
#     4   9  20  37  59  86 114 148 187 230 278 333
#     4  10  19  33  55  87 120 150 179 225 286 342
#     4  11  21  37  58  83 112 151 191 231 279 335
#
# _framework density 22.152552
#
# number of rings (size 3 to 8) (size 9 to 14) (size 15 to 20)
#    0.000    1.600    0.000    7.200    0.000    4.800 
#    0.000    2.000    0.000    0.000    0.000    0.000 
#    0.000    0.000    0.000    0.000    0.000    0.000 
#
# Total GULP energy -123948.757278 kJ/mol
# GULP energy per Si atom -12394.875728 kJ/mol
# Density = 2.210213 g / cm^3
# Si number density = 22.152552 Si / 1000 Ang^3
#
#
#
# Elastic Constant Matrix: (Units=GPa)
#
#
# Indices 1 2 3 4 5 6 
#
# 1 126.8011 25.1767 29.6551 -2.0660 35.5245 -24.0631
# 2 25.1767 84.5725 16.9074 10.1210 7.3538 -9.9286
# 3 29.6551 16.9074 67.4581 2.9911 16.3496 -4.9021
# 4 -2.0660 10.1210 2.9911 24.9174 1.2432 12.7503
# 5 35.5245 7.3538 16.3496 1.2432 26.8494 -8.6012
# 6 -24.0631 -9.9286 -4.9021 12.7503 -8.6012 31.2735
#
#
#
# Elastic Compliance Matrix: (Units=1/GPa)
#
#
# Indices 1 2 3 4 5 6 
#
# 1 0.013960 -0.001828 -0.001582 -0.000121 -0.015144 0.005798
# 2 -0.001828 0.014723 -0.002588 -0.009901 0.002884 0.007692
# 3 -0.001582 -0.002588 0.018180 -0.000004 -0.008782 -0.001602
# 4 -0.000121 -0.009901 -0.000004 0.060203 -0.009664 -0.030440
# 5 -0.015144 0.002884 -0.008782 -0.009664 0.065434 0.009823
# 6 0.005798 0.007692 -0.001602 -0.030440 0.009823 0.053740
#
#
# Mechanical properties :
#
#
# Convention : Reuss Voigt Hill
#
# Bulk Modulus (GPa) = 28.67882 46.92334 37.80108
# Shear Modulus (GPa) = 20.01141 30.41423 25.21282
#
# Velocity S-wave (km/s) = 3.00883 3.70935 3.37730
# Velocity P-wave (km/s) = 5.00449 6.29075 5.68412
#
# Compressibility (1/GPa) = 0.03486894
#
# Stress axis : x y z
#
# Youngs Moduli (GPa) = 71.63211 67.92245 55.00496
#
# Poissons Ratio (x) = 0.12414 0.08701
# Poissons Ratio (y) = 0.13092 0.14233
# Poissons Ratio (z) = 0.11331 0.17576
#
# Static dielectric constant tensor:
#      x y z
#    x 4.975360 -0.135580 0.380960 
#    y -0.135580 3.905280 0.131050 
#    z 0.380960 0.131050 3.645700 
# 
# 
# High freq. dielectric constant tensor:
#      x y z
#    x 1.888140 -0.002220 0.030190 
#    y -0.002220 1.871090 0.017830 
#    z 0.030190 0.017830 1.828000 
# 
# From -- ./inp_files/733.got.cif
#   From: 2010.06.25/outbox.cif.g09.slc.cpg/sg2_1_cif.got.tgz:733.got - 2010.06.27 13:26:56.
