data_PCOD8041908
_publ_section_title
;
Structure prediction by ZEFSAII (Michael W. Deem and Ramdas Pophale) SiO2 
 PCOD8041908
Probable space group: P -1
;
_chemical_formula_sum "Si O2"
_cell_formula_units_Z 16
_cell_length_a 16.664829
_cell_length_b 7.832999
_cell_length_c 15.720237
_cell_angle_alpha 35.758414
_cell_angle_beta 30.666356
_cell_angle_gamma 40.026662
_cell_volume 595.607289
_symmetry_space_group_name_H-M "P -1"
_symmetry_group_IT_number 2
_symmetry_cell_setting 'triclinic'
loop_
_space_group_symop_operation_xyz
x,y,z
-x,-y,-z
loop_
_atom_site_type_symbol
_atom_site_label
_atom_site_fract_x
_atom_site_fract_y
_atom_site_fract_z
Si Si1 0.959566 0.134277 0.600996
Si Si2 0.742763 0.225809 0.337302
Si Si3 0.613613 0.127134 0.104410
Si Si4 0.190579 0.340647 0.017009
Si Si5 0.626079 0.663305 0.973363
Si Si6 0.681736 0.287733 0.672602
Si Si7 0.615277 0.646858 0.429721
Si Si8 0.237046 0.306124 0.360286
O O1 0.870072 0.188842 0.568920
O O2 0.843098 0.349122 0.687678
O O3 0.140418 0.190467 0.415061
O O4 0.965265 0.792378 0.765071
O O5 0.865770 0.354369 0.111471
O O6 0.715764 0.369120 0.397275
O O7 0.574208 0.340062 0.396029
O O8 0.799627 0.871969 0.447571
O O9 0.692603 0.418599 0.935321
O O10 0.428632 0.236448 0.198766
O O11 0.693142 0.910826 0.044555
O O12 0.636686 0.957274 0.243669
O O13 0.275665 0.403832 0.001216
O O14 0.442787 0.613688 0.174783
O O15 0.623553 0.996854 0.805837
O O16 0.675000 0.570726 0.502300
#
# Coordination Sequence:
#
# PCOD8041908 Si02
#       8
#     2   2   2   2   2   2   2   2
#     4  10  22  38  53  84 121 160 192 236 289 359
#     4   9  18  33  55  84 111 151 193 243 288 343
#     4  10  21  37  62  92 112 154 195 245 296 341
#     4  10  21  38  62  88 119 147 198 249 290 341
#     4  10  20  34  56  90 119 148 191 245 295 340
#     4  10  19  34  53  82 122 151 185 247 289 340
#     4   9  18  32  55  84 117 143 191 248 295 335
#     4  10  21  36  55  83 120 155 199 228 293 359
#
# _framework density 26.863337000000001
#
# number of rings (size 3 to 8) (size 9 to 14) (size 15 to 20)
#    0.000    2.250    2.500    0.750    0.000    3.500 
#    0.000    0.625    0.000    4.500    0.000   14.875 
#    0.000    0.000    0.000    0.000    0.000    0.000 
#
# Total GULP energy -198229.321911 kJ/mol
# GULP energy per Si atom -12389.332619 kJ/mol
# Density = 2.680219 g / cm^3
# Si number density = 26.863337 Si / 1000 Ang^3
#
#
#
# Elastic Constant Matrix: (Units=GPa)
#
#
# Indices 1 2 3 4 5 6 
#
# 1 130.8518 18.1318 38.4304 -14.5798 -2.2095 -4.8753
# 2 18.1318 39.5387 2.2358 -1.1909 4.3024 4.2071
# 3 38.4304 2.2358 73.3708 -26.5994 0.0472 -15.3327
# 4 -14.5798 -1.1909 -26.5994 43.3978 -6.6802 2.5784
# 5 -2.2095 4.3024 0.0472 -6.6802 47.5600 -3.5591
# 6 -4.8753 4.2071 -15.3327 2.5784 -3.5591 37.5838
#
#
#
# Elastic Compliance Matrix: (Units=1/GPa)
#
#
# Indices 1 2 3 4 5 6 
#
# 1 0.009706 -0.004238 -0.004891 0.000292 0.000865 -0.000200
# 2 -0.004238 0.027938 0.000319 -0.000715 -0.003109 -0.003792
# 3 -0.004891 0.000319 0.022036 0.011713 0.001944 0.007700
# 4 0.000292 -0.000715 0.011713 0.030823 0.004637 0.003221
# 5 0.000865 -0.003109 0.001944 0.004637 0.022224 0.003040
# 6 -0.000200 -0.003792 0.007700 0.003221 0.003040 0.030214
#
#
# Mechanical properties :
#
#
# Convention : Reuss Voigt Hill
#
# Bulk Modulus (GPa) = 23.77668 40.15082 31.96375
# Shear Modulus (GPa) = 28.64002 38.03921 33.33961
#
# Velocity S-wave (km/s) = 3.26872 3.76710 3.52672
# Velocity P-wave (km/s) = 4.80793 5.82238 5.33930
#
# Compressibility (1/GPa) = 0.04205801
#
# Stress axis : x y z
#
# Youngs Moduli (GPa) = 103.03238 35.79410 45.38028
#
# Poissons Ratio (x) = 0.15171 0.22196
# Poissons Ratio (y) = 0.43669 -0.01447
# Poissons Ratio (z) = 0.50395 -0.01142
#
# Static dielectric constant tensor:
#      x y z
#    x 4.673280 0.037560 0.042940 
#    y 0.037560 4.690850 -0.420570 
#    z 0.042940 -0.420570 5.174060 
# 
# 
# High freq. dielectric constant tensor:
#      x y z
#    x 2.080460 0.002060 0.015640 
#    y 0.002060 2.057610 -0.017880 
#    z 0.015640 -0.017880 2.095800 
# 
# From -- ./inp_files/528051.got.cif
#   From: 2010.06.25/outbox.cif.g09.slc.cpg/sg2_265_cif.got.tgz:528051.got - 2010.06.27 13:26:56.
