data_PCOD8041325
_publ_section_title
;
Structure prediction by ZEFSAII (Michael W. Deem and Ramdas Pophale) SiO2 
 PCOD8041325
Probable space group: P -1
;
_chemical_formula_sum "Si O2"
_cell_formula_units_Z 16
_cell_length_a 13.957692
_cell_length_b 10.989965
_cell_length_c 19.751663
_cell_angle_alpha 136.719586
_cell_angle_beta 32.660448
_cell_angle_gamma 148.126346
_cell_volume 862.480869
_symmetry_space_group_name_H-M "P -1"
_symmetry_group_IT_number 2
_symmetry_cell_setting 'triclinic'
loop_
_space_group_symop_operation_xyz
x,y,z
-x,-y,-z
loop_
_atom_site_type_symbol
_atom_site_label
_atom_site_fract_x
_atom_site_fract_y
_atom_site_fract_z
Si Si1 0.567785 0.792864 0.031816
Si Si2 0.348636 0.124608 0.136714
Si Si3 0.646897 0.171416 0.543788
Si Si4 0.207217 0.432419 0.193311
Si Si5 0.976083 0.199304 0.020340
Si Si6 0.828598 0.353060 0.980702
Si Si7 0.875301 0.651243 0.639253
Si Si8 0.800837 0.024129 0.202888
O O1 0.336659 0.663459 0.163396
O O2 0.521657 0.767253 0.968964
O O3 0.690878 0.690816 0.940799
O O4 0.753988 0.064440 0.047930
O O5 0.555197 0.215924 0.104329
O O6 0.209904 0.209925 0.276321
O O7 0.161568 0.844629 0.131091
O O8 0.783858 0.444704 0.556477
O O9 0.844700 0.161731 0.448066
O O10 0.500000 0.000000 0.500000
O O11 0.467887 0.101213 0.681875
O O12 0.232865 0.478503 0.276642
O O13 0.935560 0.246122 0.262592
O O14 0.885317 0.115053 0.114847
O O15 0.101385 0.467942 0.048445
O O16 0.155163 0.155090 0.876493
O O17 0.000000 0.500000 0.000000
#
# Coordination Sequence:
#
# PCOD8041325 Si02
#       8
#     2   2   2   2   2   2   2   2
#     4   9  16  28  47  74 108 141 171 210 265 322
#     4  10  21  35  52  77 111 146 182 224 271 323
#     4  11  21  34  54  81 111 145 183 224 271 326
#     4   9  16  28  47  74 108 141 171 210 265 322
#     4  10  19  32  53  82 114 143 174 221 277 327
#     4  11  21  34  54  81 111 145 183 224 271 326
#     4  10  21  35  52  77 111 146 182 224 271 323
#     4  10  19  32  53  82 114 143 174 221 277 327
#
# _framework density 18.551137000000001
#
# number of rings (size 3 to 8) (size 9 to 14) (size 15 to 20)
#    0.000    2.000    2.500    2.250    0.000    5.000 
#    0.000    0.000    0.000    0.750    0.000    1.750 
#    0.000    0.000    0.000    0.000    0.000    0.000 
#
# Total GULP energy -198246.224737 kJ/mol
# GULP energy per Si atom -12390.389046 kJ/mol
# Density = 1.850891 g / cm^3
# Si number density = 18.551137 Si / 1000 Ang^3
#
#
#
# Elastic Constant Matrix: (Units=GPa)
#
#
# Indices 1 2 3 4 5 6 
#
# 1 61.4340 35.9601 27.8329 6.3882 -13.9772 19.7981
# 2 35.9601 116.9188 40.6332 5.9583 -13.7243 15.7291
# 3 27.8329 40.6332 71.0091 2.0730 -20.6440 0.3762
# 4 6.3882 5.9583 2.0730 30.3196 -0.0964 2.5146
# 5 -13.9772 -13.7243 -20.6440 -0.0964 25.1286 -2.4534
# 6 19.7981 15.7291 0.3762 2.5146 -2.4534 37.3289
#
#
#
# Elastic Compliance Matrix: (Units=1/GPa)
#
#
# Indices 1 2 3 4 5 6 
#
# 1 0.027047 -0.003457 -0.006542 -0.003543 0.006582 -0.012151
# 2 -0.003457 0.011976 -0.005517 -0.000991 -0.000221 -0.003105
# 3 -0.006542 -0.005517 0.023658 0.000356 0.013412 0.006413
# 4 -0.003543 -0.000991 0.000356 0.033903 -0.002102 -0.000129
# 5 0.006582 -0.000221 0.013412 -0.002102 0.054363 0.000182
# 6 -0.012151 -0.003105 0.006413 -0.000129 0.000182 0.034497
#
#
# Mechanical properties :
#
#
# Convention : Reuss Voigt Hill
#
# Bulk Modulus (GPa) = 31.59609 50.91271 41.25440
# Shear Modulus (GPa) = 22.02394 28.21779 25.12087
#
# Velocity S-wave (km/s) = 3.44932 3.90434 3.68386
# Velocity P-wave (km/s) = 5.73869 6.91587 6.35460
#
# Compressibility (1/GPa) = 0.03164949
#
# Stress axis : x y z
#
# Youngs Moduli (GPa) = 36.97302 83.50240 42.26845
#
# Poissons Ratio (x) = 0.28870 0.27650
# Poissons Ratio (y) = 0.12783 0.23318
# Poissons Ratio (z) = 0.24186 0.46065
#
# Static dielectric constant tensor:
#      x y z
#    x 3.368530 0.267250 -0.127850 
#    y 0.267250 3.760290 -0.013720 
#    z -0.127850 -0.013720 3.301500 
# 
# 
# High freq. dielectric constant tensor:
#      x y z
#    x 1.701200 0.028880 -0.005680 
#    y 0.028880 1.735980 -0.004110 
#    z -0.005680 -0.004110 1.687070 
# 
# From -- ./inp_files/435809.got.cif
#   From: 2010.06.25/outbox.cif.g09.slc.cpg/sg2_218_cif.got.tgz:435809.got - 2010.06.27 13:26:56.
