data_PCOD8041936
_publ_section_title
;
Structure prediction by ZEFSAII (Michael W. Deem and Ramdas Pophale) SiO2 
 PCOD8041936
Probable space group: P -1
;
_chemical_formula_sum "Si O2"
_cell_formula_units_Z 16
_cell_length_a 15.278319
_cell_length_b 15.197641
_cell_length_c 15.008089
_cell_angle_alpha 28.463710
_cell_angle_beta 30.638106
_cell_angle_gamma 27.615975
_cell_volume 715.664384
_symmetry_space_group_name_H-M "P -1"
_symmetry_group_IT_number 2
_symmetry_cell_setting 'triclinic'
loop_
_space_group_symop_operation_xyz
x,y,z
-x,-y,-z
loop_
_atom_site_type_symbol
_atom_site_label
_atom_site_fract_x
_atom_site_fract_y
_atom_site_fract_z
Si Si1 0.520892 0.421592 0.743748
Si Si2 0.897751 0.054179 0.645905
Si Si3 0.202137 0.597647 0.995374
Si Si4 0.871721 0.693469 0.068159
Si Si5 0.385407 0.222358 0.627516
Si Si6 0.005545 0.505417 0.595257
Si Si7 0.162382 0.034323 0.584326
Si Si8 0.275299 0.581150 0.656889
O O1 0.687683 0.187923 0.767722
O O2 0.439003 0.428905 0.909274
O O3 0.616046 0.568297 0.521577
O O4 0.303732 0.541374 0.773077
O O5 0.863771 0.160379 0.480668
O O6 0.072825 0.061940 0.538635
O O7 0.929800 0.813975 0.834590
O O8 0.147139 0.847446 0.816142
O O9 0.056847 0.555786 0.096924
O O10 0.168780 0.534486 0.179437
O O11 0.683579 0.855747 0.155068
O O12 0.822695 0.541142 0.191200
O O13 0.224489 0.304348 0.614677
O O14 0.604867 0.031540 0.570346
O O15 0.000000 0.500000 0.500000
O O16 0.965190 0.739758 0.451993
O O17 0.500000 0.500000 0.500000
#
# Coordination Sequence:
#
# PCOD8041936 Si02
#       8
#     2   2   2   2   2   2   2   2
#     4  10  19  37  59  79 121 162 192 247 290 333
#     4  10  19  35  59  81 115 164 201 233 290 335
#     4   9  22  39  58  90 116 151 204 235 290 364
#     4  10  19  35  55  84 117 158 203 241 280 343
#     4  10  20  40  61  86 123 153 197 242 289 358
#     4  11  23  42  67  91 116 149 189 244 305 362
#     4  10  21  40  63  87 120 160 191 239 301 349
#     4  10  19  34  54  82 123 158 199 252 282 315
#
# _framework density 22.356847999999999
#
# number of rings (size 3 to 8) (size 9 to 14) (size 15 to 20)
#    0.000    2.000    3.750    0.750    1.750    3.500 
#    0.000    8.125    0.000    0.000    0.000    0.000 
#    0.000    0.000    0.000    0.000    0.000    0.000 
#
# Total GULP energy -198298.974478 kJ/mol
# GULP energy per Si atom -12393.685905 kJ/mol
# Density = 2.230596 g / cm^3
# Si number density = 22.356848 Si / 1000 Ang^3
#
#
#
# Elastic Constant Matrix: (Units=GPa)
#
#
# Indices 1 2 3 4 5 6 
#
# 1 85.6337 17.2991 35.0880 6.0906 14.4599 -1.6452
# 2 17.2991 78.0267 4.9990 8.9233 -3.0094 -15.6947
# 3 35.0880 4.9990 106.0894 14.8687 15.1031 0.9191
# 4 6.0906 8.9233 14.8687 32.0073 5.0888 -2.5321
# 5 14.4599 -3.0094 15.1031 5.0888 33.7647 0.0380
# 6 -1.6452 -15.6947 0.9191 -2.5321 0.0380 23.7958
#
#
#
# Elastic Compliance Matrix: (Units=1/GPa)
#
#
# Indices 1 2 3 4 5 6 
#
# 1 0.014842 -0.003514 -0.004141 0.000781 -0.004934 -0.001041
# 2 -0.003514 0.016136 0.000365 -0.003740 0.003332 0.009982
# 3 -0.004141 0.000365 0.011807 -0.004429 -0.002807 -0.000968
# 4 0.000781 -0.003740 -0.004429 0.034940 -0.003954 0.001483
# 5 -0.004934 0.003332 -0.002807 -0.003954 0.033876 0.001490
# 6 -0.001041 0.009982 -0.000968 0.001483 0.001490 0.048729
#
#
# Mechanical properties :
#
#
# Convention : Reuss Voigt Hill
#
# Bulk Modulus (GPa) = 35.45557 42.72468 39.09013
# Shear Modulus (GPa) = 27.12777 32.07114 29.59946
#
# Velocity S-wave (km/s) = 3.48717 3.79160 3.64257
# Velocity P-wave (km/s) = 5.66632 6.19033 5.93411
#
# Compressibility (1/GPa) = 0.02820431
#
# Stress axis : x y z
#
# Youngs Moduli (GPa) = 67.37651 61.97349 84.69387
#
# Poissons Ratio (x) = 0.21779 0.35075
# Poissons Ratio (y) = 0.23678 -0.03093
# Poissons Ratio (z) = 0.27903 -0.02263
#
# Static dielectric constant tensor:
#      x y z
#    x 3.899740 -0.299870 0.071370 
#    y -0.299870 4.190360 0.202470 
#    z 0.071370 0.202470 4.276200 
# 
# 
# High freq. dielectric constant tensor:
#      x y z
#    x 1.842830 -0.008700 0.000790 
#    y -0.008700 1.895020 0.022300 
#    z 0.000790 0.022300 1.898860 
# 
# From -- ./inp_files/312259.got.cif
#   From: 2010.06.25/outbox.cif.g09.slc.cpg/sg2_157_cif.got.tgz:312259.got - 2010.06.27 13:26:56.
