data_PCOD8041576
_publ_section_title
;
Structure prediction by ZEFSAII (Michael W. Deem and Ramdas Pophale) SiO2 
 PCOD8041576
Probable space group: P -1
;
_chemical_formula_sum "Si O2"
_cell_formula_units_Z 14
_cell_length_a 9.596619
_cell_length_b 12.210437
_cell_length_c 12.527687
_cell_angle_alpha 143.371461
_cell_angle_beta 67.873673
_cell_angle_gamma 127.721533
_cell_volume 672.133516
_symmetry_space_group_name_H-M "P -1"
_symmetry_group_IT_number 2
_symmetry_cell_setting 'triclinic'
loop_
_space_group_symop_operation_xyz
x,y,z
-x,-y,-z
loop_
_atom_site_type_symbol
_atom_site_label
_atom_site_fract_x
_atom_site_fract_y
_atom_site_fract_z
Si Si1 0.086396 0.074554 0.273728
Si Si2 0.465725 0.289209 0.785729
Si Si3 0.151260 0.443191 0.689869
Si Si4 0.767986 0.082548 0.277809
Si Si5 0.835582 0.423895 0.677827
Si Si6 0.864022 0.800047 0.307203
Si Si7 0.192120 0.853691 0.919890
O O1 0.971326 0.849292 0.203024
O O2 0.947203 0.082383 0.241887
O O3 0.199893 0.299969 0.488494
O O4 0.226429 0.046677 0.141984
O O5 0.650904 0.348217 0.728120
O O6 0.320605 0.214834 0.674178
O O7 0.399290 0.098481 0.743157
O O8 0.500000 0.500000 0.000000
O O9 0.186390 0.422195 0.788722
O O10 0.263088 0.705076 0.830502
O O11 0.935231 0.332732 0.648321
O O12 0.803900 0.318414 0.486313
O O13 0.709427 0.038184 0.135946
O O14 0.972632 0.690236 0.835395
O O15 0.000000 0.000000 0.500000
#
# Coordination Sequence:
#
# PCOD8041576 Si02
#       7
#     2   2   2   2   2   2   2
#     4   9  17  30  50  82 112 140 187 239 278 322
#     4  11  22  37  57  91 116 150 194 244 295 337
#     4   8  19  33  56  85 110 148 195 235 282 344
#     4  10  19  33  54  81 119 149 188 242 286 344
#     4   9  19  34  56  86 110 149 195 238 289 332
#     4   9  18  36  57  84 118 153 194 238 284 349
#     4  10  19  33  56  88 113 148 195 241 284 340
#
# _framework density 20.829194999999999
#
# number of rings (size 3 to 8) (size 9 to 14) (size 15 to 20)
#    0.857    1.714    0.000    3.857    0.000    0.571 
#    0.000    0.000    0.000    1.714    7.429    0.000 
#    0.000    0.000    0.000    0.000    0.000    0.000 
#
# Total GULP energy -173449.934903 kJ/mol
# GULP energy per Si atom -12389.281065 kJ/mol
# Density = 2.078179 g / cm^3
# Si number density = 20.829195 Si / 1000 Ang^3
#
#
#
# Elastic Constant Matrix: (Units=GPa)
#
#
# Indices 1 2 3 4 5 6 
#
# 1 53.5976 34.2852 23.4768 -10.1463 -2.3545 -4.4133
# 2 34.2852 84.5183 17.6008 -21.2139 -8.6303 -24.4433
# 3 23.4768 17.6008 111.4648 -10.4479 -22.8637 -6.6913
# 4 -10.1463 -21.2139 -10.4479 30.8916 3.0984 2.3998
# 5 -2.3545 -8.6303 -22.8637 3.0984 22.0717 1.6392
# 6 -4.4133 -24.4433 -6.6913 2.3998 1.6392 30.1547
#
#
#
# Elastic Compliance Matrix: (Units=1/GPa)
#
#
# Indices 1 2 3 4 5 6 
#
# 1 0.028973 -0.013654 -0.006078 -0.000525 -0.007899 -0.007705
# 2 -0.013654 0.025949 0.002738 0.011994 0.008489 0.018228
# 3 -0.006078 0.002738 0.012987 0.002692 0.013254 0.003277
# 4 -0.000525 0.011994 0.002692 0.040687 0.001196 0.006940
# 5 -0.007899 0.008489 0.013254 0.001196 0.060955 0.005257
# 6 -0.007705 0.018228 0.003277 0.006940 0.005257 0.046699
#
#
# Mechanical properties :
#
#
# Convention : Reuss Voigt Hill
#
# Bulk Modulus (GPa) = 29.48054 44.47847 36.97951
# Shear Modulus (GPa) = 19.11710 28.23812 23.67761
#
# Velocity S-wave (km/s) = 3.03281 3.68598 3.37523
# Velocity P-wave (km/s) = 5.14278 6.28613 5.74298
#
# Compressibility (1/GPa) = 0.03392068
#
# Stress axis : x y z
#
# Youngs Moduli (GPa) = 34.51443 38.53676 76.99987
#
# Poissons Ratio (x) = 0.52619 0.46803
# Poissons Ratio (y) = 0.47127 -0.21083
# Poissons Ratio (z) = 0.20979 -0.10551
#
# Static dielectric constant tensor:
#      x y z
#    x 5.117540 -0.772080 -1.444810 
#    y -0.772080 3.980890 0.341300 
#    z -1.444810 0.341300 4.968560 
# 
# 
# High freq. dielectric constant tensor:
#      x y z
#    x 1.772190 -0.017540 -0.004180 
#    y -0.017540 1.810470 -0.002710 
#    z -0.004180 -0.002710 1.813380 
# 
# From -- ./inp_files/424467.got.cif
#   From: 2010.06.25/outbox.cif.g09.slc.cpg/sg2_213_cif.got.tgz:424467.got - 2010.06.27 13:26:56.
