data_PCOD8041014
_publ_section_title
;
Structure prediction by ZEFSAII (Michael W. Deem and Ramdas Pophale) SiO2 
 PCOD8041014
Probable space group: P -1
;
_chemical_formula_sum "Si O2"
_cell_formula_units_Z 16
_cell_length_a 21.517160
_cell_length_b 17.235179
_cell_length_c 7.984170
_cell_angle_alpha 112.760966
_cell_angle_beta 57.675995
_cell_angle_gamma 160.186774
_cell_volume 775.223075
_symmetry_space_group_name_H-M "P -1"
_symmetry_group_IT_number 2
_symmetry_cell_setting 'triclinic'
loop_
_space_group_symop_operation_xyz
x,y,z
-x,-y,-z
loop_
_atom_site_type_symbol
_atom_site_label
_atom_site_fract_x
_atom_site_fract_y
_atom_site_fract_z
Si Si1 0.985127 0.552812 0.805190
Si Si2 0.361796 0.111069 0.134368
Si Si3 0.400511 0.821800 0.727881
Si Si4 0.818399 0.203194 0.611952
Si Si5 0.775147 0.865686 0.741907
Si Si6 0.336091 0.420810 0.856147
Si Si7 0.551257 0.947871 0.271626
Si Si8 0.006052 0.992744 0.739480
O O1 0.896085 0.363133 0.749540
O O2 0.015669 0.631763 0.646227
O O3 0.211187 0.787161 0.769559
O O4 0.824424 0.431172 0.056877
O O5 0.221114 0.028034 0.160097
O O6 0.563861 0.378303 0.155704
O O7 0.198550 0.896952 0.329988
O O8 0.468867 0.157470 0.896659
O O9 0.486018 0.010817 0.757318
O O10 0.576309 0.958180 0.689074
O O11 0.375522 0.759229 0.520791
O O12 0.529345 0.573103 0.792276
O O13 0.955322 0.029937 0.485403
O O14 0.849378 0.902733 0.839028
O O15 0.244701 0.281402 0.700507
O O16 0.123608 0.199819 0.095819
#
# Coordination Sequence:
#
# PCOD8041014 Si02
#       8
#     2   2   2   2   2   2   2   2
#     4  10  20  37  59  78 106 169 202 240 288 350
#     4  10  22  40  52  89 130 146 182 273 302 320
#     4  10  20  37  59  78 106 169 202 240 288 350
#     4  10  21  38  54  83 117 146 211 244 291 351
#     4   9  21  38  63  90 122 153 190 249 294 352
#     4   9  21  38  63  90 122 153 190 249 294 352
#     4  10  21  38  54  83 117 146 211 244 291 351
#     4  10  18  42  66  91 112 160 208 209 296 408
#
# _framework density 20.639220000000002
#
# number of rings (size 3 to 8) (size 9 to 14) (size 15 to 20)
#    0.750    1.500    1.250    1.500    0.000    0.000 
#    6.750    7.500    0.000    0.000    0.000    0.000 
#    0.000    0.000    0.000    0.000    0.000    0.000 
#
# Total GULP energy -198282.794282 kJ/mol
# GULP energy per Si atom -12392.674643 kJ/mol
# Density = 2.059224 g / cm^3
# Si number density = 20.639220 Si / 1000 Ang^3
#
#
#
# Elastic Constant Matrix: (Units=GPa)
#
#
# Indices 1 2 3 4 5 6 
#
# 1 66.4661 18.3643 13.9855 -4.2071 -2.3306 -7.1221
# 2 18.3643 60.7725 9.7384 -8.9293 10.9836 -10.8860
# 3 13.9855 9.7384 118.0707 -14.2995 7.1907 -17.2256
# 4 -4.2071 -8.9293 -14.2995 25.9213 -3.2217 -0.4270
# 5 -2.3306 10.9836 7.1907 -3.2217 27.7846 -2.1783
# 6 -7.1221 -10.8860 -17.2256 -0.4270 -2.1783 33.5079
#
#
#
# Elastic Compliance Matrix: (Units=1/GPa)
#
#
# Indices 1 2 3 4 5 6 
#
# 1 0.017187 -0.005352 -0.001570 0.000618 0.004144 0.001384
# 2 -0.005352 0.021297 0.000951 0.006100 -0.007950 0.005831
# 3 -0.001570 0.000951 0.010113 0.005476 -0.002089 0.005108
# 4 0.000618 0.006100 0.005476 0.044114 0.001778 0.005606
# 5 0.004144 -0.007950 -0.002089 0.001778 0.040217 -0.000139
# 6 0.001384 0.005831 0.005108 0.005606 -0.000139 0.034721
#
#
# Mechanical properties :
#
#
# Convention : Reuss Voigt Hill
#
# Bulk Modulus (GPa) = 27.28145 36.60953 31.94549
# Shear Modulus (GPa) = 26.06748 30.99084 28.52916
#
# Velocity S-wave (km/s) = 3.55774 3.87919 3.72193
# Velocity P-wave (km/s) = 5.48850 6.15146 5.82941
#
# Compressibility (1/GPa) = 0.03665495
#
# Stress axis : x y z
#
# Youngs Moduli (GPa) = 58.18294 46.95410 98.88591
#
# Poissons Ratio (x) = 0.25131 0.15525
# Poissons Ratio (y) = 0.31141 -0.09405
# Poissons Ratio (z) = 0.09135 -0.04466
#
# Static dielectric constant tensor:
#      x y z
#    x 3.649300 0.137550 0.140850 
#    y 0.137550 3.493140 -0.047990 
#    z 0.140850 -0.047990 3.905260 
# 
# 
# High freq. dielectric constant tensor:
#      x y z
#    x 1.793060 0.013790 0.008420 
#    y 0.013790 1.784510 -0.010420 
#    z 0.008420 -0.010420 1.813620 
# 
# From -- ./inp_files/354834.got.cif
#   From: 2010.06.25/outbox.cif.g09.slc.cpg/sg2_178_cif.got.tgz:354834.got - 2010.06.27 13:26:56.
