data_PCOD8041887
_publ_section_title
;
Structure prediction by ZEFSAII (Michael W. Deem and Ramdas Pophale) SiO2 
 PCOD8041887
Probable space group: P -1
;
_chemical_formula_sum "Si O2"
_cell_formula_units_Z 14
_cell_length_a 5.053811
_cell_length_b 9.553190
_cell_length_c 17.467872
_cell_angle_alpha 69.877130
_cell_angle_beta 81.839055
_cell_angle_gamma 104.282366
_cell_volume 743.167989
_symmetry_space_group_name_H-M "P -1"
_symmetry_group_IT_number 2
_symmetry_cell_setting 'triclinic'
loop_
_space_group_symop_operation_xyz
x,y,z
-x,-y,-z
loop_
_atom_site_type_symbol
_atom_site_label
_atom_site_fract_x
_atom_site_fract_y
_atom_site_fract_z
Si Si1 0.286841 0.639819 0.129520
Si Si2 0.158230 0.803164 0.568380
Si Si3 0.061323 0.537142 0.321052
Si Si4 0.185262 0.414807 0.051085
Si Si5 0.256789 0.138218 0.542113
Si Si6 0.445928 0.392678 0.597880
Si Si7 0.081226 0.186525 0.973325
O O1 0.174605 0.458982 0.133516
O O2 0.204554 0.630470 0.223055
O O3 0.622522 0.719488 0.095561
O O4 0.154838 0.756961 0.069039
O O5 0.001784 0.649140 0.652664
O O6 0.469771 0.801986 0.534775
O O7 0.991720 0.809899 0.495832
O O8 0.166327 0.951187 0.593002
O O9 0.767575 0.568170 0.342206
O O10 0.262551 0.592590 0.375301
O O11 0.093687 0.234319 0.055951
O O12 0.500000 0.500000 0.000000
O O13 0.000000 0.500000 0.000000
O O14 0.314941 0.212716 0.609768
O O15 0.500000 0.500000 0.500000
O O16 0.000000 0.000000 0.000000
#
# Coordination Sequence:
#
# PCOD8041887 Si02
#       7
#     2   2   2   2   2   2   2
#     4  10  21  36  53  84 113 144 178 223 274 326
#     4  10  19  34  52  75  98 139 174 231 273 314
#     4  12  22  35  55  78 114 143 182 234 282 313
#     4   8  16  32  55  78 104 138 177 207 251 327
#     4  10  20  33  53  74 101 130 193 229 259 316
#     4  12  21  35  55  81 104 149 193 231 269 327
#     4  10  19  36  62  85 109 142 181 217 264 330
#
# _framework density 18.838273000000001
#
# number of rings (size 3 to 8) (size 9 to 14) (size 15 to 20)
#    0.000    1.714    2.857    2.571    0.000    0.000 
#    0.000    2.857    0.000    0.000    0.000    0.000 
#    0.000    0.000    0.000    0.000    0.000    0.000 
#
# Total GULP energy -173477.822494 kJ/mol
# GULP energy per Si atom -12391.273035 kJ/mol
# Density = 1.879540 g / cm^3
# Si number density = 18.838273 Si / 1000 Ang^3
#
#
#
# Elastic Constant Matrix: (Units=GPa)
#
#
# Indices 1 2 3 4 5 6 
#
# 1 76.9440 3.3465 -2.6471 -0.0999 3.2098 1.9611
# 2 3.3465 147.6230 26.6840 -5.4170 0.0236 11.9467
# 3 -2.6471 26.6840 50.6349 8.0901 -5.6989 2.5533
# 4 -0.0999 -5.4170 8.0901 20.3027 -0.3780 -0.9085
# 5 3.2098 0.0236 -5.6989 -0.3780 21.7164 3.8472
# 6 1.9611 11.9467 2.5533 -0.9085 3.8472 29.5648
#
#
#
# Elastic Compliance Matrix: (Units=1/GPa)
#
#
# Indices 1 2 3 4 5 6 
#
# 1 0.013125 -0.000414 0.000818 -0.000428 -0.001630 -0.000575
# 2 -0.000414 0.008007 -0.004815 0.003925 -0.000685 -0.002582
# 3 0.000818 -0.004815 0.024914 -0.011152 0.006484 -0.001447
# 4 -0.000428 0.003925 -0.011152 0.054765 -0.002157 0.001369
# 5 -0.001630 -0.000685 0.006484 -0.002157 0.049129 -0.006634
# 6 -0.000575 -0.002582 -0.001447 0.001369 -0.006634 0.035936
#
#
# Mechanical properties :
#
#
# Convention : Reuss Voigt Hill
#
# Bulk Modulus (GPa) = 26.86470 36.66319 31.76394
# Shear Modulus (GPa) = 24.14223 30.83801 27.49012
#
# Velocity S-wave (km/s) = 3.58376 4.05036 3.82418
# Velocity P-wave (km/s) = 5.60501 6.43259 6.03301
#
# Compressibility (1/GPa) = 0.03722358
#
# Stress axis : x y z
#
# Youngs Moduli (GPa) = 76.19189 124.89241 40.13777
#
# Poissons Ratio (x) = 0.05176 -0.03285
# Poissons Ratio (y) = 0.03157 0.19327
# Poissons Ratio (z) = -0.06236 0.60138
#
# Static dielectric constant tensor:
#      x y z
#    x 3.682710 0.048610 0.088400 
#    y 0.048610 4.154950 0.248000 
#    z 0.088400 0.248000 3.046430 
# 
# 
# High freq. dielectric constant tensor:
#      x y z
#    x 1.759040 0.000620 0.009510 
#    y 0.000620 1.750600 0.011680 
#    z 0.009510 0.011680 1.673750 
# 
# From -- ./inp_files/546997.got.cif
#   From: 2010.06.25/outbox.cif.g09.slc.cpg/sg2_274_cif.got.tgz:546997.got - 2010.06.27 13:26:56.
