data_PCOD8041761
_publ_section_title
;
Structure prediction by ZEFSAII (Michael W. Deem and Ramdas Pophale) SiO2 
 PCOD8041761
Probable space group: P -1
;
_chemical_formula_sum "Si O2"
_cell_formula_units_Z 16
_cell_length_a 10.296149
_cell_length_b 21.837647
_cell_length_c 10.210051
_cell_angle_alpha 147.422410
_cell_angle_beta 121.117297
_cell_angle_gamma 46.716985
_cell_volume 888.895696
_symmetry_space_group_name_H-M "P -1"
_symmetry_group_IT_number 2
_symmetry_cell_setting 'triclinic'
loop_
_space_group_symop_operation_xyz
x,y,z
-x,-y,-z
loop_
_atom_site_type_symbol
_atom_site_label
_atom_site_fract_x
_atom_site_fract_y
_atom_site_fract_z
Si Si1 0.015425 0.898709 0.936739
Si Si2 0.376743 0.376131 0.183071
Si Si3 0.475085 0.897930 0.387441
Si Si4 0.096191 0.707676 0.299388
Si Si5 0.979860 0.501785 0.148724
Si Si6 0.810128 0.792474 0.537107
Si Si7 0.935287 0.975669 0.557405
Si Si8 0.654420 0.364854 0.478276
O O1 0.187731 0.746277 0.734204
O O2 0.835403 0.893455 0.823283
O O3 0.026343 0.948734 0.174053
O O4 0.000000 0.000000 0.000000
O O5 0.474270 0.364697 0.352501
O O6 0.382451 0.486977 0.297331
O O7 0.170633 0.423049 0.182392
O O8 0.481946 0.231873 0.907110
O O9 0.603636 0.857521 0.507392
O O10 0.273350 0.971616 0.467661
O O11 0.500000 0.000000 0.500000
O O12 0.280007 0.673922 0.407135
O O13 0.931915 0.763293 0.417856
O O14 0.124264 0.572541 0.003085
O O15 0.049641 0.815767 0.357454
O O16 0.868236 0.659074 0.413208
O O17 0.000000 0.500000 0.000000
O O18 0.000000 0.000000 0.500000
#
# Coordination Sequence:
#
# PCOD8041761 Si02
#       8
#     2   2   2   2   2   2   2   2
#     4  11  18  35  57  82 110 151 192 234 278 341
#     4  11  18  27  48  89 117 131 181 247 283 316
#     4  12  20  33  55  86 112 143 196 236 271 333
#     4  10  17  34  52  77 110 148 179 222 290 330
#     4  10  15  29  50  84 111 136 173 243 289 320
#     4  10  18  30  57  85 106 136 187 244 276 320
#     4  12  25  38  55  83 121 154 184 234 293 342
#     4  10  19  28  51  83 114 140 181 241 282 319
#
# _framework density 17.999863000000001
#
# number of rings (size 3 to 8) (size 9 to 14) (size 15 to 20)
#    0.000    1.250   11.250    0.000    0.000    0.000 
#    0.000    0.625    0.000    3.750    0.000    0.000 
#    0.000    0.000    0.000    0.000    0.000    0.000 
#
# Total GULP energy -198313.778752 kJ/mol
# GULP energy per Si atom -12394.611172 kJ/mol
# Density = 1.795889 g / cm^3
# Si number density = 17.999863 Si / 1000 Ang^3
#
#
#
# Elastic Constant Matrix: (Units=GPa)
#
#
# Indices 1 2 3 4 5 6 
#
# 1 66.7259 56.9293 42.5854 -5.1059 13.6140 1.3146
# 2 56.9293 145.1091 59.4024 -7.1768 21.7460 -16.1676
# 3 42.5854 59.4024 124.7613 2.8281 32.9697 3.4146
# 4 -5.1059 -7.1768 2.8281 40.7418 -4.1189 14.4902
# 5 13.6140 21.7460 32.9697 -4.1189 21.8190 -4.5845
# 6 1.3146 -16.1676 3.4146 14.4902 -4.5845 29.6796
#
#
#
# Elastic Compliance Matrix: (Units=1/GPa)
#
#
# Indices 1 2 3 4 5 6 
#
# 1 0.026152 -0.009002 -0.003920 0.004664 -0.002273 -0.008239
# 2 -0.009002 0.012578 -0.002729 -0.001789 -0.001406 0.008221
# 3 -0.003920 -0.002729 0.016486 -0.002370 -0.021315 -0.005345
# 4 0.004664 -0.001789 -0.002370 0.030903 0.005092 -0.015209
# 5 -0.002273 -0.001406 -0.021315 0.005092 0.084414 0.012340
# 6 -0.008239 0.008221 -0.005345 -0.015209 0.012340 0.048483
#
#
# Mechanical properties :
#
#
# Convention : Reuss Voigt Hill
#
# Bulk Modulus (GPa) = 41.81714 72.71450 57.26582
# Shear Modulus (GPa) = 19.35822 30.29336 24.82579
#
# Velocity S-wave (km/s) = 3.28299 4.10686 3.71782
# Velocity P-wave (km/s) = 6.13621 7.93558 7.09318
#
# Compressibility (1/GPa) = 0.02391364
#
# Stress axis : x y z
#
# Youngs Moduli (GPa) = 38.23847 79.50181 60.65886
#
# Poissons Ratio (x) = 0.71566 0.23779
# Poissons Ratio (y) = 0.34421 0.16555
# Poissons Ratio (z) = 0.14990 0.21697
#
# Static dielectric constant tensor:
#      x y z
#    x 3.175250 -0.208090 -0.197140 
#    y -0.208090 3.668820 -0.044370 
#    z -0.197140 -0.044370 5.076910 
# 
# 
# High freq. dielectric constant tensor:
#      x y z
#    x 1.617050 -0.026430 0.046970 
#    y -0.026430 1.717850 0.007780 
#    z 0.046970 0.007780 1.713750 
# 
# From -- ./inp_files/438789.got.cif
#   From: 2010.06.25/outbox.cif.g09.slc.cpg/sg2_220_cif.got.tgz:438789.got - 2010.06.27 13:26:56.
