data_PCOD8041361
_publ_section_title
;
Structure prediction by ZEFSAII (Michael W. Deem and Ramdas Pophale) SiO2 
 PCOD8041361
Probable space group: P -1
;
_chemical_formula_sum "Si O2"
_cell_formula_units_Z 16
_cell_length_a 14.195007
_cell_length_b 9.127681
_cell_length_c 11.738577
_cell_angle_alpha 75.100640
_cell_angle_beta 103.315429
_cell_angle_gamma 152.751278
_cell_volume 672.949972
_symmetry_space_group_name_H-M "P -1"
_symmetry_group_IT_number 2
_symmetry_cell_setting 'triclinic'
loop_
_space_group_symop_operation_xyz
x,y,z
-x,-y,-z
loop_
_atom_site_type_symbol
_atom_site_label
_atom_site_fract_x
_atom_site_fract_y
_atom_site_fract_z
Si Si1 0.658325 0.439884 0.687174
Si Si2 0.657735 0.329667 0.336908
Si Si3 0.711534 0.846247 0.679152
Si Si4 0.233905 0.938891 0.583247
Si Si5 0.221306 0.657231 0.411830
Si Si6 0.057617 0.228511 0.112021
Si Si7 0.056384 0.273539 0.854647
Si Si8 0.261690 0.230531 0.702813
O O1 0.742693 0.728148 0.647115
O O2 0.781914 0.514528 0.611725
O O3 0.719459 0.459361 0.825563
O O4 0.411401 0.083220 0.666543
O O5 0.731099 0.294450 0.448522
O O6 0.726527 0.389905 0.214404
O O7 0.782272 0.651181 0.348718
O O8 0.409536 0.009595 0.334194
O O9 0.497448 0.545023 0.748179
O O10 0.721032 0.990567 0.554519
O O11 0.881466 0.119858 0.766080
O O12 0.998471 0.560614 0.619066
O O13 0.248959 0.130463 0.597951
O O14 0.066756 0.341627 0.976248
O O15 0.992659 0.970880 0.111727
O O16 0.885386 0.052450 0.187985
#
# Coordination Sequence:
#
# PCOD8041361 Si02
#       8
#     2   2   2   2   2   2   2   2
#     4  10  20  35  55  83 110 141 185 224 270 325
#     4  10  21  36  53  81 113 147 179 221 274 332
#     4  10  19  32  54  89 109 138 182 232 275 319
#     4  11  20  34  58  85 112 140 180 229 276 323
#     4  11  21  36  56  81 114 150 176 218 280 328
#     4   9  18  33  57  78 103 151 182 226 270 311
#     4   9  18  34  53  78 111 142 185 224 270 319
#     4  10  19  34  56  82 113 140 182 229 271 320
#
# _framework density 23.775912000000002
#
# number of rings (size 3 to 8) (size 9 to 14) (size 15 to 20)
#    0.000    2.000    2.500    3.000    0.000    1.500 
#    2.250    3.750    0.000    0.750    0.000    0.000 
#    0.000    0.000    0.000    0.000    0.000    0.000 
#
# Total GULP energy -198279.640410 kJ/mol
# GULP energy per Si atom -12392.477526 kJ/mol
# Density = 2.372180 g / cm^3
# Si number density = 23.775912 Si / 1000 Ang^3
#
#
#
# Elastic Constant Matrix: (Units=GPa)
#
#
# Indices 1 2 3 4 5 6 
#
# 1 31.0170 31.9506 27.2911 -0.2289 -3.1098 25.3831
# 2 31.9506 153.0056 85.7451 7.1383 -1.9277 52.6992
# 3 27.2911 85.7451 191.6948 5.3963 -11.6991 28.5826
# 4 -0.2289 7.1383 5.3963 31.5075 4.9612 0.7169
# 5 -3.1098 -1.9277 -11.6991 4.9612 17.6022 -5.7981
# 6 25.3831 52.6992 28.5826 0.7169 -5.7981 47.6090
#
#
#
# Elastic Compliance Matrix: (Units=1/GPa)
#
#
# Indices 1 2 3 4 5 6 
#
# 1 0.060276 0.000016 -0.004362 0.002294 -0.002745 -0.029904
# 2 0.000016 0.013391 -0.004371 -0.001152 -0.005340 -0.012840
# 3 -0.004362 -0.004371 0.007669 -0.001257 0.005263 0.003219
# 4 0.002294 -0.001152 -0.001257 0.033896 -0.010431 -0.000974
# 5 -0.002745 -0.005340 0.005263 -0.010431 0.066278 0.012444
# 6 -0.029904 -0.012840 0.003219 -0.000974 0.012444 0.050758
#
#
# Mechanical properties :
#
#
# Convention : Reuss Voigt Hill
#
# Bulk Modulus (GPa) = 15.64891 73.96566 44.80728
# Shear Modulus (GPa) = 18.45003 34.72579 26.58791
#
# Velocity S-wave (km/s) = 2.78869 3.82585 3.34768
# Velocity P-wave (km/s) = 4.11888 7.11992 5.81629
#
# Compressibility (1/GPa) = 0.06390221
#
# Stress axis : x y z
#
# Youngs Moduli (GPa) = 16.59033 74.67862 130.39074
#
# Poissons Ratio (x) = -0.00117 0.56871
# Poissons Ratio (y) = -0.00026 0.56993
# Poissons Ratio (z) = 0.07236 0.32642
#
# Static dielectric constant tensor:
#      x y z
#    x 4.380700 0.097390 -0.273750 
#    y 0.097390 4.431780 0.136860 
#    z -0.273750 0.136860 4.297230 
# 
# 
# High freq. dielectric constant tensor:
#      x y z
#    x 1.946710 0.004550 -0.018080 
#    y 0.004550 1.949320 0.007870 
#    z -0.018080 0.007870 1.903260 
# 
# From -- ./inp_files/308811.got.cif
#   From: 2010.06.25/outbox.cif.g09.slc.cpg/sg2_155_cif.got.tgz:308811.got - 2010.06.27 13:26:56.
