data_PCOD8041343
_publ_section_title
;
Structure prediction by ZEFSAII (Michael W. Deem and Ramdas Pophale) SiO2 
 PCOD8041343
Probable space group: P -1
;
_chemical_formula_sum "Si O2"
_cell_formula_units_Z 16
_cell_length_a 15.697741
_cell_length_b 9.453084
_cell_length_c 14.360510
_cell_angle_alpha 153.646075
_cell_angle_beta 136.481254
_cell_angle_gamma 57.864304
_cell_volume 601.026735
_symmetry_space_group_name_H-M "P -1"
_symmetry_group_IT_number 2
_symmetry_cell_setting 'triclinic'
loop_
_space_group_symop_operation_xyz
x,y,z
-x,-y,-z
loop_
_atom_site_type_symbol
_atom_site_label
_atom_site_fract_x
_atom_site_fract_y
_atom_site_fract_z
Si Si1 0.189164 0.078923 0.921793
Si Si2 0.483487 0.222115 0.202328
Si Si3 0.953362 0.460815 0.689788
Si Si4 0.719067 0.883249 0.488960
Si Si5 0.197081 0.372275 0.911761
Si Si6 0.725555 0.206630 0.499299
Si Si7 0.486033 0.620112 0.273200
Si Si8 0.965514 0.802630 0.715217
O O1 0.335774 0.066319 0.037831
O O2 0.138638 0.073736 0.770226
O O3 0.188620 0.437820 0.171340
O O4 0.085782 0.783247 0.732948
O O5 0.590961 0.248088 0.381452
O O6 0.511034 0.580449 0.380553
O O7 0.500000 0.000000 0.000000
O O8 0.826687 0.177900 0.480128
O O9 0.918060 0.487975 0.568092
O O10 0.082001 0.354632 0.737579
O O11 0.983070 0.836692 0.976494
O O12 0.745690 0.253045 0.773936
O O13 0.691168 0.898032 0.365419
O O14 0.843860 0.773557 0.534929
O O15 0.595084 0.579060 0.264292
O O16 0.335298 0.351139 0.964385
O O17 0.500000 0.000000 0.500000
#
# Coordination Sequence:
#
# PCOD8041343 Si02
#       8
#     2   2   2   2   2   2   2   2
#     4   9  18  32  52  76 104 140 182 222 262 319
#     4  11  23  38  55  79 114 146 176 224 281 326
#     4   9  16  26  46  78 110 136 172 225 274 312
#     4   9  16  28  49  77 106 136 177 226 268 310
#     4   8  15  27  45  75 108 136 171 222 272 308
#     4  10  19  32  54  79 105 143 187 224 264 322
#     4   9  18  33  55  79 107 143 182 222 263 317
#     4   9  16  26  46  78 110 137 173 226 273 309
#
# _framework density 26.621110999999999
#
# number of rings (size 3 to 8) (size 9 to 14) (size 15 to 20)
#    0.000    2.750    0.000    2.625    0.000    7.000 
#    0.000    0.625    0.000    9.750    0.000    0.000 
#    0.000    0.000    0.000    0.000    0.000    0.000 
#
# Total GULP energy -198401.324641 kJ/mol
# GULP energy per Si atom -12400.082790 kJ/mol
# Density = 2.656052 g / cm^3
# Si number density = 26.621111 Si / 1000 Ang^3
#
#
#
# Elastic Constant Matrix: (Units=GPa)
#
#
# Indices 1 2 3 4 5 6 
#
# 1 220.6855 99.8255 52.1663 -22.3984 43.6786 22.2791
# 2 99.8255 209.6157 60.9618 -42.1940 40.6388 20.4632
# 3 52.1663 60.9618 74.1172 -19.8149 17.5621 19.8821
# 4 -22.3984 -42.1940 -19.8149 54.6223 -0.5403 5.9633
# 5 43.6786 40.6388 17.5621 -0.5403 52.8359 4.4865
# 6 22.2791 20.4632 19.8821 5.9633 4.4865 42.5044
#
#
#
# Elastic Compliance Matrix: (Units=1/GPa)
#
#
# Indices 1 2 3 4 5 6 
#
# 1 0.006644 -0.001597 -0.001840 0.000965 -0.003505 -0.001618
# 2 -0.001597 0.008327 -0.002939 0.004900 -0.003881 -0.002075
# 3 -0.001840 -0.002939 0.021543 0.005661 -0.002624 -0.008215
# 4 0.000965 0.004900 0.005661 0.025416 -0.005466 -0.008502
# 5 -0.003505 -0.003881 -0.002624 -0.005466 0.025369 0.003022
# 6 -0.001618 -0.002075 -0.008215 -0.008502 0.003022 0.030091
#
#
# Mechanical properties :
#
#
# Convention : Reuss Voigt Hill
#
# Bulk Modulus (GPa) = 42.08254 103.36953 72.72604
# Shear Modulus (GPa) = 36.21538 49.42349 42.81943
#
# Velocity S-wave (km/s) = 3.69236 4.31345 4.01493
# Velocity P-wave (km/s) = 5.83269 7.98260 6.99079
#
# Compressibility (1/GPa) = 0.02376282
#
# Stress axis : x y z
#
# Youngs Moduli (GPa) = 150.51786 120.08757 46.41790
#
# Poissons Ratio (x) = 0.19179 0.08540
# Poissons Ratio (y) = 0.24039 0.13642
# Poissons Ratio (z) = 0.27692 0.35293
#
# Static dielectric constant tensor:
#      x y z
#    x 5.914010 -0.213320 0.407490 
#    y -0.213320 4.966720 0.408950 
#    z 0.407490 0.408950 5.226410 
# 
# 
# High freq. dielectric constant tensor:
#      x y z
#    x 2.088270 0.001050 -0.009660 
#    y 0.001050 2.085770 0.027530 
#    z -0.009660 0.027530 2.093590 
# 
# From -- ./inp_files/208292.got.cif
#   From: 2010.06.25/outbox.cif.g09.slc.cpg/sg2_105_cif.got.tgz:208292.got - 2010.06.27 13:26:56.
