data_PCOD8041772
_publ_section_title
;
Structure prediction by ZEFSAII (Michael W. Deem and Ramdas Pophale) SiO2 
 PCOD8041772
Probable space group: P -1
;
_chemical_formula_sum "Si O2"
_cell_formula_units_Z 16
_cell_length_a 14.275536
_cell_length_b 13.775790
_cell_length_c 17.210926
_cell_angle_alpha 62.699794
_cell_angle_beta 157.586891
_cell_angle_gamma 130.968944
_cell_volume 836.871642
_symmetry_space_group_name_H-M "P -1"
_symmetry_group_IT_number 2
_symmetry_cell_setting 'triclinic'
loop_
_space_group_symop_operation_xyz
x,y,z
-x,-y,-z
loop_
_atom_site_type_symbol
_atom_site_label
_atom_site_fract_x
_atom_site_fract_y
_atom_site_fract_z
Si Si1 0.778790 0.779120 0.587459
Si Si2 0.600420 0.556380 0.404855
Si Si3 0.898977 0.462299 0.769701
Si Si4 0.822984 0.976889 0.452078
Si Si5 0.019223 0.280368 0.517796
Si Si6 0.284162 0.594090 0.748262
Si Si7 0.083312 0.689374 0.954247
Si Si8 0.642511 0.510311 0.003345
O O1 0.742173 0.699192 0.510282
O O2 0.409453 0.692780 0.369468
O O3 0.973617 0.950672 0.649158
O O4 0.993834 0.778060 0.814624
O O5 0.757692 0.493586 0.580804
O O6 0.712490 0.607469 0.384220
O O7 0.191316 0.426472 0.147681
O O8 0.101147 0.599337 0.936067
O O9 0.137828 0.443760 0.921736
O O10 0.442827 0.816871 0.220450
O O11 0.000000 0.000000 0.500000
O O12 0.847846 0.111394 0.439089
O O13 0.252349 0.352715 0.747504
O O14 0.704949 0.271287 0.278735
O O15 0.621333 0.635648 0.958594
O O16 0.000000 0.500000 0.500000
O O17 0.199194 0.506486 0.796215
#
# Coordination Sequence:
#
# PCOD8041772 Si02
#       8
#     2   2   2   2   2   2   2   2
#     4   9  20  35  48  76 114 147 187 217 249 318
#     4   9  17  35  53  77 110 144 183 223 258 305
#     4   9  17  33  57  79 104 144 188 226 259 302
#     4  12  23  33  49  80 116 154 180 205 260 326
#     4  11  21  33  53  83 114 140 174 221 268 321
#     4   9  20  37  54  82 109 129 174 233 276 323
#     4   9  21  35  52  76 114 151 179 217 257 304
#     4  10  19  33  58  84 101 137 176 228 282 305
#
# _framework density 19.118822999999999
#
# number of rings (size 3 to 8) (size 9 to 14) (size 15 to 20)
#    0.000    2.250    2.500    2.250    1.750    2.500 
#    0.000    0.000    0.000    0.750    0.000    6.125 
#    0.000    0.000    0.000    0.000    0.000    0.000 
#
# Total GULP energy -198216.349707 kJ/mol
# GULP energy per Si atom -12388.521857 kJ/mol
# Density = 1.907531 g / cm^3
# Si number density = 19.118823 Si / 1000 Ang^3
#
#
#
# Elastic Constant Matrix: (Units=GPa)
#
#
# Indices 1 2 3 4 5 6 
#
# 1 74.8523 27.6226 16.0005 -8.5395 20.6977 -9.2822
# 2 27.6226 96.2746 13.7671 -22.9787 15.5404 1.7399
# 3 16.0005 13.7671 49.9716 -9.9099 7.8428 -3.2823
# 4 -8.5395 -22.9787 -9.9099 25.9424 -6.1387 6.2439
# 5 20.6977 15.5404 7.8428 -6.1387 34.1575 -13.1353
# 6 -9.2822 1.7399 -3.2823 6.2439 -13.1353 25.9467
#
#
#
# Elastic Compliance Matrix: (Units=1/GPa)
#
#
# Indices 1 2 3 4 5 6 
#
# 1 0.017740 -0.003721 -0.003555 -0.001217 -0.007429 0.002678
# 2 -0.003721 0.015748 -0.000155 0.013357 -0.005756 -0.008535
# 3 -0.003555 -0.000155 0.022887 0.007206 -0.002203 -0.001215
# 4 -0.001217 0.013357 0.007206 0.055732 -0.002852 -0.015275
# 5 -0.007429 -0.005756 -0.002203 -0.002852 0.044297 0.020561
# 6 0.002678 -0.008535 -0.001215 -0.015275 0.020561 0.054002
#
#
# Mechanical properties :
#
#
# Convention : Reuss Voigt Hill
#
# Bulk Modulus (GPa) = 24.08865 37.31988 30.70427
# Shear Modulus (GPa) = 20.91118 28.12319 24.51718
#
# Velocity S-wave (km/s) = 3.31077 3.83948 3.58489
# Velocity P-wave (km/s) = 5.21936 6.26241 5.76453
#
# Compressibility (1/GPa) = 0.04151333
#
# Stress axis : x y z
#
# Youngs Moduli (GPa) = 56.36882 63.49875 43.69237
#
# Poissons Ratio (x) = 0.23630 0.15531
# Poissons Ratio (y) = 0.20976 0.00679
# Poissons Ratio (z) = 0.20036 0.00987
#
# Static dielectric constant tensor:
#      x y z
#    x 3.678060 -0.102960 0.117150 
#    y -0.102960 3.547710 -0.535560 
#    z 0.117150 -0.535560 3.741090 
# 
# 
# High freq. dielectric constant tensor:
#      x y z
#    x 1.741870 0.006550 -0.001830 
#    y 0.006550 1.718900 -0.043620 
#    z -0.001830 -0.043620 1.748370 
# 
# From -- ./inp_files/573968.got.cif
#   From: 2010.06.25/outbox.cif.g09.slc.cpg/sg2_287_cif.got.tgz:573968.got - 2010.06.27 13:26:56.
