data_PCOD8041869
_publ_section_title
;
Structure prediction by ZEFSAII (Michael W. Deem and Ramdas Pophale) SiO2 
 PCOD8041869
Probable space group: P -1
;
_chemical_formula_sum "Si O2"
_cell_formula_units_Z 16
_cell_length_a 17.201839
_cell_length_b 9.734023
_cell_length_c 11.792972
_cell_angle_alpha 59.783561
_cell_angle_beta 27.143961
_cell_angle_gamma 59.238790
_cell_volume 768.283466
_symmetry_space_group_name_H-M "P -1"
_symmetry_group_IT_number 2
_symmetry_cell_setting 'triclinic'
loop_
_space_group_symop_operation_xyz
x,y,z
-x,-y,-z
loop_
_atom_site_type_symbol
_atom_site_label
_atom_site_fract_x
_atom_site_fract_y
_atom_site_fract_z
Si Si1 0.249371 0.564849 0.955249
Si Si2 0.327336 0.205740 0.953635
Si Si3 0.995335 0.760522 0.808779
Si Si4 0.266343 0.182357 0.683055
Si Si5 0.419225 0.846459 0.543134
Si Si6 0.123227 0.621783 0.327078
Si Si7 0.871557 0.524610 0.388891
Si Si8 0.099244 0.050620 0.457466
O O1 0.266021 0.617505 0.044113
O O2 0.052730 0.572904 0.169873
O O3 0.353294 0.384770 0.881814
O O4 0.328149 0.689117 0.721346
O O5 0.498021 0.124964 0.698769
O O6 0.159588 0.212477 0.090857
O O7 0.286358 0.097663 0.159995
O O8 0.110000 0.588856 0.700541
O O9 0.914988 0.769182 0.035070
O O10 0.117158 0.899345 0.583346
O O11 0.431007 0.189139 0.543762
O O12 0.262114 0.314271 0.533816
O O13 0.280490 0.003755 0.686599
O O14 0.202696 0.568410 0.370199
O O15 0.000000 0.500000 0.500000
O O16 0.016535 0.799543 0.394566
O O17 0.000000 0.000000 0.500000
#
# Coordination Sequence:
#
# PCOD8041869 Si02
#       8
#     2   2   2   2   2   2   2   2
#     4  10  19  34  58  81 103 139 183 220 272 321
#     4   9  17  31  53  79 104 139 179 219 262 323
#     4   9  17  31  54  82 105 134 178 231 270 306
#     4  10  21  36  52  79 111 140 178 225 270 317
#     4  10  21  36  53  76 109 148 178 212 269 337
#     4  10  17  31  53  84 109 135 176 227 272 309
#     4  10  19  34  55  84 107 134 178 236 271 304
#     4  10  15  29  53  82 107 134 180 223 268 313
#
# _framework density 20.825647
#
# number of rings (size 3 to 8) (size 9 to 14) (size 15 to 20)
#    0.000    2.250    5.000    1.500    0.000    1.500 
#    0.000    0.625    0.000    0.750    0.000    0.000 
#    0.000    0.000    0.000    0.000    0.000    0.000 
#
# Total GULP energy -198299.739599 kJ/mol
# GULP energy per Si atom -12393.733725 kJ/mol
# Density = 2.077825 g / cm^3
# Si number density = 20.825647 Si / 1000 Ang^3
#
#
#
# Elastic Constant Matrix: (Units=GPa)
#
#
# Indices 1 2 3 4 5 6 
#
# 1 29.6202 32.2730 19.3248 9.8041 15.6331 -1.2958
# 2 32.2730 143.3032 51.5926 -7.4096 10.8437 11.6083
# 3 19.3248 51.5926 94.0608 -8.0101 26.7219 3.6715
# 4 9.8041 -7.4096 -8.0101 34.4938 6.0556 7.2515
# 5 15.6331 10.8437 26.7219 6.0556 20.8051 0.0600
# 6 -1.2958 11.6083 3.6715 7.2515 0.0600 31.3212
#
#
#
# Elastic Compliance Matrix: (Units=1/GPa)
#
#
# Indices 1 2 3 4 5 6 
#
# 1 0.092728 -0.021443 0.008068 -0.021433 -0.062671 0.015920
# 2 -0.021443 0.013987 -0.007102 0.006003 0.016217 -0.006660
# 3 0.008068 -0.007102 0.023566 0.008136 -0.034993 -0.001613
# 4 -0.021433 0.006003 0.008136 0.042946 -0.009933 -0.013989
# 5 -0.062671 0.016217 -0.034993 -0.009933 0.134547 -0.002459
# 6 0.015920 -0.006660 -0.001613 -0.013989 -0.002459 0.038487
#
#
# Mechanical properties :
#
#
# Convention : Reuss Voigt Hill
#
# Bulk Modulus (GPa) = 11.19482 52.59609 31.89546
# Shear Modulus (GPa) = 11.99063 28.24357 20.11710
#
# Velocity S-wave (km/s) = 2.40211 3.68665 3.11139
# Velocity P-wave (km/s) = 3.61672 6.59030 5.31567
#
# Compressibility (1/GPa) = 0.08932700
#
# Stress axis : x y z
#
# Youngs Moduli (GPa) = 10.78422 71.49388 42.43325
#
# Poissons Ratio (x) = 1.53308 -0.34237
# Poissons Ratio (y) = 0.23125 0.30138
# Poissons Ratio (z) = -0.08701 0.50777
#
# Static dielectric constant tensor:
#      x y z
#    x 3.542880 0.140030 0.705050 
#    y 0.140030 3.890360 -0.204840 
#    z 0.705050 -0.204840 4.307860 
# 
# 
# High freq. dielectric constant tensor:
#      x y z
#    x 1.767850 0.019650 0.033670 
#    y 0.019650 1.827100 -0.011190 
#    z 0.033670 -0.011190 1.808100 
# 
# From -- ./inp_files/243431.got.cif
#   From: 2010.06.25/outbox.cif.g09.slc.cpg/sg2_122_cif.got.tgz:243431.got - 2010.06.27 13:26:56.
