data_PCOD8041604
_publ_section_title
;
Structure prediction by ZEFSAII (Michael W. Deem and Ramdas Pophale) SiO2 
 PCOD8041604
Probable space group: P -1
;
_chemical_formula_sum "Si O2"
_cell_formula_units_Z 14
_cell_length_a 9.346121
_cell_length_b 19.365225
_cell_length_c 22.673087
_cell_angle_alpha 163.330256
_cell_angle_beta 140.472087
_cell_angle_gamma 48.227393
_cell_volume 687.190543
_symmetry_space_group_name_H-M "P -1"
_symmetry_group_IT_number 2
_symmetry_cell_setting 'triclinic'
loop_
_space_group_symop_operation_xyz
x,y,z
-x,-y,-z
loop_
_atom_site_type_symbol
_atom_site_label
_atom_site_fract_x
_atom_site_fract_y
_atom_site_fract_z
Si Si1 0.404987 0.133015 0.005244
Si Si2 0.636345 0.417646 0.424367
Si Si3 0.124058 0.585681 0.672299
Si Si4 0.695205 0.243298 0.839074
Si Si5 0.774387 0.707543 0.323722
Si Si6 0.619669 0.672461 0.376317
Si Si7 0.881387 0.761226 0.099042
O O1 0.481547 0.354156 0.262436
O O2 0.628096 0.159070 0.052279
O O3 0.192550 0.175504 0.937444
O O4 0.308701 0.840015 0.758203
O O5 0.500000 0.500000 0.500000
O O6 0.915864 0.639039 0.687900
O O7 0.211803 0.373400 0.556871
O O8 0.000000 0.500000 0.500000
O O9 0.441539 0.232011 0.724505
O O10 0.880499 0.301861 0.890301
O O11 0.642926 0.969381 0.631215
O O12 0.816409 0.474893 0.113985
O O13 0.711273 0.618183 0.297950
O O14 0.025547 0.970643 0.613409
O O15 0.333974 0.474558 0.130279
#
# Coordination Sequence:
#
# PCOD8041604 Si02
#       7
#     2   2   2   2   2   2   2
#     4   9  20  35  51  77 108 139 181 230 272 321
#     4  10  19  33  55  77 103 144 184 222 275 326
#     4   9  19  37  54  77 113 142 177 228 269 316
#     4  10  22  38  57  83 113 145 185 232 280 333
#     4  10  22  38  56  84 116 143 182 235 282 330
#     4  10  20  37  61  82 108 151 188 223 278 333
#     4  10  20  36  57  80 111 147 184 227 277 331
#
# _framework density 20.372807000000002
#
# number of rings (size 3 to 8) (size 9 to 14) (size 15 to 20)
#    0.000    2.286    0.000    3.429    0.000    6.286 
#    0.000   10.000    0.000    0.000    0.000    0.000 
#    0.000    0.000    0.000    0.000    0.000    0.000 
#
# Total GULP energy -173481.541346 kJ/mol
# GULP energy per Si atom -12391.538668 kJ/mol
# Density = 2.032644 g / cm^3
# Si number density = 20.372807 Si / 1000 Ang^3
#
#
#
# Elastic Constant Matrix: (Units=GPa)
#
#
# Indices 1 2 3 4 5 6 
#
# 1 101.9803 8.2606 57.1517 0.5823 4.6596 -1.4577
# 2 8.2606 66.0341 21.8579 -4.8362 -1.1795 12.8052
# 3 57.1517 21.8579 125.1878 -2.2922 -1.0231 -3.9660
# 4 0.5823 -4.8362 -2.2922 20.6374 0.0282 3.5171
# 5 4.6596 -1.1795 -1.0231 0.0282 33.2757 -4.8029
# 6 -1.4577 12.8052 -3.9660 3.5171 -4.8029 19.5971
#
#
#
# Elastic Compliance Matrix: (Units=1/GPa)
#
#
# Indices 1 2 3 4 5 6 
#
# 1 0.013357 0.000492 -0.006247 -0.000784 -0.002187 -0.000987
# 2 0.000492 0.019894 -0.004076 0.006828 -0.001723 -0.015435
# 3 -0.006247 -0.004076 0.011721 -0.000345 0.001824 0.005080
# 4 -0.000784 0.006828 -0.000345 0.052505 -0.001789 -0.014452
# 5 -0.002187 -0.001723 0.001824 -0.001789 0.031715 0.009426
# 6 -0.000987 -0.015435 0.005080 -0.014452 0.009426 0.066972
#
#
# Mechanical properties :
#
#
# Convention : Reuss Voigt Hill
#
# Bulk Modulus (GPa) = 39.51098 51.97140 45.74119
# Shear Modulus (GPa) = 22.29512 28.43085 25.36298
#
# Velocity S-wave (km/s) = 3.31169 3.73973 3.53220
# Velocity P-wave (km/s) = 5.83602 6.64929 6.25588
#
# Compressibility (1/GPa) = 0.02530942
#
# Stress axis : x y z
#
# Youngs Moduli (GPa) = 74.86462 50.26682 85.31441
#
# Poissons Ratio (x) = -0.02473 0.53300
# Poissons Ratio (y) = -0.03683 0.34775
# Poissons Ratio (z) = 0.46771 0.20489
#
# Static dielectric constant tensor:
#      x y z
#    x 3.950950 0.021700 0.361440 
#    y 0.021700 3.730130 -0.205130 
#    z 0.361440 -0.205130 3.897170 
# 
# 
# High freq. dielectric constant tensor:
#      x y z
#    x 1.789570 0.003050 0.024450 
#    y 0.003050 1.801610 -0.015870 
#    z 0.024450 -0.015870 1.793260 
# 
# From -- ./inp_files/337573.got.cif
#   From: 2010.06.25/outbox.cif.g09.slc.cpg/sg2_169_cif.got.tgz:337573.got - 2010.06.27 13:26:56.
