data_PCOD8041391
_publ_section_title
;
Structure prediction by ZEFSAII (Michael W. Deem and Ramdas Pophale) SiO2 
 PCOD8041391
Probable space group: P -1
;
_chemical_formula_sum "Si O2"
_cell_formula_units_Z 16
_cell_length_a 20.043338
_cell_length_b 17.029097
_cell_length_c 9.296788
_cell_angle_alpha 133.429048
_cell_angle_beta 133.249482
_cell_angle_gamma 19.371913
_cell_volume 755.487507
_symmetry_space_group_name_H-M "P -1"
_symmetry_group_IT_number 2
_symmetry_cell_setting 'triclinic'
loop_
_space_group_symop_operation_xyz
x,y,z
-x,-y,-z
loop_
_atom_site_type_symbol
_atom_site_label
_atom_site_fract_x
_atom_site_fract_y
_atom_site_fract_z
Si Si1 0.512945 0.881669 0.274426
Si Si2 0.567557 0.966936 0.213701
Si Si3 0.835373 0.865969 0.380706
Si Si4 0.221142 0.042954 0.912261
Si Si5 0.111003 0.779216 0.319216
Si Si6 0.703920 0.584096 0.441946
Si Si7 0.536845 0.596955 0.412244
Si Si8 0.445380 0.485827 0.264170
O O1 0.616029 0.809420 0.183881
O O2 0.646364 0.655840 0.278569
O O3 0.500000 0.000000 0.500000
O O4 0.284821 0.074924 0.151272
O O5 0.770459 0.824762 0.315334
O O6 0.389782 0.223947 0.351867
O O7 0.500000 0.000000 0.000000
O O8 0.054210 0.671051 0.513708
O O9 0.841428 0.841398 0.187484
O O10 0.677441 0.127100 0.509872
O O11 0.428010 0.756557 0.851597
O O12 0.040938 0.159850 0.855625
O O13 0.289813 0.552696 0.404904
O O14 0.206765 0.707097 0.212867
O O15 0.000000 0.000000 0.500000
O O16 0.613418 0.563142 0.330488
O O17 0.497304 0.508447 0.232656
O O18 0.500000 0.500000 0.500000
#
# Coordination Sequence:
#
# PCOD8041391 Si02
#       8
#     2   2   2   2   2   2   2   2
#     4  10  24  47  61  87 130 166 206 259 316 371
#     4  10  21  40  64  89 119 152 212 275 308 360
#     4  11  20  35  62  95 116 162 212 255 306 371
#     4  12  20  36  65  92 124 164 208 257 307 368
#     4  11  18  31  59 100 123 158 205 263 309 355
#     4  10  23  39  62  89 125 169 202 250 323 375
#     4  10  19  34  59  91 133 154 198 253 310 360
#     4  10  19  32  55  98 130 151 199 265 309 352
#
# _framework density 21.178377999999999
#
# number of rings (size 3 to 8) (size 9 to 14) (size 15 to 20)
#    0.000    1.500    7.500    0.000    0.000    1.000 
#    0.000    4.375    0.000    1.500    0.000    0.000 
#    0.000    0.000    0.000    0.000    0.000    0.000 
#
# Total GULP energy -198283.655766 kJ/mol
# GULP energy per Si atom -12392.728485 kJ/mol
# Density = 2.113017 g / cm^3
# Si number density = 21.178378 Si / 1000 Ang^3
#
#
#
# Elastic Constant Matrix: (Units=GPa)
#
#
# Indices 1 2 3 4 5 6 
#
# 1 206.8165 60.4585 44.4361 -24.3010 5.4631 -4.4818
# 2 60.4585 105.2807 17.2645 -23.8991 -4.5434 -16.7270
# 3 44.4361 17.2645 57.5175 -24.8362 1.3644 -5.6681
# 4 -24.3010 -23.8991 -24.8362 26.2368 0.0028 -0.4630
# 5 5.4631 -4.5434 1.3644 0.0028 31.0632 -12.5169
# 6 -4.4818 -16.7270 -5.6681 -0.4630 -12.5169 39.7194
#
#
#
# Elastic Compliance Matrix: (Units=1/GPa)
#
#
# Indices 1 2 3 4 5 6 
#
# 1 0.006939 -0.004216 -0.005404 -0.002574 -0.002660 -0.002632
# 2 -0.004216 0.016762 0.006806 0.017980 0.006897 0.009937
# 3 -0.005404 0.006806 0.035332 0.034799 0.004003 0.008966
# 4 -0.002574 0.017980 0.034799 0.085325 0.007883 0.015726
# 5 -0.002660 0.006897 0.004003 0.007883 0.039872 0.015832
# 6 -0.002632 0.009937 0.008966 0.015726 0.015832 0.035516
#
#
# Mechanical properties :
#
#
# Convention : Reuss Voigt Hill
#
# Bulk Modulus (GPa) = 18.72484 68.21479 43.46981
# Shear Modulus (GPa) = 20.56109 35.90092 28.23101
#
# Velocity S-wave (km/s) = 3.11923 4.12171 3.65500
# Velocity P-wave (km/s) = 4.67263 7.41154 6.19534
#
# Compressibility (1/GPa) = 0.05340501
#
# Stress axis : x y z
#
# Youngs Moduli (GPa) = 144.10263 59.66018 28.30257
#
# Poissons Ratio (x) = 0.25155 0.15294
# Poissons Ratio (y) = 0.60759 -0.19262
# Poissons Ratio (z) = 0.77867 -0.40603
#
# Static dielectric constant tensor:
#      x y z
#    x 5.443580 0.083120 0.194670 
#    y 0.083120 3.948660 -0.090280 
#    z 0.194670 -0.090280 3.710040 
# 
# 
# High freq. dielectric constant tensor:
#      x y z
#    x 1.862790 -0.001390 0.014700 
#    y -0.001390 1.814110 -0.005650 
#    z 0.014700 -0.005650 1.790500 
# 
# From -- ./inp_files/348899.got.cif
#   From: 2010.06.25/outbox.cif.g09.slc.cpg/sg2_175_cif.got.tgz:348899.got - 2010.06.27 13:26:56.
