data_PCOD8041441
_publ_section_title
;
Structure prediction by ZEFSAII (Michael W. Deem and Ramdas Pophale) SiO2 
 PCOD8041441
Probable space group: P -1
;
_chemical_formula_sum "Si O2"
_cell_formula_units_Z 16
_cell_length_a 14.324427
_cell_length_b 9.495060
_cell_length_c 8.724350
_cell_angle_alpha 110.617928
_cell_angle_beta 86.567013
_cell_angle_gamma 131.086434
_cell_volume 811.959997
_symmetry_space_group_name_H-M "P -1"
_symmetry_group_IT_number 2
_symmetry_cell_setting 'triclinic'
loop_
_space_group_symop_operation_xyz
x,y,z
-x,-y,-z
loop_
_atom_site_type_symbol
_atom_site_label
_atom_site_fract_x
_atom_site_fract_y
_atom_site_fract_z
Si Si1 0.067435 0.760976 0.746454
Si Si2 0.235110 0.553581 0.850439
Si Si3 0.156746 0.547006 0.544231
Si Si4 0.665469 0.821172 0.040704
Si Si5 0.394686 0.578939 0.083836
Si Si6 0.283992 0.926143 0.142191
Si Si7 0.013538 0.690819 0.062521
Si Si8 0.637770 0.168952 0.621236
O O1 0.091690 0.609523 0.671163
O O2 0.958279 0.682538 0.601385
O O3 0.203265 0.995433 0.811921
O O4 0.002790 0.730473 0.902648
O O5 0.237818 0.541728 0.660238
O O6 0.096033 0.345017 0.844566
O O7 0.343533 0.563475 0.912334
O O8 0.257481 0.749489 0.975264
O O9 0.249968 0.718666 0.471813
O O10 0.548331 0.739240 0.130998
O O11 0.664261 0.642467 0.939163
O O12 0.640621 0.879359 0.903938
O O13 0.345973 0.651704 0.233017
O O14 0.155913 0.878183 0.183238
O O15 0.354163 0.957250 0.303623
O O16 0.000000 0.500000 0.000000
O O17 0.500000 0.000000 0.500000
#
# Coordination Sequence:
#
# PCOD8041441 Si02
#       8
#     2   2   2   2   2   2   2   2
#     4  10  19  32  58  86 114 148 188 230 279 333
#     4  10  19  33  59  87 115 145 187 236 273 330
#     4  11  20  32  56  90 123 142 179 237 288 323
#     4  10  20  41  62  80 105 156 198 228 276 336
#     4  10  23  39  61  79 114 148 195 234 277 337
#     4   9  19  34  59  81 112 145 195 225 271 339
#     4   9  14  31  51  83 110 142 187 224 274 319
#     4  11  24  36  56  89 119 145 184 237 286 330
#
# _framework density 19.705404000000001
#
# number of rings (size 3 to 8) (size 9 to 14) (size 15 to 20)
#    0.000    2.000    3.750    3.000    3.500    1.000 
#    0.000    6.875    2.750    0.000    0.000    0.000 
#    0.000    0.000    0.000    0.000    0.000    0.000 
#
# Total GULP energy -198264.475948 kJ/mol
# GULP energy per Si atom -12391.529747 kJ/mol
# Density = 1.966055 g / cm^3
# Si number density = 19.705404 Si / 1000 Ang^3
#
#
#
# Elastic Constant Matrix: (Units=GPa)
#
#
# Indices 1 2 3 4 5 6 
#
# 1 59.4108 34.1937 36.8748 -0.1806 19.3099 -1.9198
# 2 34.1937 105.2245 45.7643 -1.0327 14.5241 1.3830
# 3 36.8748 45.7643 101.4613 -13.1365 37.7279 -2.8174
# 4 -0.1806 -1.0327 -13.1365 24.7552 1.7101 6.5684
# 5 19.3099 14.5241 37.7279 1.7101 34.0817 1.2705
# 6 -1.9198 1.3830 -2.8174 6.5684 1.2705 30.9069
#
#
#
# Elastic Compliance Matrix: (Units=1/GPa)
#
#
# Indices 1 2 3 4 5 6 
#
# 1 0.024905 -0.005309 -0.004275 -0.002402 -0.007077 0.002196
# 2 -0.005309 0.013233 -0.005943 -0.002640 0.004120 -0.001072
# 3 -0.004275 -0.005943 0.024403 0.014206 -0.022777 0.000142
# 4 -0.002402 -0.002640 0.014206 0.051262 -0.015477 -0.008994
# 5 -0.007077 0.004120 -0.022777 -0.015477 0.057652 -0.001781
# 6 0.002196 -0.001072 0.000142 -0.008994 -0.001781 0.034537
#
#
# Mechanical properties :
#
#
# Convention : Reuss Voigt Hill
#
# Bulk Modulus (GPa) = 31.75967 55.52916 43.64441
# Shear Modulus (GPa) = 20.19857 27.89969 24.04913
#
# Velocity S-wave (km/s) = 3.20508 3.76685 3.49726
# Velocity P-wave (km/s) = 5.46342 6.86729 6.20518
#
# Compressibility (1/GPa) = 0.03148647
#
# Stress axis : x y z
#
# Youngs Moduli (GPa) = 40.15252 75.56908 40.97848
#
# Poissons Ratio (x) = 0.40123 0.17519
# Poissons Ratio (y) = 0.21319 0.24352
# Poissons Ratio (z) = 0.17166 0.44908
#
# Static dielectric constant tensor:
#      x y z
#    x 3.723500 0.316450 0.280300 
#    y 0.316450 3.619460 -0.156100 
#    z 0.280300 -0.156100 3.582530 
# 
# 
# High freq. dielectric constant tensor:
#      x y z
#    x 1.759540 0.023680 0.025690 
#    y 0.023680 1.756140 -0.015540 
#    z 0.025690 -0.015540 1.749460 
# 
# From -- ./inp_files/218564.got.cif
#   From: 2010.06.25/outbox.cif.g09.slc.cpg/sg2_110_cif.got.tgz:218564.got - 2010.06.27 13:26:56.
