data_PCOD8041139
_publ_section_title
;
Structure prediction by ZEFSAII (Michael W. Deem and Ramdas Pophale) SiO2 
 PCOD8041139
Probable space group: P -1
;
_chemical_formula_sum "Si O2"
_cell_formula_units_Z 16
_cell_length_a 12.633608
_cell_length_b 25.435843
_cell_length_c 9.414565
_cell_angle_alpha 152.915715
_cell_angle_beta 129.050110
_cell_angle_gamma 40.645354
_cell_volume 886.583528
_symmetry_space_group_name_H-M "P -1"
_symmetry_group_IT_number 2
_symmetry_cell_setting 'triclinic'
loop_
_space_group_symop_operation_xyz
x,y,z
-x,-y,-z
loop_
_atom_site_type_symbol
_atom_site_label
_atom_site_fract_x
_atom_site_fract_y
_atom_site_fract_z
Si Si1 0.609441 0.258307 0.678583
Si Si2 0.847455 0.951615 0.161399
Si Si3 0.379507 0.704577 0.893819
Si Si4 0.765868 0.541778 0.157893
Si Si5 0.976535 0.658701 0.640924
Si Si6 0.736679 0.491241 0.697030
Si Si7 0.906379 0.009145 0.662319
Si Si8 0.876056 0.289218 0.836220
O O1 0.421795 0.351312 0.693823
O O2 0.716435 0.290849 0.748153
O O3 0.670704 0.095255 0.327108
O O4 0.631749 0.295230 0.945015
O O5 0.975901 0.934154 0.107826
O O6 0.908272 0.959072 0.385211
O O7 0.851966 0.810029 0.824378
O O8 0.568420 0.627967 0.820085
O O9 0.300241 0.624618 0.575868
O O10 0.273080 0.864497 0.130350
O O11 0.871581 0.596384 0.441494
O O12 0.784784 0.532484 0.981956
O O13 0.832181 0.390458 0.911291
O O14 0.120626 0.555962 0.407738
O O15 0.059602 0.664918 0.868898
O O16 0.983713 0.867803 0.479878
#
# Coordination Sequence:
#
# PCOD8041139 Si02
#       8
#     2   2   2   2   2   2   2   2
#     4   9  17  33  53  74  96 122 165 208 236 275
#     4   8  14  26  51  74  90 120 162 205 239 269
#     4   9  15  30  54  76  90 122 170 203 236 275
#     4  11  23  31  46  76 106 130 154 194 246 292
#     4  11  19  34  52  71 100 130 161 197 240 290
#     4  10  19  31  50  73  99 126 161 202 237 283
#     4   8  13  27  51  74  90 117 167 206 229 274
#     4  10  19  34  53  71  97 131 162 196 239 289
#
# _framework density 18.046804999999999
#
# number of rings (size 3 to 8) (size 9 to 14) (size 15 to 20)
#    0.000    2.500    2.500    2.625    0.000    0.500 
#    0.000    0.625    0.000    0.750    0.000    0.000 
#    0.000    0.000    0.000    0.000    0.000    0.000 
#
# Total GULP energy -198290.228338 kJ/mol
# GULP energy per Si atom -12393.139271 kJ/mol
# Density = 1.800573 g / cm^3
# Si number density = 18.046805 Si / 1000 Ang^3
#
#
#
# Elastic Constant Matrix: (Units=GPa)
#
#
# Indices 1 2 3 4 5 6 
#
# 1 49.8142 33.5977 31.7064 11.1888 11.2466 -14.2438
# 2 33.5977 89.9462 32.5236 32.2664 3.5118 -16.4472
# 3 31.7064 32.5236 55.0151 26.0512 -2.8074 -16.5621
# 4 11.1888 32.2664 26.0512 38.1462 -0.0902 -0.7542
# 5 11.2466 3.5118 -2.8074 -0.0902 21.0497 3.6354
# 6 -14.2438 -16.4472 -16.5621 -0.7542 3.6354 20.6334
#
#
#
# Elastic Compliance Matrix: (Units=1/GPa)
#
#
# Indices 1 2 3 4 5 6 
#
# 1 0.053439 -0.011111 -0.029122 0.013751 -0.032401 0.010869
# 2 -0.011111 0.022970 0.007594 -0.021041 0.000278 0.015917
# 3 -0.029122 0.007594 0.056414 -0.035836 0.017013 0.026925
# 4 0.013751 -0.021041 -0.035836 0.063789 -0.002599 -0.033255
# 5 -0.032401 0.000278 0.017013 -0.002599 0.070662 -0.021034
# 6 0.010869 0.015917 0.026925 -0.033255 -0.021034 0.092758
#
#
# Mechanical properties :
#
#
# Convention : Reuss Voigt Hill
#
# Bulk Modulus (GPa) = 14.80522 43.38122 29.09322
# Shear Modulus (GPa) = 11.16502 22.42905 16.79704
#
# Velocity S-wave (km/s) = 2.49001 3.52920 3.05413
# Velocity P-wave (km/s) = 4.06060 6.37945 5.34723
#
# Compressibility (1/GPa) = 0.06754375
#
# Stress axis : x y z
#
# Youngs Moduli (GPa) = 18.71286 43.53512 17.72595
#
# Poissons Ratio (x) = 0.48373 0.51622
# Poissons Ratio (y) = 0.20792 -0.13460
# Poissons Ratio (z) = 0.54496 -0.33059
#
# Static dielectric constant tensor:
#      x y z
#    x 3.004290 -0.200530 -0.029010 
#    y -0.200530 3.418980 0.412360 
#    z -0.029010 0.412360 3.402680 
# 
# 
# High freq. dielectric constant tensor:
#      x y z
#    x 1.663210 -0.018790 -0.002830 
#    y -0.018790 1.690610 0.026400 
#    z -0.002830 0.026400 1.696900 
# 
# From -- ./inp_files/176505.got.cif
#   From: 2010.06.25/outbox.cif.g09.slc.cpg/sg2_89_cif.got.tgz:176505.got - 2010.06.27 13:26:56.
