data_PCOD8041929
_publ_section_title
;
Structure prediction by ZEFSAII (Michael W. Deem and Ramdas Pophale) SiO2 
 PCOD8041929
Probable space group: P -1
;
_chemical_formula_sum "Si O2"
_cell_formula_units_Z 14
_cell_length_a 11.556857
_cell_length_b 8.235335
_cell_length_c 11.286944
_cell_angle_alpha 71.253784
_cell_angle_beta 57.828778
_cell_angle_gamma 43.809614
_cell_volume 625.838770
_symmetry_space_group_name_H-M "P -1"
_symmetry_group_IT_number 2
_symmetry_cell_setting 'triclinic'
loop_
_space_group_symop_operation_xyz
x,y,z
-x,-y,-z
loop_
_atom_site_type_symbol
_atom_site_label
_atom_site_fract_x
_atom_site_fract_y
_atom_site_fract_z
Si Si1 0.698295 0.169322 0.392977
Si Si2 0.618912 0.798750 0.361345
Si Si3 0.652287 0.690078 0.883469
Si Si4 0.046255 0.365766 0.629685
Si Si5 0.783686 0.235290 0.559886
Si Si6 0.495823 0.812723 0.183072
Si Si7 0.472792 0.296930 0.291410
O O1 0.495332 0.259570 0.508162
O O2 0.731625 0.301087 0.431522
O O3 0.651724 0.254472 0.259070
O O4 0.866250 0.893377 0.388902
O O5 0.818186 0.641884 0.355793
O O6 0.646361 0.731656 0.222435
O O7 0.490931 0.082482 0.376298
O O8 0.519311 0.709746 0.853654
O O9 0.865483 0.477658 0.779542
O O10 0.621191 0.919530 0.852723
O O11 0.607352 0.645712 0.046294
O O12 0.000000 0.500000 0.500000
O O13 0.659355 0.187562 0.689278
O O14 0.730190 0.451713 0.612528
O O15 0.000000 0.000000 0.500000
#
# Coordination Sequence:
#
# PCOD8041929 Si02
#       7
#     2   2   2   2   2   2   2
#     4  10  20  35  53  79 112 142 178 224 275 321
#     4   9  19  34  55  78 110 144 179 223 271 321
#     4  10  20  36  59  79 108 142 184 228 264 320
#     4  11  18  29  56  88 107 132 180 230 268 312
#     4  11  22  35  56  82 110 141 184 227 267 324
#     4   9  21  39  54  79 110 146 179 220 279 321
#     4  10  19  34  54  78 109 147 176 216 276 321
#
# _framework density 22.369980999999999
#
# number of rings (size 3 to 8) (size 9 to 14) (size 15 to 20)
#    0.000    2.000    0.000    6.429    0.000    3.429 
#    0.000    0.714    0.000    4.286    0.000    0.000 
#    0.000    0.000    0.000    0.000    0.000    0.000 
#
# Total GULP energy -173435.726544 kJ/mol
# GULP energy per Si atom -12388.266182 kJ/mol
# Density = 2.231907 g / cm^3
# Si number density = 22.369981 Si / 1000 Ang^3
#
#
#
# Elastic Constant Matrix: (Units=GPa)
#
#
# Indices 1 2 3 4 5 6 
#
# 1 125.9080 32.1482 61.1794 6.9106 35.3918 -16.4962
# 2 32.1482 98.4588 42.1901 12.1978 18.1920 -18.4829
# 3 61.1794 42.1901 99.5166 15.0266 24.8848 -15.1148
# 4 6.9106 12.1978 15.0266 23.4964 0.0169 4.0988
# 5 35.3918 18.1920 24.8848 0.0169 38.2782 3.3111
# 6 -16.4962 -18.4829 -15.1148 4.0988 3.3111 33.3325
#
#
#
# Elastic Compliance Matrix: (Units=1/GPa)
#
#
# Indices 1 2 3 4 5 6 
#
# 1 0.014244 0.001178 -0.005033 -0.002771 -0.011050 0.006859
# 2 0.001178 0.015029 -0.002584 -0.008144 -0.007368 0.009478
# 3 -0.005033 -0.002584 0.018350 -0.010005 -0.006587 0.006282
# 4 -0.002771 -0.008144 -0.010005 0.057290 0.014547 -0.018914
# 5 -0.011050 -0.007368 -0.006587 0.014547 0.045751 -0.018875
# 6 0.006859 0.009478 0.006282 -0.018914 -0.018875 0.045700
#
#
# Mechanical properties :
#
#
# Convention : Reuss Voigt Hill
#
# Bulk Modulus (GPa) = 28.78102 66.10209 47.44155
# Shear Modulus (GPa) = 22.64266 31.57916 27.11091
#
# Velocity S-wave (km/s) = 3.18494 3.76130 3.48506
# Velocity P-wave (km/s) = 5.13994 6.96253 6.11947
#
# Compressibility (1/GPa) = 0.03474512
#
# Stress axis : x y z
#
# Youngs Moduli (GPa) = 70.20667 66.53929 54.49598
#
# Poissons Ratio (x) = -0.07840 0.27427
# Poissons Ratio (y) = -0.08272 0.14082
# Poissons Ratio (z) = 0.35334 0.17194
#
# Static dielectric constant tensor:
#      x y z
#    x 4.544370 -0.010780 0.714140 
#    y -0.010780 4.106170 0.035740 
#    z 0.714140 0.035740 4.123420 
# 
# 
# High freq. dielectric constant tensor:
#      x y z
#    x 1.896600 0.002480 0.043840 
#    y 0.002480 1.888300 0.000320 
#    z 0.043840 0.000320 1.846600 
# 
# From -- ./inp_files/285736.got.cif
#   From: 2010.06.25/outbox.cif.g09.slc.cpg/sg2_143_cif.got.tgz:285736.got - 2010.06.27 13:26:56.
