data_PCOD8041827
_publ_section_title
;
Structure prediction by ZEFSAII (Michael W. Deem and Ramdas Pophale) SiO2 
 PCOD8041827
Probable space group: P -1
;
_chemical_formula_sum "Si O2"
_cell_formula_units_Z 16
_cell_length_a 19.589997
_cell_length_b 5.825322
_cell_length_c 8.351285
_cell_angle_alpha 89.556473
_cell_angle_beta 102.576927
_cell_angle_gamma 126.610534
_cell_volume 737.523400
_symmetry_space_group_name_H-M "P -1"
_symmetry_group_IT_number 2
_symmetry_cell_setting 'triclinic'
loop_
_space_group_symop_operation_xyz
x,y,z
-x,-y,-z
loop_
_atom_site_type_symbol
_atom_site_label
_atom_site_fract_x
_atom_site_fract_y
_atom_site_fract_z
Si Si1 0.190750 0.381498 0.595375
Si Si2 0.412713 0.428516 0.378440
Si Si3 0.660778 0.321560 0.830393
Si Si4 0.587287 0.777677 0.965733
Si Si5 0.746214 0.161706 0.629116
Si Si6 0.746213 0.823152 0.117101
Si Si7 0.902801 0.185282 0.622129
Si Si8 0.097199 0.574073 0.719328
O O1 0.251899 0.684060 0.531959
O O2 0.251900 0.323533 0.719936
O O3 0.131969 0.386059 0.703354
O O4 0.131967 0.141805 0.428619
O O5 0.500000 0.500000 0.500000
O O6 0.402295 0.682891 0.337926
O O7 0.405294 0.310563 0.202650
O O8 0.330316 0.177519 0.442585
O O9 0.725060 0.268855 0.775828
O O10 0.597707 0.073729 0.935649
O O11 0.725061 0.631396 0.949235
O O12 0.500000 0.500000 0.000000
O O13 0.669683 0.856257 0.112271
O O14 0.837437 0.202996 0.701787
O O15 0.837438 0.146754 0.135655
O O16 0.909355 0.318722 0.454681
O O17 1.000000 0.367402 0.751403
#
# Coordination Sequence:
#
# PCOD8041827 Si02
#       8
#     2   2   2   2   2   2   2   2
#     4  10  19  33  60  88 119 156 193 243 297 342
#     4  10  23  39  59  85 115 151 195 240 287 349
#     4  10  22  41  59  82 121 160 188 235 298 346
#     4  10  23  39  59  85 115 151 195 240 287 349
#     4  10  21  37  58  86 119 155 196 241 290 350
#     4  10  21  37  58  86 119 155 196 241 290 350
#     4   9  18  33  55  86 119 153 197 244 289 343
#     4   9  18  33  55  86 119 153 197 244 289 343
#
# _framework density 21.694227000000001
#
# number of rings (size 3 to 8) (size 9 to 14) (size 15 to 20)
#    0.000    2.250    0.000    1.875    0.000   11.000 
#    0.000    0.625    0.000   14.250    0.000    0.000 
#    0.000    0.000    0.000    0.000    0.000    0.000 
#
# Total GULP energy -198227.340127 kJ/mol
# GULP energy per Si atom -12389.208758 kJ/mol
# Density = 2.164485 g / cm^3
# Si number density = 21.694227 Si / 1000 Ang^3
#
#
#
# Elastic Constant Matrix: (Units=GPa)
#
#
# Indices 1 2 3 4 5 6 
#
# 1 134.2174 94.9086 49.9076 3.3258 21.1346 13.6594
# 2 94.9086 142.3257 47.7248 -7.6446 21.4490 4.8855
# 3 49.9076 47.7248 55.9245 0.2095 13.9689 7.0427
# 4 3.3258 -7.6446 0.2095 30.2104 -8.2796 1.2140
# 5 21.1346 21.4490 13.9689 -8.2796 31.5750 6.0029
# 6 13.6594 4.8855 7.0427 1.2140 6.0029 39.9713
#
#
#
# Elastic Compliance Matrix: (Units=1/GPa)
#
#
# Indices 1 2 3 4 5 6 
#
# 1 0.017065 -0.008891 -0.006440 -0.004852 -0.003241 -0.002976
# 2 -0.008891 0.014904 -0.004731 0.004328 -0.001349 0.002121
# 3 -0.006440 -0.004731 0.029290 -0.002205 -0.005735 -0.001453
# 4 -0.004852 0.004328 -0.002205 0.037950 0.011493 -0.001361
# 5 -0.003241 -0.001349 -0.005735 0.011493 0.041113 -0.004241
# 6 -0.002976 0.002121 -0.001453 -0.001361 -0.004241 0.026710
#
#
# Mechanical properties :
#
#
# Convention : Reuss Voigt Hill
#
# Bulk Modulus (GPa) = 47.31307 79.72774 63.52040
# Shear Modulus (GPa) = 23.34247 29.67978 26.51113
#
# Velocity S-wave (km/s) = 3.28377 3.70279 3.49956
# Velocity P-wave (km/s) = 6.01946 7.42370 6.75815
#
# Compressibility (1/GPa) = 0.02113581
#
# Stress axis : x y z
#
# Youngs Moduli (GPa) = 58.59812 67.09533 34.14175
#
# Poissons Ratio (x) = 0.59652 0.21987
# Poissons Ratio (y) = 0.52097 0.16154
# Poissons Ratio (z) = 0.37736 0.31745
#
# Static dielectric constant tensor:
#      x y z
#    x -7.508770 22.045230 -16.717520 
#    y 22.045230 -39.465670 32.750320 
#    z -16.717520 32.750320 -21.069200 
# 
# 
# High freq. dielectric constant tensor:
#      x y z
#    x 1.852140 -0.012060 0.009600 
#    y -0.012060 1.862720 -0.001580 
#    z 0.009600 -0.001580 1.820450 
# 
# From -- ./inp_files/76215.got.cif
#   From: 2010.06.25/outbox.cif.g09.slc.cpg/sg2_39_cif.got.tgz:76215.got - 2010.06.27 13:26:56.
