data_PCOD8041855
_publ_section_title
;
Structure prediction by ZEFSAII (Michael W. Deem and Ramdas Pophale) SiO2 
 PCOD8041855
Probable space group: P -1
;
_chemical_formula_sum "Si O2"
_cell_formula_units_Z 16
_cell_length_a 20.555925
_cell_length_b 5.069687
_cell_length_c 6.802255
_cell_angle_alpha 89.969102
_cell_angle_beta 63.419866
_cell_angle_gamma 75.212933
_cell_volume 607.641084
_symmetry_space_group_name_H-M "P -1"
_symmetry_group_IT_number 2
_symmetry_cell_setting 'triclinic'
loop_
_space_group_symop_operation_xyz
x,y,z
-x,-y,-z
loop_
_atom_site_type_symbol
_atom_site_label
_atom_site_fract_x
_atom_site_fract_y
_atom_site_fract_z
Si Si1 0.404100 0.016651 0.338114
Si Si2 0.050450 0.165259 0.050705
Si Si3 0.203685 0.798207 0.844734
Si Si4 0.835184 0.182300 0.555491
Si Si5 0.921575 0.599883 0.376949
Si Si6 0.704622 0.792850 0.181805
Si Si7 0.322023 0.852103 0.119062
Si Si8 0.550847 0.639627 0.055922
O O1 0.364768 0.197894 0.576554
O O2 0.347976 0.853550 0.312886
O O3 0.488845 0.832968 0.289557
O O4 0.411678 0.199371 0.144556
O O5 0.004586 0.372866 0.285209
O O6 0.083959 0.350250 0.853013
O O7 0.121903 0.946460 0.058554
O O8 0.000000 0.000000 0.000000
O O9 0.190983 0.816466 0.631369
O O10 0.229383 0.487718 0.889250
O O11 0.266891 0.944398 0.807989
O O12 0.860392 0.458668 0.549483
O O13 0.762677 0.186123 0.788105
O O14 0.904598 0.900951 0.501036
O O15 0.674634 0.865432 0.998381
O O16 0.380985 0.590876 0.927886
O O17 0.500000 0.500000 0.000000
#
# Coordination Sequence:
#
# PCOD8041855 Si02
#       8
#     2   2   2   2   2   2   2   2
#     4  10  22  44  69  95 132 169 219 269 319 387
#     4  10  19  33  61  95 128 162 225 268 320 389
#     4  11  23  40  61  99 131 166 218 273 322 387
#     4  11  21  37  64  91 126 169 214 263 327 382
#     4  10  20  32  58  98 119 167 218 264 324 385
#     4  12  27  41  66 100 132 172 217 269 325 384
#     4  11  25  41  68  94 132 174 215 267 326 388
#     4   9  21  42  68  98 126 173 216 264 324 384
#
# _framework density 26.331332
#
# number of rings (size 3 to 8) (size 9 to 14) (size 15 to 20)
#    0.000    1.500    3.750    2.250    7.000    0.500 
#    0.000    5.625    0.000    4.500    0.000    0.000 
#    0.000    0.000    0.000    0.000    0.000    0.000 
#
# Total GULP energy -198228.945913 kJ/mol
# GULP energy per Si atom -12389.309120 kJ/mol
# Density = 2.627140 g / cm^3
# Si number density = 26.331332 Si / 1000 Ang^3
#
#
#
# Elastic Constant Matrix: (Units=GPa)
#
#
# Indices 1 2 3 4 5 6 
#
# 1 35.0010 28.0474 18.9327 8.6994 -21.3482 -16.8891
# 2 28.0474 186.0681 52.8397 17.5614 -22.5107 -35.1344
# 3 18.9327 52.8397 102.3156 12.5444 -28.8294 -24.8695
# 4 8.6994 17.5614 12.5444 30.6650 -2.6900 -19.6135
# 5 -21.3482 -22.5107 -28.8294 -2.6900 32.4287 7.4740
# 6 -16.8891 -35.1344 -24.8695 -19.6135 7.4740 50.3342
#
#
#
# Elastic Compliance Matrix: (Units=1/GPa)
#
#
# Indices 1 2 3 4 5 6 
#
# 1 0.058436 -0.002795 0.004912 -0.005879 0.037594 0.012211
# 2 -0.002795 0.007035 -0.002329 -0.000640 0.000339 0.002522
# 3 0.004912 -0.002329 0.015446 -0.002111 0.014081 0.004741
# 4 -0.005879 -0.000640 -0.002111 0.044403 -0.005899 0.014716
# 5 0.037594 0.000339 0.014081 -0.005899 0.066075 0.007698
# 6 0.012211 0.002522 0.004741 0.014716 0.007698 0.032659
#
#
# Mechanical properties :
#
#
# Convention : Reuss Voigt Hill
#
# Bulk Modulus (GPa) = 12.42334 58.11382 35.26858
# Shear Modulus (GPa) = 19.89581 37.58991 28.74286
#
# Velocity S-wave (km/s) = 2.75179 3.78242 3.30750
# Velocity P-wave (km/s) = 3.85030 6.41824 5.29238
#
# Compressibility (1/GPa) = 0.08049365
#
# Stress axis : x y z
#
# Youngs Moduli (GPa) = 17.11262 142.15379 64.74069
#
# Poissons Ratio (x) = 0.39727 -0.31799
# Poissons Ratio (y) = 0.04782 0.15077
# Poissons Ratio (z) = -0.08405 0.33106
#
# Static dielectric constant tensor:
#      x y z
#    x 4.475200 -0.525180 -0.482580 
#    y -0.525180 5.379080 0.447940 
#    z -0.482580 0.447940 4.935720 
# 
# 
# High freq. dielectric constant tensor:
#      x y z
#    x 2.035510 -0.006820 -0.023370 
#    y -0.006820 2.073920 0.006830 
#    z -0.023370 0.006830 2.046080 
# 
# From -- ./inp_files/350996.got.cif
#   From: 2010.06.25/outbox.cif.g09.slc.cpg/sg2_176_cif.got.tgz:350996.got - 2010.06.27 13:26:56.
