data_PCOD8041653
_publ_section_title
;
Structure prediction by ZEFSAII (Michael W. Deem and Ramdas Pophale) SiO2 
 PCOD8041653
Probable space group: P -1
;
_chemical_formula_sum "Si O2"
_cell_formula_units_Z 16
_cell_length_a 19.090471
_cell_length_b 8.566380
_cell_length_c 19.788824
_cell_angle_alpha 148.643430
_cell_angle_beta 29.396435
_cell_angle_gamma 138.387260
_cell_volume 826.501921
_symmetry_space_group_name_H-M "P -1"
_symmetry_group_IT_number 2
_symmetry_cell_setting 'triclinic'
loop_
_space_group_symop_operation_xyz
x,y,z
-x,-y,-z
loop_
_atom_site_type_symbol
_atom_site_label
_atom_site_fract_x
_atom_site_fract_y
_atom_site_fract_z
Si Si1 0.479571 0.397262 0.704890
Si Si2 0.275341 0.442589 0.689432
Si Si3 0.135829 0.199529 0.315905
Si Si4 0.835982 0.124434 0.490993
Si Si5 0.570919 0.181967 0.829297
Si Si6 0.294953 0.810109 0.936317
Si Si7 0.559627 0.189949 0.415325
Si Si8 0.360503 0.070152 0.184827
O O1 0.334319 0.578051 0.877236
O O2 0.548289 0.264616 0.530890
O O3 0.615294 0.589148 0.687152
O O4 0.433109 0.172077 0.721330
O O5 0.219648 0.641555 0.873530
O O6 0.420565 0.280794 0.525498
O O7 0.301812 0.661269 0.683011
O O8 0.161797 0.173554 0.668604
O O9 0.151796 0.559902 0.442384
O O10 0.215743 0.042683 0.253028
O O11 0.969669 0.104498 0.422678
O O12 0.199633 0.077380 0.145536
O O13 0.687596 0.118866 0.652220
O O14 0.448271 0.933797 0.827365
O O15 0.645884 0.154906 0.829450
O O16 0.500000 0.500000 0.000000
O O17 0.500000 0.000000 0.000000
#
# Coordination Sequence:
#
# PCOD8041653 Si02
#       8
#     2   2   2   2   2   2   2   2
#     4   9  17  30  53  82 112 141 183 242 283 331
#     4  10  19  33  56  82 112 150 187 237 285 332
#     4  11  23  40  56  85 119 156 195 231 293 347
#     4  11  23  39  59  82 120 156 191 242 286 343
#     4  11  20  36  61  91 114 144 193 244 284 338
#     4  10  20  37  57  86 115 143 196 237 278 345
#     4   9  17  31  53  83 113 140 187 237 284 336
#     4  11  19  33  58  84 111 149 187 236 283 340
#
# _framework density 19.358696999999999
#
# number of rings (size 3 to 8) (size 9 to 14) (size 15 to 20)
#    0.000    1.750    3.750    3.750    0.000    2.000 
#    0.000    0.000    0.000    0.750    0.000    0.000 
#    0.000    0.000    0.000    0.000    0.000    0.000 
#
# Total GULP energy -198281.599424 kJ/mol
# GULP energy per Si atom -12392.599964 kJ/mol
# Density = 1.931464 g / cm^3
# Si number density = 19.358697 Si / 1000 Ang^3
#
#
#
# Elastic Constant Matrix: (Units=GPa)
#
#
# Indices 1 2 3 4 5 6 
#
# 1 102.4831 45.7696 30.5614 16.9598 -1.1619 8.0323
# 2 45.7696 95.5989 29.7131 21.4780 0.2627 1.7261
# 3 30.5614 29.7131 57.2814 10.2019 -4.2289 6.3353
# 4 16.9598 21.4780 10.2019 27.9909 0.5214 -5.7337
# 5 -1.1619 0.2627 -4.2289 0.5214 24.3913 4.0980
# 6 8.0323 1.7261 6.3353 -5.7337 4.0980 28.4878
#
#
#
# Elastic Compliance Matrix: (Units=1/GPa)
#
#
# Indices 1 2 3 4 5 6 
#
# 1 0.013918 -0.004394 -0.003878 -0.004441 0.000771 -0.003800
# 2 -0.004394 0.015705 -0.004474 -0.007769 -0.000964 -0.000143
# 3 -0.003878 -0.004474 0.023515 -0.003980 0.004929 -0.005375
# 4 -0.004441 -0.007769 -0.003980 0.048559 -0.004034 0.012962
# 5 0.000771 -0.000964 0.004929 -0.004034 0.043382 -0.008307
# 6 -0.003800 -0.000143 -0.005375 0.012962 -0.008307 0.041182
#
#
# Mechanical properties :
#
#
# Convention : Reuss Voigt Hill
#
# Bulk Modulus (GPa) = 36.17190 51.93905 44.05547
# Shear Modulus (GPa) = 22.62756 26.12862 24.37809
#
# Velocity S-wave (km/s) = 3.42256 3.67782 3.55249
# Velocity P-wave (km/s) = 5.86040 6.70248 6.29553
#
# Compressibility (1/GPa) = 0.02764577
#
# Stress axis : x y z
#
# Youngs Moduli (GPa) = 71.84882 63.67251 42.52621
#
# Poissons Ratio (x) = 0.27977 0.16493
# Poissons Ratio (y) = 0.31570 0.19026
# Poissons Ratio (z) = 0.27866 0.28487
#
# Static dielectric constant tensor:
#      x y z
#    x 4.175890 0.243620 0.193520 
#    y 0.243620 3.863260 0.427660 
#    z 0.193520 0.427660 3.499020 
# 
# 
# High freq. dielectric constant tensor:
#      x y z
#    x 1.752320 0.000700 0.010070 
#    y 0.000700 1.743460 0.029090 
#    z 0.010070 0.029090 1.737920 
# 
# From -- ./inp_files/279413.got.cif
#   From: 2010.06.25/outbox.cif.g09.slc.cpg/sg2_140_cif.got.tgz:279413.got - 2010.06.27 13:26:56.
