data_PCOD8041637
_publ_section_title
;
Structure prediction by ZEFSAII (Michael W. Deem and Ramdas Pophale) SiO2 
 PCOD8041637
Probable space group: P -1
;
_chemical_formula_sum "Si O2"
_cell_formula_units_Z 16
_cell_length_a 12.504214
_cell_length_b 10.905297
_cell_length_c 15.593981
_cell_angle_alpha 128.197807
_cell_angle_beta 26.599313
_cell_angle_gamma 120.855334
_cell_volume 743.376897
_symmetry_space_group_name_H-M "P -1"
_symmetry_group_IT_number 2
_symmetry_cell_setting 'triclinic'
loop_
_space_group_symop_operation_xyz
x,y,z
-x,-y,-z
loop_
_atom_site_type_symbol
_atom_site_label
_atom_site_fract_x
_atom_site_fract_y
_atom_site_fract_z
Si Si1 0.229033 0.448347 0.405044
Si Si2 0.574728 0.228030 0.601753
Si Si3 0.804196 0.802966 0.009222
Si Si4 0.209098 0.847479 0.854216
Si Si5 0.214646 0.098886 0.684305
Si Si6 0.409098 0.401361 0.432461
Si Si7 0.183323 0.407075 0.761883
Si Si8 0.288977 0.423481 0.164668
O O1 0.275920 0.628743 0.461751
O O2 0.328981 0.346981 0.372746
O O3 0.353424 0.375290 0.196891
O O4 0.941542 0.443925 0.607222
O O5 0.362485 0.285436 0.845544
O O6 0.461587 0.159625 0.567997
O O7 0.750202 0.080303 0.451348
O O8 0.695786 0.987145 0.165778
O O9 0.781829 0.729162 0.899675
O O10 0.084948 0.779049 0.828668
O O11 0.420880 0.734337 0.697907
O O12 0.989173 0.885704 0.092389
O O13 0.144458 0.223414 0.712376
O O14 0.175515 0.451615 0.684389
O O15 0.553396 0.552074 0.379257
O O16 0.000000 0.500000 0.000000
O O17 0.500000 0.500000 0.000000
#
# Coordination Sequence:
#
# PCOD8041637 Si02
#       8
#     2   2   2   2   2   2   2   2
#     4  11  24  41  63  94 123 169 214 264 316 375
#     4  10  19  34  59  88 127 162 209 261 304 373
#     4  10  21  38  66  93 129 166 216 261 317 370
#     4  10  21  38  62 101 131 164 201 266 326 383
#     4  10  19  33  55  90 130 167 197 249 322 380
#     4  11  24  37  62  92 134 165 204 259 329 385
#     4  11  22  36  55  88 132 169 199 246 320 389
#     4  11  24  43  66  90 122 169 222 265 306 370
#
# _framework density 21.523401
#
# number of rings (size 3 to 8) (size 9 to 14) (size 15 to 20)
#    0.000    1.500    3.750    1.500    3.500    3.000 
#    0.000    0.625    0.000    0.750    0.000    0.000 
#    0.000    0.000    0.000    0.000    0.000    0.000 
#
# Total GULP energy -198213.616550 kJ/mol
# GULP energy per Si atom -12388.351034 kJ/mol
# Density = 2.147441 g / cm^3
# Si number density = 21.523401 Si / 1000 Ang^3
#
#
#
# Elastic Constant Matrix: (Units=GPa)
#
#
# Indices 1 2 3 4 5 6 
#
# 1 149.3335 30.3586 44.3036 4.4906 25.9481 -5.0376
# 2 30.3586 72.8185 28.4409 -3.1043 0.3192 -5.1231
# 3 44.3036 28.4409 96.3135 -13.7313 13.8033 -0.1684
# 4 4.4906 -3.1043 -13.7313 36.1815 -1.2476 1.0439
# 5 25.9481 0.3192 13.8033 -1.2476 32.7919 7.0056
# 6 -5.0376 -5.1231 -0.1684 1.0439 7.0056 25.7466
#
#
#
# Elastic Compliance Matrix: (Units=1/GPa)
#
#
# Indices 1 2 3 4 5 6 
#
# 1 0.009566 -0.002672 -0.002999 -0.002897 -0.007112 0.003373
# 2 -0.002672 0.016573 -0.004097 0.000259 0.003294 0.001841
# 3 -0.002999 -0.004097 0.014190 0.005314 -0.003219 -0.000649
# 4 -0.002897 0.000259 0.005314 0.030156 0.001661 -0.002155
# 5 -0.007112 0.003294 -0.003219 0.001661 0.040011 -0.011711
# 6 0.003373 0.001841 -0.000649 -0.002155 -0.011711 0.043136
#
#
# Mechanical properties :
#
#
# Convention : Reuss Voigt Hill
#
# Bulk Modulus (GPa) = 48.09249 58.29687 53.19468
# Shear Modulus (GPa) = 27.76243 33.30149 30.53196
#
# Velocity S-wave (km/s) = 3.59537 3.93774 3.77045
# Velocity P-wave (km/s) = 6.29511 6.91510 6.61237
#
# Compressibility (1/GPa) = 0.02079327
#
# Stress axis : x y z
#
# Youngs Moduli (GPa) = 104.53620 60.33947 70.47233
#
# Poissons Ratio (x) = 0.16121 0.21137
# Poissons Ratio (y) = 0.27929 0.28871
# Poissons Ratio (z) = 0.31353 0.24720
#
# Static dielectric constant tensor:
#      x y z
#    x 3.908420 -0.165020 0.167750 
#    y -0.165020 3.929410 -0.176920 
#    z 0.167750 -0.176920 4.030250 
# 
# 
# High freq. dielectric constant tensor:
#      x y z
#    x 1.813390 -0.018390 0.019100 
#    y -0.018390 1.834570 -0.022370 
#    z 0.019100 -0.022370 1.857420 
# 
# From -- ./inp_files/519092.got.cif
#   From: 2010.06.25/outbox.cif.g09.slc.cpg/sg2_260_cif.got.tgz:519092.got - 2010.06.27 13:26:56.
