data_PCOD8041692
_publ_section_title
;
Structure prediction by ZEFSAII (Michael W. Deem and Ramdas Pophale) SiO2 
 PCOD8041692
Probable space group: P -1
;
_chemical_formula_sum "Si O2"
_cell_formula_units_Z 14
_cell_length_a 8.579719
_cell_length_b 17.016460
_cell_length_c 17.082945
_cell_angle_alpha 150.094435
_cell_angle_beta 134.977033
_cell_angle_gamma 33.952110
_cell_volume 693.803442
_symmetry_space_group_name_H-M "P -1"
_symmetry_group_IT_number 2
_symmetry_cell_setting 'triclinic'
loop_
_space_group_symop_operation_xyz
x,y,z
-x,-y,-z
loop_
_atom_site_type_symbol
_atom_site_label
_atom_site_fract_x
_atom_site_fract_y
_atom_site_fract_z
Si Si1 0.258719 0.719801 0.407269
Si Si2 0.670950 0.938019 0.107845
Si Si3 0.930198 0.814142 0.938859
Si Si4 0.245728 0.093037 0.712396
Si Si5 0.884670 0.397452 0.327585
Si Si6 0.827436 0.961475 0.771444
Si Si7 0.255512 0.728349 0.588964
O O1 0.560443 0.507480 0.322690
O O2 0.146394 0.742933 0.475158
O O3 0.041160 0.732798 0.282240
O O4 0.298796 0.884416 0.542011
O O5 0.782133 0.846299 0.154076
O O6 0.369341 0.993114 0.033591
O O7 0.629747 0.143746 0.256863
O O8 0.889559 0.772372 0.978182
O O9 0.054803 0.621570 0.761004
O O10 0.144627 0.864520 0.058320
O O11 0.499855 0.068988 0.738779
O O12 0.000000 0.500000 0.500000
O O13 0.057786 0.172437 0.225587
O O14 0.994550 0.821239 0.634604
O O15 0.500000 0.500000 0.500000
#
# Coordination Sequence:
#
# PCOD8041692 Si02
#       7
#     2   2   2   2   2   2   2
#     4  10  21  36  56  84 119 150 181 233 289 328
#     4   9  19  36  56  82 112 154 184 228 284 340
#     4  10  21  35  58  84 113 147 190 234 282 327
#     4  10  20  37  58  82 115 154 186 224 286 344
#     4  12  20  35  60  89 109 142 195 239 274 329
#     4  11  21  34  60  85 114 147 191 236 274 333
#     4  10  19  33  56  89 116 139 191 243 272 321
#
# _framework density 20.178626000000001
#
# number of rings (size 3 to 8) (size 9 to 14) (size 15 to 20)
#    0.000    1.714    4.286    1.286    0.000    0.571 
#    0.000    1.429    0.000    0.000    0.000    0.000 
#    0.000    0.000    0.000    0.000    0.000    0.000 
#
# Total GULP energy -173591.269183 kJ/mol
# GULP energy per Si atom -12399.376370 kJ/mol
# Density = 2.013270 g / cm^3
# Si number density = 20.178626 Si / 1000 Ang^3
#
#
#
# Elastic Constant Matrix: (Units=GPa)
#
#
# Indices 1 2 3 4 5 6 
#
# 1 129.9455 42.0999 58.8051 -22.4669 -25.7308 -17.1379
# 2 42.0999 95.7406 31.6481 -32.2789 -4.1754 -15.0449
# 3 58.8051 31.6481 86.5531 -18.0333 -29.6839 -8.4791
# 4 -22.4669 -32.2789 -18.0333 31.5297 1.8862 0.0063
# 5 -25.7308 -4.1754 -29.6839 1.8862 41.6713 -4.0172
# 6 -17.1379 -15.0449 -8.4791 0.0063 -4.0172 30.5693
#
#
#
# Elastic Compliance Matrix: (Units=1/GPa)
#
#
# Indices 1 2 3 4 5 6 
#
# 1 0.012932 -0.001298 -0.005264 0.004609 0.004450 0.005735
# 2 -0.001298 0.018586 -0.001572 0.017206 -0.000069 0.007971
# 3 -0.005264 -0.001572 0.021479 0.006207 0.011978 0.003806
# 4 0.004609 0.017206 0.006207 0.055696 0.007799 0.013787
# 5 0.004450 -0.000069 0.011978 0.007799 0.035930 0.010503
# 6 0.005735 0.007971 0.003806 0.013787 0.010503 0.042284
#
#
# Mechanical properties :
#
#
# Convention : Reuss Voigt Hill
#
# Bulk Modulus (GPa) = 27.22576 64.14948 45.68762
# Shear Modulus (GPa) = 23.21075 32.73312 27.97194
#
# Velocity S-wave (km/s) = 3.39523 4.03198 3.72723
# Velocity P-wave (km/s) = 5.37511 7.31681 6.41979
#
# Compressibility (1/GPa) = 0.03672992
#
# Stress axis : x y z
#
# Youngs Moduli (GPa) = 77.32552 53.80455 46.55762
#
# Poissons Ratio (x) = 0.06981 0.24506
# Poissons Ratio (y) = 0.10033 0.07321
# Poissons Ratio (z) = 0.40701 0.08460
#
# Static dielectric constant tensor:
#      x y z
#    x 3.964480 0.005800 -0.220720 
#    y 0.005800 3.452710 -0.242030 
#    z -0.220720 -0.242030 3.644700 
# 
# 
# High freq. dielectric constant tensor:
#      x y z
#    x 1.802180 -0.008650 -0.016320 
#    y -0.008650 1.752030 -0.021180 
#    z -0.016320 -0.021180 1.780710 
# 
# From -- ./inp_files/153863.got.cif
#   From: 2010.06.25/outbox.cif.g09.slc.cpg/sg2_77_cif.got.tgz:153863.got - 2010.06.27 13:26:56.
