data_PCOD8041105
_publ_section_title
;
Structure prediction by ZEFSAII (Michael W. Deem and Ramdas Pophale) SiO2 
 PCOD8041105
Probable space group: P -1
;
_chemical_formula_sum "Si O2"
_cell_formula_units_Z 14
_cell_length_a 9.207070
_cell_length_b 12.557673
_cell_length_c 11.986397
_cell_angle_alpha 111.046109
_cell_angle_beta 142.030979
_cell_angle_gamma 85.893704
_cell_volume 739.801996
_symmetry_space_group_name_H-M "P -1"
_symmetry_group_IT_number 2
_symmetry_cell_setting 'triclinic'
loop_
_space_group_symop_operation_xyz
x,y,z
-x,-y,-z
loop_
_atom_site_type_symbol
_atom_site_label
_atom_site_fract_x
_atom_site_fract_y
_atom_site_fract_z
Si Si1 0.583366 0.473135 0.659014
Si Si2 0.202245 0.461514 0.770411
Si Si3 0.072489 0.261555 0.997956
Si Si4 0.827023 0.295809 0.658268
Si Si5 0.939125 0.635475 0.585321
Si Si6 0.357919 0.117728 0.206774
Si Si7 0.940997 0.147144 0.099758
O O1 0.500000 0.500000 0.500000
O O2 0.662642 0.356263 0.653122
O O3 0.344686 0.448007 0.583978
O O4 0.811476 0.591201 0.885411
O O5 0.090870 0.361261 0.565857
O O6 0.045836 0.401122 0.763527
O O7 0.141979 0.579132 0.734318
O O8 0.500000 0.500000 0.000000
O O9 0.920254 0.219819 0.775974
O O10 0.282858 0.198967 0.099204
O O11 0.905083 0.221320 0.995581
O O12 0.654992 0.188372 0.432711
O O13 0.025156 0.772571 0.738265
O O14 0.192002 0.112988 0.217693
O O15 0.301721 0.979131 0.078734
#
# Coordination Sequence:
#
# PCOD8041105 Si02
#       7
#     2   2   2   2   2   2   2
#     4  12  17  34  60  86 111 139 190 239 289 331
#     4  11  25  39  55  85 120 156 186 224 289 351
#     4  10  19  30  53  87 117 140 179 237 286 336
#     4  12  21  35  59  85 114 152 188 237 287 334
#     4  11  21  40  60  81 119 152 185 238 284 338
#     4   9  19  37  57  86 117 142 192 237 287 332
#     4   9  18  38  58  87 112 147 188 242 284 329
#
# _framework density 18.923981999999999
#
# number of rings (size 3 to 8) (size 9 to 14) (size 15 to 20)
#    0.857    0.571    5.714    1.286    0.000    2.857 
#    0.000    0.714    0.000    1.714    0.000    0.000 
#    0.000    0.000    0.000    0.000    0.000    0.000 
#
# Total GULP energy -173456.057156 kJ/mol
# GULP energy per Si atom -12389.718368 kJ/mol
# Density = 1.888091 g / cm^3
# Si number density = 18.923982 Si / 1000 Ang^3
#
#
#
# Elastic Constant Matrix: (Units=GPa)
#
#
# Indices 1 2 3 4 5 6 
#
# 1 48.5237 16.0048 23.7516 -4.9923 -4.9730 -6.4147
# 2 16.0048 65.1077 68.8130 18.3284 -10.9959 -1.2499
# 3 23.7516 68.8130 130.0505 -3.1019 -2.6373 -2.3849
# 4 -4.9923 18.3284 -3.1019 40.8350 4.4807 -5.3319
# 5 -4.9730 -10.9959 -2.6373 4.4807 33.1619 1.8835
# 6 -6.4147 -1.2499 -2.3849 -5.3319 1.8835 20.8246
#
#
#
# Elastic Compliance Matrix: (Units=1/GPa)
#
#
# Indices 1 2 3 4 5 6 
#
# 1 0.025471 -0.009555 0.000772 0.008844 -0.001034 0.009719
# 2 -0.009555 0.074774 -0.038590 -0.042746 0.026991 -0.016261
# 3 0.000772 -0.038590 0.028362 0.022149 -0.013877 0.008096
# 4 0.008844 -0.042746 0.022149 0.050790 -0.018938 0.017412
# 5 -0.001034 0.026991 -0.013877 -0.018938 0.040907 -0.008837
# 6 0.009719 -0.016261 0.008096 0.017412 -0.008837 0.056223
#
#
# Mechanical properties :
#
#
# Convention : Reuss Voigt Hill
#
# Bulk Modulus (GPa) = 29.53218 51.20230 40.36724
# Shear Modulus (GPa) = 13.06988 27.97180 20.52084
#
# Velocity S-wave (km/s) = 2.63088 3.84880 3.29657
# Velocity P-wave (km/s) = 4.98681 6.84591 5.98894
#
# Compressibility (1/GPa) = 0.03386137
#
# Stress axis : x y z
#
# Youngs Moduli (GPa) = 39.26068 13.37371 35.25784
#
# Poissons Ratio (x) = 0.12779 -0.02723
# Poissons Ratio (y) = 0.37514 1.36060
# Poissons Ratio (z) = -0.03032 0.51609
#
# Static dielectric constant tensor:
#      x y z
#    x 3.100780 0.090830 -0.072000 
#    y 0.090830 3.196650 -0.068700 
#    z -0.072000 -0.068700 3.535630 
# 
# 
# High freq. dielectric constant tensor:
#      x y z
#    x 1.705710 0.005380 -0.004230 
#    y 0.005380 1.719330 0.001480 
#    z -0.004230 0.001480 1.741140 
# 
# From -- ./inp_files/396278.got.cif
#   From: 2010.06.25/outbox.cif.g09.slc.cpg/sg2_199_cif.got.tgz:396278.got - 2010.06.27 13:26:56.
