data_PCOD8041104
_publ_section_title
;
Structure prediction by ZEFSAII (Michael W. Deem and Ramdas Pophale) SiO2 
 PCOD8041104
Probable space group: P -1
;
_chemical_formula_sum "Si O2"
_cell_formula_units_Z 16
_cell_length_a 23.761232
_cell_length_b 18.495041
_cell_length_c 13.878591
_cell_angle_alpha 33.060698
_cell_angle_beta 34.717204
_cell_angle_gamma 13.033533
_cell_volume 749.624489
_symmetry_space_group_name_H-M "P -1"
_symmetry_group_IT_number 2
_symmetry_cell_setting 'triclinic'
loop_
_space_group_symop_operation_xyz
x,y,z
-x,-y,-z
loop_
_atom_site_type_symbol
_atom_site_label
_atom_site_fract_x
_atom_site_fract_y
_atom_site_fract_z
Si Si1 0.520013 0.609385 0.410368
Si Si2 0.864271 0.099436 0.168012
Si Si3 0.322154 0.704930 0.270096
Si Si4 0.714522 0.716246 0.226887
Si Si5 0.827607 0.628743 0.818130
Si Si6 0.925656 0.733348 0.934713
Si Si7 0.119443 0.730415 0.867935
Si Si8 0.000766 0.313272 0.452854
O O1 0.500000 0.500000 0.500000
O O2 0.680891 0.387101 0.529742
O O3 0.662544 0.538760 0.219996
O O4 0.249333 0.995983 0.390646
O O5 0.597091 0.370367 0.209101
O O6 0.810690 0.269931 0.137781
O O7 0.032184 0.770258 0.336313
O O8 0.000000 0.000000 0.000000
O O9 0.252697 0.938928 0.135264
O O10 0.127045 0.898133 0.247371
O O11 0.757774 0.613944 0.389737
O O12 0.929082 0.385716 0.228120
O O13 0.449151 0.998078 0.245492
O O14 0.741281 0.842135 0.041368
O O15 0.988081 0.563220 0.638102
O O16 0.924204 0.369664 0.926671
O O17 0.859746 0.580225 0.942830
#
# Coordination Sequence:
#
# PCOD8041104 Si02
#       8
#     2   2   2   2   2   2   2   2
#     4  11  20  35  57  89 133 159 192 235 294 366
#     4  11  25  46  65  82 113 155 208 263 302 344
#     4  10  21  37  59  90 119 154 199 247 293 360
#     4  10  19  30  53  81 127 164 184 223 283 350
#     4  10  22  35  55  88 128 156 192 229 289 361
#     4   9  19  30  51  85 124 159 190 223 277 359
#     4  11  23  38  63  89 120 164 194 239 306 357
#     4  10  23  37  56  91 120 153 197 241 290 360
#
# _framework density 21.34402
#
# number of rings (size 3 to 8) (size 9 to 14) (size 15 to 20)
#    0.000    1.750    2.500    2.250    8.750    2.500 
#    0.000    0.625    0.000   10.500    0.000    0.000 
#    0.000    0.000    0.000    0.000    0.000    0.000 
#
# Total GULP energy -198319.487595 kJ/mol
# GULP energy per Si atom -12394.967975 kJ/mol
# Density = 2.129544 g / cm^3
# Si number density = 21.344020 Si / 1000 Ang^3
#
#
#
# Elastic Constant Matrix: (Units=GPa)
#
#
# Indices 1 2 3 4 5 6 
#
# 1 52.7706 15.2628 31.1638 4.8063 -0.3297 -17.7829
# 2 15.2628 45.5411 24.8347 -4.0544 19.6913 -13.2622
# 3 31.1638 24.8347 120.5721 -3.7864 9.1675 1.6497
# 4 4.8063 -4.0544 -3.7864 28.0323 4.4445 2.0152
# 5 -0.3297 19.6913 9.1675 4.4445 32.2607 -6.8659
# 6 -17.7829 -13.2622 1.6497 2.0152 -6.8659 27.1527
#
#
#
# Elastic Compliance Matrix: (Units=1/GPa)
#
#
# Indices 1 2 3 4 5 6 
#
# 1 0.036904 -0.006803 -0.010018 -0.012875 0.014711 0.026130
# 2 -0.006803 0.039879 -0.004578 0.009238 -0.022482 0.008930
# 3 -0.010018 -0.004578 0.012382 0.004087 -0.003685 -0.010784
# 4 -0.012875 0.009238 0.004087 0.042992 -0.015241 -0.011213
# 5 0.014711 -0.022482 -0.003685 -0.015241 0.050750 0.012842
# 6 0.026130 0.008930 -0.010784 -0.011213 0.012842 0.063039
#
#
# Mechanical properties :
#
#
# Convention : Reuss Voigt Hill
#
# Bulk Modulus (GPa) = 21.56715 40.15630 30.86172
# Shear Modulus (GPa) = 16.43669 27.33063 21.88366
#
# Velocity S-wave (km/s) = 2.77805 3.58226 3.20548
# Velocity P-wave (km/s) = 4.51847 5.99707 5.30949
#
# Compressibility (1/GPa) = 0.04636682
#
# Stress axis : x y z
#
# Youngs Moduli (GPa) = 27.09765 25.07612 80.76184
#
# Poissons Ratio (x) = 0.17059 0.80903
# Poissons Ratio (y) = 0.18434 0.36976
# Poissons Ratio (z) = 0.27145 0.11481
#
# Static dielectric constant tensor:
#      x y z
#    x 3.906240 -0.344270 -0.127560 
#    y -0.344270 3.677390 -0.397790 
#    z -0.127560 -0.397790 3.947730 
# 
# 
# High freq. dielectric constant tensor:
#      x y z
#    x 1.834710 -0.033740 -0.019660 
#    y -0.033740 1.808930 -0.036940 
#    z -0.019660 -0.036940 1.826080 
# 
# From -- ./inp_files/532342.got.cif
#   From: 2010.06.25/outbox.cif.g09.slc.cpg/sg2_267_cif.got.tgz:532342.got - 2010.06.27 13:26:56.
