data_PCOD8041579
_publ_section_title
;
Structure prediction by ZEFSAII (Michael W. Deem and Ramdas Pophale) SiO2 
 PCOD8041579
Probable space group: P -1
;
_chemical_formula_sum "Si O2"
_cell_formula_units_Z 16
_cell_length_a 14.780579
_cell_length_b 5.386425
_cell_length_c 27.698813
_cell_angle_alpha 88.330145
_cell_angle_beta 29.269635
_cell_angle_gamma 68.089196
_cell_volume 757.247157
_symmetry_space_group_name_H-M "P -1"
_symmetry_group_IT_number 2
_symmetry_cell_setting 'triclinic'
loop_
_space_group_symop_operation_xyz
x,y,z
-x,-y,-z
loop_
_atom_site_type_symbol
_atom_site_label
_atom_site_fract_x
_atom_site_fract_y
_atom_site_fract_z
Si Si1 0.782971 0.475460 0.905224
Si Si2 0.486224 0.762253 0.943298
Si Si3 0.794114 0.480375 0.402249
Si Si4 0.846891 0.585021 0.698121
Si Si5 0.290836 0.261441 0.659028
Si Si6 0.659530 0.211647 0.538248
Si Si7 0.288394 0.200914 0.344438
Si Si8 0.302205 0.682250 0.377100
O O1 0.695245 0.534275 0.890346
O O2 0.098347 0.217873 0.762238
O O3 0.713062 0.282716 0.965077
O O4 0.660765 0.833841 0.986070
O O5 0.642285 0.601793 0.820970
O O6 0.846541 0.433306 0.320306
O O7 0.701700 0.303796 0.466164
O O8 0.063989 0.290646 0.305578
O O9 0.573510 0.896424 0.511928
O O10 0.710933 0.836731 0.713384
O O11 0.098367 0.202187 0.562134
O O12 0.373574 0.349013 0.666423
O O13 0.659582 0.399231 0.582634
O O14 0.435136 0.318316 0.290576
O O15 0.000000 0.500000 0.500000
O O16 0.438692 0.814624 0.298050
O O17 0.000000 0.000000 0.500000
#
# Coordination Sequence:
#
# PCOD8041579 Si02
#       8
#     2   2   2   2   2   2   2   2
#     4  10  22  42  56  79 115 153 205 235 280 324
#     4  10  23  37  61  82 108 159 195 245 278 329
#     4  10  21  35  53  84 119 151 191 230 296 348
#     4  11  21  34  57  90 118 148 194 235 298 352
#     4  10  22  37  53  82 116 160 190 241 278 353
#     4  11  22  32  58  83 121 155 186 232 297 358
#     4  10  19  33  54  81 120 147 175 237 292 352
#     4  10  19  34  51  81 117 149 180 226 291 350
#
# _framework density 21.129166000000001
#
# number of rings (size 3 to 8) (size 9 to 14) (size 15 to 20)
#    0.000    1.750    3.750    1.875    5.250    1.000 
#    0.000    0.000    0.000    0.000    0.000    5.250 
#    0.000    0.000    0.000    0.000    0.000    0.000 
#
# Total GULP energy -198298.876620 kJ/mol
# GULP energy per Si atom -12393.679789 kJ/mol
# Density = 2.108108 g / cm^3
# Si number density = 21.129166 Si / 1000 Ang^3
#
#
#
# Elastic Constant Matrix: (Units=GPa)
#
#
# Indices 1 2 3 4 5 6 
#
# 1 115.1533 31.7782 40.9244 -17.4449 -7.4003 5.0847
# 2 31.7782 104.6241 18.9083 -25.8214 -2.7210 19.2960
# 3 40.9244 18.9083 66.8104 -30.7820 -9.3021 -2.6748
# 4 -17.4449 -25.8214 -30.7820 27.6250 5.5007 -0.2390
# 5 -7.4003 -2.7210 -9.3021 5.5007 20.6036 -9.9537
# 6 5.0847 19.2960 -2.6748 -0.2390 -9.9537 32.0349
#
#
#
# Elastic Compliance Matrix: (Units=1/GPa)
#
#
# Indices 1 2 3 4 5 6 
#
# 1 0.011987 -0.003362 -0.008844 -0.005680 0.001256 -0.000268
# 2 -0.003362 0.016629 0.005519 0.020972 -0.007533 -0.011206
# 3 -0.008844 0.005519 0.039137 0.042091 0.005632 0.003412
# 4 -0.005680 0.020972 0.042091 0.101593 -0.012935 -0.011478
# 5 0.001256 -0.007533 0.005632 -0.012935 0.066201 0.025281
# 6 -0.000268 -0.011206 0.003412 -0.011478 0.025281 0.046063
#
#
# Mechanical properties :
#
#
# Convention : Reuss Voigt Hill
#
# Bulk Modulus (GPa) = 18.39009 52.20105 35.29557
# Shear Modulus (GPa) = 15.96881 29.05115 22.50998
#
# Velocity S-wave (km/s) = 2.75211 3.71203 3.26751
# Velocity P-wave (km/s) = 4.33836 6.56746 5.56565
#
# Compressibility (1/GPa) = 0.05437711
#
# Stress axis : x y z
#
# Youngs Moduli (GPa) = 83.42324 60.13717 25.55129
#
# Poissons Ratio (x) = 0.20220 0.22598
# Poissons Ratio (y) = 0.28050 -0.14101
# Poissons Ratio (z) = 0.73780 -0.33187
#
# Static dielectric constant tensor:
#      x y z
#    x 3.563460 -0.456370 -0.137440 
#    y -0.456370 3.053890 -0.261170 
#    z -0.137440 -0.261170 3.384390 
# 
# 
# High freq. dielectric constant tensor:
#      x y z
#    x 1.827170 0.011620 -0.003620 
#    y 0.011620 1.831270 -0.024780 
#    z -0.003620 -0.024780 1.768450 
# 
# From -- ./inp_files/77318.got.cif
#   From: 2010.06.25/outbox.cif.g09.slc.cpg/sg2_39_cif.got.tgz:77318.got - 2010.06.27 13:26:56.
