data_PCOD8041492
_publ_section_title
;
Structure prediction by ZEFSAII (Michael W. Deem and Ramdas Pophale) SiO2 
 PCOD8041492
Probable space group: P -1
;
_chemical_formula_sum "Si O2"
_cell_formula_units_Z 16
_cell_length_a 12.038661
_cell_length_b 15.882944
_cell_length_c 5.213196
_cell_angle_alpha 105.771930
_cell_angle_beta 84.363463
_cell_angle_gamma 60.951075
_cell_volume 806.607029
_symmetry_space_group_name_H-M "P -1"
_symmetry_group_IT_number 2
_symmetry_cell_setting 'triclinic'
loop_
_space_group_symop_operation_xyz
x,y,z
-x,-y,-z
loop_
_atom_site_type_symbol
_atom_site_label
_atom_site_fract_x
_atom_site_fract_y
_atom_site_fract_z
Si Si1 0.725699 0.385797 0.797327
Si Si2 0.841931 0.121640 0.145146
Si Si3 0.573011 0.287453 0.541318
Si Si4 0.553590 0.116484 0.669772
Si Si5 0.619023 0.942978 0.117806
Si Si6 0.624118 0.508188 0.435518
Si Si7 0.800999 0.963254 0.786943
Si Si8 0.944348 0.164594 0.651272
O O1 0.621270 0.349464 0.756215
O O2 0.718292 0.457678 0.620899
O O3 0.873871 0.285369 0.695185
O O4 0.701503 0.447790 0.114323
O O5 0.686942 0.212506 0.252073
O O6 0.892365 0.113683 0.418566
O O7 0.913020 0.152014 0.940419
O O8 0.872152 0.007013 0.984251
O O9 0.532675 0.224048 0.678101
O O10 0.438478 0.368595 0.484512
O O11 0.408454 0.138095 0.800180
O O12 0.615691 0.028329 0.369532
O O13 0.665948 0.068156 0.821956
O O14 0.759891 0.892318 0.896206
O O15 0.500000 0.000000 0.000000
O O16 0.500000 0.500000 0.500000
O O17 0.897755 0.892275 0.476490
#
# Coordination Sequence:
#
# PCOD8041492 Si02
#       8
#     2   2   2   2   2   2   2   2
#     4  10  20  34  47  77 111 139 178 219 248 314
#     4  11  22  34  48  82 113 144 183 218 247 324
#     4  10  19  33  55  77 104 147 173 216 275 314
#     4  10  20  36  54  78 108 135 182 226 267 323
#     4   9  20  37  52  75 107 134 178 232 269 311
#     4  10  19  33  51  73 106 141 176 218 265 308
#     4  11  21  33  54  75 108 151 175 217 267 314
#     4  11  23  34  52  76 113 150 185 210 256 315
#
# _framework density 19.836179000000001
#
# number of rings (size 3 to 8) (size 9 to 14) (size 15 to 20)
#    0.000    1.750    1.250    6.000    1.750    2.000 
#    0.000    0.000    0.000    0.000    0.000    1.750 
#    0.000    0.000    0.000    0.000    0.000    0.000 
#
# Total GULP energy -198243.967535 kJ/mol
# GULP energy per Si atom -12390.247971 kJ/mol
# Density = 1.979103 g / cm^3
# Si number density = 19.836179 Si / 1000 Ang^3
#
#
#
# Elastic Constant Matrix: (Units=GPa)
#
#
# Indices 1 2 3 4 5 6 
#
# 1 35.8448 24.8534 18.0630 -5.1424 -21.0517 10.2533
# 2 24.8534 109.0521 19.9435 -7.7143 -23.0540 7.4868
# 3 18.0630 19.9435 96.2640 -10.6174 -18.1083 6.9573
# 4 -5.1424 -7.7143 -10.6174 30.7845 -2.7234 -5.6179
# 5 -21.0517 -23.0540 -18.1083 -2.7234 37.2253 -7.5335
# 6 10.2533 7.4868 6.9573 -5.6179 -7.5335 19.5576
#
#
#
# Elastic Compliance Matrix: (Units=1/GPa)
#
#
# Indices 1 2 3 4 5 6 
#
# 1 0.050074 -0.005036 -0.002702 0.005628 0.021578 -0.013435
# 2 -0.005036 0.011432 -0.000390 0.002419 0.004378 0.000784
# 3 -0.002702 -0.000390 0.012271 0.004106 0.004525 0.000123
# 4 0.005628 0.002419 0.004106 0.038311 0.011527 0.010107
# 5 0.021578 0.004378 0.004525 0.011527 0.046134 0.006484
# 6 -0.013435 0.000784 0.000123 0.010107 0.006484 0.063231
#
#
# Mechanical properties :
#
#
# Convention : Reuss Voigt Hill
#
# Bulk Modulus (GPa) = 17.38461 40.76454 29.07457
# Shear Modulus (GPa) = 19.46416 29.40021 24.43218
#
# Velocity S-wave (km/s) = 3.13588 3.85405 3.51336
# Velocity P-wave (km/s) = 4.67919 6.35611 5.58099
#
# Compressibility (1/GPa) = 0.05752215
#
# Stress axis : x y z
#
# Youngs Moduli (GPa) = 19.97029 87.47575 81.49262
#
# Poissons Ratio (x) = 0.44052 0.22019
# Poissons Ratio (y) = 0.10057 0.03176
# Poissons Ratio (z) = 0.05396 0.03409
#
# Static dielectric constant tensor:
#      x y z
#    x 3.744040 -0.393600 -0.289010 
#    y -0.393600 5.079160 -0.230350 
#    z -0.289010 -0.230350 3.867150 
# 
# 
# High freq. dielectric constant tensor:
#      x y z
#    x 1.729420 -0.013400 -0.004950 
#    y -0.013400 1.760980 -0.018060 
#    z -0.004950 -0.018060 1.786360 
# 
# From -- ./inp_files/81799.got.cif
#   From: 2010.06.25/outbox.cif.g09.slc.cpg/sg2_41_cif.got.tgz:81799.got - 2010.06.27 13:26:56.
