data_PCOD8041327
_publ_section_title
;
Structure prediction by ZEFSAII (Michael W. Deem and Ramdas Pophale) SiO2 
 PCOD8041327
Probable space group: P -1
;
_chemical_formula_sum "Si O2"
_cell_formula_units_Z 16
_cell_length_a 22.008244
_cell_length_b 13.976624
_cell_length_c 9.434345
_cell_angle_alpha 39.364441
_cell_angle_beta 144.325671
_cell_angle_gamma 151.091324
_cell_volume 798.090815
_symmetry_space_group_name_H-M "P -1"
_symmetry_group_IT_number 2
_symmetry_cell_setting 'triclinic'
loop_
_space_group_symop_operation_xyz
x,y,z
-x,-y,-z
loop_
_atom_site_type_symbol
_atom_site_label
_atom_site_fract_x
_atom_site_fract_y
_atom_site_fract_z
Si Si1 0.197286 0.301540 0.602183
Si Si2 0.592304 0.365799 0.833502
Si Si3 0.561848 0.149559 0.288219
Si Si4 0.711746 0.804464 0.577978
Si Si5 0.298620 0.949004 0.174380
Si Si6 0.318774 0.200724 0.158255
Si Si7 0.120172 0.961366 0.636873
Si Si8 0.590983 0.296256 0.602516
O O1 0.268959 0.520899 0.424558
O O2 0.045920 0.202346 0.485048
O O3 0.187333 0.164822 0.618503
O O4 0.288487 0.330887 0.875382
O O5 0.689784 0.605780 0.744227
O O6 0.428439 0.243650 0.676414
O O7 0.624881 0.303361 0.824593
O O8 0.633424 0.305584 0.116263
O O9 0.686412 0.209575 0.559460
O O10 0.451674 0.145248 0.173553
O O11 0.473208 0.918907 0.331734
O O12 0.756436 0.879776 0.738804
O O13 0.835717 0.981815 0.508425
O O14 0.256931 0.009208 0.162064
O O15 0.179858 0.861616 0.930395
O O16 0.484799 0.336627 0.341609
#
# Coordination Sequence:
#
# PCOD8041327 Si02
#       8
#     2   2   2   2   2   2   2   2
#     4  10  20  34  55  80 105 145 173 217 266 313
#     4  10  19  32  53  83 110 134 172 221 272 309
#     4  10  19  32  55  78 108 141 175 216 265 306
#     4  10  19  32  55  82 108 138 166 223 273 312
#     4   9  19  35  53  80 105 140 177 216 258 315
#     4   9  20  32  54  83 110 130 173 227 268 305
#     4  10  19  36  56  76 111 139 176 216 265 318
#     4  10  19  33  52  83 108 137 179 218 257 313
#
# _framework density 20.047844000000001
#
# number of rings (size 3 to 8) (size 9 to 14) (size 15 to 20)
#    0.000    2.250    2.500    0.750    0.000    3.500 
#    0.000    0.625    0.000    0.750    0.000    0.000 
#    0.000    0.000    0.000    0.000    0.000    0.000 
#
# Total GULP energy -198342.806953 kJ/mol
# GULP energy per Si atom -12396.425435 kJ/mol
# Density = 2.000221 g / cm^3
# Si number density = 20.047844 Si / 1000 Ang^3
#
#
#
# Elastic Constant Matrix: (Units=GPa)
#
#
# Indices 1 2 3 4 5 6 
#
# 1 107.3038 26.8638 38.9392 -2.2946 -25.5708 13.6825
# 2 26.8638 50.6315 19.8123 -7.4443 -5.7756 14.8603
# 3 38.9392 19.8123 109.0434 -9.0701 -21.9541 16.0648
# 4 -2.2946 -7.4443 -9.0701 18.6491 4.7426 -3.5560
# 5 -25.5708 -5.7756 -21.9541 4.7426 36.4046 -4.7886
# 6 13.6825 14.8603 16.0648 -3.5560 -4.7886 25.7328
#
#
#
# Elastic Compliance Matrix: (Units=1/GPa)
#
#
# Indices 1 2 3 4 5 6 
#
# 1 0.013449 -0.005431 -0.002398 -0.003886 0.007425 -0.001673
# 2 -0.005431 0.027383 -0.001215 0.008177 -0.002788 -0.011556
# 3 -0.002398 -0.001215 0.012025 0.003133 0.004404 -0.004278
# 4 -0.003886 0.008177 0.003133 0.060185 -0.007069 0.002390
# 5 0.007425 -0.002788 0.004404 -0.007069 0.035900 0.000616
# 6 -0.001673 -0.011556 -0.004278 0.002390 0.000616 0.049540
#
#
# Mechanical properties :
#
#
# Convention : Reuss Voigt Hill
#
# Bulk Modulus (GPa) = 28.75945 48.68994 38.72470
# Shear Modulus (GPa) = 21.91456 28.24819 25.08138
#
# Velocity S-wave (km/s) = 3.30981 3.75779 3.54089
# Velocity P-wave (km/s) = 5.38359 6.57020 6.00627
#
# Compressibility (1/GPa) = 0.03477117
#
# Stress axis : x y z
#
# Youngs Moduli (GPa) = 74.35682 36.51866 83.15911
#
# Poissons Ratio (x) = 0.19832 0.19938
# Poissons Ratio (y) = 0.40381 0.10101
# Poissons Ratio (z) = 0.17828 0.04436
#
# Static dielectric constant tensor:
#      x y z
#    x 3.778250 -0.008810 -0.147920 
#    y -0.008810 3.027800 0.043470 
#    z -0.147920 0.043470 3.887870 
# 
# 
# High freq. dielectric constant tensor:
#      x y z
#    x 1.792080 -0.001960 -0.018260 
#    y -0.001960 1.724760 -0.003850 
#    z -0.018260 -0.003850 1.789650 
# 
# From -- ./inp_files/199702.got.cif
#   From: 2010.06.25/outbox.cif.g09.slc.cpg/sg2_100_cif.got.tgz:199702.got - 2010.06.27 13:26:56.
