data_PCOD8041186
_publ_section_title
;
Structure prediction by ZEFSAII (Michael W. Deem and Ramdas Pophale) SiO2 
 PCOD8041186
Probable space group: P -1
;
_chemical_formula_sum "Si O2"
_cell_formula_units_Z 16
_cell_length_a 25.876126
_cell_length_b 19.230991
_cell_length_c 12.475133
_cell_angle_alpha 35.456213
_cell_angle_beta 152.765940
_cell_angle_gamma 163.828184
_cell_volume 752.487396
_symmetry_space_group_name_H-M "P -1"
_symmetry_group_IT_number 2
_symmetry_cell_setting 'triclinic'
loop_
_space_group_symop_operation_xyz
x,y,z
-x,-y,-z
loop_
_atom_site_type_symbol
_atom_site_label
_atom_site_fract_x
_atom_site_fract_y
_atom_site_fract_z
Si Si1 0.127119 0.475348 0.837512
Si Si2 0.377282 0.596562 0.418156
Si Si3 0.513755 0.641117 0.401168
Si Si4 0.731072 0.197889 0.859949
Si Si5 0.150089 0.834601 0.079729
Si Si6 0.244573 0.844570 0.627882
Si Si7 0.135390 0.830287 0.672025
Si Si8 0.590338 0.317303 0.402944
O O1 0.292124 0.752708 0.791642
O O2 0.939845 0.318675 0.787475
O O3 0.975174 0.308363 0.658209
O O4 0.289572 0.511465 0.109766
O O5 0.489052 0.604337 0.531692
O O6 0.433780 0.617517 0.619940
O O7 0.498153 0.839428 0.303768
O O8 0.079738 0.318410 0.209902
O O9 0.500000 0.500000 0.500000
O O10 0.771183 0.947239 0.461047
O O11 0.716217 0.128819 0.800994
O O12 0.551555 0.144140 0.596097
O O13 0.687266 0.056842 0.048661
O O14 0.000000 0.500000 0.000000
O O15 0.363986 0.131529 0.137959
O O16 0.155133 0.764571 0.686679
O O17 0.850897 0.576110 0.499831
#
# Coordination Sequence:
#
# PCOD8041186 Si02
#       8
#     2   2   2   2   2   2   2   2
#     4  10  21  35  64  88 127 157 210 252 302 373
#     4  10  21  39  61  83 125 156 201 256 303 364
#     4  10  24  42  63  87 119 170 213 251 303 356
#     4  10  19  31  53  87 129 160 187 242 315 366
#     4  11  20  34  56  87 123 164 195 243 303 376
#     4  10  21  36  59  99 122 159 198 254 319 365
#     4  10  22  37  59  87 129 155 198 255 308 367
#     4  11  21  35  58  90 125 159 200 244 317 374
#
# _framework density 21.262813999999999
#
# number of rings (size 3 to 8) (size 9 to 14) (size 15 to 20)
#    0.000    1.750    3.750    1.875    3.500    3.500 
#    0.000    3.125    0.000    3.000    0.000    0.000 
#    0.000    0.000    0.000    0.000    0.000    0.000 
#
# Total GULP energy -198296.669194 kJ/mol
# GULP energy per Si atom -12393.541825 kJ/mol
# Density = 2.121442 g / cm^3
# Si number density = 21.262814 Si / 1000 Ang^3
#
#
#
# Elastic Constant Matrix: (Units=GPa)
#
#
# Indices 1 2 3 4 5 6 
#
# 1 156.6822 44.6189 48.3644 10.7293 -12.9092 -13.9486
# 2 44.6189 84.6008 37.2396 21.1242 5.5275 -12.9394
# 3 48.3644 37.2396 57.6092 13.9575 -6.1116 -13.8950
# 4 10.7293 21.1242 13.9575 27.9471 -6.4873 1.0719
# 5 -12.9092 5.5275 -6.1116 -6.4873 29.0411 -1.2828
# 6 -13.9486 -12.9394 -13.8950 1.0719 -1.2828 34.7120
#
#
#
# Elastic Compliance Matrix: (Units=1/GPa)
#
#
# Indices 1 2 3 4 5 6 
#
# 1 0.009293 -0.003236 -0.005883 0.002768 0.004137 0.000240
# 2 -0.003236 0.021780 -0.008302 -0.013579 -0.010208 0.003537
# 3 -0.005883 -0.008302 0.031518 -0.006454 0.004488 0.007523
# 4 0.002768 -0.013579 -0.006454 0.051670 0.013662 -0.007624
# 5 0.004137 -0.010208 0.004488 0.013662 0.042248 0.000793
# 6 0.000240 0.003537 0.007523 -0.007624 0.000793 0.033500
#
#
# Mechanical properties :
#
#
# Convention : Reuss Voigt Hill
#
# Bulk Modulus (GPa) = 36.03828 62.14867 49.09348
# Shear Modulus (GPa) = 21.35829 29.58466 25.47147
#
# Velocity S-wave (km/s) = 3.17281 3.73417 3.46487
# Velocity P-wave (km/s) = 5.51435 6.91985 6.25669
#
# Compressibility (1/GPa) = 0.02774827
#
# Stress axis : x y z
#
# Youngs Moduli (GPa) = 107.61181 45.91385 31.72742
#
# Poissons Ratio (x) = 0.14857 0.18666
# Poissons Ratio (y) = 0.34822 0.26340
# Poissons Ratio (z) = 0.63312 0.38118
#
# Static dielectric constant tensor:
#      x y z
#    x 3.929060 0.076420 -0.393980 
#    y 0.076420 3.748310 0.277650 
#    z -0.393980 0.277650 3.670370 
# 
# 
# High freq. dielectric constant tensor:
#      x y z
#    x 1.855650 0.013000 -0.025450 
#    y 0.013000 1.818760 0.040610 
#    z -0.025450 0.040610 1.788980 
# 
# From -- ./inp_files/433826.got.cif
#   From: 2010.06.25/outbox.cif.g09.slc.cpg/sg2_217_cif.got.tgz:433826.got - 2010.06.27 13:26:56.
