data_PCOD8041946
_publ_section_title
;
Structure prediction by ZEFSAII (Michael W. Deem and Ramdas Pophale) SiO2 
 PCOD8041946
Probable space group: P -1
;
_chemical_formula_sum "Si O2"
_cell_formula_units_Z 16
_cell_length_a 16.690258
_cell_length_b 19.561994
_cell_length_c 9.585520
_cell_angle_alpha 35.239308
_cell_angle_beta 150.047055
_cell_angle_gamma 150.682605
_cell_volume 740.684179
_symmetry_space_group_name_H-M "P -1"
_symmetry_group_IT_number 2
_symmetry_cell_setting 'triclinic'
loop_
_space_group_symop_operation_xyz
x,y,z
-x,-y,-z
loop_
_atom_site_type_symbol
_atom_site_label
_atom_site_fract_x
_atom_site_fract_y
_atom_site_fract_z
Si Si1 0.146269 0.155009 0.826958
Si Si2 0.586991 0.209327 0.719070
Si Si3 0.249591 0.966187 0.440941
Si Si4 0.644273 0.659993 0.902542
Si Si5 0.023150 0.554015 0.215848
Si Si6 0.800916 0.553112 0.124100
Si Si7 0.458472 0.357508 0.755762
Si Si8 0.680899 0.262015 0.081804
O O1 0.238181 0.249513 0.665556
O O2 0.912684 0.079873 0.603800
O O3 0.212410 0.248803 0.909709
O O4 0.209186 0.043350 0.126176
O O5 0.493762 0.297654 0.431483
O O6 0.809758 0.305749 0.844007
O O7 0.458597 0.069901 0.660760
O O8 0.602615 0.181698 0.949759
O O9 0.253413 0.837541 0.586834
O O10 0.500000 0.500000 0.000000
O O11 0.774916 0.673683 0.944714
O O12 0.102715 0.484667 0.549244
O O13 0.921051 0.609333 0.067845
O O14 0.868167 0.429422 0.082333
O O15 0.590260 0.407933 0.010137
O O16 0.500000 0.500000 0.500000
O O17 0.508449 0.261620 0.899921
#
# Coordination Sequence:
#
# PCOD8041946 Si02
#       8
#     2   2   2   2   2   2   2   2
#     4  10  22  41  64  90 124 166 211 251 308 373
#     4  11  22  39  58  89 123 163 209 253 310 364
#     4  10  23  42  63  86 124 173 210 247 302 385
#     4  11  18  33  64  87 117 162 202 255 305 363
#     4  10  21  36  59  87 123 156 206 265 302 355
#     4  10  19  34  54  90 121 149 196 251 316 358
#     4  11  23  39  61  96 131 156 200 270 318 360
#     4  11  24  38  61  92 123 163 207 254 316 371
#
# _framework density 21.601648000000001
#
# number of rings (size 3 to 8) (size 9 to 14) (size 15 to 20)
#    0.000    1.500    2.500    3.000    0.000    2.500 
#    0.000    4.375    0.000    0.000    0.000    0.000 
#    0.000    0.000    0.000    0.000    0.000    0.000 
#
# Total GULP energy -198254.300333 kJ/mol
# GULP energy per Si atom -12390.893771 kJ/mol
# Density = 2.155248 g / cm^3
# Si number density = 21.601648 Si / 1000 Ang^3
#
#
#
# Elastic Constant Matrix: (Units=GPa)
#
#
# Indices 1 2 3 4 5 6 
#
# 1 112.7330 31.4638 31.5278 -27.0115 23.8964 6.3309
# 2 31.4638 75.4377 24.7071 -10.9442 12.8723 16.3707
# 3 31.5278 24.7071 55.9827 -16.4121 6.3632 -2.3207
# 4 -27.0115 -10.9442 -16.4121 37.1733 -5.7152 2.3521
# 5 23.8964 12.8723 6.3632 -5.7152 31.1711 -6.0445
# 6 6.3309 16.3707 -2.3207 2.3521 -6.0445 32.1357
#
#
#
# Elastic Compliance Matrix: (Units=1/GPa)
#
#
# Indices 1 2 3 4 5 6 
#
# 1 0.014396 -0.000645 -0.004915 0.006968 -0.009489 -0.005157
# 2 -0.000645 0.020489 -0.007755 0.001625 -0.008527 -0.012593
# 3 -0.004915 -0.007755 0.025517 0.005601 0.004172 0.007137
# 4 0.006968 0.001625 0.005601 0.034957 -0.001652 -0.004665
# 5 -0.009489 -0.008527 0.004172 -0.001652 0.044637 0.015031
# 6 -0.005157 -0.012593 0.007137 -0.004665 0.015031 0.042233
#
#
# Mechanical properties :
#
#
# Convention : Reuss Voigt Hill
#
# Bulk Modulus (GPa) = 29.61206 46.61675 38.11441
# Shear Modulus (GPa) = 22.71528 30.52634 26.62081
#
# Velocity S-wave (km/s) = 3.24628 3.76327 3.51429
# Velocity P-wave (km/s) = 5.27154 6.36474 5.84376
#
# Compressibility (1/GPa) = 0.03377003
#
# Stress axis : x y z
#
# Youngs Moduli (GPa) = 69.46524 48.80727 39.18968
#
# Poissons Ratio (x) = 0.03150 0.19261
# Poissons Ratio (y) = 0.04483 0.30393
# Poissons Ratio (z) = 0.34142 0.37852
#
# Static dielectric constant tensor:
#      x y z
#    x 4.072230 0.221230 0.230710 
#    y 0.221230 3.767570 0.203560 
#    z 0.230710 0.203560 3.866500 
# 
# 
# High freq. dielectric constant tensor:
#      x y z
#    x 1.844320 -0.002020 0.019340 
#    y -0.002020 1.840780 0.008540 
#    z 0.019340 0.008540 1.847070 
# 
# From -- ./inp_files/317993.got.cif
#   From: 2010.06.25/outbox.cif.g09.slc.cpg/sg2_159_cif.got.tgz:317993.got - 2010.06.27 13:26:56.
